#------------------------------------------------------------------------------
#$Date: 2021-11-19 01:58:33 +0200 (Fri, 19 Nov 2021) $
#$Revision: 270753 $
#$URL: file:///home/coder/svn-repositories/cod/cif/7/70/88/7708871.cif $
#------------------------------------------------------------------------------
#
# This file is available in the Crystallography Open Database (COD),
# http://www.crystallography.net/
#
# All data on this site have been placed in the public domain by the
# contributors.
#
data_7708871
loop_
_publ_author_name
'Huang, Xing'
'Zhao, Zhiying'
'Wang, Yanqi'
'Zhang, Mengsi'
'He, Zhangzhen'
_publ_section_title
;
 Synthesis, structure and magnetic properties of two new spin-chain
 compounds Ca2Ni(HSeO3)2(SeO3)2 and Na2Cu(SeO3)2&#x00B7;2H2O
;
_journal_name_full               'Dalton Transactions'
_journal_paper_doi               10.1039/D1DT03058B
_journal_year                    2021
_chemical_formula_moiety         'Ca2 H2 Ni O12 Se4'
_chemical_formula_sum            'Ca2 H2 Ni O12 Se4'
_chemical_formula_weight         648.73
_space_group_crystal_system      triclinic
_space_group_IT_number           2
_space_group_name_Hall           '-P 1'
_space_group_name_H-M_alt        'P -1'
_atom_sites_solution_hydrogens   difmap
_atom_sites_solution_primary     dual
_audit_creation_date             2020-06-10
_audit_creation_method
;
Olex2 1.2
(compiled 2018.05.29 svn.r3508 for OlexSys, GUI svn.r5506)
;
_cell_angle_alpha                110.413(3)
_cell_angle_beta                 105.027(3)
_cell_angle_gamma                91.786(2)
_cell_formula_units_Z            1
_cell_length_a                   5.2858(2)
_cell_length_b                   7.0398(2)
_cell_length_c                   8.4180(3)
_cell_measurement_reflns_used    2509
_cell_measurement_temperature    293(2)
_cell_measurement_theta_max      32.9330
_cell_measurement_theta_min      2.6520
_cell_volume                     280.962(18)
_computing_cell_refinement       'CrysAlisPro 1.171.39.46c (Rigaku OD, 2018)'
_computing_data_collection       'CrysAlisPro 1.171.39.46c (Rigaku OD, 2018)'
_computing_data_reduction        'CrysAlisPro 1.171.39.46c (Rigaku OD, 2018)'
_computing_molecular_graphics    'Olex2 (Dolomanov et al., 2009)'
_computing_publication_material  'Olex2 (Dolomanov et al., 2009)'
_computing_structure_refinement  'ShelXL (Sheldrick, 2015)'
_computing_structure_solution    'ShelXT (Sheldrick, 2015)'
_diffrn_ambient_temperature      293
_diffrn_detector                 'CCD plate'
_diffrn_measured_fraction_theta_full 0.971
_diffrn_measured_fraction_theta_max 0.826
_diffrn_measurement_details
;
List of Runs (angles in degrees, time in seconds):

  # Type    Start    End  Width  t~exp~   \w     \q     \k     \f   Frames
--------------------------------------------------------------------------
  1  \w   -118.00  62.00   0.50    5.00    --  -28.00  45.00 180.00  360
  2  \w   -118.00  22.00   0.50    5.00    --  -28.00  45.00  90.00  280
  3  \w   -118.00 -38.00   0.50    5.00    --  -28.00  45.00   0.00  160
;
_diffrn_measurement_device       'abstract diffractometer'
_diffrn_measurement_device_type
'dtrek-CrysAlisPro-abstract goniometer imported rigaku-d*trek images'
_diffrn_measurement_method       '\w scans'
_diffrn_orient_matrix_type
'CrysAlisPro convention (1999,Acta A55,543-557)'
_diffrn_orient_matrix_UB_11      -0.1292324000
_diffrn_orient_matrix_UB_12      0.0275541000
_diffrn_orient_matrix_UB_13      -0.0069755000
_diffrn_orient_matrix_UB_21      0.0164638000
_diffrn_orient_matrix_UB_22      0.0500853000
_diffrn_orient_matrix_UB_23      -0.0573052000
_diffrn_orient_matrix_UB_31      -0.0518362000
_diffrn_orient_matrix_UB_32      -0.0922076000
_diffrn_orient_matrix_UB_33      -0.0740518000
_diffrn_radiation_monochromator  graphite
_diffrn_radiation_probe          x-ray
_diffrn_radiation_type           MoK\a
_diffrn_radiation_wavelength     0.71073
_diffrn_reflns_av_R_equivalents  0.0147
_diffrn_reflns_av_unetI/netI     0.0232
_diffrn_reflns_Laue_measured_fraction_full 0.971
_diffrn_reflns_Laue_measured_fraction_max 0.826
_diffrn_reflns_limit_h_max       8
_diffrn_reflns_limit_h_min       -7
_diffrn_reflns_limit_k_max       10
_diffrn_reflns_limit_k_min       -9
_diffrn_reflns_limit_l_max       12
_diffrn_reflns_limit_l_min       -12
_diffrn_reflns_number            3058
_diffrn_reflns_point_group_measured_fraction_full 0.971
_diffrn_reflns_point_group_measured_fraction_max 0.826
_diffrn_reflns_theta_full        25.242
_diffrn_reflns_theta_max         33.320
_diffrn_reflns_theta_min         2.696
_diffrn_source                   'fine-focus sealed X-ray tube'
_diffrn_source_type              'Enhance (Mo) X-ray Source'
_exptl_absorpt_coefficient_mu    15.654
_exptl_absorpt_correction_T_max  1.00000
_exptl_absorpt_correction_T_min  0.63441
_exptl_absorpt_correction_type   multi-scan
_exptl_absorpt_process_details
;
CrysAlisPro 1.171.39.46c (Rigaku Oxford Diffraction, 2018)
Empirical absorption correction using spherical harmonics,
 implemented in SCALE3 ABSPACK scaling algorithm.
;
_exptl_crystal_colour            greenish
_exptl_crystal_colour_modifier   greenish
_exptl_crystal_density_diffrn    3.834
_exptl_crystal_description       block
_exptl_crystal_F_000             302
_refine_diff_density_max         0.742
_refine_diff_density_min         -1.209
_refine_diff_density_rms         0.223
_refine_ls_extinction_method     none
_refine_ls_goodness_of_fit_ref   1.079
_refine_ls_hydrogen_treatment    refall
_refine_ls_matrix_type           full
_refine_ls_number_parameters     92
_refine_ls_number_reflns         1789
_refine_ls_number_restraints     0
_refine_ls_restrained_S_all      1.079
_refine_ls_R_factor_all          0.0281
_refine_ls_R_factor_gt           0.0256
_refine_ls_shift/su_max          0.000
_refine_ls_shift/su_mean         0.000
_refine_ls_structure_factor_coef Fsqd
_refine_ls_weighting_details
'w=1/[\s^2^(Fo^2^)+(0.0387P)^2^+0.1466P] where P=(Fo^2^+2Fc^2^)/3'
_refine_ls_weighting_scheme      calc
_refine_ls_wR_factor_gt          0.0636
_refine_ls_wR_factor_ref         0.0650
_reflns_Friedel_coverage         0.000
_reflns_number_gt                1651
_reflns_number_total             1789
_reflns_threshold_expression     'I > 2\s(I)'
_cod_data_source_file            d1dt03058b1.cif
_cod_data_source_block           ca2ni(hseo3)2(seo3)2
_cod_database_code               7708871
_shelx_shelxl_version_number     2016/6
_shelx_space_group_comment
;
The symmetry employed for this shelxl refinement is uniquely defined
by the following loop, which should always be used as a source of
symmetry information in preference to the above space-group names.
They are only intended as comments.
;
_reflns_odcompleteness_completeness 82.59
_reflns_odcompleteness_iscentric 1
_reflns_odcompleteness_theta     33.24
_olex2_refinement_description
;
;
_shelx_res_file
;
TITL ca2ni(hseo3)2(seo3)2_a.res in P-1
    ca2ni(hseo3)2(seo3)2.res
    created by SHELXL-2016/6 at 21:31:58 on 10-Jun-2020
REM Old TITL Ca2Ni(HSeO3)2(SeO3)2 in P-1
REM SHELXT solution in P-1
REM R1 0.033, Rweak 0.006, Alpha 0.047, Orientation as input
REM Formula found by SHELXT: Ca2 Ni Se4 O12
CELL 0.71073 5.2858 7.0398 8.418 110.413 105.027 91.786
ZERR 1 0.0002 0.0002 0.0003 0.003 0.003 0.002
LATT 1
SFAC Ca H Ni O Se
UNIT 2 2 1 12 4

L.S. 4 0 0
PLAN  20
TEMP 19.85
CONN 6 1.25 Ni1
list 4
fmap 2 53
acta
REM <olex2.extras>
REM <HklSrc "%.\\Ca2Ni(HSeO3)2(SeO3)2.hkl">
REM </olex2.extras>

WGHT    0.038700    0.146600
FVAR       0.83378
SE1   5   -0.070648    0.238641    0.319155    11.00000    0.00660    0.00708 =
         0.00867    0.00292    0.00145    0.00062
SE2   5    0.708565    0.189733    0.724576    11.00000    0.01135    0.00710 =
         0.00925    0.00305    0.00159    0.00138
NI1   3    0.500000    0.500000    0.500000    10.50000    0.00622    0.00813 =
         0.00720    0.00178    0.00113    0.00078
CA1   1    0.382896    0.271799    0.047147    11.00000    0.00960    0.00819 =
         0.00828    0.00245    0.00255    0.00080
O1    4    0.634983    0.371617    0.888494    11.00000    0.01875    0.01219 =
         0.01201    0.00361    0.00821    0.00422
O2    4   -0.251692    0.439484    0.333284    11.00000    0.01047    0.00893 =
         0.01199    0.00260    0.00433    0.00414
O3    4    0.195322    0.329769    0.276300    11.00000    0.00568    0.01505 =
         0.01055    0.00342    0.00253   -0.00123
O4    4    0.577079    0.235307    0.542738    11.00000    0.01752    0.01348 =
         0.00916    0.00573    0.00060    0.00241
O5    4    1.054487    0.270425    0.773915    11.00000    0.01001    0.01853 =
         0.01931    0.01111    0.00091    0.00273
O6    4   -0.251591    0.078198    0.116677    11.00000    0.01388    0.00681 =
         0.01413   -0.00128   -0.00336   -0.00064
H5    2    1.095863    0.366259    0.740030    11.00000    0.06453
HKLF 4




REM  ca2ni(hseo3)2(seo3)2_a.res in P-1
REM R1 =  0.0256 for    1651 Fo > 4sig(Fo)  and  0.0281 for all    1789 data
REM     92 parameters refined using      0 restraints

END

WGHT      0.0387      0.1466

REM Highest difference peak  0.742,  deepest hole -1.209,  1-sigma level  0.223
Q1    1   0.6608  0.2694  0.4376  11.00000  0.05    0.74
Q2    1  -0.2793  0.4836  0.4220  11.00000  0.05    0.72
Q3    1   0.1387  0.3569  0.3596  11.00000  0.05    0.70
Q4    1   0.9145  0.2391  0.8010  11.00000  0.05    0.67
Q5    1   0.7809  0.0402  0.6603  11.00000  0.05    0.63
Q6    1   0.2693  0.4969  0.3964  11.00000  0.05    0.62
Q7    1   0.5380  0.4626  0.3789  11.00000  0.05    0.60
Q8    1   0.5180  0.3965  0.8243  11.00000  0.05    0.60
Q9    1  -0.0806  0.2741  0.1241  11.00000  0.05    0.59
Q10   1  -0.3519  0.3612  0.3853  11.00000  0.05    0.59
Q11   1   0.7811  0.3014  0.6100  11.00000  0.05    0.58
Q12   1   0.6869  0.1257  0.4913  11.00000  0.05    0.57
Q13   1   0.9519  0.2826  1.0208  11.00000  0.05    0.57
Q14   1  -0.4542  0.2988  0.2989  11.00000  0.05    0.57
Q15   1   0.4933  0.0161  0.6963  11.00000  0.05    0.57
Q16   1   0.5559  0.1661  0.4395  11.00000  0.05    0.57
Q17   1   0.7126  0.0391  0.5419  11.00000  0.05    0.55
Q18   1  -0.2784  0.1362  0.2569  11.00000  0.05    0.55
Q19   1   0.3994  0.2926  0.8054  11.00000  0.05    0.55
Q20   1   0.9438  0.1167  0.9317  11.00000  0.05    0.54
;
_shelx_res_checksum              20849
_shelx_hkl_file
;
   0   0   1  563.43    7.36
   0   0  -1  585.03    7.52
   0   0   1  579.28    7.44
   0   0  -2 2271.31   21.31
   0   0  -2 2296.82   19.81
   0   0  -3 2608.38   26.02
   0   0  -3 2537.64   28.70
   0   0  -4 2047.66   29.73
   0   0  -4 2026.91   26.65
   0   0  -5 5784.26   48.97
   0   0  -5 5673.25   56.94
   0   0  -6  180.94    9.57
   0   0  -6  198.83   11.91
   0   0  -7  137.37   11.20
   0   0  -7  140.25    9.17
   0   0  -8  122.81   11.80
   0   0  -8  144.72   10.06
   0   0   9  202.84   13.58
   0   0  -9  195.37   12.30
   0   0  10   12.61    5.22
   0   0 -10   19.17    5.15
   0   0  11  172.73   15.18
   0  -1  11   69.54    9.97
   0   1 -11   40.87    7.43
   0   1 -10  785.62   26.86
   0  -1  10  805.15   28.32
   0   1  -9  165.72   12.07
   0  -1   9  144.05   10.99
   0   1  -8  403.66   17.33
   0   1  -7 5002.44   64.15
   0   1  -7 5026.38   59.01
   0   1  -6    4.48    2.52
   0   1  -6    3.95    2.53
   0   1  -5  793.61   20.53
   0   1  -5  770.39   19.90
   0   1  -4 2089.85   28.74
   0   1  -4 2013.44   28.87
   0   1  -3 2441.84   28.63
   0   1  -3 2382.08   18.18
   0   1  -3 2379.43   26.16
   0   1  -2 2017.45   22.50
   0   1  -2 2018.34   19.50
   0   1  -2 2039.29   18.25
   0  -1   1  682.18    6.60
   0   1  -1  698.61   11.27
   0  -1   1  687.91    7.91
   0   1  -1  697.36   10.44
   0  -1   1  708.54   11.30
   0  -1   0  426.62    9.14
   0   1   0  431.63    9.29
   0  -1  -1  235.33    5.43
   0  -1  -1  239.73    4.08
   0   1   1  224.02    6.87
   0   1   1  222.66    4.30
   0  -1  -1  236.36    7.10
   0  -1  -2  206.47    5.17
   0  -1  -2  221.93    7.15
   0  -1  -2  209.56    6.96
   0  -1  -3  358.35   11.00
   0  -1  -3  353.58    8.35
   0  -1  -4 2763.41   36.00
   0  -1  -4 2725.08   27.29
   0  -1  -5 1250.32   20.70
   0  -1  -5 1153.15   26.42
   0  -1  -6 1336.12   31.18
   0  -1  -6 1187.03   22.44
   0  -1  -7  599.50   23.62
   0  -1  -7  627.30   17.78
   0  -1  -8   55.69    6.06
   0  -1  -8   45.08    7.84
   0  -1  -9  224.75   13.04
   0   1   9  231.81   15.32
   0   1  10 1166.45   36.62
   0   2 -12    5.86    5.13
   0  -2  11   30.27    6.94
   0   2 -11   35.39    7.26
   0  -2  10  858.38   27.95
   0   2 -10  840.87   29.47
   0   2  -9   18.45    5.27
   0  -2   9   14.06    3.88
   0   2  -8  163.50   12.09
   0  -2   8  169.59   10.65
   0   2  -7  673.32   22.63
   0   2  -6  356.97   15.63
   0   2  -6  330.86   14.70
   0   2  -5   12.61    2.71
   0   2  -5    6.60    2.81
   0   2  -4 2285.28   34.38
   0   2  -4 2308.62   29.95
   0  -2   3 1556.66   17.30
   0   2  -3 1565.10   25.44
   0  -2   2 8932.98   32.56
   0   2  -2 8871.20   53.83
   0   2  -1 1540.49    9.63
   0  -2   1 1438.32   23.69
   0   2  -1 1418.33   18.53
   0  -2   1 1505.69    9.24
   0   2   0 9694.45   23.58
   0  -2   0 9681.91   63.06
   0  -2  -1  298.84    6.78
   0  -2  -1  315.99   11.56
   0  -2  -2  978.10   11.67
   0  -2  -2 1007.16   16.20
   0  -2  -2  970.94   20.46
   0  -2  -3 8776.77   56.55
   0  -2  -3 8699.27   40.47
   0  -2  -4   14.70    3.24
   0  -2  -4   14.65    2.04
   0  -2  -5 2209.03   26.49
   0  -2  -5 2269.42   38.51
   0  -2  -6   13.40    3.87
   0  -2  -6    5.00    1.99
   0  -2  -7  547.31   23.14
   0  -2  -7  531.64   16.11
   0  -2  -8 2276.41   35.86
   0  -2  -8 2318.77   52.29
   0   2   9   35.40    7.11
   0   2  10   35.83    7.61
   0   3 -12  136.17   13.83
   0  -3  12  148.59   13.85
   0  -3  11   22.29    5.81
   0   3 -11   16.06    6.35
   0   3 -10 1231.98   37.97
   0  -3   9 1176.66   29.48
   0   3  -9 1229.54   36.15
   0  -3   8   58.36    6.23
   0   3  -8   64.63    8.53
   0  -3   7 2614.60   36.70
   0   3  -7 2435.23   45.67
   0  -3   6  473.27   14.09
   0   3  -6  436.22   18.92
   0  -3   5 2832.05   30.55
   0   3  -5 2884.07   45.65
   0   3  -4 7101.34   64.51
   0  -3   4 7066.97   42.87
   0   3  -3  604.31   17.21
   0  -3   3  602.79   10.46
   0   3  -2  934.55   19.46
   0  -3   2  934.12   10.04
   0   3  -1 1481.59   21.94
   0   3  -1 1492.29    9.81
   0  -3   1 1453.48   29.04
   0  -3   1 1500.57    9.02
   0  -3   0 1793.28   13.25
   0  -3   0 1843.46   32.96
   0   3   0 1794.11   12.23
   0  -3  -1 2534.57   21.74
   0  -3  -1 2452.55   39.02
   0  -3  -2  133.09    6.36
   0  -3  -3   92.89    6.36
   0  -3  -3   88.29    4.34
   0  -3  -4   54.19    5.73
   0  -3  -4   59.99    4.12
   0  -3  -5  338.28   15.40
   0  -3  -5  311.29   10.17
   0  -3  -6    8.42    3.93
   0  -3  -6    6.82    2.12
   0  -3  -7  432.49   21.43
   0   3   8  106.76   10.77
   0   3   9    8.52    5.33
   0   4 -12  505.99   27.15
   0  -4  12  530.94   24.83
   0   4 -11  521.48   27.15
   0  -4  11  550.69   23.47
   0   4 -10  649.92   29.14
   0  -4  10  611.84   22.20
   0   4  -9  102.56   11.43
   0  -4   9   94.02    8.29
   0   4  -8  134.95   12.27
   0  -4   8  112.81    8.30
   0   4  -7  971.96   31.13
   0  -4   7 1155.14   23.68
   0  -4   6  146.58    7.69
   0   4  -6  159.84   12.41
   0  -4   5  171.03    7.60
   0   4  -5  132.10   10.60
   0   4  -4 2191.86   38.37
   0  -4   4 2203.81   22.91
   0  -4   3   72.79    3.47
   0   4  -3   74.77    6.79
   0   4  -2  201.29    9.96
   0  -4   2  215.54    4.28
   0   4  -1   20.53    1.31
   0   4  -1   23.92    3.38
   0  -4   1   20.78    1.23
   0  -4   0 4541.12   24.19
   0  -4  -1 2867.32   25.52
   0  -4  -2   27.36    3.23
   0  -4  -3 1501.99   26.62
   0  -4  -4   18.44    4.23
   0  -4  -5 2845.20   46.62
   0  -4  -6 1506.98   37.71
   0   5 -12  112.25   14.61
   0  -5  12  122.83   12.20
   0   5 -11  454.90   26.48
   0  -5  11  442.76   20.73
   0   5 -10  299.16   21.04
   0  -5  10  280.61   14.97
   0  -5   9  146.15   10.11
   0   5  -9  129.72   13.50
   0   5  -8   16.50    5.62
   0  -5   8   13.26    3.52
   0  -5   7 4123.54   44.34
   0   5  -7 4035.04   67.75
   0  -5   6  610.71   15.43
   0   5  -6  608.07   25.14
   0   5  -5 1037.59   30.28
   0  -5   5  974.09   16.42
   0  -5   4 3529.37   27.24
   0   5  -4 3522.02   52.32
   0   5  -3 1202.82   28.71
   0  -5   3 1198.09   12.34
   0  -5   2 4310.65   16.77
   0   5  -2 4371.73   50.39
   0   5  -1 1031.97   23.23
   0   5  -1  993.95    8.76
   0  -5   1 1019.64    9.05
   0  -5   0  297.83    6.93
   0   5   0  276.74   10.97
   0  -5  -1 2333.83   24.73
   0  -5  -2 1069.48   20.17
   0  -5  -3  718.07   19.07
   0  -5  -4 1402.59   31.09
   0  -5  -5   35.34    6.39
   0  -6  12  184.01   14.24
   0   6 -11  541.12   29.86
   0  -6  11  481.37   20.83
   0  -6  10  795.30   24.45
   0  -6   9 2230.78   37.87
   0   6  -9 2145.43   54.47
   0   6  -8  221.10   17.62
   0  -6   8  233.49   11.40
   0  -6   7  367.85   12.43
   0   6  -7  389.25   22.07
   0   6  -6  147.20   13.30
   0  -6   6  191.75    8.40
   0  -6   5  945.49   15.75
   0   6  -5  951.37   31.15
   0  -6   4  246.63    6.40
   0   6  -4  262.69   15.47
   0   6  -3  652.02   22.81
   0   6  -2   46.11    5.89
   0   6  -1  802.16   22.69
   0   6   0  173.00   10.52
   0   6   1   28.19    4.36
   0   7 -11   25.96    9.37
   0   7 -10  327.12   23.62
   0   7  -9  100.16   13.54
   0   7  -8  758.58   33.76
   0   7  -7  843.20   34.07
   0   7  -6   63.90    9.69
   0   7  -5  831.92   30.41
   0   7  -4 2681.71   51.19
   0   7  -3  526.55   21.92
   0   7  -2 1019.15   29.10
   0   7  -1  215.17   12.98
   0   8 -10   10.20    6.84
   0   8  -9  897.43   39.33
   0   8  -8   28.59    8.73
   0   8  -7  729.40   33.13
   0   8  -6 1753.46   48.45
   0   8  -5  166.86   14.70
   0   8  -4  179.25   14.37
   0   8  -3   84.90   10.00
   0   9  -9  188.77   19.35
   0   9  -8    4.62    6.09
   0   9  -7  339.68   23.79
   0   9  -6   29.92    8.11
   0   9  -5   20.04    7.07
   0  10  -8  389.49   27.24
   0  10  -7    8.08    6.92
  -1   9  -6   88.92   12.08
  -1   9  -7  707.36   31.24
  -1   9  -8   21.65    8.02
  -1   9  -9 1196.75   45.77
  -1   8  -4   18.90    5.80
  -1   8  -5   39.48    7.80
  -1   8  -6  206.11   16.48
  -1   8  -7   70.13   10.58
  -1   8  -8   12.46    5.87
  -1   8  -9   74.91   12.48
  -1   8 -10  457.51   28.06
  -1   7  -2  748.39   23.08
  -1   7  -3 2345.06   44.08
  -1   7  -4  461.40   21.00
  -1   7  -5  679.28   26.90
  -1   7  -6  252.92   17.53
  -1   7  -7 1667.71   44.61
  -1   7  -8 1009.14   37.15
  -1   7  -9  852.62   35.75
  -1   7 -10  154.44   16.69
   1  -6  -1  961.32   17.90
   1  -6   0 4164.79   31.89
  -1   6   0 4211.18   43.33
  -1   6  -1   54.95    5.72
   1  -6   1   62.01    3.71
   1  -6   2 2240.98   21.20
  -1   6  -2 2229.83   36.98
  -1   6  -3    9.73    3.92
   1  -6   3   10.10    1.84
  -1   6  -4  820.31   26.32
   1  -6   4  838.47   15.73
  -1   6  -5 3297.61   55.99
   1  -6   5 3414.88   35.89
  -1   6  -6   81.50    9.81
   1  -6   6  102.65    7.00
   1  -6   7   32.45    4.61
  -1   6  -7   24.65    6.81
  -1   6  -8    3.45    4.35
   1  -6   8   10.12    3.71
  -1   6  -9  169.72   15.47
   1  -6   9  175.03   11.46
   1  -6  10   48.49    7.02
  -1   6 -10   65.57   10.62
  -1   6 -11   64.30   11.14
   1  -6  11   49.88    7.87
   1  -5  -7 1516.79   40.68
   1  -5  -6    8.33    4.62
   1  -5  -5  616.43   22.00
   1  -5  -4   57.79    6.47
   1  -5  -3  333.45   12.99
   1  -5  -2 2434.31   30.31
  -1   5   1  254.64    8.59
   1  -5  -1  247.78    8.30
   1  -5   0  136.05    5.48
  -1   5   0  122.89    6.84
   1  -5   1    3.79    1.17
  -1   5  -1    0.33    1.67
   1  -5   2    0.68    0.93
  -1   5  -2   -0.61    1.96
  -1   5  -3   99.39    8.25
   1  -5   3   88.32    4.75
  -1   5  -4  776.93   24.61
   1  -5   4  805.30   15.99
   1  -5   5 1663.99   25.66
  -1   5  -5 1604.34   37.43
   1  -5   6  110.16    7.34
  -1   5  -6  100.88    9.81
   1  -5   7  743.05   19.66
  -1   5  -7  736.43   28.09
   1  -5   8  503.22   17.82
  -1   5  -8  524.59   24.52
   1  -5   9 1578.51   34.68
  -1   5  -9 1586.46   44.66
  -1   5 -10  815.87   33.85
   1  -5  10  835.91   27.33
   1  -5  11  384.03   19.72
  -1   5 -11  322.33   21.61
   1  -4  -9  129.02   14.46
   1  -4  -8   41.98    8.70
   1  -4  -7  915.73   30.99
   1  -4  -6   42.77    6.53
   1  -4  -5   60.18    7.07
   1  -4  -4  202.86   11.03
   1  -4  -3 4110.29   41.95
  -1   4   2 5167.30   29.87
   1  -4  -2 5197.72   41.59
   1  -4  -1   16.42    2.11
  -1   4   1   14.59    1.97
   1  -4   0 3878.39   27.43
  -1   4   0 3811.84   32.24
  -1   4  -1  416.14   12.13
   1  -4   1  393.99    8.28
  -1   4  -2 9726.66   66.75
   1  -4   2 9708.05   44.27
  -1   4  -3 3909.72   47.01
   1  -4   3 3868.81   32.21
   1  -4   4    2.33    1.48
  -1   4  -4    0.96    2.64
   1  -4   5 3621.66   37.17
  -1   4  -5 3622.93   51.10
   1  -4   6  105.91    7.38
  -1   4  -6   98.15    9.70
   1  -4   7  632.95   19.20
  -1   4  -7  639.26   24.60
   1  -4   8 1190.86   28.98
  -1   4  -8 1218.35   35.97
  -1   4  -9    6.83    5.26
   1  -4   9   14.07    4.42
  -1   4 -10   72.92   10.05
   1  -4  10  100.75   10.20
  -1   4 -11   36.29    8.42
   1  -4  11   29.66    6.57
   1  -3  -9  714.23   31.86
   1  -3  -8  123.17   12.28
   1  -3  -7 1350.36   36.49
   1  -3  -6    1.05    2.50
   1  -3  -5 3143.61   25.99
   1  -3  -5 3218.67   45.40
   1  -3  -4 2367.48   34.77
   1  -3  -4 2350.90   19.27
   1  -3  -3   31.75    3.66
   1  -3  -2 2965.23   27.95
  -1   3   2 2896.44   18.37
  -1   3   1 2325.93   16.14
   1  -3  -1 2309.44   21.63
  -1   3   1 2288.26   12.13
   1  -3   0  298.82    6.91
  -1   3   0  313.81    7.59
   1  -3   1 4511.12   27.06
  -1   3  -1 4479.39   36.06
  -1   3  -2   95.05    6.23
   1  -3   2   99.25    4.64
  -1   3  -3  588.88   16.73
   1  -3   3  584.90   12.80
   1  -3   4  747.55   16.32
  -1   3  -4  731.00   20.52
   1  -3   5  245.59   10.45
  -1   3  -5  228.23   12.72
  -1   3  -6  363.50   16.84
   1  -3   6  372.15   13.66
  -1   3  -7  489.26   20.66
   1  -3   7  471.88   16.88
  -1   3  -8 1446.58   37.49
   1  -3   8 1440.42   31.94
  -1   3  -9   14.19    4.74
   1  -3   9    5.97    3.46
  -1   3 -10  130.89   12.53
   1  -3  10  145.69   12.35
  -1   3 -11  193.12   15.98
   1  -3  11  155.14   13.73
   1  -2 -10    4.76    6.47
   1  -2  -9   83.92   11.38
   1  -2  -8  575.78   25.10
   1  -2  -7   16.18    2.92
   1  -2  -7   22.64    5.54
   1  -2  -6  211.55    8.14
   1  -2  -6  193.82   12.18
   1  -2  -5   84.03    4.48
   1  -2  -5   79.54    7.05
   1  -2  -4 2255.28   19.40
   1  -2  -4 2218.18   31.67
   1  -2  -3   54.39    2.41
   1  -2  -3   55.12    4.45
   1  -2  -2 3156.35   27.33
   1  -2  -2 3198.67   11.72
  -1   2   2 3198.67   17.79
   1  -2  -1    6.36    1.11
  -1   2   0 5846.22   24.63
   1  -2   0 5823.27   26.37
   1  -2   0 5802.83   28.46
   1  -2   1 7038.16   33.57
  -1   2  -1 7016.49   38.27
   1  -2   2 3372.69   27.68
  -1   2  -2 3424.87   32.54
  -1   2  -3 1166.18   21.91
   1  -2   3 1176.08   18.46
  -1   2  -4   27.72    3.97
   1  -2   4   38.26    3.89
   1  -2   5 7973.67   60.26
  -1   2  -5 7883.21   69.00
   1  -2   6  995.84   22.76
  -1   2  -6  999.70   26.68
   1  -2   7  149.72    9.76
  -1   2  -7  159.45   11.20
  -1   2  -8  696.18   24.27
   1  -2   8  741.78   23.43
   1  -2   9  242.76   15.33
  -1   2  -9  195.00   13.74
   1  -2  10 1560.67   40.16
  -1   2 -10 1512.37   39.38
   1  -2  11  138.19   13.79
  -1   2 -11  132.38   12.82
   1  -1 -10  235.33   19.10
   1  -1  -9  106.32   12.05
   1  -1  -8  311.08   12.91
   1  -1  -8  319.82   18.11
   1  -1  -7 2434.16   45.17
   1  -1  -7 2417.89   33.51
   1  -1  -6 2499.04   30.99
   1  -1  -6 2461.54   41.21
   1  -1  -5 2459.10   36.41
   1  -1  -5 2551.62   27.97
   1  -1  -4  328.03    9.01
   1  -1  -4  315.16   11.22
   1  -1  -3 1476.98   20.98
   1  -1  -3 1489.18   15.64
   1  -1  -2 7923.16   39.82
  -1   1   2 7877.60   31.53
   1  -1  -1  297.14    6.35
   1  -1   0 1093.04   11.52
   1  -1   0 1070.53    9.90
  -1   1  -1 2564.51   20.21
   1  -1   1 2595.87   20.48
   1  -1   2 2973.00   26.23
  -1   1  -2 2978.88   27.48
  -1   1  -3 1008.78   18.73
   1  -1   3 1090.60   18.62
   1  -1   4  419.61   12.48
  -1   1  -4  437.78   13.64
   1  -1   5   13.69    2.66
  -1   1  -5   16.69    2.14
  -1   1  -6  465.22   16.74
   1  -1   6  490.68   17.02
   1  -1   7  594.47   20.00
  -1   1  -7  565.72   19.68
  -1   1  -8   59.20    7.10
   1  -1   8   59.52    7.21
  -1   1  -9  376.32   18.14
   1  -1   9  331.51   17.48
   1  -1  10  141.33   13.08
  -1   1 -10  133.52   11.70
   1  -1  11  244.16   17.75
  -1   1 -11  220.54   15.54
   1   0 -11   18.71    7.47
   1   0 -10  457.15   19.10
   1   0 -10  522.48   26.92
   1   0  -9 1841.38   36.21
   1   0  -9 1847.55   45.28
   1   0  -8  124.43    9.13
   1   0  -8  134.57   11.55
   1   0  -7   82.78    7.14
   1   0  -7   68.94    7.61
   1   0  -6   12.74    2.93
   1   0  -6    9.00    2.88
   1   0  -5 2991.14   38.13
   1   0  -5 2978.04   34.74
   1   0  -4  122.32    6.79
  -1   0   4  132.30    3.73
   1   0  -4  129.11    6.68
   1   0  -3  575.37   12.20
   1   0  -3  588.25   12.48
   1   0  -2 3801.45   25.24
   1   0  -2 3855.18   26.22
   1   0  -1  356.23    6.12
  -1   0   0  165.33    3.91
   1   0   0  175.57    4.32
  -1   0  -1 1178.69   13.22
   1   0   1 1349.42   14.07
  -1   0  -2 5610.82   33.64
  -1   0  -2 5614.79   34.27
   1   0   3 3884.57   35.09
  -1   0  -3 3929.39   29.28
  -1   0  -3 3943.79   33.61
   1   0   4 1441.53   23.73
  -1   0  -4 1405.25   17.86
  -1   0  -5 2393.03   23.98
   1   0   5 2416.81   34.17
  -1   0  -6  731.87   19.67
   1   0   6  700.16   20.44
  -1   0  -7  544.13   18.28
   1   0   7  582.33   20.36
  -1   0  -8 2834.58   44.47
   1   0   8 2762.34   48.09
   1   0   9  286.46   16.81
  -1   0  -9  284.60   15.39
   1   0  10  994.76   34.26
  -1   0 -10  883.74   27.80
  -1   0 -11   91.47   10.49
   1   1 -11    1.38    4.36
   1   1 -11    6.85    4.39
   1   1 -10  342.08   17.76
   1   1 -10  373.12   22.13
   1   1  -9  428.37   21.38
   1   1  -9  446.41   19.48
   1   1  -8   75.34    7.90
   1   1  -8   55.79    7.57
   1   1  -7 1000.84   25.85
   1   1  -7 1030.78   27.62
   1   1  -6  884.47   22.47
   1   1  -6  867.89   22.94
  -1  -1   5 5516.18   27.01
   1   1  -5 5505.13   53.18
   1   1  -5 5407.90   49.69
   1   1  -4 2234.45   27.23
  -1  -1   4 2297.25   19.67
   1   1  -4 2215.87   30.80
   1   1  -3 1595.43   23.45
  -1  -1   3 1574.39   17.48
   1   1  -3 1554.62   18.61
   1   1  -2 9999.00   35.70
  -1  -1   2 9926.42   44.65
  -1  -1   1  106.07    2.89
  -1  -1   1  103.59    4.83
   1   1  -1  106.97    2.84
  -1  -1   0 5788.52   27.33
  -1  -1   0 5740.73   25.22
  -1  -1   0 5711.54   37.25
   1   1   0 5755.77   23.68
  -1  -1  -1 7708.21   34.60
  -1  -1  -1 7701.36   44.96
  -1  -1  -2 1982.78   20.55
   1   1   2 1945.71   22.00
  -1  -1  -2 2009.13   24.53
  -1  -1  -3 1410.87   21.31
   1   1   3 1428.22   21.49
  -1  -1  -3 1384.61   19.42
  -1  -1  -4  189.12    8.18
   1   1   4  199.71    9.20
  -1  -1  -4  205.43    8.71
  -1  -1  -5 1008.20   20.06
   1   1   5  971.49   22.56
  -1  -1  -6 2416.52   34.48
   1   1   6 2366.24   38.51
   1   1   7   11.25    3.76
  -1  -1  -7   10.51    3.17
  -1  -1  -8  108.13    9.01
   1   1   8  105.88   10.27
   1   1   9   70.72    9.14
  -1  -1  -9   78.51    8.46
  -1  -1 -10  156.00   12.32
   1   1  10  167.64   15.08
   1   2 -12 1542.60   42.64
  -1  -2  12 1635.60   43.80
   1   2 -11  774.77   29.55
  -1  -2  11  804.64   28.58
   1   2 -10   21.38    5.87
   1   2 -10   31.51    7.29
   1   2  -9 2405.13   47.64
   1   2  -9 2458.37   50.58
   1   2  -8  157.39   11.53
   1   2  -8  140.50   11.36
   1   2  -7 2533.66   45.10
   1   2  -7 2593.70   41.92
   1   2  -6 2315.31   40.96
   1   2  -6 2403.17   36.17
   1   2  -5  213.60    9.30
  -1  -2   5  203.12    8.51
   1   2  -5  212.18   11.51
  -1  -2   4  294.86   10.09
   1   2  -4  311.36   13.00
   1   2  -4  301.61    9.51
   1   2  -3    5.49    1.16
   1   2  -3    7.52    2.13
  -1  -2   3    1.72    1.58
   1   2  -2  337.06    5.82
  -1  -2   2  345.12    5.66
   1   2  -2  354.80   11.04
  -1  -2   2  328.92   10.96
   1   2  -1  536.04    4.82
  -1  -2   1  516.89    5.15
   1   2   0   34.07    2.24
   1   2   0   39.86    1.96
  -1  -2  -1 3215.42   25.01
  -1  -2  -1 3166.76   37.63
   1   2   1 3269.36   23.35
  -1  -2  -2  181.15    6.55
  -1  -2  -2  175.18    8.99
   1   2   2  176.48    6.75
  -1  -2  -3   33.11    3.26
  -1  -2  -3   34.16    4.58
   1   2   3   36.41    3.71
  -1  -2  -4  656.26   15.36
   1   2   4  642.11   16.92
  -1  -2  -5 1104.52   25.84
  -1  -2  -5 1121.84   21.76
   1   2   5 1109.67   25.06
   1   2   6 2337.60   39.65
  -1  -2  -6 2331.35   34.13
  -1  -2  -7   93.45    7.80
   1   2   7   87.28    9.01
  -1  -2  -8  442.45   18.02
   1   2   8  433.97   20.65
   1   2   9  231.24   16.52
  -1  -3  12   16.19    5.55
   1   3 -12   15.43    6.66
  -1  -3  11   32.25    6.27
   1   3 -11   30.49    7.31
   1   3 -10   94.08   11.18
   1   3  -9   23.95    5.85
   1   3  -9    2.16    3.72
   1   3  -8  225.03   13.59
   1   3  -8  223.70   15.30
   1   3  -7  782.96   27.13
   1   3  -7  788.52   22.27
   1   3  -6 2641.16   36.64
   1   3  -6 2643.57   46.31
   1   3  -5   54.73    4.76
  -1  -3   5   56.78    5.73
   1   3  -5   56.44    6.62
   1   3  -4  119.40    5.80
  -1  -3   4  122.79    8.30
   1   3  -4  121.58    8.83
  -1  -3   3  151.14    9.22
   1   3  -3  156.30    5.20
   1   3  -2 7930.56   22.67
  -1  -3   2 7972.03   17.88
  -1  -3   2 7996.42   66.48
  -1  -3   1 1530.47   29.51
   1   3   0  167.29    4.07
   1   3   0  179.26    3.86
  -1  -3  -1 2311.60   38.55
   1   3   1 2317.65   20.34
  -1  -3  -2  265.24    8.40
  -1  -3  -2  247.72   13.26
   1   3   3 4612.05   41.71
  -1  -3  -3 4665.69   58.98
  -1  -3  -3 4554.48   38.10
  -1  -3  -4  855.51   17.96
  -1  -3  -4  912.60   27.35
   1   3   4  878.06   20.70
   1   3   5   10.01    3.11
  -1  -3  -5    5.80    2.05
   1   3   6 1501.25   33.37
  -1  -3  -6 1511.65   28.02
   1   3   7  122.46   11.02
  -1  -3  -7   86.77    7.72
   1   3   8  414.28   20.95
   1   3   9  335.86   21.13
   1   4 -12  283.78   21.24
  -1  -4  12  271.76   17.49
   1   4 -11  383.09   23.43
  -1  -4  11  383.96   18.73
   1   4 -10    4.82    5.34
  -1  -4  10   11.54    4.24
   1   4  -9 4446.25   74.35
  -1  -4   9 4306.57   52.47
   1   4  -8  242.17   13.67
   1   4  -8  217.74   16.17
   1   4  -7  360.11   15.27
   1   4  -7  385.91   20.11
   1   4  -6 1558.42   38.16
   1   4  -6 1580.28   27.97
   1   4  -5  698.81   16.17
  -1  -4   5  717.22   23.18
   1   4  -5  720.82   25.04
  -1  -4   4 7041.57   72.79
  -1  -4   4 7194.43   34.36
   1   4  -4 7175.01   72.10
  -1  -4   3  397.82    5.69
  -1  -4   3  400.97   17.63
  -1  -4   3  400.89    5.93
   1   4  -3  377.83   15.57
   1   4  -2   64.02    5.91
  -1  -4   2   75.17    7.92
  -1  -4   1  556.05   21.45
   1   4   0 1831.18   12.15
   1   4   0 1841.97   11.98
   1   4   1 1434.00   16.42
  -1  -4  -1 1456.68   35.97
   1   4   2  768.32   15.03
  -1  -4  -2  681.38   25.16
  -1  -4  -3  108.28   10.76
   1   4   3  127.92    7.30
   1   4   4  698.91   19.19
  -1  -4  -4  641.02   16.05
  -1  -4  -4  698.92   27.13
   1   4   5   20.86    4.12
  -1  -4  -5   14.67    3.12
   1   4   6   16.55    4.69
   1   4   7    9.61    4.89
   1   5 -12  425.61   26.55
  -1  -5  12  376.99   19.55
  -1  -5  11  478.70   20.47
   1   5 -11  472.27   27.17
  -1  -5  10   32.95    5.36
   1   5 -10   36.29    7.96
   1   5  -9   10.02    5.48
  -1  -5   9    4.64    2.76
   1   5  -8  110.26   12.79
  -1  -5   8  127.80    8.21
   1   5  -7  335.12   20.07
  -1  -5   7  298.61   11.03
  -1  -5   6   28.29    3.22
   1   5  -6   24.28    5.82
  -1  -5   5 1004.93   31.47
  -1  -5   5 1015.97   15.45
   1   5  -5 1011.99   31.14
  -1  -5   4  113.43    3.76
  -1  -5   4  128.66   11.61
   1   5  -4  137.46   10.99
   1   5  -3  469.94   18.75
  -1  -5   3  438.07   21.04
  -1  -5   2  407.67   20.46
   1   5  -2  428.84   16.91
  -1  -5   1  189.24   14.24
  -1  -5   0  325.36   18.90
  -1  -5  -1 3165.98   60.52
   1   5   1 3173.95   24.48
   1   5   2 1342.85   19.95
  -1  -5  -2 1353.45   40.24
  -1  -5  -3  900.57   33.84
   1   6 -12  420.01   28.62
  -1  -6  11  607.99   22.69
   1   6 -11  691.81   33.71
   1   6 -10  355.79   24.51
  -1  -6  10  336.65   15.91
  -1  -6   9  912.18   23.67
   1   6  -9  924.01   37.91
  -1  -6   8  144.81    8.61
   1   6  -8  131.06   14.31
  -1  -6   7  644.92   15.74
   1   6  -7  605.01   28.11
   1   6  -6 5113.05   77.34
   1   6  -5  224.93   15.85
  -1  -6   4 2563.91   55.29
   1   6  -4 2579.95   49.86
   1   6  -3  531.73   21.76
  -1  -6   3  489.02   24.97
  -1  -6   2  342.44   21.13
   1   6  -2  324.54   16.58
  -1  -6   1 6721.05   93.22
   1   6  -1 6507.11   67.83
  -1  -6   0   21.36    6.54
  -1  -6  -1  531.25   27.43
   1   7 -11  353.43   26.83
   1   7 -10   11.48    7.81
   1   7  -9  339.81   24.68
   1   7  -8 1663.81   50.76
   1   7  -7    1.97    4.98
   1   7  -6   46.98    8.59
   1   7  -5  111.50   11.88
   1   7  -4  506.70   23.33
   1   7  -3   30.50    6.48
   1   7  -2  452.71   20.60
   1   7  -1  640.45   24.03
   1   7   0   86.47    8.93
   1   8 -10  108.28   16.13
   1   8  -9  407.13   28.22
   1   8  -8  731.87   35.31
   1   8  -7    9.07    5.66
   1   8  -6  520.23   27.46
   1   8  -5  316.85   20.94
   1   8  -4 1480.20   42.76
   1   8  -3 1976.45   46.76
   1   8  -2   81.09    9.96
   1   9  -9   16.82   10.25
   1   9  -8  862.07   39.90
   1   9  -7  181.93   18.23
   1   9  -6  364.92   24.19
   1   9  -5  639.42   31.09
   1   9  -4  187.55   16.82
   1  10  -8   14.16    8.55
   1  10  -7    8.79    7.72
   1  10  -6  111.83   14.78
  -2   9  -9   21.24    8.43
  -2   8  -5 1618.18   40.97
  -2   8  -6  339.23   19.87
  -2   8  -7  498.59   25.65
  -2   8  -8  103.84   12.92
  -2   8  -9    9.44    7.46
  -2   7  -3  885.88   25.42
   2  -7   4    1.68    2.05
  -2   7  -4    2.53    3.05
  -2   7  -5  343.42   18.68
   2  -7   5  321.57   12.55
  -2   7  -6   13.79    5.61
   2  -7   6   12.16    3.28
  -2   7  -7   16.78    5.94
   2  -7   7   33.18    5.56
  -2   7  -8   94.01   11.73
   2  -7   8   82.20    7.97
   2  -7   9   15.54    4.84
  -2   7  -9   18.86    7.16
  -2   7 -10  485.63   27.43
   2  -7  10  527.16   22.22
   2  -6  -4    8.21    3.51
   2  -6  -3    5.80    2.66
   2  -6  -2 1809.48   28.99
   2  -6  -1    1.07    1.55
   2  -6   0   64.24    4.95
   2  -6   1  693.39   14.92
  -2   6  -1  682.17   16.98
   2  -6   2 1511.69   22.18
  -2   6  -2 1530.95   28.97
  -2   6  -3 3838.80   50.53
   2  -6   3 3704.41   36.87
  -2   6  -4    3.05    3.05
   2  -6   4    2.26    1.73
  -2   6  -5  256.51   15.08
   2  -6   5  288.82   12.12
  -2   6  -6  583.71   24.45
   2  -6   6  540.13   17.73
  -2   6  -7 1797.64   44.82
   2  -6   7 1770.28   34.13
  -2   6  -8 1263.97   39.96
   2  -6   8 1241.47   30.21
  -2   6  -9  156.27   14.77
   2  -6   9  158.79   11.74
  -2   6 -10  505.92   27.04
   2  -6  10  463.80   21.13
   2  -5  -8    3.42    5.57
   2  -5  -7  128.29   12.52
   2  -5  -6  212.78   14.49
   2  -5  -5 1871.26   38.11
   2  -5  -4 2125.21   36.12
   2  -5  -3   61.36    5.95
   2  -5  -2 1785.13   27.25
  -2   5   0 4351.19   29.58
   2  -5   0 4370.32   36.39
  -2   5  -1 1027.20   18.84
   2  -5   1 1017.11   17.23
  -2   5  -2   25.12    3.92
   2  -5   2   30.40    3.31
  -2   5  -3 2290.95   36.33
   2  -5   3 2212.03   29.06
   2  -5   4  109.33    7.13
  -2   5  -4  102.71    8.74
  -2   5  -5  665.51   23.47
   2  -5   5  729.07   19.30
  -2   5  -6  928.33   29.40
   2  -5   6  895.01   22.76
   2  -5   7   14.65    3.86
  -2   5  -7   16.33    5.22
   2  -5   8    9.29    4.00
  -2   5  -8    3.22    4.08
  -2   5  -9  107.25   12.12
   2  -5   9  111.62   10.35
  -2   5 -10    5.00    4.50
   2  -5  10    3.08    3.86
   2  -4  -9  283.26   20.60
   2  -4  -8   88.61   11.20
   2  -4  -7 2215.62   48.24
   2  -4  -6   49.27    6.81
   2  -4  -5  100.13    8.60
   2  -4  -4  192.69   10.62
   2  -4  -3  707.63   17.78
   2  -4  -2  162.40    7.78
   2  -4  -1  394.06   11.32
  -2   4   0  939.03   12.36
   2  -4   0  890.88   15.81
  -2   4  -1 1392.93   20.41
   2  -4   1 1347.29   19.85
   2  -4   2  209.19    8.35
  -2   4  -2  208.36    9.38
  -2   4  -3  658.28   18.68
   2  -4   3  699.51   16.63
  -2   4  -4   58.11    6.26
   2  -4   4   62.07    5.33
  -2   4  -5 1196.12   30.03
   2  -4   5 1104.25   23.89
  -2   4  -6 3442.07   53.95
   2  -4   6 3284.09   44.25
  -2   4  -7  641.63   24.40
   2  -4   7  623.79   20.38
  -2   4  -8  613.94   25.16
   2  -4   8  582.04   20.92
  -2   4  -9  193.38   14.99
   2  -4   9  214.50   13.74
  -2   4 -10 1377.33   41.09
   2  -4  10 1331.56   36.06
   2  -3 -10   80.56   12.79
   2  -3  -9   95.81   11.83
   2  -3  -8  132.54   12.53
   2  -3  -7  494.57   21.61
   2  -3  -6 1369.95   32.65
   2  -3  -5  395.48   15.80
   2  -3  -4 1417.72   26.85
   2  -3  -3  428.31   13.12
   2  -3  -2 5295.49   42.27
   2  -3  -1 7151.06   44.81
  -2   3   0 1758.77   15.30
   2  -3   0 1715.76   21.36
  -2   3  -1 1018.31   15.87
   2  -3   1  986.18   16.65
  -2   3  -2   28.64    3.38
   2  -3   2   36.17    3.63
  -2   3  -3 8497.10   63.20
   2  -3   3 8518.70   57.84
  -2   3  -4 2523.83   37.32
   2  -3   4 2514.75   34.08
   2  -3   5   71.66    6.27
  -2   3  -5   60.41    6.50
  -2   3  -6  952.76   26.85
   2  -3   6  959.48   23.49
  -2   3  -7   47.96    6.89
   2  -3   7   40.25    5.51
  -2   3  -8 1145.99   32.88
   2  -3   8 1108.56   29.32
  -2   3  -9   58.90    8.43
   2  -3   9   73.20    8.71
  -2   3 -10   34.98    7.12
   2  -3  10   40.02    7.04
   2  -2 -10  309.94   21.85
   2  -2  -9 2084.07   51.12
   2  -2  -8  348.80   19.57
   2  -2  -7 1395.01   34.75
   2  -2  -6  194.38    7.03
   2  -2  -6  210.77   12.29
   2  -2  -5   74.13    6.82
   2  -2  -5   64.86    3.54
   2  -2  -4 4772.15   23.06
   2  -2  -4 4798.12   45.65
   2  -2  -3   95.88    5.93
   2  -2  -2  205.52    8.02
   2  -2  -1   68.26    2.61
   2  -2  -1   65.22    4.10
  -2   2   0    4.89    1.00
   2  -2   0    6.27    1.59
   2  -2   1  953.73   16.27
  -2   2  -1  884.89   14.04
  -2   2  -2   12.48    2.18
   2  -2   2   11.17    2.26
  -2   2  -3 2105.59   29.29
   2  -2   3 2088.94   28.81
  -2   2  -4  651.64   18.17
   2  -2   4  610.57   16.68
   2  -2   5   74.07    6.39
  -2   2  -5   99.98    7.94
  -2   2  -6  678.14   21.82
   2  -2   6  681.37   20.97
   2  -2   7  298.21   15.08
  -2   2  -7  298.34   15.18
  -2   2  -8 1030.08   30.07
   2  -2   8 1051.75   29.92
  -2   2  -9 1404.41   36.76
   2  -2   9 1504.01   38.72
  -2   2 -10  264.19   16.90
   2  -2  10  267.71   17.63
   2  -1 -11  754.89   34.82
   2  -1 -10    6.94    5.90
   2  -1  -9  236.89   16.97
   2  -1  -8   30.29    6.37
   2  -1  -7   94.01    6.91
   2  -1  -7   84.42    8.54
   2  -1  -6    2.08    1.52
   2  -1  -6   11.55    3.38
   2  -1  -5  254.14   11.75
   2  -1  -5  274.48    9.29
   2  -1  -4 2526.13   25.50
   2  -1  -4 2474.75   31.37
   2  -1  -3  698.07   14.85
   2  -1  -3  677.93   11.73
   2  -1  -2  101.19    4.94
   2  -1  -1 2480.71   23.60
   2  -1   0 1436.55   18.08
  -2   1   0 1409.98   15.17
  -2   1  -1 1599.71   18.17
   2  -1   1 1353.33   19.98
  -2   1  -2 4208.62   34.87
   2  -1   2 4271.97   37.49
  -2   1  -3 2927.64   32.99
   2  -1   3 3004.27   34.23
  -2   1  -4 1260.54   23.92
   2  -1   4 1300.01   24.79
  -2   1  -5  762.01   20.25
  -2   1  -5  729.01   17.96
   2  -1   5  769.90   20.95
  -2   1  -6 2790.89   41.82
   2  -1   6 2816.08   43.04
  -2   1  -7  615.72   21.20
   2  -1   7  552.97   20.79
  -2   1  -8  900.66   27.02
   2  -1   8  952.65   29.13
   2  -1   9    9.40    4.31
  -2   1  -9    1.77    3.50
  -2   1 -10  125.43   11.78
   2  -1  10  119.29   12.48
   2   0 -11  945.01   37.61
   2   0 -10    0.50    4.21
   2   0  -9  472.52   18.86
   2   0  -9  447.03   22.21
   2   0  -8  371.12   15.40
   2   0  -8  372.54   18.69
   2   0  -7 3434.37   50.74
   2   0  -7 3445.51   44.18
   2   0  -6 2723.09   40.04
  -2   0   6 2610.58   24.94
   2   0  -6 2715.70   37.34
   2   0  -5  187.35    9.04
  -2   0   5  181.17    7.14
   2   0  -4 2546.52   30.03
   2   0  -4 2558.70   30.64
   2   0  -3  471.11   12.07
   2   0  -3  483.64   11.57
   2   0  -2 2899.88   24.98
   2   0  -1 6848.47   36.46
   2   0   0   16.11    1.99
  -2   0   0   16.38    1.88
  -2   0  -1 1464.16   18.68
   2   0   1 1486.93   19.90
  -2   0  -2  821.86   15.66
   2   0   2  820.61   16.47
  -2   0  -3  214.56    8.82
   2   0   3  207.63    9.07
  -2   0  -3  219.45    9.61
  -2   0  -4 1630.53   27.22
  -2   0  -4 1616.45   26.90
   2   0   4 1695.75   28.74
  -2   0  -5  197.19   10.56
  -2   0  -5  175.82    9.21
   2   0   5  183.10   10.65
  -2   0  -6  593.48   19.26
   2   0   6  563.65   20.03
  -2   0  -7   37.81    5.41
   2   0   7   33.59    5.69
  -2   0  -8   37.20    6.09
  -2   0  -9  121.38   11.11
   2   0   9  123.91   12.05
  -2   0 -10  167.42   13.77
   2   0  10  221.25   17.28
   2   1 -12   -0.42    5.51
   2   1 -11  799.79   33.41
   2   1 -10  163.29   12.60
   2   1 -10  141.13   13.51
   2   1  -9  283.83   16.00
   2   1  -9  256.81   16.40
   2   1  -8 1282.41   33.26
   2   1  -8 1266.98   31.01
   2   1  -7   41.75    5.95
   2   1  -7   41.16    5.64
  -2  -1   6  145.59    6.68
   2   1  -6  152.78    9.84
   2   1  -5  219.00    9.78
  -2  -1   5  206.81    8.16
   2   1  -5  205.91   10.66
   2   1  -4    8.67    1.85
  -2  -1   4    7.77    1.91
   2   1  -4    6.43    2.19
   2   1  -3 3036.67   26.87
   2   1  -3 3041.67   34.24
  -2  -1   3 2985.35   32.57
   2   1  -2   64.41    3.47
  -2  -1   2   68.04    5.05
   2   1  -1 2912.92   21.99
  -2  -1   1 2894.50   33.91
  -2  -1   0  205.49    6.85
  -2  -1   0  205.99    9.32
   2   1   0  208.10    6.40
  -2  -1  -1  135.04    6.05
  -2  -1  -1  123.52    7.51
  -2  -1  -2  381.56   13.31
  -2  -1  -2  374.69   10.84
   2   1   2  388.48   11.11
  -2  -1  -3 4161.48   39.41
  -2  -1  -3 4115.76   45.19
  -2  -1  -4 3885.93   41.52
  -2  -1  -4 3930.31   46.35
  -2  -1  -5  109.01    8.25
  -2  -1  -5  120.30    8.06
   2   1   5  119.23    8.81
  -2  -1  -6 1270.30   27.70
   2   1   6 1296.06   30.79
  -2  -1  -7  353.06   15.77
   2   1   7  340.39   17.41
  -2  -1  -8 1949.62   39.66
   2   1   8 2039.69   45.87
  -2  -1  -9  496.93   22.04
   2   1   9  524.34   24.74
   2   2 -12   -0.55    5.94
   2   2 -12   -3.71    6.23
   2   2 -11  131.54   12.98
   2   2 -11  128.75   13.61
   2   2 -10  120.86   12.44
   2   2 -10  110.71   11.38
   2   2  -9  931.34   29.97
   2   2  -9  911.25   30.09
   2   2  -8 2665.67   45.15
   2   2  -8 2583.42   48.87
   2   2  -7 1140.56   26.73
   2   2  -7 1102.01   29.98
  -2  -2   7 1046.84   20.81
   2   2  -6 1170.17   24.41
  -2  -2   6 1206.61   22.58
   2   2  -6 1187.34   29.62
   2   2  -5  270.50   10.12
   2   2  -5  259.98   13.31
  -2  -2   5  257.00   10.50
  -2  -2   4 7868.91   59.41
   2   2  -4 7793.97   47.17
   2   2  -3 4874.85   31.20
  -2  -2   3 4873.09   47.92
   2   2  -3 4838.97   48.56
  -2  -2   2 1087.72   22.99
   2   2  -2 1082.38   12.59
   2   2  -1 6105.49   29.49
  -2  -2   1 5988.04   55.91
  -2  -2   0   23.88    4.02
   2   2   0   22.57    2.09
  -2  -2  -1 6993.08   45.03
  -2  -2  -1 6885.26   62.94
   2   2   1 6944.41   41.13
  -2  -2  -2 1631.96   31.42
   2   2   2 1583.47   21.88
   2   2   3    8.58    2.44
  -2  -2  -3   14.92    3.74
  -2  -2  -4  925.36   20.74
  -2  -2  -4  991.60   26.71
   2   2   4  987.50   23.07
  -2  -2  -5  688.65   18.86
   2   2   5  725.83   21.78
  -2  -2  -6   54.56    5.95
   2   2   6   75.10    8.12
  -2  -2  -7  376.39   16.22
   2   2   7  355.11   18.38
  -2  -2  -8   40.34    6.60
   2   2   8   31.52    7.11
  -2  -2  -9  168.59   13.12
   2   3 -12   15.00    6.52
   2   3 -12   11.12    6.07
   2   3 -11 2163.27   53.43
   2   3 -11 2039.83   51.66
   2   3 -10  683.13   26.81
   2   3 -10  644.73   28.07
   2   3  -9   72.09    8.49
   2   3  -9   67.01    9.60
   2   3  -8  830.22   24.65
   2   3  -8  798.33   29.26
   2   3  -7  272.30   12.99
  -2  -3   7  295.12   13.35
   2   3  -7  297.51   16.95
  -2  -3   6 2481.34   37.75
   2   3  -6 2446.08   46.46
   2   3  -6 2345.68   32.82
   2   3  -5 1625.44   23.81
   2   3  -5 1614.47   35.40
  -2  -3   5 1585.19   30.81
  -2  -3   4  184.36   10.59
   2   3  -4  184.73    6.79
   2   3  -4  179.30   11.52
  -2  -3   3  917.56   23.76
   2   3  -3  935.91   12.22
   2   3  -3  954.85   23.80
  -2  -3   2 1962.60   35.55
   2   3  -2 2060.92   15.58
   2   3  -1  348.09    6.22
  -2  -3   1  336.49   15.05
  -2  -3   0  669.66   21.62
   2   3   0  678.30   10.57
  -2  -3  -1  326.43   15.57
   2   3   1  334.24    8.89
  -2  -3  -2 1129.55   29.91
  -2  -3  -2 1145.66   20.75
   2   3   2 1128.87   18.51
   2   3   3    7.35    2.49
  -2  -3  -3    3.89    3.87
  -2  -3  -3    3.17    1.82
  -2  -3  -4 1237.27   34.16
   2   3   4 1232.02   26.17
  -2  -3  -5    6.38    2.68
   2   3   5    8.90    3.55
  -2  -3  -6 1012.86   25.61
   2   3   6 1022.26   29.45
   2   3   7  998.69   31.27
  -2  -3  -7  994.56   27.10
   2   3   8  129.00   12.78
  -2  -4  12   22.29    6.03
   2   4 -12    9.58    6.96
   2   4 -11  182.04   15.61
   2   4 -11  168.98   16.05
   2   4 -10   30.19    6.84
   2   4 -10   32.37    8.09
   2   4  -9   53.93    9.19
   2   4  -9   70.76    8.03
  -2  -4   8  613.97   21.87
   2   4  -8  613.36   20.69
   2   4  -8  618.44   27.38
  -2  -4   7  576.26   21.92
   2   4  -7  611.46   18.48
   2   4  -7  612.45   26.02
  -2  -4   6 1547.20   35.40
   2   4  -6 1470.58   25.22
   2   4  -6 1483.82   38.74
   2   4  -5 3647.50   34.57
  -2  -4   5 3516.29   52.91
   2   4  -5 3634.38   58.51
   2   4  -4  683.78   12.03
  -2  -4   4  666.62   23.11
   2   4  -4  687.50   24.15
  -2  -4   3 1430.35   33.71
   2   4  -3 1409.87   13.22
  -2  -4   2  648.46   23.16
  -2  -4   2  612.45    5.77
   2   4  -2  639.03    5.86
   2   4  -1 5733.16   19.38
   2   4  -1 5667.89   25.73
  -2  -4   0 2754.45   49.63
  -2  -4  -1 2238.33   46.15
   2   4   1 2198.09   21.79
  -2  -4  -2  350.36   19.26
   2   4   2  356.57   10.60
  -2  -4  -3  248.93   17.11
   2   4   3  237.56   10.14
  -2  -4  -4 3142.99   61.92
   2   4   4 3181.86   42.66
  -2  -4  -5   32.64    5.07
   2   4   5   35.11    5.51
  -2  -4  -6   88.29    7.97
  -2  -5  12  321.27   17.97
   2   5 -12  370.07   25.81
  -2  -5  11  773.85   25.00
   2   5 -11  808.37   37.08
   2   5 -10  180.12   17.43
   2   5  -9  433.51   19.07
   2   5  -9  449.66   26.00
   2   5  -8 1860.47   35.65
  -2  -5   8 1896.56   43.57
   2   5  -8 1807.43   49.14
   2   5  -7  526.91   17.23
   2   5  -7  537.65   26.31
  -2  -5   7  498.29   22.70
   2   5  -6 2111.99   30.02
  -2  -5   6 2023.23   45.58
   2   5  -6 2071.71   49.02
   2   5  -5  225.33    8.12
  -2  -5   5  225.32   15.53
   2   5  -5  227.94   15.79
  -2  -5   4  836.19   29.67
   2   5  -4  928.07   29.76
  -2  -5   3 3100.81   57.43
   2   5  -3 3012.48   48.36
  -2  -5   2    5.36    3.80
  -2  -5   1    7.41    4.40
  -2  -5   0  109.23   11.80
  -2  -5  -1  854.41   32.63
  -2  -5  -2   26.85    7.06
  -2  -5  -3  145.24   14.77
   2   6 -12   37.25   10.85
   2   6 -11  236.90   21.94
   2   6 -10  617.90   33.59
   2   6  -9   37.24    9.41
   2   6  -8  235.99   19.14
   2   6  -7   -1.19    4.98
  -2  -6   7   -2.02    3.77
  -2  -6   6  121.07   12.66
   2   6  -6   85.71   11.04
   2   6  -5  222.66   16.54
  -2  -6   5  234.85   17.59
  -2  -6   4  475.03   24.96
   2   6  -4  490.75   22.97
   2   6  -3 2001.40   44.25
  -2  -6   3 1938.60   50.29
  -2  -6   2   42.74    8.18
   2   6  -2   39.41    6.33
  -2  -6   1  900.84   35.56
  -2  -6   0  998.84   38.36
  -2  -6  -1 2031.41   55.38
  -2  -6  -2 1624.68   51.76
  -2  -6  -3  269.38   22.19
   2   7 -11  861.75   42.44
   2   7 -10  542.04   32.63
   2   7  -9   31.15    9.87
   2   7  -8  829.81   36.64
  -2  -7   7  229.32   19.12
   2   7  -7  194.64   17.83
  -2  -7   6 3629.90   74.12
   2   7  -6 3551.69   70.68
  -2  -7   5 1413.82   46.62
   2   7  -5 1374.93   42.72
   2   7  -4  169.81   14.75
  -2  -7   4  132.00   14.90
  -2  -7   3 1942.44   55.42
   2   7  -3 2097.15   49.07
  -2  -7   2    2.90    4.80
   2   7  -2    8.67    3.92
  -2  -7   1  945.86   40.17
   2   7  -1  949.65   30.77
  -2  -7   0  878.98   39.81
  -2  -7  -1    8.22    7.34
  -2  -7  -2   80.19   13.93
   2   8 -10  675.52   37.91
   2   8  -9  169.17   19.10
   2   8  -8  254.52   21.60
   2   8  -7  355.42   25.06
   2   8  -6   11.95    5.99
  -2  -8   5  232.34   21.16
   2   8  -5  201.56   17.22
   2   8  -4   54.28    9.72
  -2  -8   4   62.14   11.84
   2   8  -3   46.89    8.65
  -2  -8   3   33.21    9.20
   2   8  -2   25.98    7.15
  -2  -8   2   32.81   10.06
  -2  -8   1  296.10   24.89
   2   8  -1  267.97   18.17
  -2  -8   0 1626.82   58.49
   2   9  -9    7.91    7.36
   2   9  -8  599.58   34.15
   2   9  -7  696.22   35.85
   2   9  -6  335.76   24.49
   2   9  -5  336.84   23.90
   2   9  -4   29.67    8.21
   2   9  -3 1970.58   54.19
   2  10  -7  113.24   15.94
   2  10  -6  217.21   21.30
   2  10  -5  355.73   25.79
  -3   8  -7   50.77    8.69
  -3   8  -8 1100.44   37.92
   3  -7   0 1060.23   23.38
   3  -7   1 3056.86   37.64
   3  -7   2  157.66    8.73
   3  -7   3  954.37   21.88
  -3   7  -4  757.05   24.14
   3  -7   4  812.43   21.27
  -3   7  -5 1430.56   35.87
   3  -7   5 1462.26   29.90
   3  -7   6  893.05   24.90
  -3   7  -6  848.30   29.54
  -3   7  -7  319.50   19.29
   3  -7   7  324.54   16.04
  -3   7  -8  725.85   30.17
  -3   7  -9   14.85    7.05
   3  -7   9    0.68    4.61
   3  -6  -5   16.90    4.95
   3  -6  -4  381.83   17.14
   3  -6  -3  129.92    9.23
   3  -6  -2 1443.50   28.03
   3  -6  -1  322.18   12.81
   3  -6   0  457.14   14.25
   3  -6   1  150.90    8.38
  -3   6  -2  199.63    9.73
   3  -6   2  211.44   10.08
  -3   6  -3   44.66    5.57
   3  -6   3   45.30    5.08
   3  -6   4  140.53    9.08
  -3   6  -4  144.54   10.62
   3  -6   5  227.47   12.02
  -3   6  -5  229.07   14.13
  -3   6  -6  464.28   21.19
   3  -6   6  484.23   18.42
  -3   6  -7  315.74   18.56
   3  -6   7  318.72   16.20
  -3   6  -8  318.36   19.75
   3  -6   8  301.24   16.38
  -3   6  -9    9.13    5.82
   3  -6   9    5.57    4.76
   3  -5  -8   20.12    6.88
   3  -5  -7   98.94   11.27
   3  -5  -6    5.26    4.14
   3  -5  -5  433.36   18.84
   3  -5  -4  387.43   16.08
   3  -5  -3   60.58    6.19
   3  -5  -2  293.81   12.36
   3  -5  -1 1229.22   23.22
   3  -5   0  183.88    8.95
  -3   5  -1 2213.69   25.70
   3  -5   1 2318.55   31.82
   3  -5   2    7.71    2.39
  -3   5  -2    2.99    2.02
   3  -5   3 1104.15   23.82
  -3   5  -3 1113.87   24.99
   3  -5   4 3685.67   46.12
  -3   5  -4 3763.02   50.22
  -3   5  -5  108.03    9.41
   3  -5   5  105.67    8.58
  -3   5  -6  999.66   30.01
   3  -5   6 1059.44   27.38
  -3   5  -7   56.58    8.13
   3  -5   7   46.68    6.54
  -3   5  -8 2166.44   48.97
   3  -5   8 2199.54   44.10
  -3   5  -9  615.57   27.56
   3  -5   9  617.07   24.83
   3  -4  -9  454.14   25.33
   3  -4  -8  594.55   27.33
   3  -4  -7  108.21   10.92
   3  -4  -6  743.96   25.45
   3  -4  -5  560.38   20.29
   3  -4  -4 2135.89   35.50
   3  -4  -3 1796.47   30.29
   3  -4  -2  918.01   21.05
   3  -4  -1  407.63   13.04
   3  -4   0    7.75    2.26
  -3   4   0    9.23    1.65
  -3   4  -1 4640.46   36.01
   3  -4   1 4460.88   43.67
   3  -4   2  210.19    9.93
  -3   4  -2  232.99    9.74
   3  -4   3  106.80    7.57
  -3   4  -3   98.56    7.25
  -3   4  -4  179.43   10.68
   3  -4   4  192.27   10.90
  -3   4  -5   45.50    6.20
   3  -4   5   41.88    5.65
  -3   4  -6  404.64   18.48
   3  -4   6  402.68   17.08
   3  -4   7   18.91    4.40
  -3   4  -7   14.64    4.69
  -3   4  -8  404.41   20.65
   3  -4   8  411.43   19.36
  -3   4  -9   33.46    6.98
   3  -4   9   41.83    7.50
   3  -3 -10  224.51   19.09
   3  -3  -9  789.96   32.70
   3  -3  -8   15.30    5.29
   3  -3  -7  105.88   10.44
   3  -3  -6 1613.24   35.96
   3  -3  -5  100.08    8.23
   3  -3  -4   26.46    4.17
   3  -3  -3    0.28    1.85
   3  -3  -2  559.67   14.90
   3  -3  -1   68.75    5.29
   3  -3   0  198.01    8.83
  -3   3   0  206.95    6.64
   3  -3   1 2944.69   34.73
  -3   3  -1 2929.65   28.98
   3  -3   2  622.48   16.97
  -3   3  -2  631.35   15.44
  -3   3  -3  127.98    7.95
   3  -3   3  131.89    8.56
  -3   3  -4 3041.40   41.81
   3  -3   4 3058.63   42.20
  -3   3  -5  596.14   20.16
   3  -3   5  600.87   19.80
  -3   3  -6 2454.24   43.55
   3  -3   6 2367.22   41.27
  -3   3  -7 1098.90   30.94
   3  -3   7 1149.08   30.73
  -3   3  -8  461.72   21.44
   3  -3   8  441.00   20.38
  -3   3  -9  869.06   30.48
   3  -3   9  995.45   32.24
   3  -2 -10    7.39    5.95
   3  -2  -9   40.06    7.96
   3  -2  -8  259.65   16.95
   3  -2  -7  575.58   22.32
   3  -2  -6 2823.34   45.52
   3  -2  -5   19.11    3.81
   3  -2  -4  474.83   15.49
   3  -2  -4  469.86    8.59
   3  -2  -3 3371.09   39.40
   3  -2  -3 3461.34   23.62
   3  -2  -2 3063.87   34.35
   3  -2  -1 5415.25   43.75
  -3   2   1 5399.75   30.05
   3  -2   0 1602.89   24.26
  -3   2   0 1563.28   18.40
   3  -2   1 2549.43   32.06
  -3   2  -1 2510.86   27.55
  -3   2  -2  718.25   16.32
   3  -2   2  704.15   18.18
  -3   2  -3 1445.27   25.89
   3  -2   3 1443.16   27.62
  -3   2  -4 3048.90   40.45
   3  -2   4 2998.59   41.98
  -3   2  -5  400.53   15.84
   3  -2   5  397.68   16.33
  -3   2  -6  157.67   10.82
   3  -2   6  187.90   12.09
  -3   2  -7  125.88   10.52
   3  -2   7  127.01   10.69
  -3   2  -8    4.09    3.29
   3  -2   8    3.23    3.34
  -3   2  -9  327.68   18.35
   3  -2   9  313.32   18.61
   3  -1 -11  310.56   22.95
   3  -1 -10  346.03   21.94
   3  -1  -9 1708.63   44.37
   3  -1  -8 1292.74   35.37
   3  -1  -7  704.28   23.78
   3  -1  -6 1952.78   28.37
   3  -1  -6 1971.77   36.40
   3  -1  -5   47.92    4.42
   3  -1  -5  104.59    7.62
   3  -1  -4 1128.02   22.80
   3  -1  -4 1161.04   19.29
   3  -1  -3 1657.84   21.96
   3  -1  -3 1298.84   23.55
   3  -1  -2  204.26    8.45
   3  -1  -1  447.33   12.16
   3  -1   0  689.89   15.45
  -3   1   0  631.48   12.93
  -3   1  -1    2.29    1.30
   3  -1   1   -0.28    1.45
   3  -1   2    0.54    1.33
  -3   1  -2    0.13    1.28
   3  -1   3    6.74    2.53
  -3   1  -3    4.16    1.90
  -3   1  -4 2781.34   38.83
   3  -1   4 2805.18   40.68
  -3   1  -5   99.42    7.95
  -3   1  -5   97.66    8.54
  -3   1  -6   71.77    7.58
   3  -1   6   73.88    7.81
  -3   1  -7  502.70   20.44
   3  -1   7  534.96   21.65
  -3   1  -8  344.22   18.07
   3  -1   8  382.00   19.44
  -3   1  -9 1453.85   39.24
   3  -1   9 1436.79   40.10
   3   0 -11   16.74    7.03
   3   0 -10   87.26   11.24
   3   0  -9  246.36   16.44
   3   0  -8  404.25   19.21
   3   0  -8  402.29   16.34
   3   0  -7  203.30   12.39
  -3   0   7  203.76    9.53
   3   0  -7  200.30   11.29
  -3   0   6  159.31    8.72
   3   0  -6  163.43    9.74
   3   0  -6  175.66   10.46
   3   0  -5    1.58    2.20
   3   0  -5   21.39    3.53
   3   0  -4  925.71   19.45
   3   0  -4  920.99   20.53
   3   0  -3 7780.68   51.90
   3   0  -2  140.35    6.61
   3   0  -1  698.84   14.57
   3   0   0 1103.82   19.07
  -3   0   0 1135.13   18.26
  -3   0  -1 4836.25   40.77
   3   0   1 4777.02   42.61
  -3   0  -2 4993.53   45.29
  -3   0  -2 4958.89   55.69
   3   0   2 4943.36   46.54
  -3   0  -3  376.45   13.42
  -3   0  -3  371.59   15.37
   3   0   3  396.54   14.05
  -3   0  -4  866.26   21.77
  -3   0  -4  937.75   25.63
   3   0   4  898.61   23.12
  -3   0  -5  184.30   10.85
  -3   0  -5  150.50   10.62
   3   0   5  167.38   10.83
  -3   0  -6 1515.86   32.96
   3   0   6 1504.66   34.19
  -3   0  -7  357.96   17.32
   3   0   7  356.95   17.86
   3   0   8   17.25    5.36
  -3   0  -8   17.55    5.40
  -3   0  -9  245.05   16.66
   3   0   9  230.79   16.91
   3   1 -12    3.38    6.39
   3   1 -11  333.14   21.79
   3   1 -10 1509.75   42.55
   3   1 -10 1405.23   36.79
   3   1  -9  263.02   16.19
   3   1  -9  262.90   15.67
   3   1  -8  684.39   23.93
   3   1  -8  705.50   24.71
   3   1  -7  245.24   12.95
  -3  -1   7  227.79   10.49
   3   1  -7  242.59   13.72
  -3  -1   6 5021.47   49.35
   3   1  -6 4996.04   58.84
   3   1  -6 4991.30   52.94
  -3  -1   5 2482.41   35.71
   3   1  -5 2420.96   32.79
  -3  -1   4  184.94    9.93
   3   1  -4  182.40    8.19
   3   1  -4  198.34   10.47
  -3  -1   3 1760.72   30.72
   3   1  -3 1710.35   22.50
   3   1  -2  152.71    6.40
  -3  -1   2  147.42    9.33
   3   1  -1 7283.59   44.78
  -3  -1   1 7369.49   65.57
   3   1   0  433.39   11.46
  -3  -1   0  399.18   15.81
  -3  -1   0  407.77   11.50
  -3  -1  -1  292.47   10.63
  -3  -1  -1  264.41   13.42
   3   1   1  282.88   10.40
  -3  -1  -2  222.45    9.93
  -3  -1  -2  223.30   12.56
   3   1   2  246.23   10.35
  -3  -1  -3  714.24   18.86
  -3  -1  -3  741.09   23.35
   3   1   3  717.40   19.08
  -3  -1  -4   42.88    5.03
  -3  -1  -4   25.48    5.16
   3   1   4   30.07    4.66
  -3  -1  -5  211.06   11.75
  -3  -1  -5  187.81   12.88
   3   1   5  209.83   12.18
  -3  -1  -6  200.42   12.29
   3   1   6  187.32   12.41
  -3  -1  -7  283.41   15.53
   3   1   7  297.01   16.74
   3   1   8    7.16    4.42
  -3  -1  -8   14.54    4.80
   3   2 -12   20.61    8.21
   3   2 -11   12.20    5.97
   3   2 -11   13.83    6.29
   3   2 -10  134.79   12.37
   3   2 -10  128.37   12.97
   3   2  -9   87.33    9.55
   3   2  -9   89.52   10.46
   3   2  -8 1045.29   28.42
   3   2  -8 1016.34   31.43
   3   2  -7   37.45    5.11
   3   2  -7   20.18    5.39
  -3  -2   7   27.00    4.37
   3   2  -6  482.26   15.80
  -3  -2   6  488.69   17.31
   3   2  -6  520.38   20.65
   3   2  -5   16.98    4.48
  -3  -2   5   18.26    3.86
   3   2  -5   15.80    2.64
  -3  -2   4   57.30    6.20
   3   2  -4   55.74    4.29
   3   2  -4   41.12    5.42
  -3  -2   3  919.81   24.50
   3   2  -3  944.17   16.11
  -3  -2   2  239.65   12.85
   3   2  -2  232.39    7.42
   3   2  -1 2704.52   25.42
  -3  -2   1 2623.75   42.96
   3   2   0 3417.62   30.70
  -3  -2   0 3488.53   50.93
  -3  -2  -1 1176.70   21.91
  -3  -2  -1 1129.77   29.41
  -3  -2  -2 1538.24   26.50
  -3  -2  -2 1532.67   35.74
   3   2   2 1549.54   25.35
  -3  -2  -3  370.37   13.85
  -3  -2  -3  404.88   19.01
   3   2   3  398.97   14.20
  -3  -2  -4 2246.52   45.38
  -3  -2  -4 2228.14   36.63
   3   2   4 2312.04   37.39
  -3  -2  -5 2619.64   42.29
   3   2   5 2530.23   42.37
  -3  -2  -6  661.17   22.75
   3   2   6  637.17   23.09
  -3  -2  -7  169.19   12.44
  -3  -2  -8    4.58    4.63
   3   3 -12   32.17    8.79
   3   3 -12   42.80    9.43
   3   3 -11   24.89    7.75
   3   3 -11   22.16    6.94
   3   3 -10  486.06   22.71
   3   3 -10  538.46   27.11
   3   3  -9  542.28   22.26
   3   3  -9  555.90   26.17
   3   3  -8 2037.86   38.11
  -3  -3   8 1930.24   37.17
   3   3  -8 2049.33   47.64
   3   3  -7 2378.81   37.26
  -3  -3   7 2372.07   42.22
   3   3  -7 2254.47   48.89
   3   3  -6 1380.52   25.35
  -3  -3   6 1395.61   32.06
   3   3  -6 1387.81   37.14
  -3  -3   5 2122.41   39.97
   3   3  -5 2074.08   42.92
   3   3  -5 2125.79   27.39
  -3  -3   4  733.23   23.94
   3   3  -4  693.17   23.19
   3   3  -4  723.16   14.29
  -3  -3   3 5867.04   68.85
   3   3  -3 6049.15   37.86
   3   3  -2 2508.27   22.60
  -3  -3   2 2549.33   46.11
   3   3  -1 2479.66   22.87
  -3  -3   1 2432.74   45.89
   3   3   0  577.53   12.02
  -3  -3   0  563.66   22.61
   3   3   1    9.89    2.17
  -3  -3  -1    6.03    3.61
  -3  -3  -2 2806.22   52.54
   3   3   2 2846.17   33.95
  -3  -3  -3  126.24    8.40
  -3  -3  -3  126.77   12.07
   3   3   3  134.54    8.32
   3   3   4    7.75    3.16
  -3  -3  -4    8.70    3.15
  -3  -3  -4   10.77    5.21
  -3  -3  -5   99.61    8.74
   3   3   5   77.15    7.89
   3   3   6   21.40    5.40
  -3  -3  -6   16.42    4.51
  -3  -3  -7   97.84   10.13
   3   4 -12  141.20   15.29
   3   4 -12  135.48   16.22
   3   4 -11  345.83   20.37
   3   4 -11  316.33   23.38
   3   4 -10 1740.37   41.53
   3   4 -10 1765.50   51.52
   3   4  -9  106.61    9.73
   3   4  -9  117.70   13.45
  -3  -4   8  558.47   23.02
   3   4  -8  538.54   19.37
   3   4  -8  544.11   26.75
   3   4  -7  110.84    7.82
  -3  -4   7  119.97   10.71
   3   4  -7   98.20   11.60
   3   4  -6   59.03    5.26
  -3  -4   6   51.65    7.29
   3   4  -6   68.92    9.38
   3   4  -5 1863.19   24.55
  -3  -4   5 1796.61   40.85
   3   4  -5 1852.91   43.42
   3   4  -4   23.45    5.14
  -3  -4   4   21.98    4.83
   3   4  -4   20.17    2.40
   3   4  -3 1516.43   16.66
  -3  -4   3 1470.71   37.54
   3   4  -2  355.55    7.46
  -3  -4   2  371.60   19.31
   3   4  -1   56.85    3.27
  -3  -4   1   59.66    8.27
   3   4   0   71.57    4.05
  -3  -4   0   68.16    8.97
  -3  -4  -1  181.84   14.62
   3   4   1  199.69    7.74
  -3  -4  -2 2031.76   48.56
   3   4   2 2030.17   27.83
  -3  -4  -3  288.09   19.56
   3   5 -12  119.08   16.25
   3   5 -11   24.32    9.42
   3   5 -11   19.34    6.49
   3   5 -10  782.74   36.42
   3   5  -9   25.22    8.66
  -3  -5   8  126.20   12.70
   3   5  -8   90.53    7.92
   3   5  -8  117.80   13.89
  -3  -5   7  527.23   24.82
   3   5  -7  519.79   16.37
   3   5  -7  508.84   26.37
   3   5  -6  678.57   16.50
  -3  -5   6  657.81   27.28
   3   5  -6  710.56   30.00
  -3  -5   5 2791.97   55.78
   3   5  -5 2956.60   58.09
  -3  -5   4  165.22   13.78
   3   5  -4  155.96   12.45
  -3  -5   3  690.85   28.06
  -3  -5   2  895.57   32.36
  -3  -5   1 2106.39   51.04
  -3  -5   0 1513.49   44.47
  -3  -5  -1  747.18   32.43
  -3  -5  -2  948.26   38.41
  -3  -5  -3   33.47    9.36
   3   6 -12  848.21   42.95
   3   6 -11   29.55   11.09
   3   6 -10  600.24   33.76
   3   6  -9   50.53   10.37
  -3  -6   8 2158.96   54.67
   3   6  -8 2060.64   57.77
  -3  -6   7  618.61   29.47
   3   6  -7  602.26   29.84
   3   6  -6   11.21    6.07
  -3  -6   6   17.90    6.19
  -3  -6   5  999.26   37.63
   3   6  -5 1006.76   35.89
  -3  -6   4  327.87   21.66
   3   6  -4  281.05   18.00
  -3  -6   3  121.86   13.56
   3   6  -3  122.50   11.57
  -3  -6   2  508.56   27.50
  -3  -6   1   -1.57    4.76
  -3  -6   0    7.83    6.56
  -3  -6  -1  203.56   19.20
  -3  -6  -2   98.29   14.90
  -3  -6  -3   94.08   15.32
   3   7 -11  267.64   25.22
   3   7 -10    7.94    6.99
  -3  -7   9  241.97   20.63
   3   7  -9  271.24   23.54
  -3  -7   8  101.65   14.21
   3   7  -8   80.75   13.06
  -3  -7   7  296.08   22.35
   3   7  -7  329.06   23.38
   3   7  -6   16.30    6.48
  -3  -7   6   38.33    9.71
  -3  -7   5  386.64   25.63
   3   7  -5  384.60   23.58
  -3  -7   4  125.46   15.30
   3   7  -4  139.18   14.46
  -3  -7   3  571.09   31.76
   3   7  -3  595.59   26.34
  -3  -7   2 1379.28   49.76
   3   7  -2 1535.64   42.05
  -3  -7   1  113.47   15.66
  -3  -7   0  429.25   29.95
  -3  -7  -1  184.74   20.49
  -3  -7  -2 1230.99   52.14
   3   8 -10  877.54   43.90
   3   8  -9  966.41   44.34
  -3  -8   8  774.19   38.62
   3   8  -8  765.12   38.98
  -3  -8   7  338.59   26.09
   3   8  -7  293.69   23.59
   3   8  -6   22.07    8.07
  -3  -8   6   25.88    9.22
  -3  -8   5 2309.42   67.91
   3   8  -5 2317.66   60.69
  -3  -8   4  491.46   31.44
   3   8  -4  451.64   26.44
  -3  -8   3   56.80   12.04
   3   8  -3   81.32   11.85
  -3  -8   2  308.79   25.78
   3   8  -2  281.54   19.65
  -3  -8   1   84.66   15.43
   3   8  -1   88.26   12.06
  -3  -8   0  489.38   34.17
  -3  -8  -1   53.30   13.38
   3   9  -8   33.75   10.10
   3   9  -7   25.00    9.43
  -3  -9   7   16.39    8.43
   3   9  -6   48.32   10.60
  -3  -9   6   53.51   13.02
  -3  -9   5  277.98   26.12
   3   9  -5  221.94   20.88
   3   9  -4    5.55    6.67
   3   9  -3   50.39   10.84
  -3  -9   3   84.03   16.38
  -3  -9   2  359.90   30.53
   3   9  -2  308.23   23.92
   4  -7  -2  152.65   10.83
   4  -7  -1    5.71    3.31
   4  -7   0  229.50   12.09
   4  -7   1   45.40    5.77
   4  -7   2    1.92    2.67
   4  -7   3  358.03   15.64
   4  -7   4  861.35   24.99
   4  -7   5  130.01   10.37
   4  -7   6 1234.57   32.36
  -4   7  -6 1069.46   32.53
   4  -7   7   42.57    7.24
   4  -7   8  234.90   15.69
  -4   7  -8  199.17   16.30
   4  -6  -6  270.43   17.47
   4  -6  -5    3.85    4.13
   4  -6  -4  910.51   27.23
   4  -6  -3 1315.34   31.29
   4  -6  -2    7.47    3.53
   4  -6  -1 1363.41   29.51
   4  -6   0    3.00    2.55
   4  -6   1 1458.81   29.09
   4  -6   2 3477.67   46.55
   4  -6   3  304.01   14.40
   4  -6   4  208.21   12.33
  -4   6  -4  219.73   12.80
   4  -6   5   41.24    6.22
  -4   6  -5   40.36    6.28
   4  -6   6  907.86   27.84
  -4   6  -6  874.58   28.97
  -4   6  -7  508.91   23.48
   4  -6   7  518.79   21.95
   4  -6   8    0.86    3.94
  -4   6  -8   -2.11    4.70
   4  -5  -8  454.99   25.17
   4  -5  -7   65.71    9.47
   4  -5  -6  905.46   30.55
   4  -5  -5 1233.47   32.31
   4  -5  -4  773.08   24.19
   4  -5  -3   67.53    7.01
   4  -5  -2   -0.73    2.52
   4  -5  -1 1071.87   24.98
   4  -5   0   61.53    6.04
   4  -5   1   19.39    3.83
   4  -5   2  304.05   13.80
  -4   5  -2  283.54   11.71
   4  -5   3   57.00    6.30
  -4   5  -3   69.50    6.75
   4  -5   4   12.52    3.72
  -4   5  -4    9.88    3.51
   4  -5   5   52.43    6.95
  -4   5  -5   44.32    6.56
  -4   5  -6 1085.59   31.28
   4  -5   6 1128.08   30.93
  -4   5  -7  359.40   19.01
   4  -5   7  430.75   20.55
  -4   5  -8   83.40   10.42
   4  -5   8   88.27   10.58
   4  -4  -9    7.98    6.89
   4  -4  -8  394.92   22.51
   4  -4  -7    7.64    4.91
   4  -4  -6  562.30   22.91
   4  -4  -5  301.79   15.44
   4  -4  -4   12.27    3.70
   4  -4  -3  134.67    9.54
   4  -4  -2   11.02    2.94
   4  -4  -1 3372.31   43.02
   4  -4   0  568.94   17.53
  -4   4   0  553.94   12.70
   4  -4   1  211.87   11.07
  -4   4  -1  231.42    9.50
   4  -4   2 1853.42   33.51
  -4   4  -2 1963.12   30.55
   4  -4   3  580.64   19.46
  -4   4  -3  494.71   16.57
   4  -4   4 1608.67   34.13
  -4   4  -4 1709.06   34.37
  -4   4  -5  790.94   24.90
   4  -4   5  802.69   25.26
  -4   4  -6  506.96   21.37
   4  -4   6  512.18   21.38
  -4   4  -7  304.38   17.72
   4  -4   7  294.06   17.03
  -4   4  -8  142.35   13.25
   4  -4   8  163.48   13.50
   4  -3  -9   85.66   11.86
   4  -3  -8 1867.83   46.26
   4  -3  -7  193.70   14.35
   4  -3  -6  488.06   20.04
   4  -3  -5 1063.08   27.80
   4  -3  -4 2138.60   36.81
   4  -3  -3 2863.19   42.07
   4  -3  -2  952.02   22.64
   4  -3  -1 1940.87   31.14
   4  -3   0    9.09    2.79
  -4   3   0   11.20    2.21
   4  -3   1 1709.24   30.69
  -4   3  -1 1713.81   26.33
   4  -3   2  745.39   21.31
  -4   3  -2  787.17   19.46
   4  -3   3  441.98   17.12
  -4   3  -3  453.86   16.16
  -4   3  -4  191.89   11.43
   4  -3   4  194.86   12.05
  -4   3  -5  188.91   12.05
   4  -3   5  223.96   13.44
  -4   3  -6    9.93    3.97
   4  -3   6   15.91    4.88
  -4   3  -7   35.98    6.50
   4  -3   7   37.91    6.77
  -4   3  -8    4.01    4.79
   4  -3   8    3.54    4.16
   4  -2 -10  234.17   19.04
   4  -2  -9   74.57   10.67
   4  -2  -8  445.67   21.94
   4  -2  -7   11.53    4.58
   4  -2  -6  116.75    9.81
   4  -2  -5  267.06   13.43
   4  -2  -4  227.31   11.84
   4  -2  -3  223.62   10.66
   4  -2  -2  561.57   17.00
   4  -2  -1 1172.80   23.98
   4  -2   0  126.50    8.18
  -4   2   0  116.46    6.37
   4  -2   1  666.83   18.87
  -4   2  -1  605.96   15.82
   4  -2   2 4783.32   52.73
  -4   2  -2 4756.48   48.86
  -4   2  -3   58.58    6.00
   4  -2   3   40.29    5.43
  -4   2  -4  713.18   21.70
   4  -2   4  705.15   22.57
  -4   2  -5  224.20   13.32
   4  -2   5  228.40   13.72
  -4   2  -6  718.07   24.91
   4  -2   6  732.32   25.53
  -4   2  -7 1996.17   44.11
   4  -2   7 1960.19   43.78
  -4   2  -8   67.02    9.28
   4  -2   8   50.95    8.27
   4  -1 -10  485.29   26.18
   4  -1  -9  223.51   16.46
   4  -1  -8 1217.70   35.22
   4  -1  -7    1.43    2.45
   4  -1  -6  776.76   23.44
   4  -1  -5 5167.64   55.94
   4  -1  -5 5075.75   49.21
   4  -1  -4   48.80    5.52
   4  -1  -4   53.44    5.41
   4  -1  -3 3053.97   38.09
   4  -1  -2  619.36   16.79
   4  -1  -1 3607.99   40.57
   4  -1   0 3397.20   40.22
  -4   1   0 3404.82   35.85
  -4   1  -1   17.99    3.18
   4  -1   1    9.19    2.62
  -4   1  -2 1113.57   23.19
   4  -1   2 1096.15   25.21
  -4   1  -3  358.96   14.81
   4  -1   3  361.85   15.64
  -4   1  -4 1738.99   34.19
  -4   1  -4 1757.60   40.76
   4  -1   4 1718.57   34.99
  -4   1  -5  247.76   13.76
  -4   1  -5  221.67   14.54
   4  -1   5  233.47   13.77
  -4   1  -6  446.41   19.68
   4  -1   6  433.60   19.83
  -4   1  -7  101.12   10.16
   4  -1   7   99.06   10.30
  -4   1  -8  103.00   11.35
   4  -1   8   94.65   10.78
   4   0 -11  146.97   15.67
   4   0 -10  229.21   17.60
   4   0  -9   15.81    5.18
   4   0  -8 1991.77   43.14
  -4   0   7  836.72   23.35
   4   0  -7  825.66   25.49
   4   0  -6    4.67    2.98
  -4   0   6    5.92    3.21
   4   0  -6    5.89    2.76
   4   0  -5   10.19    3.67
   4   0  -5   11.71    2.95
   4   0  -4   15.34    3.53
   4   0  -3  712.27   17.91
   4   0  -2    6.11    1.80
   4   0  -1 1755.17   27.36
   4   0   0  137.70    8.00
  -4   0   0  128.13    7.35
   4   0   1  205.06   10.16
  -4   0  -1  168.92    8.91
  -4   0  -1  177.96   12.59
  -4   0  -2  794.16   20.65
  -4   0  -2  765.06   26.29
   4   0   2  811.81   21.08
  -4   0  -3   22.78    4.01
   4   0   3   19.20    3.94
  -4   0  -3   15.37    5.02
  -4   0  -4  588.43   19.58
  -4   0  -4  645.28   25.23
   4   0   4  614.35   21.03
  -4   0  -5  943.59   26.45
  -4   0  -5  913.50   30.33
   4   0   5  983.51   28.13
   4   0   6   26.08    5.55
  -4   0  -6   23.55    5.11
  -4   0  -7  827.22   27.93
   4   0   7  726.16   27.38
   4   0   8    1.48    4.15
   4   1 -11   45.45    8.86
   4   1 -10    3.72    4.23
   4   1  -9   22.72    6.56
   4   1  -9   22.71    5.84
   4   1  -8  825.45   26.76
   4   1  -8  825.93   27.51
  -4  -1   7  399.50   16.88
   4   1  -7  438.74   19.63
   4   1  -7  421.66   17.60
   4   1  -6  382.10   17.84
   4   1  -6  355.97   14.50
  -4  -1   6  378.09   16.69
  -4  -1   5 2464.89   42.13
   4   1  -5 2371.34   34.74
   4   1  -5 2393.26   43.71
  -4  -1   4  334.58   15.96
   4   1  -4  346.63   12.77
   4   1  -3 2580.30   32.26
  -4  -1   3 2783.52   45.43
   4   1  -2 2938.76   32.94
  -4  -1   2 2907.91   47.29
  -4  -1   1    5.67    3.01
   4   1  -1    6.60    1.82
   4   1   0 2387.55   31.39
  -4  -1   0 2415.57   45.64
   4   1   1  288.78   11.69
  -4  -1  -1  261.01   15.70
  -4  -1  -1  289.63   11.92
  -4  -1  -2 2424.05   37.04
  -4  -1  -2 2389.39   47.87
   4   1   2 2392.91   36.01
  -4  -1  -3 2180.61   36.68
  -4  -1  -3 2244.50   47.40
   4   1   3 2261.26   37.21
  -4  -1  -4  299.21   14.72
  -4  -1  -4  278.62   17.20
   4   1   4  294.59   14.66
  -4  -1  -5  369.98   17.26
   4   1   5  386.66   17.86
  -4  -1  -6    9.46    4.20
  -4  -1  -7 1188.66   34.78
   4   2 -12  581.23   30.20
   4   2 -11  499.51   26.40
   4   2 -10  983.44   33.03
   4   2 -10  903.96   33.90
   4   2  -9  452.75   20.81
   4   2  -9  512.00   24.63
   4   2  -8  872.53   26.25
   4   2  -8  882.22   31.15
   4   2  -7  696.38   21.59
  -4  -2   7  676.92   23.64
   4   2  -7  667.28   26.34
  -4  -2   6  775.11   24.94
   4   2  -6  821.73   28.24
   4   2  -6  755.64   20.10
  -4  -2   5 1642.51   36.82
   4   2  -5 1568.52   26.80
   4   2  -5 1582.84   37.05
  -4  -2   4  615.43   22.58
   4   2  -4  578.84   15.55
   4   2  -3  775.94   16.59
  -4  -2   3  771.65   25.78
   4   2  -2   11.47    2.16
  -4  -2   2    9.86    3.83
  -4  -2   1    1.45    2.54
   4   2  -1    5.70    1.90
   4   2   0 1641.80   24.89
  -4  -2   0 1652.20   40.16
   4   2   1   71.09    5.67
  -4  -2  -1   80.63    9.56
  -4  -2  -2  267.68   12.58
  -4  -2  -2  290.04   18.07
   4   2   2  307.78   12.77
  -4  -2  -3   75.59    7.25
  -4  -2  -3   86.37   10.57
   4   2   3   79.90    7.12
   4   2   4    5.65    3.32
  -4  -2  -4    7.64    3.20
  -4  -2  -4    6.63    4.87
   4   2   5   21.18    5.07
  -4  -2  -5    5.61    3.25
   4   2   6   22.61    6.08
  -4  -2  -6   15.27    5.23
  -4  -2  -7  794.03   28.93
   4   2   7  798.20   29.52
   4   3 -12  423.84   25.22
   4   3 -11  134.69   13.17
   4   3 -11  155.59   16.21
   4   3 -10  196.21   14.79
   4   3 -10  198.47   17.62
   4   3  -9  171.49   12.54
   4   3  -9  177.50   15.92
   4   3  -8   23.51    4.72
  -4  -3   8   16.22    4.65
   4   3  -8   17.99    5.70
   4   3  -7  241.34   12.38
  -4  -3   7  246.91   15.48
   4   3  -7  257.44   17.52
  -4  -3   6   48.53    7.31
   4   3  -6   40.47    7.49
   4   3  -6   43.45    4.84
  -4  -3   5 1241.18   34.72
   4   3  -5 1153.35   33.17
   4   3  -5 1230.78   22.75
   4   3  -4   28.72    3.49
  -4  -3   4   29.56    5.92
  -4  -3   3   41.73    7.10
   4   3  -3   37.48    3.49
   4   3  -2  726.48   14.61
  -4  -3   2  723.16   27.90
   4   3  -1  259.29    9.06
  -4  -3   1  244.06   16.67
   4   3   0 3479.44   35.03
  -4  -3   0 3559.89   64.19
   4   3   1  167.80    8.42
  -4  -3  -1  168.54   14.63
  -4  -3  -2  142.65   13.74
   4   3   2  160.59    8.98
  -4  -3  -3 2071.45   52.44
   4   3   3 2078.74   35.05
  -4  -3  -4  613.06   21.94
   4   3   4  607.43   20.69
  -4  -3  -5 1413.46   34.32
  -4  -3  -6  367.34   18.72
   4   4 -12  854.89   39.94
   4   4 -11   11.54    6.12
   4   4 -11   19.15    8.73
   4   4 -10  294.68   22.59
   4   4  -9  294.78   15.90
   4   4  -9  289.65   21.80
   4   4  -8 1594.52   33.38
  -4  -4   8 1486.13   40.51
   4   4  -8 1577.57   47.43
   4   4  -7 3232.54   42.25
  -4  -4   7 3416.14   60.97
   4   4  -7 3260.79   66.75
   4   4  -6   -0.17    1.58
   4   4  -6    1.55    3.59
  -4  -4   6    6.54    4.23
  -4  -4   5  473.01   23.00
   4   4  -5  444.73   22.07
   4   4  -5  478.59   13.35
  -4  -4   4  763.95   29.44
   4   4  -4  752.69   15.22
  -4  -4   3 2404.05   52.94
   4   4  -3 2419.26   26.48
   4   4  -2 1721.98   21.17
  -4  -4   2 1872.32   47.31
  -4  -4   1  480.42   24.68
  -4  -4   0  627.36   29.01
  -4  -4  -1   10.65    6.01
  -4  -4  -2  119.32   13.86
  -4  -4  -3  281.09   21.00
   4   5 -12  306.69   25.94
   4   5 -11  151.35   18.20
   4   5 -10 1044.05   43.65
   4   5  -9  193.31   19.00
  -4  -5   8  230.35   17.64
   4   5  -8  264.75   20.89
  -4  -5   7  281.90   19.25
   4   5  -7  292.25   21.17
  -4  -5   6   83.40   10.98
   4   5  -6   56.96    9.63
  -4  -5   5   44.90    8.31
   4   5  -5   54.50    8.64
  -4  -5   4  115.76   13.04
   4   5  -4  164.62   13.80
  -4  -5   3  290.19   20.70
  -4  -5   2  414.48   24.67
  -4  -5   1  321.90   22.45
  -4  -5   0  228.64   19.39
  -4  -5  -1   27.18    8.82
  -4  -5  -2  149.43   17.77
  -4  -5  -3 1900.49   60.53
   4   6 -11    8.95    8.49
   4   6 -10  457.92   30.71
   4   6  -9  663.22   35.73
   4   6  -8   25.61    8.43
  -4  -6   8   15.18    7.40
  -4  -6   7  755.70   34.46
   4   6  -7  797.43   36.51
   4   6  -6    1.87    4.63
  -4  -6   6    3.46    5.95
  -4  -6   5  630.38   31.49
   4   6  -5  618.69   29.55
  -4  -6   4 2472.73   62.43
   4   6  -4 2358.43   53.94
  -4  -6   3  395.20   25.66
  -4  -6   2  425.76   27.22
  -4  -6   1   62.92   11.61
  -4  -6   0 1499.22   53.53
  -4  -6  -1  828.00   41.58
  -4  -6  -2   74.87   14.73
   4   7 -10  202.48   22.04
  -4  -7   9   89.60   14.01
   4   7  -9  105.93   16.45
   4   7  -8   -4.13    7.41
  -4  -7   8    3.01    5.96
  -4  -7   7 1597.10   54.61
   4   7  -7 1748.78   56.34
  -4  -7   6  235.12   21.39
   4   7  -6  189.31   18.18
   4   7  -5   28.92    7.64
  -4  -7   5   17.12    8.95
  -4  -7   4   95.73   14.69
   4   7  -4  108.80   12.73
   4   7  -3   35.71    8.16
  -4  -7   3   27.84    9.72
  -4  -7   2  476.29   31.78
  -4  -7   1   10.02    8.13
  -4  -7   0  170.36   20.94
  -4  -7  -1    2.14    8.89
   4   8  -9   16.65    9.73
   4   8  -8   15.75    9.20
  -4  -8   8    7.61    8.56
  -4  -8   7  798.61   41.79
   4   8  -7  765.84   38.04
  -4  -8   6  184.51   20.85
   4   8  -6  191.59   19.72
   4   8  -5    8.22    7.26
  -4  -8   5    9.94    8.54
   4   8  -4  529.44   30.38
  -4  -8   3  292.14   26.99
   4   8  -3  321.51   22.42
  -4  -8   2  952.73   48.55
  -4  -8   1  726.51   43.11
   4   9  -5  143.67   17.92
   4   9  -4  721.10   37.20
   5  -7  -2  161.44   12.29
   5  -7  -1  724.92   25.20
   5  -7   0  910.02   26.68
   5  -7   1  210.61   13.36
   5  -7   2  112.55    9.94
   5  -7   3   10.52    4.84
   5  -7   4  367.79   18.27
   5  -7   5   58.61    8.36
   5  -7   6    1.89    4.14
   5  -6  -6   74.39   10.67
   5  -6  -5    5.49    4.12
   5  -6  -3  290.87   16.20
   5  -6  -2   21.86    4.96
   5  -6  -1  420.20   17.85
   5  -6   0  319.18   15.89
   5  -6   1   34.27    5.79
   5  -6   2   22.61    5.24
   5  -6   3   19.62    5.15
   5  -6   5  321.32   17.59
  -5   6  -6    4.59    4.71
   5  -6   6    8.48    5.18
  -5   6  -7  457.37   23.54
   5  -5  -7  214.44   17.12
   5  -5  -6  189.29   14.74
   5  -5  -5  611.63   24.56
   5  -5  -4   30.57    5.91
   5  -5  -3 3101.49   51.25
   5  -5  -2  316.50   15.60
   5  -5  -1  205.41   12.57
   5  -5   0 1873.68   36.64
   5  -5   1  602.52   21.40
   5  -5   2 1644.10   35.95
   5  -5   3  725.02   24.54
  -5   5  -3  654.40   21.52
   5  -5   4   70.09    8.36
  -5   5  -4   60.53    7.55
   5  -5   5  278.66   16.46
  -5   5  -5  242.56   15.35
   5  -5   6  212.09   15.13
  -5   5  -6  177.30   14.06
   5  -5   7  208.96   15.72
  -5   5  -7  174.54   14.74
   5  -4  -8   19.27    6.81
   5  -4  -7  665.37   28.11
   5  -4  -6  769.08   27.81
   5  -4  -5  576.98   23.13
   5  -4  -4  280.35   15.45
   5  -4  -3   22.63    5.05
   5  -4  -2   27.57    4.98
   5  -4  -1   46.12    5.98
   5  -4   0   51.71    6.37
   5  -4   1  240.47   13.30
  -5   4  -1  228.49   11.04
   5  -4   2  103.61    9.11
  -5   4  -2  113.87    8.44
   5  -4   3  384.29   17.68
  -5   4  -3  375.25   16.71
   5  -4   4  259.33   15.29
  -5   4  -4  279.07   15.21
  -5   4  -5    9.13    4.41
   5  -4   5    8.16    4.63
  -5   4  -6   10.80    4.96
   5  -4   6    9.07    4.80
  -5   4  -7  866.22   31.49
   5  -4   7  877.11   31.00
   5  -3  -9  147.12   14.88
   5  -3  -8    5.39    4.32
   5  -3  -7   47.28    8.19
   5  -3  -6  278.58   16.37
   5  -3  -5  847.25   26.56
   5  -3  -4  789.27   25.12
   5  -3  -3  783.39   23.25
   5  -3  -2   69.00    6.96
   5  -3  -1  353.38   15.16
   5  -3   0 3873.04   51.17
  -5   3   0 3823.58   41.02
   5  -3   1  104.45    8.87
  -5   3  -1  103.31    7.63
   5  -3   2  641.00   21.99
  -5   3  -2  669.62   20.55
   5  -3   3  527.97   20.86
  -5   3  -3  576.89   20.22
   5  -3   4  621.55   23.20
  -5   3  -4  620.71   22.94
  -5   3  -5 2031.60   43.21
   5  -3   5 1985.70   43.22
  -5   3  -6    4.04    3.73
   5  -3   6    3.08    3.96
  -5   3  -7  179.71   14.54
   5  -3   7  159.32   13.92
   5  -2  -9    5.12    6.08
   5  -2  -8  406.05   21.95
   5  -2  -7 1839.47   41.93
   5  -2  -6  249.01   14.96
   5  -2  -5  246.33   13.98
   5  -2  -4  149.07   10.72
   5  -2  -3 1328.17   29.19
   5  -2  -2 2085.11   36.63
   5  -2  -1   12.48    3.37
  -5   2   0    3.51    1.91
   5  -2   0    4.98    2.73
   5  -2   1  152.98   10.28
  -5   2  -1  147.79    9.25
   5  -2   2  960.36   26.44
  -5   2  -2 1013.44   25.43
   5  -2   3  279.54   14.93
  -5   2  -3  283.94   14.35
   5  -2   4  292.45   16.10
  -5   2  -4  310.43   15.67
  -5   2  -5   35.08    6.27
  -5   2  -5   24.37    7.32
   5  -2   5   21.90    5.54
  -5   2  -6  126.92   11.84
   5  -2   6  138.75   12.55
  -5   2  -7   62.40    8.93
   5  -2   7   68.88   10.08
   5  -1 -10  767.70   33.35
   5  -1  -9  133.80   13.49
   5  -1  -8    5.37    3.79
  -5   1   7   21.60    5.50
   5  -1  -7   30.07    5.77
   5  -1  -6    7.03    3.52
   5  -1  -5  104.18    8.99
   5  -1  -4   43.48    5.77
   5  -1  -4   44.83    5.80
   5  -1  -3 1173.61   27.04
   5  -1  -2  287.90   12.93
   5  -1  -1  140.04    9.31
   5  -1   0 1370.27   29.25
  -5   1   0 1381.71   26.61
   5  -1   1   29.60    4.64
  -5   1  -1   23.19    4.13
   5  -1   2 1596.28   33.68
  -5   1  -2 1597.52   31.82
   5  -1   3 2120.39   40.12
  -5   1  -3 2194.29   40.16
  -5   1  -3 2143.73   51.29
  -5   1  -4   36.69    7.59
   5  -1   4   44.26    6.81
  -5   1  -5 1643.38   38.69
   5  -1   5 1603.31   39.30
  -5   1  -6    4.12    4.36
   5  -1   6    2.56    3.99
   5   0 -10 1460.13   44.31
   5   0  -9  233.27   16.71
   5   0  -8    6.11    3.47
  -5   0   7  896.23   28.47
   5   0  -7  934.96   27.93
  -5   0   6  149.81   12.26
   5   0  -6  167.70   11.33
   5   0  -6  175.72   12.37
  -5   0   5 2225.87   46.11
   5   0  -5 2248.75   38.74
   5   0  -5 2292.19   42.81
  -5   0   4 2073.58   44.21
   5   0  -4 2130.46   36.15
  -5   0   3  228.00   15.20
   5   0  -3  220.33   11.16
   5   0  -2 1376.30   26.84
  -5   0   2 1376.15   37.55
   5   0  -1   16.98    3.39
  -5   0   1   31.03    6.50
   5   0   0 1123.19   25.36
  -5   0   0 1091.72   35.22
   5   0   1 2530.76   39.36
  -5   0  -1 2538.19   38.90
   5   0   2  485.98   18.17
  -5   0  -2  473.35   17.97
  -5   0  -2  445.43   22.78
  -5   0  -3   39.38    6.06
  -5   0  -3   37.59    7.86
   5   0   3   26.14    5.00
  -5   0  -4   46.02    6.86
  -5   0  -4   28.82    7.50
   5   0   4   39.86    6.47
  -5   0  -5  261.66   15.94
   5   0   5  250.88   15.83
  -5   0  -6   86.28   10.38
   5   0   6   79.02   10.11
   5   1 -11  342.62   22.53
   5   1 -10  296.97   19.48
   5   1  -9  200.15   14.99
   5   1  -8  233.78   14.92
  -5  -1   7  559.09   23.31
   5   1  -7  564.15   23.69
   5   1  -7  558.46   20.77
  -5  -1   6  926.53   30.11
   5   1  -6  911.71   24.92
   5   1  -6  945.18   30.41
  -5  -1   5  156.44   12.66
   5   1  -5  149.04    9.65
   5   1  -5  149.48   11.63
  -5  -1   4  358.64   19.01
   5   1  -4  326.44   13.54
   5   1  -3    3.56    2.18
  -5  -1   3    2.93    2.97
   5   1  -2  254.20   11.08
  -5  -1   2  266.44   17.17
   5   1  -1    0.60    1.81
  -5  -1   1    4.60    4.11
   5   1   0  856.77   21.38
  -5  -1   0  866.91   31.97
   5   1   1  896.28   22.86
  -5  -1  -1  919.24   33.57
  -5  -1  -2    2.99    2.71
  -5  -1  -2    3.26    4.32
   5   1   2    7.03    3.25
   5   1   3  461.81   18.63
  -5  -1  -3  427.40   18.23
  -5  -1  -4   33.94    5.86
   5   1   4   28.88    5.61
  -5  -1  -4   47.39    9.99
  -5  -1  -5 1645.29   39.78
   5   1   5 1697.87   40.28
   5   1   6  269.06   17.80
   5   2 -11  175.09   15.63
   5   2 -10  279.23   18.40
   5   2  -9   24.99    5.73
   5   2  -9   30.64    8.41
   5   2  -8    8.01    3.70
   5   2  -8    7.30    4.90
  -5  -2   8    1.61    3.67
  -5  -2   7 1547.26   39.76
   5   2  -7 1578.22   44.34
   5   2  -7 1513.30   32.51
  -5  -2   6  176.76   13.73
   5   2  -6  208.09   15.62
   5   2  -6  213.87   11.68
  -5  -2   5  401.53   20.78
   5   2  -5  422.93   15.31
   5   2  -5  410.43   20.44
  -5  -2   4  341.63   19.42
   5   2  -4  371.45   14.22
   5   2  -3  130.15    7.85
  -5  -2   3  122.10   11.80
   5   2  -2 3420.65   38.54
  -5  -2   2 3633.83   64.65
   5   2  -1  406.94   13.79
  -5  -2   1  397.83   22.14
   5   2   0  284.51   12.05
  -5  -2   0  286.83   19.27
   5   2   1  778.77   20.61
  -5  -2  -1  770.40   31.81
   5   2   2 1001.47   25.04
  -5  -2  -2 1068.04   39.20
   5   2   3  890.98   25.29
  -5  -2  -3  896.99   36.93
  -5  -2  -4  423.35   19.43
   5   2   4  419.28   18.58
  -5  -2  -5  168.91   13.46
   5   2   5  183.49   13.55
   5   3 -10  458.92   27.14
   5   3  -9 1687.31   39.25
   5   3  -9 1720.47   51.64
   5   3  -8   12.62    3.71
   5   3  -8   25.85    7.71
  -5  -3   8   24.72    6.51
  -5  -3   7  528.13   25.58
   5   3  -7  514.24   26.66
   5   3  -7  551.72   19.08
  -5  -3   6  457.88   23.69
   5   3  -6  500.48   25.97
   5   3  -6  481.69   16.62
  -5  -3   5 1762.84   46.61
   5   3  -5 1745.98   29.34
   5   3  -5 1738.02   43.74
  -5  -3   4  539.45   26.12
   5   3  -4  594.75   16.74
   5   3  -3  210.83    9.46
  -5  -3   3  223.17   17.40
   5   3  -2  655.25   16.27
  -5  -3   2  638.11   29.41
   5   3  -1   52.68    5.08
  -5  -3   1   49.33    8.92
   5   3   0  229.25   10.42
  -5  -3   0  240.62   19.05
  -5  -3  -1    3.01    4.91
   5   3   1    2.20    2.25
  -5  -3  -2  149.33   16.40
  -5  -3  -3  125.44   15.34
   5   4 -11   55.05   11.84
   5   4 -11   46.16    8.59
   5   4 -10  271.16   16.70
   5   4 -10  270.84   22.37
   5   4  -9    1.70    6.97
   5   4  -9   -0.39    3.36
   5   4  -8  109.91    9.22
  -5  -4   8  132.25   13.84
   5   4  -8  121.71   14.72
   5   4  -7   48.42    5.79
  -5  -4   7   62.68    9.99
   5   4  -7   72.63   11.46
  -5  -4   6   79.76   11.13
   5   4  -6   79.13   11.28
   5   4  -6   73.52    6.31
  -5  -4   5  576.73   28.52
   5   4  -5  611.37   27.44
  -5  -4   4  899.50   35.95
  -5  -4   3  228.55   18.82
  -5  -4   2 1486.47   47.77
  -5  -4   1    3.15    5.27
  -5  -4   0  522.54   29.36
  -5  -4  -1 2434.95   64.68
  -5  -4  -2   34.64   10.25
  -5  -4  -3  492.08   30.98
   5   5 -11  548.58   34.33
   5   5 -10   -5.31    7.77
   5   5  -9 1364.25   50.92
   5   5  -8    7.94    6.92
  -5  -5   8   -0.58    4.95
  -5  -5   7 1005.13   39.60
   5   5  -7  931.13   39.08
  -5  -5   6 2733.50   65.20
   5   5  -6 2729.33   65.99
  -5  -5   5  128.82   14.63
   5   5  -5  130.60   13.54
  -5  -5   4  716.32   34.10
  -5  -5   3   46.02    9.66
  -5  -5   2 1776.84   55.22
  -5  -5   1  602.60   33.53
  -5  -5   0   12.25    7.61
  -5  -5  -1    7.29    7.28
  -5  -5  -2   -1.30    8.14
   5   6 -10    7.48    9.05
  -5  -6   9  302.59   24.31
   5   6  -9  396.30   29.16
   5   6  -8   56.83   12.35
  -5  -6   8   66.27   12.44
   5   6  -7   55.43   11.61
  -5  -6   7   21.60    8.07
   5   6  -6   38.77   10.16
  -5  -6   6   48.32   10.15
   5   6  -5    3.50    5.30
  -5  -6   5   -0.51    6.04
   5   6  -4   19.35    7.47
  -5  -6   4    2.75    5.69
  -5  -6   3   29.88    9.49
  -5  -6   2 1054.90   45.49
  -5  -6   1  309.51   26.14
  -5  -6   0   39.77   12.66
  -5  -6  -1  626.77   38.92
  -5  -7   9  948.98   45.06
   5   7  -9  960.42   46.17
  -5  -7   8  218.55   22.62
   5   7  -8  196.72   20.85
   5   7  -7    7.77    7.75
  -5  -7   7   17.75    9.23
  -5  -7   6 1262.11   51.98
   5   7  -6 1219.70   46.73
  -5  -7   5  209.13   22.05
   5   7  -5  194.71   19.06
  -5  -7   4  990.28   46.64
   5   7  -4  941.72   38.58
  -5  -7   3  465.88   32.91
  -5  -7   2  184.57   22.12
  -5  -7   1  413.41   33.60
   6  -7   1   12.13    5.50
   6  -7   2  861.77   29.32
   6  -7   3  251.15   16.25
   6  -6  -4  112.81   12.09
   6  -6  -3   24.71    6.39
   6  -6  -2  479.71   22.79
   6  -6  -1  227.81   14.83
   6  -6   0  711.03   26.32
   6  -6   1  401.68   19.69
   6  -6   2   36.74    6.85
   6  -6   3   88.65   10.40
   6  -6   4  110.12   11.59
   6  -5  -5   16.48    5.77
   6  -5  -4   33.49    6.74
   6  -5  -3    2.57    3.92
   6  -5  -2   56.07    7.55
   6  -5  -1  496.06   21.63
   6  -5   0  245.83   15.15
   6  -5   1  716.56   25.74
   6  -5   2  344.60   18.49
   6  -5   3  217.16   15.17
   6  -5   4  118.71   11.79
   6  -4  -7  431.53   23.63
   6  -4  -6  240.37   17.17
   6  -4  -5  752.11   28.22
   6  -4  -4   94.18   10.44
   6  -4  -3  136.93   11.96
   6  -4  -2 2416.99   46.47
   6  -4  -1  120.97   10.66
   6  -4   0  546.91   21.89
   6  -4   1  465.60   20.77
   6  -4   2  207.13   14.36
   6  -4   3 1469.13   38.18
  -6   4  -3 1401.22   35.50
  -6   4  -4   28.97    6.69
   6  -4   4   17.51    5.76
  -6   4  -5   -0.11    4.26
   6  -4   5    4.88    4.46
   6  -3  -7  110.86   12.15
   6  -3  -6    4.17    4.46
   6  -3  -5  350.17   18.79
   6  -3  -4  466.62   21.61
   6  -3  -3   34.34    5.89
   6  -3  -2   74.00    8.38
   6  -3  -1   14.43    4.37
   6  -3   0  164.90   12.03
   6  -3   1  330.38   17.17
  -6   3  -1  280.23   14.08
   6  -3   2  556.57   22.72
  -6   3  -2  583.86   21.80
   6  -3   3  392.04   19.60
  -6   3  -4  270.29   16.75
   6  -3   5  307.57   18.64
  -6   3  -5  304.66   18.53
   6  -2  -8    0.23    4.48
   6  -2  -7    7.97    4.22
   6  -2  -6  123.27   11.55
   6  -2  -5  988.45   30.57
   6  -2  -4  565.74   22.96
   6  -2  -3  218.51   13.43
   6  -2  -2  804.39   25.36
   6  -2  -1   37.88    5.90
   6  -2   0 1533.26   35.11
   6  -2   1 1674.93   37.79
  -6   2  -1 1610.84   33.95
  -6   2  -2   23.39    5.10
   6  -2   2   25.84    5.61
   6  -2   3  883.49   28.88
  -6   2  -3  933.87   28.87
   6  -2   4   48.94    8.18
  -6   2  -4   46.78    7.73
  -6   2  -4   30.30    9.27
   6  -2   5  354.99   20.02
  -6   2  -5  322.36   19.19
   6  -1  -9  812.20   33.38
   6  -1  -8  141.95   13.41
  -6   1   7  971.96   35.06
   6  -1  -7 1033.98   32.63
  -6   1   6  504.07   24.81
   6  -1  -6  576.44   23.15
   6  -1  -5  107.01    9.94
   6  -1  -4 1131.05   30.44
   6  -1  -3  414.47   17.85
   6  -1  -2  652.74   21.84
   6  -1  -1  541.19   19.93
   6  -1   0  130.74   10.37
   6  -1   1   60.63    7.37
  -6   1  -1   61.99   10.52
  -6   1  -2   19.18    4.57
  -6   1  -2   20.50    7.64
   6  -1   2   27.43    5.40
   6  -1   3   82.59    9.22
  -6   1  -3  108.49   10.37
  -6   1  -3   86.81   12.89
  -6   1  -4   10.24    4.70
  -6   1  -4    9.21    7.75
   6  -1   4    1.68    3.95
   6  -1   5  338.47   19.55
  -6   1  -5  401.29   21.18
   6   0  -9  116.19   12.88
   6   0  -8  402.93   20.79
  -6   0   7    7.98    5.46
   6   0  -7    1.42    3.05
  -6   0   6  160.14   14.03
   6   0  -6  169.32   12.23
  -6   0   5   97.47   11.47
   6   0  -5   73.91    7.98
   6   0  -5   86.51    9.30
   6   0  -4   20.84    4.59
  -6   0   4   11.70    5.77
   6   0  -3    2.64    2.80
  -6   0   3   -3.24    4.54
   6   0  -2 1426.10   31.02
  -6   0   2 1541.14   45.57
   6   0  -1  658.69   21.39
  -6   0   1  602.14   28.95
   6   0   0  428.98   17.60
  -6   0   0  409.83   23.90
   6   0   1  456.73   18.87
  -6   0  -1  437.20   25.72
  -6   0  -2   -0.46    2.95
   6   0   2    4.10    3.26
   6   0   3 2119.32   43.59
  -6   0  -3 2174.59   44.41
  -6   0  -3 2041.67   57.19
   6   0   4  238.02   15.77
  -6   0  -4  241.60   15.72
  -6   0  -4  243.41   21.09
   6   0   5   24.12    6.64
   6   1 -10   43.19    8.38
   6   1  -9 1715.74   44.64
   6   1  -8  256.63   15.95
  -6  -1   7  397.49   22.77
   6   1  -7  408.00   18.93
  -6  -1   6  765.99   31.57
   6   1  -6  776.09   24.66
   6   1  -6  814.83   31.71
  -6  -1   5  401.56   23.14
   6   1  -5  386.23   17.12
   6   1  -5  393.62   21.03
  -6  -1   4 4061.43   72.90
   6   1  -4 3891.80   50.64
   6   1  -3  143.85    9.69
  -6  -1   3  142.38   14.44
   6   1  -2  116.17    8.66
  -6  -1   2  104.24   12.49
   6   1  -1  887.11   24.06
  -6  -1   1  902.10   36.35
   6   1   0  877.15   24.50
  -6  -1   0  909.28   37.25
   6   1   1  500.66   19.24
  -6  -1  -1  517.71   28.87
   6   1   2  150.76   11.25
  -6  -1  -2  167.84   17.20
  -6  -1  -3    6.57    6.35
   6   1   3    3.79    4.03
  -6  -1  -4    0.72    3.95
   6   1   4   -0.76    3.92
   6   2 -10   -3.40    5.56
   6   2  -9    5.22    4.33
  -6  -2   8  318.13   21.41
   6   2  -8  311.61   21.65
   6   2  -8  316.26   17.11
  -6  -2   7  388.34   23.06
   6   2  -7  404.76   24.53
   6   2  -7  397.38   18.07
  -6  -2   6   76.24   10.87
   6   2  -6   87.26    8.27
   6   2  -6   84.86   11.60
  -6  -2   5  237.01   18.45
   6   2  -5  243.91   13.03
   6   2  -5  217.72   16.49
  -6  -2   4   98.04   12.00
   6   2  -4   95.88    8.06
   6   2  -3  131.05    8.99
  -6  -2   3  122.41   13.92
   6   2  -2   35.65    4.97
  -6  -2   2   28.79    7.85
   6   2  -1   23.32    4.24
  -6  -2   1   24.33    7.51
   6   2   0  396.41   15.94
  -6  -2   0  423.60   26.46
   6   2   1  694.65   21.90
  -6  -2  -1  694.36   34.76
  -6  -2  -2  488.59   30.27
   6   2   3  450.41   19.80
  -6  -2  -3  416.15   28.77
   6   3 -10  158.59   14.02
   6   3  -9  193.97   14.45
   6   3  -9  153.60   17.54
  -6  -3   8  142.65   15.52
   6   3  -8  164.37   17.58
  -6  -3   7  519.94   28.42
   6   3  -7  504.38   28.15
   6   3  -7  516.93   19.66
   6   3  -6 1309.94   43.17
   6   3  -6 1251.43   29.04
  -6  -3   5  148.69   15.73
   6   3  -5  118.64    8.75
   6   3  -5  136.78   13.63
  -6  -3   4 1507.52   48.59
   6   3  -4 1536.58   30.25
   6   3  -3   33.44    4.53
  -6  -3   3   53.51   10.01
  -6  -3   2  585.34   31.88
  -6  -3   1 2221.57   63.16
  -6  -3   0   52.39   11.57
  -6  -3  -1  233.97   22.04
  -6  -3  -2   49.91   11.98
   6   4 -10   10.91    8.03
   6   4  -9  413.96   28.78
  -6  -4   8 1167.13   44.13
   6   4  -8 1207.67   47.33
  -6  -4   7  198.52   18.39
   6   4  -7  194.70   18.74
   6   4  -6   12.56    6.80
  -6  -4   6    3.51    5.23
   6   4  -5    1.95    4.91
  -6  -4   5    3.27    5.65
  -6  -4   4  410.62   27.45
  -6  -4   3  245.40   21.89
  -6  -4   2   16.21    9.12
  -6  -4   1  111.95   16.27
  -6  -4   0   25.25    8.65
  -6  -4  -1    9.41    8.47
   6   5  -9  127.41   17.69
  -6  -5   8  282.50   23.72
   6   5  -8  309.83   25.79
   6   5  -7   15.73    8.05
  -6  -5   7   19.89    8.16
  -6  -5   6   76.34   12.92
   6   5  -6   60.47   11.75
   6   5  -5   27.63    8.10
  -6  -5   5   21.01    8.60
  -6  -5   4 1936.41   61.49
  -6  -5   3  445.63   30.58
  -6  -5   2    9.65    8.29
  -6  -5   1  851.35   43.58
  -6  -5   0    9.91    9.88
  -6  -6   8  533.54   33.84
   6   6  -8  555.39   34.73
  -6  -6   7  181.50   20.16
   6   6  -7  205.21   20.89
  -6  -6   6  541.70   34.46
   6   6  -6  615.34   34.48
  -6  -6   5  628.29   37.09
   6   6  -5  431.97   26.49
  -6  -6   4  111.96   16.75
   6   6  -4   91.90   13.26
  -6  -6   3  113.57   17.83
   7  -5  -2  206.39   15.76
   7  -5  -1    7.87    4.77
   7  -5   0  177.96   14.70
   7  -4  -4  272.70   18.69
   7  -4  -3   20.06    6.74
   7  -4  -2    2.12    4.03
   7  -4  -1  188.48   14.76
   7  -4   0  441.90   21.96
   7  -4   1  772.23   29.00
   7  -3  -5   15.07    5.78
   7  -3  -4 1058.86   35.34
   7  -3  -3    2.91    3.79
   7  -3  -2 1140.32   34.53
   7  -3   0    8.70    4.98
   7  -3   1  612.07   25.71
   7  -3   2   73.12    9.77
  -7   3  -3   29.00    7.24
  -7   3  -3   22.45    9.70
  -7   2   6   88.41   13.55
   7  -2  -6  117.33   12.05
   7  -2  -5  122.25   11.98
   7  -2  -4   30.55    6.96
   7  -2  -3  387.46   19.44
   7  -2  -2    1.90    3.15
   7  -2  -1  558.00   23.22
   7  -2   0    4.69    4.00
   7  -2   1   29.02    6.24
  -7   2  -1   24.97    8.99
  -7   2  -2    4.54    7.67
   7  -2   2    7.45    4.29
  -7   2  -3  251.53   16.93
  -7   2  -3  232.60   22.07
  -7   1   7  116.08   14.34
   7  -1  -7  158.53   14.31
  -7   1   6  210.06   18.89
   7  -1  -6  235.27   16.30
   7  -1  -5    5.87    4.36
  -7   1   5   17.58    8.06
  -7   1   4 1244.95   45.36
   7  -1  -4 1252.07   35.60
  -7   1   3  619.63   32.33
   7  -1  -3  645.45   24.46
   7  -1  -2  335.39   17.73
   7  -1  -1  350.23   17.71
  -7   1   1  327.16   24.52
   7  -1   0   49.84    7.73
  -7   1   0   54.90   11.32
   7  -1   1 1624.55   39.77
  -7   1  -1 1571.70   52.68
  -7   1  -2  130.49   17.18
  -7   1  -3    5.60    8.20
   7   0  -8  108.59   12.02
  -7   0   7   69.99   11.27
   7   0  -7   88.56   10.34
  -7   0   6 1337.70   45.86
   7   0  -6 1308.82   36.07
   7   0  -5   24.89    5.42
  -7   0   5   33.46    8.86
   7   0  -4   22.01    5.29
  -7   0   4   40.63    9.49
  -7   0   3  246.75   20.80
   7   0  -3  245.19   14.74
  -7   0   2  211.01   19.40
   7   0  -1  104.49    9.63
  -7   0   1  106.76   15.10
   7   0   0  273.38   16.00
  -7   0   0  227.59   21.14
   7   0   1    6.86    4.15
  -7   0  -1   11.70    8.33
  -7   0  -2    8.63    8.16
   7   0   2    4.45    3.96
  -7   0  -3    4.20    8.32
   7   1  -8   29.07    7.15
  -7  -1   7  387.69   25.24
   7   1  -7  413.09   20.62
  -7  -1   6  257.47   20.93
   7   1  -6  279.01   16.25
  -7  -1   5  197.47   18.84
   7   1  -5  157.70   12.14
   7   1  -5  198.98   17.10
  -7  -1   4  174.93   18.17
   7   1  -4  188.18   12.67
  -7  -1   3  284.50   22.74
   7   1  -3  272.48   14.93
   7   1  -2  858.46   26.19
  -7  -1   2  922.13   41.06
  -7  -1   1  793.88   38.50
   7   1   0  351.33   17.29
  -7  -1   0  317.09   25.00
   7   1   1  626.50   23.65
  -7  -1  -1  639.46   36.12
   7   2  -9  440.79   22.97
  -7  -2   8  702.85   35.01
   7   2  -8  689.69   26.20
  -7  -2   7  112.79   14.55
   7   2  -7  127.06   11.22
  -7  -2   6  948.40   40.41
   7   2  -6  870.53   27.09
   7   2  -6  924.45   37.95
   7   2  -5    2.21    4.95
   7   2  -5    4.50    3.39
  -7  -2   5    7.22    7.13
  -7  -2   4  168.53   18.22
   7   2  -4  209.42   13.29
   7   2  -3 1371.10   31.39
  -7  -2   3 1587.77   53.89
  -7  -2   2   15.91    7.72
   7   2  -1   49.16    6.54
  -7  -2   1   45.80   11.34
  -7  -2   0   39.00   10.93
  -7  -2  -1   71.01   14.92
   7   3  -8   10.25    7.91
  -7  -3   8   17.82    9.17
   7   3  -7   -2.03    6.87
  -7  -3   7    0.65    7.03
   7   3  -6   12.81    7.56
  -7  -3   6    8.33    7.20
   7   3  -5    2.55    5.44
  -7  -3   5    4.56    6.47
  -7  -3   3  456.07   30.97
  -7  -3   2    7.94    9.16
  -7  -3   1    4.01    7.43
   7   4  -8   45.07   12.60
  -7  -4   8   37.51    9.86
  -7  -4   7   44.66   12.05
  -7  -4   6 1008.48   45.42
   7   4  -6 1060.10   43.38
  -7  -4   5  290.24   25.30
   7   4  -5  212.81   19.33
  -7  -4   4   20.98   10.15
  -7  -4   3  547.82   35.44
   8   0  -4  146.39   13.50
   8   0  -3  468.53   21.80
   8   1  -5  550.92   24.30
   8   1  -4   -1.66    4.48
   8   1  -3   -1.33    4.02
   0   0   0    0.00    0.00


TITL Ca2Ni(HSeO3)2(SeO3)2 in P-1
REM P-1 (#2 in standard setting)
CELL 0.71073   5.285837   7.039838   8.418017 110.4131 105.0269  91.7858
ZERR    1.00   0.000152   0.000213   0.000270   0.0029   0.0027   0.0024
LATT  1
SFAC C H N O
UNIT 11.00 10.00 1.00 1.00
TREF
HKLF 4
END
_computing_structure_solution     'SHELXT 2014/5 (Sheldrick, 2014)'
;
_shelx_hkl_checksum              90778
_olex2_submission_special_instructions 'No special instructions were received'
_oxdiff_exptl_absorpt_empirical_details
;
Empirical correction (ABSPACK) includes:
- Absorption correction using spherical harmonics
- Frame scaling
- Detector area scaling
;
_oxdiff_exptl_absorpt_empirical_full_max 1.795
_oxdiff_exptl_absorpt_empirical_full_min 0.587
loop_
_space_group_symop_operation_xyz
'x, y, z'
'-x, -y, -z'
loop_
_atom_site_label
_atom_site_type_symbol
_atom_site_fract_x
_atom_site_fract_y
_atom_site_fract_z
_atom_site_U_iso_or_equiv
_atom_site_adp_type
_atom_site_occupancy
_atom_site_site_symmetry_order
_atom_site_calc_flag
_atom_site_refinement_flags_posn
_atom_site_refinement_flags_adp
_atom_site_refinement_flags_occupancy
_atom_site_disorder_assembly
_atom_site_disorder_group
Se1 Se -0.07065(5) 0.23864(4) 0.31915(3) 0.00761(8) Uani 1 1 d . . . . .
Se2 Se 0.70857(5) 0.18973(4) 0.72458(3) 0.00950(8) Uani 1 1 d . . . . .
Ni1 Ni 0.500000 0.500000 0.500000 0.00764(11) Uani 1 2 d S T P . .
Ca1 Ca 0.38290(10) 0.27180(9) 0.04715(7) 0.00887(12) Uani 1 1 d . . . . .
O1 O 0.6350(4) 0.3716(3) 0.8885(3) 0.0137(4) Uani 1 1 d . . . . .
O2 O -0.2517(4) 0.4395(3) 0.3333(3) 0.0105(4) Uani 1 1 d . . . . .
O3 O 0.1953(4) 0.3298(3) 0.2763(3) 0.0108(4) Uani 1 1 d . . . . .
O4 O 0.5771(4) 0.2353(3) 0.5427(3) 0.0136(4) Uani 1 1 d . . . . .
O5 O 1.0545(4) 0.2704(4) 0.7739(3) 0.0155(4) Uani 1 1 d . . . . .
O6 O -0.2516(4) 0.0782(3) 0.1167(3) 0.0146(4) Uani 1 1 d . . . . .
H5 H 1.096(12) 0.366(9) 0.740(9) 0.065(19) Uiso 1 1 d . . . . .
loop_
_atom_site_aniso_label
_atom_site_aniso_U_11
_atom_site_aniso_U_22
_atom_site_aniso_U_33
_atom_site_aniso_U_23
_atom_site_aniso_U_13
_atom_site_aniso_U_12
Se1 0.00660(12) 0.00708(17) 0.00867(12) 0.00292(11) 0.00145(8) 0.00062(9)
Se2 0.01135(13) 0.00710(17) 0.00925(13) 0.00305(11) 0.00159(9) 0.00138(10)
Ni1 0.00622(19) 0.0081(3) 0.0072(2) 0.00178(19) 0.00113(15) 0.00078(17)
Ca1 0.0096(2) 0.0082(3) 0.0083(2) 0.0024(2) 0.00255(17) 0.00080(19)
O1 0.0188(10) 0.0122(12) 0.0120(9) 0.0036(8) 0.0082(7) 0.0042(8)
O2 0.0105(8) 0.0089(11) 0.0120(8) 0.0026(8) 0.0043(7) 0.0041(7)
O3 0.0057(8) 0.0151(12) 0.0105(8) 0.0034(8) 0.0025(6) -0.0012(7)
O4 0.0175(10) 0.0135(12) 0.0092(8) 0.0057(8) 0.0006(7) 0.0024(8)
O5 0.0100(9) 0.0185(13) 0.0193(10) 0.0111(9) 0.0009(7) 0.0027(8)
O6 0.0139(9) 0.0068(11) 0.0141(9) -0.0013(8) -0.0034(7) -0.0006(8)
loop_
_atom_type_symbol
_atom_type_description
_atom_type_scat_dispersion_real
_atom_type_scat_dispersion_imag
_atom_type_scat_source
Ca Ca 0.2262 0.3064 'International Tables Vol C Tables 4.2.6.8 and 6.1.1.4'
H H 0.0000 0.0000 'International Tables Vol C Tables 4.2.6.8 and 6.1.1.4'
Ni Ni 0.3393 1.1124 'International Tables Vol C Tables 4.2.6.8 and 6.1.1.4'
O O 0.0106 0.0060 'International Tables Vol C Tables 4.2.6.8 and 6.1.1.4'
Se Se -0.0929 2.2259 'International Tables Vol C Tables 4.2.6.8 and 6.1.1.4'
loop_
_geom_angle_atom_site_label_1
_geom_angle_atom_site_label_2
_geom_angle_atom_site_label_3
_geom_angle
_geom_angle_site_symmetry_1
_geom_angle_site_symmetry_3
_geom_angle_publ_flag
O2 Se1 Ca1 50.07(7) . 1_455 ?
O3 Se1 Ca1 110.41(7) . 1_455 ?
O3 Se1 O2 99.97(10) . . ?
O6 Se1 Ca1 47.67(8) . 1_455 ?
O6 Se1 O2 97.58(10) . . ?
O6 Se1 O3 102.40(10) . . ?
O1 Se2 Ca1 36.78(8) . 1_556 ?
O1 Se2 O5 100.58(11) . . ?
O4 Se2 Ca1 120.73(8) . 1_556 ?
O4 Se2 O1 106.37(11) . . ?
O4 Se2 O5 103.12(11) . . ?
O5 Se2 Ca1 123.28(7) . 1_556 ?
O2 Ni1 O2 180.0 2_566 1_655 ?
O3 Ni1 O2 86.65(8) . 1_655 ?
O3 Ni1 O2 86.65(8) 2_666 2_566 ?
O3 Ni1 O2 93.35(8) 2_666 1_655 ?
O3 Ni1 O2 93.35(8) . 2_566 ?
O3 Ni1 O3 180.00(9) . 2_666 ?
O4 Ni1 O2 89.04(8) . 1_655 ?
O4 Ni1 O2 89.04(8) 2_666 2_566 ?
O4 Ni1 O2 90.96(8) 2_666 1_655 ?
O4 Ni1 O2 90.96(8) . 2_566 ?
O4 Ni1 O3 91.30(8) . 2_666 ?
O4 Ni1 O3 88.70(8) . . ?
O4 Ni1 O3 88.70(8) 2_666 2_666 ?
O4 Ni1 O3 91.30(8) 2_666 . ?
O4 Ni1 O4 180.0 2_666 . ?
Se1 Ca1 Se2 88.957(15) 1_655 1_554 ?
Se1 Ca1 Ni1 58.966(10) 1_655 . ?
Se1 Ca1 Ca1 62.844(15) 1_655 2_655 ?
Se1 Ca1 Ca1 99.47(2) 1_655 2_665 ?
Se2 Ca1 Ca1 72.255(16) 1_554 2_655 ?
Se2 Ca1 Ca1 61.141(15) 1_554 2_665 ?
Ni1 Ca1 Se2 140.541(17) . 1_554 ?
Ni1 Ca1 Ca1 99.38(2) . 2_665 ?
Ni1 Ca1 Ca1 106.92(2) . 2_655 ?
Ca1 Ca1 Ca1 130.63(3) 2_665 2_655 ?
O1 Ca1 Se1 89.16(6) 1_554 1_655 ?
O1 Ca1 Se1 106.08(6) 2_666 1_655 ?
O1 Ca1 Se2 97.22(5) 2_666 1_554 ?
O1 Ca1 Se2 24.98(5) 1_554 1_554 ?
O1 Ca1 Ni1 73.36(5) 2_666 . ?
O1 Ca1 Ni1 123.54(6) 1_554 . ?
O1 Ca1 Ca1 164.14(6) 2_666 2_655 ?
O1 Ca1 Ca1 36.83(5) 1_554 2_665 ?
O1 Ca1 Ca1 94.52(6) 1_554 2_655 ?
O1 Ca1 Ca1 36.36(5) 2_666 2_665 ?
O1 Ca1 O1 73.19(8) 1_554 2_666 ?
O1 Ca1 O2 91.05(7) 1_554 1_655 ?
O1 Ca1 O2 76.64(7) 2_666 1_655 ?
O1 Ca1 O5 74.80(8) 1_554 1_454 ?
O1 Ca1 O5 78.05(8) 2_666 1_454 ?
O1 Ca1 O6 84.69(8) 1_554 1_655 ?
O1 Ca1 O6 132.26(8) 2_666 1_655 ?
O2 Ca1 Se1 31.44(5) 1_655 1_655 ?
O2 Ca1 Se2 103.43(5) 1_655 1_554 ?
O2 Ca1 Ni1 37.37(4) 1_655 . ?
O2 Ca1 Ca1 82.33(5) 1_655 2_665 ?
O2 Ca1 Ca1 93.96(5) 1_655 2_655 ?
O3 Ca1 Se1 87.04(5) . 1_655 ?
O3 Ca1 Se2 175.91(5) . 1_554 ?
O3 Ca1 Ni1 35.69(5) . . ?
O3 Ca1 Ca1 106.54(6) . 2_655 ?
O3 Ca1 Ca1 118.75(6) . 2_665 ?
O3 Ca1 O1 83.10(8) . 2_666 ?
O3 Ca1 O1 153.91(8) . 1_554 ?
O3 Ca1 O2 72.65(7) . 1_655 ?
O3 Ca1 O5 111.24(7) . 1_454 ?
O3 Ca1 O6 104.15(8) . 1_655 ?
O3 Ca1 O6 102.80(8) . 2 ?
O5 Ca1 Se1 161.70(6) 1_454 1_655 ?
O5 Ca1 Se2 72.78(5) 1_454 1_554 ?
O5 Ca1 Ni1 137.82(6) 1_454 . ?
O5 Ca1 Ca1 108.93(6) 1_454 2_655 ?
O5 Ca1 Ca1 73.02(6) 1_454 2_665 ?
O5 Ca1 O2 153.69(8) 1_454 1_655 ?
O6 Ca1 Se1 30.38(5) 1_655 1_655 ?
O6 Ca1 Se1 98.06(5) 2 1_655 ?
O6 Ca1 Se2 72.60(6) 1_655 1_554 ?
O6 Ca1 Se2 78.59(6) 2 1_554 ?
O6 Ca1 Ni1 85.63(5) 1_655 . ?
O6 Ca1 Ni1 124.71(6) 2 . ?
O6 Ca1 Ca1 111.34(6) 1_655 2_665 ?
O6 Ca1 Ca1 135.40(6) 2 2_665 ?
O6 Ca1 Ca1 36.02(5) 2 2_655 ?
O6 Ca1 Ca1 33.98(5) 1_655 2_655 ?
O6 Ca1 O1 155.45(8) 2 2_666 ?
O6 Ca1 O1 103.29(8) 2 1_554 ?
O6 Ca1 O2 127.91(7) 2 1_655 ?
O6 Ca1 O2 61.74(7) 1_655 1_655 ?
O6 Ca1 O5 136.24(8) 1_655 1_454 ?
O6 Ca1 O5 77.62(8) 2 1_454 ?
O6 Ca1 O6 70.00(8) 2 1_655 ?
Se2 O1 Ca1 132.24(11) . 2_666 ?
Se2 O1 Ca1 118.23(12) . 1_556 ?
Ca1 O1 Ca1 106.81(8) 1_556 2_666 ?
Se1 O2 Ni1 119.31(11) . 1_455 ?
Se1 O2 Ca1 98.49(9) . 1_455 ?
Ni1 O2 Ca1 95.95(7) 1_455 1_455 ?
Se1 O3 Ni1 114.50(10) . . ?
Se1 O3 Ca1 139.89(11) . . ?
Ni1 O3 Ca1 103.82(8) . . ?
Se2 O4 Ni1 132.35(12) . . ?
Se2 O5 Ca1 122.00(11) . 1_656 ?
Se1 O6 Ca1 101.95(10) . 1_455 ?
Se1 O6 Ca1 140.46(12) . 2 ?
Ca1 O6 Ca1 110.00(8) 2 1_455 ?
loop_
_geom_bond_atom_site_label_1
_geom_bond_atom_site_label_2
_geom_bond_distance
_geom_bond_site_symmetry_2
_geom_bond_publ_flag
Se1 Ca1 3.2597(6) 1_455 ?
Se1 O2 1.719(2) . ?
Se1 O3 1.6989(19) . ?
Se1 O6 1.685(2) . ?
Se2 Ca1 3.4730(6) 1_556 ?
Se2 O1 1.665(2) . ?
Se2 O4 1.653(2) . ?
Se2 O5 1.793(2) . ?
Ni1 O2 2.109(2) 2_566 ?
Ni1 O2 2.109(2) 1_655 ?
Ni1 O3 2.0758(19) . ?
Ni1 O3 2.0758(19) 2_666 ?
Ni1 O4 2.051(2) . ?
Ni1 O4 2.051(2) 2_666 ?
Ca1 Ca1 3.8114(12) 2_665 ?
Ca1 Ca1 3.9361(12) 2_655 ?
Ca1 O1 2.361(2) 1_554 ?
Ca1 O1 2.387(2) 2_666 ?
Ca1 O2 2.527(2) 1_655 ?
Ca1 O3 2.311(2) . ?
Ca1 O5 2.493(2) 1_454 ?
Ca1 O6 2.463(2) 1_655 ?
Ca1 O6 2.341(2) 2 ?
