#------------------------------------------------------------------------------
#$Date: 2021-11-19 01:58:58 +0200 (Fri, 19 Nov 2021) $
#$Revision: 270754 $
#$URL: file:///home/coder/svn-repositories/cod/cif/7/70/88/7708872.cif $
#------------------------------------------------------------------------------
#
# This file is available in the Crystallography Open Database (COD),
# http://www.crystallography.net/
#
# All data on this site have been placed in the public domain by the
# contributors.
#
data_7708872
loop_
_publ_author_name
'Murphy, Gabriel L.'
'Kegler, Philip'
'Klinkenberg, Martina'
'Wilden, Andreas'
'Henkes, Maximilian'
'Schneider, Dimitri'
'Alekseev, Evgeny V.'
_publ_section_title
;
 Incorporation of iodine into uranium oxyhydroxide phases.
;
_journal_name_full
'Dalton transactions (Cambridge, England : 2003)'
_journal_paper_doi               10.1039/d1dt03237b
_journal_year                    2021
_chemical_formula_sum            'I K O14 Rb U3'
_chemical_formula_weight         1189.56
_space_group_crystal_system      trigonal
_space_group_IT_number           157
_space_group_name_Hall           'P 3 -2'
_space_group_name_H-M_alt        'P 3 1 m'
_audit_creation_method           SHELXL-2018/3
_audit_update_record
;
2021-07-02 deposited with the CCDC.	2021-11-05 downloaded from the CCDC.
;
_cell_angle_alpha                90
_cell_angle_beta                 90
_cell_angle_gamma                120
_cell_formula_units_Z            1
_cell_length_a                   7.1406(5)
_cell_length_b                   7.1406(5)
_cell_length_c                   7.4646(7)
_cell_measurement_reflns_used    3469
_cell_measurement_temperature    293(2)
_cell_measurement_theta_max      32.544
_cell_measurement_theta_min      2.729
_cell_volume                     329.61(4)
_computing_structure_refinement  'SHELXL-2018/3 (Sheldrick, 2018)'
_diffrn_ambient_temperature      293(2)
_diffrn_measured_fraction_theta_full 1.000
_diffrn_measured_fraction_theta_max 1.000
_diffrn_measurement_device_type  'SuperNova, Dual, Cu at zero, Eos'
_diffrn_measurement_method       '\w scans'
_diffrn_radiation_type           MoK\a
_diffrn_radiation_wavelength     0.71073
_diffrn_reflns_av_R_equivalents  0.0945
_diffrn_reflns_av_unetI/netI     0.0760
_diffrn_reflns_Laue_measured_fraction_full 1.000
_diffrn_reflns_Laue_measured_fraction_max 1.000
_diffrn_reflns_limit_h_max       10
_diffrn_reflns_limit_h_min       -6
_diffrn_reflns_limit_k_max       9
_diffrn_reflns_limit_k_min       -10
_diffrn_reflns_limit_l_max       10
_diffrn_reflns_limit_l_min       -10
_diffrn_reflns_number            3315
_diffrn_reflns_point_group_measured_fraction_full 0.983
_diffrn_reflns_point_group_measured_fraction_max 0.988
_diffrn_reflns_theta_full        25.242
_diffrn_reflns_theta_max         30.495
_diffrn_reflns_theta_min         2.729
_diffrn_standards_decay_%        0
_diffrn_standards_interval_count 0
_diffrn_standards_number         0
_exptl_absorpt_coefficient_mu    43.152
_exptl_absorpt_correction_type   multi-scan
_exptl_crystal_colour            yellow
_exptl_crystal_density_diffrn    5.993
_exptl_crystal_description       plate
_exptl_crystal_F_000             497
_exptl_crystal_size_max          0.8
_exptl_crystal_size_mid          0.7
_exptl_crystal_size_min          0.6
_exptl_transmission_factor_max   0
_exptl_transmission_factor_min   0
_refine_diff_density_max         2.609
_refine_diff_density_min         -3.087
_refine_diff_density_rms         0.432
_refine_ls_abs_structure_details
;
 Flack x determined using 268 quotients [(I+)-(I-)]/[(I+)+(I-)]
 (Parsons, Flack and Wagner, Acta Cryst. B69 (2013) 249-259).
;
_refine_ls_abs_structure_Flack   -0.04(3)
_refine_ls_extinction_method     none
_refine_ls_goodness_of_fit_ref   1.078
_refine_ls_hydrogen_treatment    undef
_refine_ls_matrix_type           full
_refine_ls_number_parameters     50
_refine_ls_number_reflns         755
_refine_ls_number_restraints     25
_refine_ls_restrained_S_all      1.069
_refine_ls_R_factor_all          0.0558
_refine_ls_R_factor_gt           0.0447
_refine_ls_shift/su_max          0.032
_refine_ls_shift/su_mean         0.002
_refine_ls_structure_factor_coef Fsqd
_refine_ls_weighting_details
'w=1/[\s^2^(Fo^2^)+(0.0359P)^2^+2.1869P] where P=(Fo^2^+2Fc^2^)/3'
_refine_ls_weighting_scheme      calc
_refine_ls_wR_factor_gt          0.0916
_refine_ls_wR_factor_ref         0.0968
_reflns_Friedel_coverage         0.956
_reflns_Friedel_fraction_full    0.965
_reflns_Friedel_fraction_max     0.976
_reflns_number_gt                665
_reflns_number_total             755
_reflns_threshold_expression     'I > 2\s(I)'
_cod_data_source_file            d1dt03237b2.cif
_cod_data_source_block           shelx
_cod_original_cell_volume        329.61(6)
_cod_database_code               7708872
_shelx_shelxl_version_number     2018/3
_shelx_space_group_comment
;
The symmetry employed for this shelxl refinement is uniquely defined
by the following loop, which should always be used as a source of
symmetry information in preference to the above space-group names.
They are only intended as comments.
;
_shelx_res_file
;
TITL shelxt_a.res in P3
    shelx.res
    created by SHELXL-2018/3 at 14:04:49 on 30-Jan-2020
CELL  0.71073   7.1406   7.1406   7.4646   90.000   90.000  120.000
ZERR    1.000   0.0005   0.0005   0.0007    0.000    0.000    0.000
LATT   -1
SYMM   -Y,+X-Y,+Z
SYMM   +Y,+X,+Z
SYMM   -X+Y,-X,+Z
SYMM   -X,-X+Y,+Z
SYMM   +X-Y,-Y,+Z
SFAC O Rb K I U
UNIT 14 1 1 1 3
acta
rem twin 1 0 0 -1 -1 0 0 0 -1
twin -1 0 0 1 1 0 0 0 -1
rem dfix 1.75 0.01 O4 I2
isor 0.006 0.001 O2
isor 0.001 0.0001 O1
isor 0.01 0.001 Rb1 K1
shel 0.7 99
L.S. 20
BOND
FMAP 2
PLAN 20

WGHT    0.035900    2.186900
SWAT    0.000081 1055.3951
BASF   0.46176
FVAR       0.55131   0.02530   0.02528   0.03593   0.01567   0.00002   0.00026
FVAR       1.04794
MOLE   1
U1    5    0.618586    0.000000    0.547523    10.50000    0.01154    0.00856 =
         0.02165    0.00000   -0.00018    0.00428
I1    4    1.000000    0.000000    0.093146    10.08333    0.02544    0.02544 =
         0.02299    0.00000    0.00000    0.01272
I2    4    1.000000    0.000000    1.003940    10.08330    0.02439    0.02439 =
         0.02476    0.00000    0.00000    0.01219
RB1   2    0.666667    0.333333   81.000000    10.16666   21.00000   31.00000 =
        41.00000   61.00000   71.00000   51.00000
K1    3    0.666667    0.333333   81.000000    10.16666   21.00000   31.00000 =
        41.00000   61.00000   71.00000   51.00000
O1    1    0.584989    0.000000    0.782961    10.50000    0.06232    0.06215 =
         0.06201    0.00000   -0.00011    0.03108
O2    1    0.644534    0.000000    0.315114    10.50000    0.05247    0.03387 =
         0.02609    0.00000    0.00617    0.01694
O3    1    0.666667    0.333333    0.538408    10.33333    0.01179    0.01179 =
         0.05680    0.00000    0.00000    0.00590
O4A   1    1.233452    0.000000    0.987297    10.25000    0.02368
O4B   1    1.234031    0.000000    0.106080    10.25000    0.02493
O5A   1    1.000000    0.271009    0.486539    10.25000    0.02169
O5B   1    1.000000    0.262657    0.613410    10.25000    0.02422
HKLF 4




REM  shelxt_a.res in P3
REM wR2 = 0.0968, GooF = S = 1.078, Restrained GooF = 1.069 for all data
REM R1 = 0.0447 for 665 Fo > 4sig(Fo) and 0.0558 for all 755 data
REM 50 parameters refined using 25 restraints

END

WGHT      0.0336      1.7417

REM Highest difference peak  2.609,  deepest hole -3.087,  1-sigma level  0.432
Q1    1   0.6766  0.0000  0.7712  10.50000  0.05    2.61
Q2    1   0.5602  0.0000  0.3092  10.50000  0.05    2.47
Q3    1   0.7508  0.0000  0.5474  10.50000  0.05    2.46
Q4    1   0.7142  0.0000  0.3361  10.50000  0.05    2.25
Q5    1   0.5992  0.0000  0.6614  10.50000  0.05    1.94
Q6    1   0.6044  0.0000  0.4406  10.50000  0.05    1.61
Q7    1   1.0000  0.0000  0.8557  10.16667  0.05    1.53
Q8    1   1.0000  0.3101  0.3894  10.50000  0.05    1.39
Q9    1   1.0000  0.0000  0.5223  10.16667  0.05    1.33
Q10   1   1.0891 -0.0658  1.0402  11.00000  0.05    1.30
Q11   1   0.8267  0.0000  0.8033  10.50000  0.05    1.30
Q12   1   0.6667  0.3333  0.4147  10.33333  0.05    1.29
Q13   1   0.7558  0.1202  0.6297  11.00000  0.05    1.25
Q14   1   0.7318  0.3447  0.9837  11.00000  0.05    1.14
Q15   1   0.6019  0.1874  0.2356  11.00000  0.05    1.13
Q16   1   0.7246  0.1677  0.5504  11.00000  0.05    1.13
Q17   1   0.8886  0.0000  0.7398  10.50000  0.05    1.11
Q18   1   1.3635  0.1290  0.1444  11.00000  0.05    1.11
Q19   1   1.3558  0.0000  0.2510  10.50000  0.05    1.11
Q20   1   0.6667  0.3333  0.8245  10.33333  0.05    1.10
;
_shelx_res_checksum              61230
_shelx_hkl_file
;
   0   0  -1 8779.32 192.801   4
   0   0   1 8816.31 193.493   3
   0   0   2 26017.1 457.867   3
   0   0   2 26284.2 488.485   4
   0   0   3 5034.79 245.440   3
   0   0   3 4935.81 262.112   4
   0   0   4 17471.5 545.394   4
   0   0   4 17801.2 526.136   3
   0   0   5 5011.85 312.315   4
   0   0   5 4948.01 307.729   3
   0   0   6 4277.31 319.673   4
   0   0   6 5279.33 325.389   3
   0   0   7 2696.99 267.217   3
   0   0   7 2378.65 243.159   4
   0   0   8 2022.77 243.741   4
   0   0   9 1754.92 239.217   4
   0   0  10 712.241 166.968   4
   0   0 -10 908.551 219.763   6
   0  -1   0 153.560 34.9045   6
   1   0   0 124.682 23.4071   2
   0   1   0 112.576 38.8584   1
   0  -1   0 102.377 18.6832   4
   1   0   0 107.430 30.9918   3
   1  -1   0 130.383 36.4007   3
   1  -1   1 1232.57 123.376   3
   1   0   1 1057.05 88.4781   3
   0   1   1 887.334 85.3834   1
   0   1  -1 1056.57 88.5442   1
  -1   1   1 1138.78 57.1518   3
   1   0  -1 1386.57 108.403   2
   0  -1  -1 1024.99 51.6889   2
   1  -1  -1 1103.16 56.5043   3
   1  -1  -1 954.029 74.7055   2
   1  -1   2 41.2000 29.3829   5
   0   1  -2 44.7052 18.5726   5
   0   1   2 63.2593 40.6015   1
   1  -1  -2 59.6639 54.4093   2
   0   1   2 87.1146 29.2586   3
  -1   0   2 85.6344 24.1140   4
   1   0   2 41.5216 60.0903   3
   1  -1   2 66.1726 79.6854   3
   1   0  -2 39.4422 20.2069   4
   0  -1  -2-37.0257 31.9129   1
   0  -1  -2 89.8608 23.1678   3
   0  -1   2 133.620 49.0998   1
  -1   1   2 41.4147 31.2475   4
   1   0  -2 144.902 86.1830   2
   0   1  -2 117.017 44.1197   1
   0  -1  -2 60.0081 41.0547   2
   0   1   2 58.0537 19.9927   2
   0  -1  -3 266.797 73.8549   2
   1  -1   3 329.822 93.3988   3
   1   0   3 517.018 100.333   3
  -1   1   3 366.680 66.9295   4
   1   0   3 564.124 79.1403   1
   0  -1   3 447.000 62.5163   1
   1   0  -3 348.677 107.390   2
   1  -1   3 833.243 100.178   1
   0  -1  -3 499.829 57.9347   3
   1  -1  -3 458.568 96.2706   2
   0   1   3 398.594 56.2144   1
   0   1  -3 392.813 51.7637   1
   0   1   3 332.979 47.2383   3
   0  -1  -3 418.891 58.5117   1
  -1   0   3 416.446 60.5091   4
   1   0  -4 244.547 42.4849   1
   0  -1   4 336.605 84.1422   4
  -1   1   4 264.511 55.8681   3
  -1   1   4 283.632 74.4010   4
   0  -1   4 271.500 103.717   3
   1   0   4 229.316 39.4799   1
   1   0   4 359.032 100.371   3
   1  -1   4 144.661 40.9451   1
   1  -1  -4 139.723 36.0834   1
  -1   0   4 315.848 64.9933   4
   1  -1  -4 327.772 126.038   2
   0  -1  -4 284.993 98.1827   2
   0   1   4 285.534 84.6991   4
   1   0   4 335.210 116.694   4
   1  -1   4 413.993 117.142   3
   0   1   4 306.703 61.0452   3
   0  -1   5 131.506 80.4706   3
   1  -1   5 45.7561 82.3814   3
   1  -1   5 92.8748 78.9537   4
   0  -1   5 70.5093 61.3764   4
   0   1   5 88.5581 66.8024   3
  -1   0   5 129.357 59.8895   4
   1  -1  -5 254.227 135.389   2
   1   0   5-11.8907 82.8071   4
  -1   1   5 101.734 50.0847   3
   1   0   5 53.5867 80.4256   3
  -1   1   5 39.9244 54.4401   4
   0   1   5 106.475 79.1373   4
   1  -1   6 197.316 96.3385   4
  -1   1   6 311.565 76.6568   3
  -1   0   6 359.511 90.3465   4
   0   1   6 208.837 90.2566   4
   1  -1   6 210.130 104.335   3
   0  -1   6 304.798 90.9308   4
  -1   1   6 267.650 89.6496   4
   0  -1   6 396.180 126.288   3
   1   0   6 271.307 111.839   3
   1   0   6 320.946 121.859   4
   0   1   6 249.176 78.5609   3
  -1   0   6 155.778 78.8127   3
   1   0   7-71.1854 111.758   3
   1  -1   7-6.79135 70.4979   3
  -1   0   7-31.2268 52.6277   3
   0  -1   7-17.6919 64.7825   3
   0   1   7-4.69051 63.4944   4
   1   0   7-88.1130 82.3806   4
  -1   0   7-85.6026 61.3253   4
   0  -1   7 68.5587 62.2611   4
   1  -1   7 66.7931 71.0747   4
  -1   1   7-54.5850 76.8471   4
   1   0  -7 38.5976 81.0625   6
   1   0   8 287.177 103.472   4
   0   1  -8 359.585 128.694   6
   1  -1   8 303.668 113.176   4
   1   0  -8 386.325 131.931   6
   0   1   8 223.021 90.8530   4
  -1   0   8 377.073 103.264   4
   0  -1   8 245.066 84.5238   4
  -1   1   8 358.054 108.031   4
   1  -1   9 97.8501 79.7698   4
   1   0  -9-24.9672 78.9802   6
   1   0   9 129.905 95.7840   4
   0   1   9-47.9847 82.8580   4
  -1   1   9 196.870 96.5118   4
   0   1  -9 33.1386 70.3607   6
   1   0 -10 273.806 140.063   6
   0   1  10 64.4257 59.3075   4
   1  -1 -10 243.001 128.353   6
   1   0  10 204.782 106.479   4
   1  -1  10 99.4783 69.5880   4
   0   1 -10 230.085 136.897   6
   1   0  11 13.3391 66.4022   4
   1   1   0 9259.56 364.275   1
   1  -2   0 9757.60 361.079   3
   1   1   0 10542.4 200.719   4
   1  -2   0 10573.5 158.548   6
   1   1   1 16971.6 366.910   4
   1  -2  -1 18564.9 344.011   2
   1  -2  -1 19593.7 382.863   3
   1   1   1 17542.2 506.886   1
   1   1  -1 17309.6 472.265   1
   1  -2   1 17552.8 560.629   3
   1   1   2 4240.62 187.316   3
   1  -2   2 4367.39 314.993   3
   1  -2   2 4258.19 154.108   5
   1   1  -2 4338.10 227.600   1
   1  -2  -2 4025.70 178.498   2
   1   1   2 4511.60 249.716   1
  -2   1   2 4357.25 159.362   4
  -2   1   3 10459.7 289.513   4
   1   1   3 10862.0 325.845   3
   1   1  -3 10587.8 345.470   1
   1  -2   3 10633.9 518.585   3
   1  -2  -3 10043.2 325.972   2
   1   1   3 10152.3 355.104   1
   1   1   3 10141.9 181.556   2
   1   1   4 6223.61 254.201   1
   1   1   4 6215.57 286.723   3
   1  -2  -4 6256.21 322.131   2
  -2   1   4 6019.71 261.309   4
   1   1  -4 6216.12 250.769   1
   1  -2   4 6368.16 421.631   3
   1   1  -5 6216.33 226.041   1
   1   1  -5 6486.36 397.005   6
  -2   1   5 6337.24 308.076   4
   1  -2  -5 6113.09 409.744   2
   1   1   5 6050.11 224.086   1
   1  -2   5 6360.41 438.119   3
   1   1   5 6658.01 328.552   3
   1   1   5 6803.84 425.160   4
   1  -2   6 2764.45 274.564   4
  -2   1   6 2647.04 220.390   3
   1   1   6 2957.36 242.253   3
   1  -2  -6 2955.77 312.831   2
   1  -2   6 2724.65 294.050   3
   1   1  -6 2534.52 277.376   6
   1   1   6 2604.06 282.142   4
  -2   1   6 2375.36 217.832   4
   1   1   7 2218.13 265.813   4
   1   1  -7 2431.71 292.770   6
  -2   1   7 2271.86 232.564   4
   1  -2   7 2165.09 293.188   3
   1  -2   7 2013.46 255.962   4
   1  -2   8 1868.71 280.738   3
   1   1   8 1758.77 252.304   4
   1   1  -8 2059.00 286.151   6
   1  -2   8 2114.22 257.255   4
  -2   1   8 1800.58 229.107   4
   1  -2   9 1357.75 220.341   4
   1   1  -9 1522.78 273.819   6
   1   1   9 1271.53 229.260   4
   1   1  10 740.610 182.524   4
   1   1 -10 732.802 193.826   6
   2  -1   0 9929.66 319.342   3
  -1   2   0 10075.4 343.784   1
   2  -1   0 10286.8 259.369   2
  -1  -1   0 10276.7 243.744   4
   2  -1   1 17915.5 484.063   3
   2  -1  -1 18143.5 308.225   6
   2  -1  -1 18622.5 384.032   2
  -1   2  -1 18371.1 278.283   6
  -1   2  -1 18400.2 474.468   1
   2  -1  -1 18296.4 383.615   3
   2  -1  -2 4003.53 218.670   2
   2  -1  -2 4035.69 181.162   6
  -1   2  -2 4045.52 197.072   6
   2  -1   2 4214.87 275.016   3
  -1   2   3 10253.4 368.416   4
   2  -1  -3 10997.0 422.304   2
  -1  -1   3 10683.8 251.780   4
   2  -1  -3 10511.8 346.697   6
   2  -1   3 10640.5 490.226   3
  -1  -1   4 6105.57 240.247   4
   2  -1   4 5744.53 406.774   3
   2  -1  -4 5821.96 318.576   6
   2  -1  -4 6524.55 395.341   2
  -1   2   4 6198.67 318.254   4
  -1   2   5 5666.19 345.050   4
   2  -1   5 6677.34 465.743   3
   2  -1  -5 6033.08 440.003   2
  -1  -1   5 6326.46 278.584   4
   2  -1  -5 5898.34 373.072   6
   2  -1   5 6637.45 459.819   4
   2  -1  -6 2141.68 251.365   6
  -1  -1   6 2605.09 197.074   4
   2  -1   6 2522.46 309.250   4
  -1   2   6 2153.38 240.938   4
   2  -1   6 2857.74 337.267   3
  -1  -1   7 3008.48 330.616   3
   2  -1   7 2669.04 322.900   3
   2  -1   7 1998.78 279.278   4
   2  -1  -7 2497.16 290.170   6
  -1  -1   7 2488.12 217.750   4
  -1   2   7 2367.42 280.206   4
   2  -1  -8 2343.40 306.466   6
   2  -1   8 1817.95 264.622   4
  -1   2  -8 2232.15 297.363   6
  -1   2   8 2048.69 271.218   4
  -1   2  -9 1442.83 257.442   6
   2  -1   9 1097.03 211.083   4
  -1   2   9 1239.42 221.927   4
   2  -1  -9 1263.77 243.264   6
  -1   2 -10 989.210 226.607   6
   2  -1 -10 905.450 219.827   6
  -1   2  10 663.517 171.993   4
   2  -1  10 612.948 171.971   4
   2  -1  11 171.972 104.007   4
   0   2   0 2653.06 127.720   4
   2  -2   0 2575.52 148.729   2
   2  -2   0 2425.12 184.043   3
   2   0   0 2827.57 136.962   2
   0   2   0 2513.87 203.072   1
   0   2  -1 1006.84 93.9932   6
   0   2  -1 937.788 133.447   1
  -2   0  -1 1125.35 62.9995   2
   2   0   1 1302.90 136.774   3
   2  -2  -1 1076.80 111.778   3
   2   0  -1 1309.42 135.589   2
   0   2   1 1042.72 144.719   1
   2  -2  -1 1052.99 58.2450   6
   2  -2  -1 1122.87 113.663   2
   2   0   1 1182.77 66.5144   2
   2  -2   1 1031.72 148.331   3
   2  -2  -2 994.964 110.480   2
   2   0   2 964.479 57.5261   2
   2  -2  -2 1012.24 78.2682   3
   2  -2   2 913.855 162.717   3
   0   2  -2 903.308 112.325   1
   0   2   2 1126.42 136.263   1
   2   0  -2 1156.27 149.675   2
   0  -2   2 861.197 44.4084   5
   0  -2  -2 1037.94 75.7418   2
  -2   2   2 935.074 95.3046   4
   0   2  -2 834.315 94.3122   6
   2   0  -2 1124.37 54.9972   4
   2   0   2 979.550 123.983   3
  -2   2   2 1189.55 90.8585   3
  -2   0   3 1063.83 69.1507   4
   2   0   3 1146.03 153.406   3
   0   2   3 775.740 103.534   1
   0  -2  -3 923.885 70.9669   3
  -2   2   3 931.200 107.330   4
   2   0  -3 867.077 110.490   6
   0   2  -3 866.332 108.755   1
   2  -2   3 912.945 166.966   3
   2   0  -3 1193.70 189.061   2
  -2   2   3 960.377 70.7556   3
   2  -2  -3 1004.27 127.178   2
   2  -2   3 907.391 103.072   5
   0  -2  -3 969.213 87.1346   2
   0   2  -4 1220.68 115.378   1
   2   0   4 1337.11 163.932   1
   0   2   4 1222.77 124.463   1
   2   0  -4 1098.09 131.823   1
   2   0  -4 1142.85 145.210   6
   2   0   4 1197.10 182.700   3
   0  -2  -4 1120.45 138.841   2
   2   0  -4 1267.58 217.564   2
  -2   0   4 1267.17 99.3775   4
   2  -2  -4 1132.51 163.367   2
  -2   2   4 1079.59 129.751   4
   2  -2   4 1035.13 200.351   3
   0  -2  -4 949.210 84.1894   3
   0   2  -4 1225.27 152.993   6
  -2   2   4 900.525 66.2474   3
  -2   0   5 1043.06 110.148   4
   0  -2  -5 992.585 165.300   2
   2   0   5 1053.90 115.319   1
   2  -2   5 1173.30 223.053   3
   2   0   5 988.873 183.038   3
   0   2  -5 1013.12 178.811   6
   2  -2  -5 1053.29 195.187   2
   0   2   5 832.358 159.196   4
  -2   2   5 687.528 67.8642   3
   0  -2   5 837.422 127.545   4
  -2   2   5 928.227 145.147   4
   2   0   5 1127.49 218.491   4
   2   0  -5 914.652 151.662   6
   2   0  -5 1032.92 117.254   1
   2  -2  -6 418.971 165.853   2
   2  -2   6 392.683 129.972   3
   2   0   6 369.901 145.955   4
   0  -2   6 403.115 159.558   3
   0   2   6 274.076 105.472   4
  -2   2   6 334.369 103.203   4
   0  -2   6 284.908 84.6037   4
   2   0   6 242.483 129.750   3
   0   2  -6 412.914 132.161   6
   2  -2   6 333.608 130.427   4
  -2   0   6 230.955 63.5943   4
   2   0  -6 293.345 110.673   6
   0  -2   7 720.717 130.397   4
  -2   2   7 734.169 157.630   4
   2   0   7 530.592 158.273   4
   2  -2   7 564.018 175.124   4
  -2   0   7 710.233 117.115   4
   0  -2   7 799.403 183.419   3
   2  -2  -7 416.214 185.830   2
   0   2  -7 779.102 178.967   6
   0   2   7 618.922 164.767   4
   2   0   7 973.961 213.312   3
   2   0  -7 648.397 156.141   6
   2  -2   7 676.155 175.164   3
  -2   2   8 80.2085 67.6185   4
   0  -2   8 308.205 137.554   3
   2   0  -8 222.016 123.199   6
   2   0   8 90.8594 82.8139   4
   2  -2   8 309.916 138.191   3
   0   2  -8 298.859 129.375   6
   0   2   8 101.226 83.8230   4
   2  -2   8 81.1823 97.2937   4
   0   2  -9 511.288 162.488   6
   2   0   9 340.848 132.676   4
   2   0  -9 820.140 196.566   6
   2  -2   9 429.621 144.515   4
   2  -2  -9 454.932 147.031   6
  -2   2   9 606.858 155.010   4
   0   2   9 478.613 146.603   4
   0   2 -10 195.360 135.007   6
   2   0 -10-89.1404 91.2228   6
   2   0  10 35.4647 85.2051   4
   2  -2  10 100.869 95.3100   4
   0   2  10 197.316 127.603   4
   2  -2 -10-40.6133 89.2813   6
   1   2   0 2573.58 230.402   1
   2   1   0 2780.73 142.029   4
   2  -3   0 2919.71 231.035   3
   1   2   0 3168.36 147.640   4
   2   1   0 2926.47 285.125   1
   2   1  -1 1622.36 85.7705   5
   2  -3  -1 1482.44 142.964   3
   2   1   1 1831.16 251.965   1
   2  -3   1 1561.38 199.769   3
   2   1  -1 1533.19 204.605   1
   2   1   1 1458.04 144.316   4
   2  -3  -1 1243.01 125.456   2
   1   2   1 1584.04 195.826   1
   1   2  -1 1749.77 86.2457   4
   2   1  -1 1365.58 62.9340   4
   1   2   1 1633.81 124.499   4
   1   2  -1 1505.51 174.069   1
   2  -3   2 1384.08 202.324   3
   1   2  -2 1507.63 168.922   1
   2   1   2 1740.66 227.657   1
   2   1  -2 1563.10 191.070   1
   2  -3  -2 1506.37 144.150   2
   1  -3  -2 1299.92 119.963   2
   1   2   2 1602.40 191.515   1
  -3   2   2 1502.19 120.686   4
   2  -3  -2 1586.33 113.344   3
   2  -3   3 1027.34 200.033   3
   2  -3  -3 982.884 131.653   2
   2   1   3 1008.20 168.345   1
   1   2  -3 962.955 133.590   1
   2   1  -3 1013.62 149.644   1
   1  -3  -3 616.369 52.9585   3
   1  -3  -3 787.864 99.5548   2
   1  -3   3 974.953 82.5690   5
  -3   2   3 989.126 104.835   4
   1  -3  -3 735.666 50.9309   3
  -3   1   3 1084.89 93.6170   4
   2   1   3 843.643 129.017   3
   1   2   3 820.466 141.037   1
   2  -3   3 783.467 94.7305   5
   1   2   4 911.665 156.614   4
   2  -3   4 814.257 107.303   5
   2  -3  -4 980.279 143.247   2
   1   2   4 994.823 142.139   1
   1  -3   4 1271.03 251.414   3
   2   1   4 951.886 144.843   3
   2   1   4 941.684 147.831   1
   1   2  -4 809.805 122.038   6
   2   1  -4 930.119 134.431   1
   2  -3   4 956.181 219.663   3
   2   1   4 1079.23 193.765   4
   1  -3  -4 845.047 121.099   2
   2   1  -4 871.882 129.036   6
   1   2  -4 995.181 132.755   1
  -3   2   4 1042.07 117.573   4
  -3   1   4 994.038 98.1797   4
  -3   1   5 608.367 91.2455   4
   1   2  -5 635.290 135.581   6
   2   1  -5 532.147 113.248   6
   1   2  -5 648.711 101.614   1
   1   2   5 572.856 137.961   4
   2   1   5 636.735 139.900   3
   1  -3  -5 740.504 133.339   2
   2   1  -5 695.621 108.008   1
   2  -3   5 673.073 201.717   3
  -3   2   5 628.015 103.590   4
   1   2   5 692.011 106.919   1
   2  -3  -5 748.491 149.434   2
   1  -3   5 684.620 203.687   3
   2   1   5 723.268 112.061   1
   2   1   5 682.498 175.846   4
   2  -3   6 272.603 123.776   3
   1   2  -6 230.747 98.9830   6
   2   1  -6 269.515 103.062   6
   2   1   6 384.087 127.745   4
  -3   1   6 343.419 75.0905   4
   1  -3   6 311.053 148.082   3
  -3   2   6 304.796 80.4613   4
   2  -3  -6 351.828 141.651   2
   2   1   6 351.088 110.464   3
   1   2   6 384.054 125.103   4
   1  -3  -6 433.575 133.657   2
   1   2   7 388.871 142.489   4
   1   2  -7 309.858 120.868   6
  -3   2   7 385.338 107.213   4
   2  -3   7 238.018 111.986   4
   2   1   7 436.627 151.973   4
   2  -3  -7 366.640 147.622   2
   1  -3   7 462.795 161.322   3
   1  -3  -7 328.380 119.570   2
   2  -3   7 379.708 161.880   3
   2   1  -7 422.640 143.141   6
   1  -3   7 287.115 116.209   4
   2  -3   8 161.590 117.692   4
   2  -3   8 70.7457 83.0615   3
   2   1  -8 317.003 130.415   6
  -3   2   8 296.335 95.0381   4
   1   2   8 387.924 136.779   4
   2   1   8 386.494 148.505   4
   1   2  -8 386.445 140.340   6
   1  -3   8 177.062 101.383   3
   1   2  -9 219.405 128.009   6
   1  -3   9 57.7287 91.1873   3
   2  -3   9 251.144 134.326   3
   1   2   9 222.201 117.749   4
   2   1  -9 350.439 143.973   6
   2   1   9 308.149 146.681   4
   2  -3   9 122.304 96.5174   4
   1   2  10 84.7776 80.4241   4
   1   2 -10 44.0546 80.1319   6
   2  -3 -10 274.744 121.853   6
   2   1 -10 219.992 123.063   6
   2   1  10 176.498 110.995   4
   2  -4   0 4830.80 359.218   3
   2   2   0 4489.82 185.952   4
   2   2   0 3884.61 350.707   1
   2   2   1 5862.99 430.212   1
   2  -4   1 5960.14 452.180   3
   2  -4  -1 6574.10 349.851   3
   2   2  -1 5887.72 392.699   1
   2   2  -1 5844.11 158.245   4
   2   2   1 5712.67 249.788   4
   2  -4   2 2768.81 329.882   3
   2   2  -2 2484.37 247.865   1
   2  -4  -2 2802.72 184.621   3
   2   2   2 2653.60 296.039   1
   2  -4  -2 2466.22 189.436   2
   2  -4  -3 4214.14 260.781   2
   2  -4  -3 4152.85 165.614   3
   2   2  -3 3935.28 264.060   6
   2   2  -3 4233.28 315.056   1
   2  -4   3 4938.40 462.608   3
   2   2   3 3582.36 273.472   4
   2   2   3 4004.47 344.693   1
   2   2   4 2318.36 252.793   4
   2  -4   4 2502.41 169.184   5
   2  -4  -4 2388.76 213.914   2
  -4   2   4 2228.47 172.260   4
   2   2   4 2335.85 248.145   1
   2   2  -4 2225.57 207.104   6
   2   2  -4 2417.66 240.862   1
   2  -4   4 2607.70 360.583   3
   2  -4   5 3045.66 384.290   3
  -4   2   5 2435.77 203.359   4
   2  -4  -5 2898.05 246.064   2
   2   2   5 2896.87 309.499   4
   2   2   5 2679.64 246.889   1
   2   2  -5 2921.00 255.755   1
   2   2  -5 2508.63 238.733   6
   2  -4   6 993.780 246.153   3
  -4   2   6 977.434 129.363   4
   2  -4  -6 1218.54 188.688   2
   2   2   6 1067.61 217.473   4
   2   2  -6 1073.70 176.848   6
   2  -4  -7 903.396 189.077   2
   2   2  -7 1000.07 203.638   6
   2  -4   7 1107.83 265.004   3
   2   2   7 1107.26 225.819   4
   2   2  -8 599.690 166.169   6
   2  -4   8 811.417 201.338   4
   2   2   8 851.533 204.301   4
   2  -4   8 797.317 233.548   3
   2  -4   9 792.218 249.366   3
   2   2   9 362.055 128.587   4
   2   2  -9 673.657 188.428   6
   3  -2   0 2792.25 222.040   3
   3  -2   0 3300.85 204.751   2
   3  -1   0 2640.82 157.636   2
   3  -1   0 2678.79 216.210   3
  -1   3   0 2680.12 221.419   1
  -1   3   0 3056.90 173.901   4
   3  -2   1 1745.51 212.495   3
   3  -1   1 1422.87 114.725   2
   3  -2  -1 1597.80 99.8579   6
  -2  -1  -1 1761.76 86.9759   2
  -1   3  -1 1554.55 170.006   1
   3  -1  -1 1453.17 139.694   2
   3  -2  -1 1714.20 162.503   2
   3  -1   1 1571.06 187.818   3
   3  -1  -1 1327.14 117.596   6
   3  -2   1 1469.13 132.909   2
   3  -2  -1 1477.14 160.230   3
  -1   3  -1 1499.39 108.663   6
  -1   3   1 1466.76 166.486   1
  -2   3  -1 1332.50 75.7558   6
  -1  -2   1 1488.80 60.6314   5
   3  -1   2 1361.81 114.616   2
   3  -2  -2 1495.99 161.424   2
  -1  -2   2 1495.22 69.0578   4
  -1   3  -2 1375.25 115.332   6
   3  -2  -2 1693.93 121.258   6
  -1   3  -2 1588.63 165.010   1
   3  -1  -2 1738.90 174.162   2
  -1  -2  -2 1539.95 69.8863   2
   3  -1  -2 1588.38 132.312   6
   3  -2  -2 1445.36 134.541   3
  -2   3  -2 1409.28 118.429   6
   3  -2   2 1676.61 227.367   3
  -1   3   2 1472.91 164.716   1
   3  -1   2 1717.36 213.773   3
   3  -2  -3 968.918 105.540   6
  -1  -2  -3 721.980 64.2646   2
   3  -1  -3 1233.02 186.309   2
  -1   3  -3 991.313 131.986   1
   3  -1   3 1075.79 187.227   3
   3  -2   3 1121.69 204.309   3
   3  -1  -3 1106.92 120.801   6
  -1   3   3 952.714 137.496   1
  -1  -2   3 947.839 62.2462   4
   3  -2  -3 1086.62 159.702   2
   3  -2   3 911.036 123.549   5
  -2   3   3 917.006 120.943   4
   3  -1   4 1006.79 219.292   3
   3  -1  -4 949.541 130.198   6
   3  -2  -4 1131.00 185.767   2
   3  -2   4 891.232 127.176   5
  -1  -2   4 1048.24 97.0544   4
  -2  -1   4 690.203 51.6610   4
  -1   3  -4 906.048 139.019   6
  -1   3   4 926.170 141.750   4
   3  -2  -4 875.977 129.674   6
   3  -2   4 966.199 211.417   3
  -2   3   4 863.938 128.885   4
   3  -1  -4 1081.66 209.934   2
  -1  -2   5 667.089 89.3249   4
   3  -2   5 566.767 191.809   3
   3  -1   5 773.338 215.625   3
   3  -2  -5 649.634 129.226   6
   3  -2  -5 669.217 162.509   2
  -2  -1   5 666.138 70.9639   4
   3  -1   5 822.945 189.481   4
   3  -1  -5 555.721 119.274   6
  -2   3   5 557.055 124.712   4
   3  -1  -5 705.789 193.200   2
  -1   3  -5 697.024 142.292   6
  -1   3   5 576.657 129.116   4
   3  -1  -6 354.810 109.894   6
   3  -2  -6 263.247 145.915   2
   3  -2  -6 185.514 90.3230   6
   3  -1   6 373.652 192.529   3
   3  -2   6 411.181 167.683   3
  -1   3  -6 436.024 138.827   6
   3  -1   6 384.239 152.008   4
  -1   3   6 267.279 116.001   4
  -2   3   6 293.146 99.0207   4
   3  -1  -6 238.211 140.860   2
  -1  -2   6 323.698 68.5932   4
  -1   3  -7 323.578 136.144   6
  -1   3   7 289.100 118.274   4
   3  -1   7 549.442 182.258   4
  -1  -2   7 501.945 178.964   3
   3  -2  -7 404.203 128.165   6
   3  -2   7 400.078 163.109   4
   3  -1  -7 404.409 123.815   6
  -2   3   7 217.891 100.181   4
   3  -2  -7 103.083 109.757   2
   3  -2   7 335.199 163.038   3
   3  -1   7 658.661 220.655   3
   3  -1   8 476.259 171.834   4
  -1   3  -8 264.007 126.227   6
  -2   3   8 313.384 117.311   4
   3  -1  -8 343.725 143.708   6
   3  -2   8 220.340 154.253   3
  -2   3  -8 375.943 141.861   6
   3  -2   8 288.796 156.262   4
  -1  -2   8 386.839 145.842   3
   3  -2  -8 162.255 102.041   6
  -1   3   8 142.229 95.9105   4
   3  -1  -9 422.674 139.672   6
   3  -2   9 323.475 139.518   4
  -2   3  -9 306.088 137.487   6
  -1   3  -9 214.081 140.639   6
  -1   3   9 224.592 109.979   4
   3  -1   9 139.471 111.691   4
  -2   3   9 286.454 118.838   4
   3  -2  -9 290.431 123.962   6
  -1   3 -10 66.0381 91.2442   6
   3  -2 -10 255.986 135.586   6
   3  -1 -10 304.720 143.012   6
   3  -2  10-165.688 128.092   4
  -2   3  10 181.562 118.529   4
  -2   3 -10 55.5040 91.5756   6
  -1   3  10 75.5679 83.3507   4
   3  -1  10 216.956 126.382   4
   3  -3   0 19021.9 601.378   3
   3   0   0 18175.6 424.275   5
   0   3   0 17331.9 608.878   1
   3   0   0 18093.0 449.722   2
   0   3   0 18937.0 396.494   4
   3  -3   0 18694.2 504.449   2
   3   0  -1 1915.20 158.854   6
   3  -3  -1 2510.91 114.315   6
   0   3  -1 2578.76 165.059   6
   3  -3   1 2315.11 246.552   3
   3  -3  -1 2425.75 193.527   2
   0   3   1 2676.20 174.766   4
   3   0   1 2335.43 135.107   2
   3  -3  -1 2471.48 201.704   3
   0   3  -1 2899.83 158.861   4
   3   0  -1 2905.04 217.248   2
   3   0   1 2525.66 217.032   3
   0   3  -1 2668.09 239.567   1
   3   0   1 2293.61 165.227   5
   0   3   1 2533.79 241.298   1
   3  -3  -2 10521.7 342.010   3
   3  -3   2 9593.13 532.437   3
   3  -3  -2 10323.3 251.156   6
   3   0  -2 11609.4 483.776   2
   3   0  -2 10723.7 384.638   6
   0   3  -2 10835.9 450.898   1
   3   0   2 10121.6 220.530   2
  -3   3   2 10017.2 350.016   4
   3   0   2 10783.0 450.595   3
   3  -3  -2 10352.6 406.551   2
   0  -3  -2 10514.7 278.500   2
   0   3   2 10485.7 465.922   1
   3   0  -2 9882.80 199.656   4
   0   3  -3 1818.99 185.065   1
   3  -3  -3 1556.09 131.807   6
  -3   3   3 1515.13 150.659   4
   3   0  -3 1485.58 72.3002   4
   3  -3   3 1579.45 149.152   5
   3   0   3 1584.89 75.0322   2
   3   0  -3 2021.53 253.494   2
   3  -3   3 1509.32 244.275   3
   3  -3  -3 1805.21 193.640   2
   3   0   3 2023.55 227.387   3
   0   3   3 1705.79 183.048   1
   0  -3  -3 1817.40 120.110   2
   3   0   3 2364.74 267.981   4
   3   0  -3 1630.85 167.147   6
   3  -3   4 6780.65 327.062   5
   0   3   4 7753.69 400.426   4
   0   3  -4 7209.75 353.598   6
   3  -3   4 6303.73 493.644   3
   0  -3  -4 7325.49 272.135   2
   3  -3  -4 6928.04 388.103   2
   3   0   4 6388.14 174.543   2
  -3   3   4 6249.52 233.892   3
   0   3  -4 6991.62 334.505   1
   3   0   4 8144.59 544.997   4
   0   3   4 7068.36 344.276   1
  -3   3   4 6896.90 333.843   4
   3   0   4 7682.29 449.866   3
   3   0  -4 6626.01 342.151   6
   3  -3  -4 6521.05 325.641   6
   3   0  -4 7193.16 492.016   2
   3   0   4 5850.78 241.004   2
   3  -3  -5 1750.50 218.434   2
   3   0   5 1848.05 227.545   1
   3   0  -5 1237.25 165.538   1
   3   0  -5 1622.99 188.477   6
   3  -3   5 1309.72 258.050   3
   0  -3  -5 2017.85 190.879   2
   3  -3  -5 1400.35 180.164   6
  -3   0   5 1692.78 111.614   4
   3   0   5 2258.71 318.740   4
   0   3   5 2065.11 181.551   1
   0   3   5 1700.25 213.753   4
   0   3  -5 1776.88 163.293   1
   0   3  -5 1703.92 207.465   6
   3   0   5 2083.43 285.621   3
  -3   3   5 1549.06 176.619   4
   0  -3   6 3296.38 420.368   3
   3   0   6 2466.07 329.605   4
   3  -3   6 2356.25 331.204   3
  -3   3   6 2317.34 243.164   4
   3  -3  -6 2546.33 265.646   6
   3  -3  -6 2617.85 293.455   2
   0   3   6 2348.77 275.038   4
   3   0  -6 1998.93 244.779   6
   0  -3   6 2152.64 219.077   4
   3   0   6 2489.96 305.338   3
   0   3  -6 2827.84 303.575   6
   3  -3  -7 966.776 177.327   6
   3  -3  -7 750.962 205.045   2
   3   0  -7 837.946 171.950   6
   0  -3   7 1256.71 277.497   3
   3  -3   7 897.593 200.080   3
   3   0   7 1072.31 226.080   4
  -3   3   7 1132.98 189.755   4
   3   0   7 1080.40 253.159   3
   0   3  -7 1048.93 206.904   6
   0   3   7 1009.12 200.297   4
   3  -3  -8 1051.01 206.707   6
   3  -3   8 1040.32 240.406   4
   3   0   8 874.561 208.711   4
   3  -3   8 681.024 180.469   3
   0  -3   8 1485.00 319.845   3
   0   3   8 1435.55 245.800   4
  -3   3   8 1172.55 204.774   4
   3  -3  -8 904.728 222.975   2
   3   0  -8 1003.39 205.034   6
   0   3  -8 1193.37 233.159   6
   3   0  -9 661.562 190.771   6
   0   3   9 1016.68 218.016   4
  -3   3   9 726.524 166.636   4
   3  -3   9 784.552 211.312   3
   3  -3  -9 723.980 188.688   6
   3  -3   9 919.734 232.586   4
   3   0   9 869.859 214.308   4
   0   3  -9 820.294 209.504   6
   3   0  10 452.629 165.196   4
  -3   3 -10 200.876 98.4686   6
   3  -3 -10 314.710 134.537   6
   3   0 -10 147.309 116.554   6
   0   3 -10 198.558 123.794   6
   0   3  10 315.685 137.176   4
   3  -3  10 174.237 121.283   4
   3   1   0 4159.95 417.204   1
   3  -4   0 3820.99 295.107   3
   3   1   0 3956.29 211.515   4
   1   3   0 3240.70 305.968   1
   1   3   0 3550.11 177.684   4
   3   1  -1 4634.35 410.554   1
   3   1   1 4673.98 447.010   1
   1   3  -1 4348.39 174.585   4
   3   1  -1 4323.78 148.799   4
   3   1   1 4171.32 274.227   4
   3   1  -1 4497.42 184.844   5
   3  -4  -1 4126.22 257.821   2
   3  -4  -1 4257.01 281.719   3
   3  -4   1 4244.88 347.911   3
   1   3   1 4247.06 350.773   1
   1   3  -1 3736.59 314.767   1
   3   1  -2 2442.73 207.371   6
   1   3  -2 2546.94 204.253   6
   1   3  -2 2253.44 240.354   1
   1  -4  -2 2130.34 163.079   2
   3   1   2 3210.86 378.372   1
   3  -4   2 2413.55 309.089   3
   3  -4  -2 2534.38 193.272   3
   3   1  -2 2706.04 126.032   5
   1   3   2 2145.19 252.341   1
   3   1  -2 2873.78 298.674   1
   3  -4  -2 2416.20 208.564   2
   3  -4  -3 2812.07 148.957   3
  -4   3   3 2817.27 203.515   4
   3   1   3 3467.72 328.356   4
   3   1  -3 2719.46 284.780   1
   1   3   3 3092.06 239.451   4
   1  -4   3 3013.83 137.855   5
   1   3  -3 2985.29 271.175   1
   3  -4   3 2594.27 345.708   3
   3   1   3 3625.73 387.653   1
   1   3   3 3016.56 284.384   1
   1  -4  -3 2751.35 198.377   2
   3  -4  -3 3011.59 246.232   2
   1   3  -3 2943.01 220.675   6
   3   1  -3 2912.29 233.728   6
   3  -4   4 2828.82 373.184   3
   3   1   4 2763.98 316.398   1
   3   1  -4 2379.20 224.873   6
   3   1  -4 2617.18 262.516   1
  -4   3   4 2501.91 208.829   4
   3   1   4 2793.77 328.948   4
   3  -4   4 2482.98 191.401   5
   1   3  -4 2852.19 254.190   1
   3  -4  -4 2763.84 255.656   2
   1   3   4 2511.79 247.270   4
   1   3   4 2469.20 247.570   1
   1   3  -4 2179.31 202.655   6
   1  -4  -4 2612.55 195.197   2
   3   1   4 2819.17 271.345   3
   3   1  -5 1534.51 197.821   1
   3   1   5 2100.15 292.191   4
   3   1   5 1585.68 217.831   3
   3  -4   5 1639.85 305.470   3
   3  -4   5 1578.25 166.570   5
   1   3   5 1591.97 225.445   4
   1  -4   5 1934.86 351.727   3
  -4   3   5 1698.53 177.580   4
   1   3   5 1936.86 204.916   1
   3   1  -5 1596.93 195.034   6
   1  -4  -5 1823.25 177.096   2
   3   1   5 1761.12 223.808   1
   3  -4  -5 1812.81 221.151   2
   1   3  -5 1452.25 191.491   6
   1   3  -5 1885.17 197.452   1
   1  -4  -6 1308.65 182.377   2
   3   1  -6 1343.64 198.917   6
   3  -4   6 1267.46 268.956   3
   3  -4  -6 1432.30 220.771   2
   1  -4   6 1792.42 348.154   3
  -4   3   6 1329.54 178.095   4
   3   1   6 1255.48 207.178   3
   3   1   6 1594.01 266.606   4
   1   3   6 1291.75 220.782   4
   1   3  -6 1361.10 205.403   6
   3  -4   7 863.033 238.951   3
   3   1   7 1015.13 224.912   4
   3  -4  -7 875.858 200.722   2
   1   3  -7 694.250 169.539   6
   1  -4   7 1288.90 309.363   3
   1   3   7 716.039 194.876   4
  -4   3   7 682.178 137.532   4
   3   1  -7 654.499 170.459   6
   3  -4   8 698.900 213.725   3
   1   3  -8 1191.47 234.660   6
   1  -4   8 1453.67 337.106   3
   3   1   8 1111.54 236.481   4
   3   1  -8 972.551 201.861   6
   3  -4   8 1160.39 247.164   4
   1   3   8 1211.15 238.995   4
   3  -4  -8 815.394 227.085   2
   3   1  -9 386.656 140.933   6
   1   3  -9 277.865 122.660   6
   3  -4   9 367.706 172.632   4
   3  -4   9 122.194 136.082   3
   3  -4  -9 485.026 148.627   6
   1  -4   9 68.6910 138.588   3
   3   1   9 350.068 144.393   4
   1   3   9 449.293 169.833   4
   3  -4 -10 139.483 103.657   6
   3  -5   0 2411.48 269.092   3
   2  -5   0 2642.58 317.607   3
   3   2   0 2305.75 319.264   1
   2   3   0 1954.51 278.029   1
   2   3   0 2237.39 150.557   4
   3   2   0 2086.24 138.461   4
   3   2  -1 1049.01 77.4171   4
   2   3  -1 1313.26 222.258   1
   2   3  -1 1191.52 87.9957   4
   3  -5   1 1340.90 240.493   3
   3   2   1 1298.78 269.923   1
   2   3   1 1293.93 234.836   1
   2  -5  -1 1390.33 205.697   3
   3  -5  -1 1072.66 149.484   2
   2  -5   1 1403.79 269.849   3
   3  -5  -1 1216.00 168.787   3
   3   2  -1 1082.87 226.683   1
   2   3  -2 1696.31 187.627   6
   2  -5  -2 1680.50 177.866   3
   2   3  -2 1882.86 245.401   1
   3   2  -2 1655.71 190.440   6
   3   2  -2 1744.90 247.559   1
   2   3   2 1614.96 164.019   4
   3   2   2 1560.77 176.392   4
   3  -5  -2 1447.07 161.382   3
   2  -5   2 1883.38 333.068   3
   3  -5   2 1619.39 282.999   3
   3  -5  -2 1500.29 174.589   2
   3   2   2 1670.14 291.962   1
   2  -5  -2 1461.95 155.379   2
   2   3   2 1579.50 261.044   1
   3  -5  -3 1067.15 113.479   3
   2  -5  -3 1084.35 115.083   3
   2   3  -3 1221.20 209.847   1
   2   3  -3 1196.88 168.029   6
   2   3   3 1169.94 216.600   1
   2  -5   3 1398.41 298.342   3
   3  -5  -3 1194.95 166.101   2
   3   2   3 1038.25 165.346   4
   3  -5   3 928.341 263.039   3
   2   3   3 1161.41 160.574   4
   3   2   3 1056.99 226.222   1
   2  -5  -3 1249.88 161.550   2
   3   2  -3 1171.51 166.163   6
   3   2  -3 1128.60 205.033   1
   3   2   4 1072.37 209.848   1
   2   3   4 1160.71 194.381   1
   2   3  -4 1237.05 195.102   1
   3  -5  -4 1039.37 171.710   2
   2   3  -4 1010.34 157.426   6
   3  -5   4 1401.17 308.962   3
   2  -5   4 1146.95 110.075   5
   3  -5   4 1009.60 121.005   5
   2  -5   4 1385.60 304.285   3
   2   3   4 1159.44 183.907   4
   3   2  -4 996.574 183.909   1
   2  -5  -4 1233.31 164.931   2
   3   2   4 982.338 182.827   4
   3   2  -4 948.934 154.178   6
   3  -5  -5 1066.80 187.347   2
   2  -5   5 1173.88 280.183   3
   3  -5   5 1059.86 255.776   3
   3  -5   5 925.490 121.915   5
   3   2   5 1219.24 200.405   1
   3   2  -5 764.936 153.568   1
   3   2  -5 796.414 142.991   6
   3   2   5 1007.08 208.536   4
   2  -5  -5 976.984 158.362   2
   2   3   5 1082.58 197.058   4
   2   3  -5 997.189 165.049   6
   2   3   5 1352.86 201.957   1
   2   3  -5 1168.87 183.727   1
   3  -5  -6 316.522 116.926   2
   3  -5   6 398.025 173.887   3
   3   2  -6 466.282 124.662   6
   2  -5   6 457.721 192.141   3
   3   2   6 373.091 150.778   4
   2   3  -6 441.957 123.394   6
   2   3   6 549.226 163.304   4
   2  -5  -6 369.859 107.941   2
  -5   3   6 607.194 127.086   4
   3  -5  -7 706.637 197.212   2
   2   3  -7 783.462 181.759   6
   3  -5   7 732.597 242.536   3
   2  -5   7 873.346 274.622   3
   3   2  -7 931.118 195.278   6
   3   2   7 702.477 194.503   4
   2   3   7 938.726 212.908   4
   3  -5   8 396.050 210.113   3
   3   2  -8 247.481 112.970   6
   2  -5   8 281.892 195.653   3
   2   3  -8 71.7916 85.9122   6
   3   2   8 167.256 111.394   4
   2   3   8 375.925 157.988   4
   2   3  -9 675.101 188.647   6
   3   2  -9 519.394 179.563   6
   3  -5   9 358.229 176.133   3
   2  -5   9 271.316 203.953   3
   2   3   9 617.099 195.882   4
   3   2   9 512.888 156.832   4
   3   3   0 2856.95 381.981   1
   3  -6   0 3377.85 355.845   3
   3  -6   1 458.339 185.370   3
   3  -6  -1 445.691 129.302   3
   3   3   1 467.127 204.293   1
   3   3  -1 316.833 159.316   1
   3  -6  -1 289.451 92.6837   2
   3   3   1 213.142 62.6974   4
   3   3  -1 231.131 41.7983   4
   3   3  -2 2338.60 304.865   1
   3  -6  -2 2181.81 215.328   3
   3   3   2 1944.76 186.144   4
   3  -6  -2 2211.14 218.941   2
   3  -6   2 1916.15 332.468   3
   3   3   2 2342.41 358.442   1
   3   3  -3 154.086 93.8639   1
   3   3   3 245.642 80.4679   4
   3  -6   3 433.857 272.465   3
   3  -6  -3 239.494 93.8295   2
   3   3   3 208.031 161.205   1
   3   3  -3 255.005 104.512   6
   3   3   4 1236.36 194.752   4
   3   3  -4 1265.42 181.513   6
   3   3   4 1598.17 255.874   1
   3  -6   4 2148.38 396.354   3
   3  -6   4 1493.21 145.615   5
   3   3  -4 1599.86 245.645   1
   3  -6  -4 1651.43 213.263   2
   3   3   5 346.453 118.549   1
   3   3  -5 153.308 92.0905   1
   3   3  -5 139.207 85.2543   6
   3  -6   5 153.257 143.712   3
   3  -6  -5 291.317 107.174   2
   3   3   5 253.862 108.980   4
   3   3  -6 511.697 123.990   6
   3  -6  -6 685.471 166.909   2
   3  -6   6 889.192 287.820   3
   3   3   6 496.138 171.598   4
   3   3  -7 151.959 83.2072   6
   3   3   7 54.0856 95.4782   4
   3  -6   7 140.120 153.122   3
   3  -6   8 92.5393 147.201   3
   3   3  -8 273.607 122.653   6
   3   3   8 404.623 179.335   4
   3  -6   9 424.003 249.064   3
   4  -2   0 4372.32 321.862   3
   4  -2   0 4459.86 261.216   2
   4  -2   1 5798.99 387.051   3
  -2   4  -1 6241.17 196.181   6
   4  -2  -1 6219.41 321.099   2
   4  -2  -1 5550.00 342.049   3
   4  -2   1 5716.31 295.965   2
   4  -2  -2 2362.47 164.223   6
  -2   4  -2 2856.22 162.343   6
   4  -2   2 2582.28 191.844   2
   4  -2   2 2400.56 288.728   3
  -2  -2  -2 2192.82 82.6367   2
   4  -2  -2 2740.03 238.530   2
   4  -2   3 4046.66 279.814   5
  -2   4   3 4308.99 276.569   4
   4  -2  -3 4181.46 242.013   6
   4  -2  -3 4656.94 334.003   2
   4  -2   3 3815.25 386.529   3
   4  -2  -4 2089.45 191.846   6
   4  -2  -4 2755.76 290.742   2
   4  -2   4 2183.83 222.802   5
  -2   4   4 2533.16 237.048   4
   4  -2   4 2185.16 329.017   3
  -2   4  -4 2736.95 228.664   6
   4  -2  -5 2338.15 225.649   6
   4  -2   5 2361.06 351.300   3
  -2   4   5 2610.52 257.630   4
  -2   4  -5 2727.08 281.907   6
   4  -2  -5 2637.09 304.146   2
  -2   4  -6 1160.20 204.457   6
   4  -2  -6 859.610 160.370   6
  -2   4   6 1063.12 202.085   4
   4  -2   6 778.629 248.516   3
   4  -2  -6 993.062 219.708   2
   4  -2   7 975.187 266.151   3
   4  -2  -7 681.490 156.886   6
  -2   4  -7 1027.60 206.059   6
   4  -2   7 1118.49 268.894   4
  -2   4   7 1060.76 201.413   4
   4  -2  -7 742.087 216.462   2
   4  -2   8 676.770 230.262   3
   4  -2  -8 336.147 111.664   6
   4  -2   8 489.976 200.388   4
  -2   4   8 786.788 194.316   4
  -2   4  -8 846.429 187.802   6
   4  -2   9 349.190 159.946   4
  -2   4  -9 499.666 170.279   6
   4  -2  -9 565.860 168.293   6
  -2   4   9 622.527 174.801   4
  -2   4  10 276.647 140.757   4
  -2   4 -10 146.022 90.7218   6
   4  -2 -10 359.035 149.819   6
   4  -2  10 566.808 205.915   4
   4  -3   0 4056.19 327.137   3
  -1   4   0 3101.52 279.139   1
   4  -1   0 3905.57 228.256   2
   4  -3   0 3859.67 258.027   2
   4  -1   0 3918.53 296.331   3
   4  -3  -1 4405.03 313.024   3
   4  -3   1 4089.58 353.441   3
  -3   4  -1 3858.77 127.708   6
   4  -3  -1 4559.09 294.579   2
  -1   4   1 3744.34 304.178   1
   4  -1  -1 4275.10 262.761   2
   4  -1   1 4279.65 216.374   2
   4  -3   1 4362.10 270.957   2
  -1   4  -1 4543.14 330.910   1
  -1   4  -1 3967.34 205.444   6
   4  -1   1 4876.07 357.497   3
   4  -1  -2 2567.44 237.376   2
   4  -3  -2 2399.49 138.954   6
   4  -1  -2 2446.25 191.957   6
  -3   4   2 2024.06 187.694   4
   4  -3   2 2349.62 295.957   3
   4  -1   2 2733.75 226.058   5
  -3   4  -2 2347.26 139.998   6
  -1   4   2 2269.65 195.775   4
   4  -3  -2 2598.35 240.669   2
   4  -1   2 2397.24 157.030   2
  -1   4   2 2188.90 227.428   1
  -1   4  -2 2389.49 238.149   1
   4  -3  -2 2113.04 207.997   3
   4  -1   2 2765.19 294.086   3
   4  -1   3 3201.26 334.903   3
   4  -3   3 3011.03 347.079   3
  -1   4   3 3157.25 245.421   4
  -3   4   3 2746.53 224.513   4
  -3   4  -3 3338.00 227.110   6
   4  -3  -3 2886.32 184.533   6
   4  -1  -3 3190.51 234.847   6
   4  -1   3 3184.34 255.254   5
  -1  -3  -3 2819.03 115.049   2
   4  -1  -3 3533.30 298.157   2
   4  -3   3 2957.16 234.255   5
   4  -3  -3 3463.95 286.005   2
  -1   4   3 2854.66 251.662   1
  -1   4  -3 2904.47 249.028   1
   4  -1   3 3322.83 176.605   2
   4  -3   4 2839.96 377.377   3
   4  -3  -4 2712.63 286.973   2
   4  -1   4 2749.61 342.718   3
   4  -1   4 3109.91 172.365   2
  -1   4  -4 2505.96 214.107   6
  -1   4   4 2743.78 257.676   4
   4  -3   4 2565.70 221.594   5
  -3   4   4 2263.68 217.111   4
   4  -1  -4 2753.45 228.658   6
   4  -3  -4 2468.29 194.098   6
  -1   4  -4 2757.45 233.244   1
   4  -1  -4 3164.85 326.519   2
   4  -3  -5 1716.14 247.356   2
  -1   4   5 1586.46 216.310   4
   4  -1   5 2023.32 319.723   3
   4  -1  -5 1534.29 192.513   6
   4  -3   5 1454.27 286.577   3
   4  -1   5 2389.69 343.056   4
  -3   4   5 1670.37 202.627   4
  -1   4  -5 1684.68 210.740   6
   4  -1  -5 1814.79 276.487   2
   4  -3  -5 1697.00 181.214   6
   4  -1  -6 1304.32 195.891   6
   4  -1   6 1311.88 299.268   3
   4  -3  -6 1399.31 195.109   6
   4  -3   6 1513.22 300.537   3
  -1   4  -6 1368.58 215.127   6
   4  -3  -6 1468.59 247.631   2
   4  -1  -6 1399.80 259.234   2
  -3   4   6 1219.80 191.937   4
  -1   4   6 1286.67 211.559   4
   4  -1   6 1568.86 301.481   4
   4  -1   7 669.411 214.863   3
  -3   4  -7 681.282 161.769   6
   4  -3   7 467.026 178.460   3
   4  -3  -7 379.083 125.687   6
  -3   4   7 673.336 157.420   4
   4  -1   7 792.232 230.576   4
  -1   4   7 748.209 181.183   4
  -1   4  -7 762.414 180.488   6
   4  -1  -7 535.305 147.609   6
   4  -3  -7 810.378 235.259   2
  -1   4   8 1458.95 259.299   4
  -3   4  -8 1165.75 215.382   6
   4  -1  -8 1188.47 219.149   6
   4  -3   8 881.067 232.706   3
   4  -3  -8 1096.71 207.798   6
  -1  -3   8 1647.46 329.840   3
   4  -3  -8 936.453 232.659   2
   4  -3   8 1158.45 285.127   4
  -1   4  -8 1098.95 229.648   6
   4  -1   8 1127.27 267.334   4
  -3   4   8 938.814 197.841   4
   4  -3  -9 270.716 113.710   6
  -3   4  -9 259.529 125.717   6
  -1   4  -9 516.213 176.209   6
   4  -3   9 449.706 207.355   4
   4  -1  -9 415.088 157.906   6
   4  -1   9 99.4406 127.560   4
   4  -3   9 208.162 142.318   3
  -1   4   9 479.337 158.999   4
  -3   4   9 771.408 201.190   4
   4  -1 -10 298.289 142.825   6
  -3   4 -10 451.576 170.127   6
   4  -3 -10 337.589 137.211   6
   4  -3  10 330.441 161.151   4
  -1   4  10 473.600 167.685   4
  -3   4  10 524.472 176.926   4
   4   0   0 170.462 88.2323   2
   4  -4   0 181.110 110.194   3
   0   4   0 285.689 148.394   1
   4  -4   0 173.128 89.6676   2
   4  -4  -1 1206.40 186.280   3
   4  -4   1 1206.88 215.482   3
   4  -4  -1 1278.48 172.392   2
   0   4  -1 1165.45 115.424   4
   4   0   1 1307.53 145.780   2
   0   4  -1 1086.95 209.855   1
   0   4   1 1119.71 209.071   1
   4   0  -1 1349.44 187.932   2
   4   0   2 291.148 69.1247   2
   4   0   2 346.791 147.655   3
   0   4   2 332.071 126.516   1
   4  -4   2 42.7906 119.547   3
   4  -4  -2 245.249 99.2103   3
   4  -4  -2 290.231 39.2348   6
   0   4  -2 381.610 83.3523   6
   4   0  -2 330.923 89.2281   6
   0   4  -2 272.362 113.171   1
   4  -4  -2 226.690 109.540   2
   0   4   2 266.316 68.2023   4
   4   0  -2 418.003 150.539   2
   4   0  -3 709.605 124.833   6
   4  -4   3 785.594 222.432   3
   0   4  -3 738.566 116.975   6
   4  -4  -3 685.567 105.986   3
   4   0   3 872.334 200.933   3
   0   4   3 717.303 125.533   4
   4   0   3 611.716 67.5532   2
   4  -4  -3 840.901 158.005   2
   4   0   3 914.703 193.369   4
   4  -4  -3 746.715 83.6775   6
   0   4   3 761.002 167.597   1
   0   4  -3 800.378 154.695   1
   0  -4  -3 751.357 94.3174   2
   4   0  -3 649.847 193.099   2
  -4   4   3 649.945 117.041   4
   4  -4   4 434.610 96.7282   5
   0  -4  -4 535.919 83.0726   2
   4   0   4 625.602 181.162   3
   4  -4  -4 490.845 89.4782   6
   0   4  -4 477.391 119.340   1
   4  -4  -4 563.942 150.060   2
   4   0   4 693.644 205.661   1
   4  -4   4 484.434 172.331   3
   0   4   4 623.905 132.176   4
   0   4   4 465.736 126.186   1
   4   0   4 515.161 156.328   4
  -4   4   4 477.915 104.861   4
   4   0  -4 438.839 109.590   6
   4   0  -4 505.197 188.917   2
   0   4  -4 349.841 92.0262   6
   4   0   5 387.358 163.125   3
   0   4  -5 369.668 108.463   6
   4  -4  -5 276.397 133.547   2
   4   0  -5 354.976 105.460   6
   4   0   5 349.160 151.740   1
   4  -4   5 317.581 191.989   3
   0   4  -5 254.638 73.0999   1
   4   0   5 443.980 179.616   4
   4   0  -5 150.466 97.2237   1
   4  -4   5 298.728 89.5387   5
   4  -4  -5 277.368 85.4179   6
   0   4   5 214.667 96.9405   4
   0   4   5 248.312 92.4426   1
  -4   4   5 261.241 84.5555   4
   4   0  -6 423.699 125.151   6
   4  -4  -6 720.291 179.337   2
   4  -4   6 508.660 201.454   3
   0   4  -6 439.866 129.508   6
   4   0   6 944.153 223.724   3
   4  -4  -6 327.026 102.031   6
   0   4   6 449.096 135.018   4
   4   0   6 787.299 215.669   4
  -4   4   6 527.034 128.467   4
   4  -4  -7 201.793 123.012   2
   4   0   7 158.340 128.369   3
   0  -4   7 39.2349 118.662   3
   0   4  -7 101.970 99.0334   6
   4   0  -7 17.9761 59.9632   6
   4   0   7-118.186 154.169   4
   0   4   7 45.0855 76.1486   4
  -4   4   7 180.632 89.4512   4
   4  -4  -7 60.5189 59.2545   6
   4  -4   7 281.629 150.889   3
   4  -4   8 502.611 185.813   4
   4  -4   8 431.103 192.598   3
   0   4  -8 283.485 111.655   6
   4   0  -8 514.640 163.377   6
   4  -4  -8 351.971 163.558   2
  -4   4   8 368.488 126.621   4
   0  -4   8 647.174 239.369   3
   4  -4  -8 483.156 140.143   6
   4   0   8 716.662 205.366   4
   0   4   8 557.423 171.475   4
   0  -4   9-291.709 180.825   3
   4  -4  -9-78.5233 95.5494   6
   4  -4   9-21.1569 98.3398   3
   0   4  -9 28.0480 92.7069   6
   4   0  -9 95.6930 80.4775   6
   4  -4   9-63.9079 113.364   4
   4   0   9 21.4902 97.8937   4
   0   4   9-10.5360 92.5356   4
   4  -4  -9 177.713 129.360   2
   4  -4  10 133.247 141.447   4
   1   4   0 971.269 219.674   1
   4  -5   0 1043.44 190.555   3
   4   1   0 862.992 116.957   4
   4  -5   0 1053.16 161.186   2
   4   1   0 1248.70 323.793   1
   4  -5  -1 2824.78 266.939   3
   4  -5   1 3005.26 340.320   3
   4   1  -1 2769.80 368.841   1
   4   1   1 3331.80 436.066   1
   1   4   1 3220.26 218.855   4
   1   4  -1 3286.93 175.997   4
   4  -5  -1 2992.47 264.988   2
   4   1  -1 2720.37 142.499   4
   1   4   1 3071.75 340.226   1
   1   4  -1 2962.38 321.045   1
   4  -5  -2 689.786 135.989   3
   4  -5   2 633.457 190.165   3
   1   4  -2 893.841 138.225   6
   4  -5  -2 587.279 137.397   2
   4   1  -2 566.380 169.147   1
   1   4   2 875.767 129.798   4
   1  -5  -2 660.339 101.266   2
   4   1   2 629.492 133.683   4
   4   1  -2 726.501 137.231   6
   4   1   2 1035.12 282.149   1
   1   4   2 683.996 178.838   1
   1   4  -2 793.690 172.762   1
   4   1  -2 647.812 77.7198   5
   4  -5  -3 2120.54 170.592   3
   1   4  -3 1993.54 206.814   6
   4   1   3 2140.79 347.458   1
   4   1  -3 1809.73 271.657   1
   4  -5  -3 1850.47 124.756   6
   4   1  -3 2108.64 124.771   5
   4   1  -3 2158.46 232.654   6
   1   4   3 1939.40 265.297   1
   1   4   3 2156.29 215.494   4
   4   1   3 2030.18 266.747   4
   4  -5   3 1652.31 303.506   3
   4  -5  -3 1584.81 201.974   2
   1  -5  -3 2430.94 195.153   2
   1   4  -3 2206.69 259.336   1
   1  -5  -4 719.388 119.215   2
   1   4  -4 568.551 121.550   6
   4  -5   4 594.534 235.103   3
   4  -5  -4 619.378 95.7582   6
   4  -5  -4 539.640 140.455   2
   1   4   4 614.784 150.471   1
   4  -5   4 576.254 104.151   5
   1   4  -4 744.372 157.490   1
   4   1   4 498.216 144.901   4
   4   1   4 655.749 202.040   1
   1   4   4 696.582 145.207   4
   4   1  -4 534.624 155.572   1
   4   1  -4 506.192 127.012   6
   4   1   5 1266.26 238.889   4
   4   1   5 1219.22 237.776   1
   4   1  -5 857.670 165.556   6
   4  -5  -5 1064.00 151.993   6
   4  -5   5 1346.49 304.631   3
   4  -5  -5 1373.87 216.657   2
   1   4  -5 1004.96 162.276   6
   4  -5   5 1132.08 152.044   5
   1  -5   5 1686.09 349.962   3
  -5   4   5 1229.43 173.980   4
   1   4   5 1598.67 209.614   1
   4   1  -5 1041.74 191.514   1
   1   4   5 1151.53 195.364   4
   1   4  -5 1360.58 193.711   1
   1   4  -6 364.942 110.887   6
   1   4   6 332.306 133.420   4
   4  -5  -6 303.131 128.866   2
   1  -5   6 601.142 272.736   3
   4   1   6 396.763 144.983   4
   4   1  -6 260.376 103.104   6
   4  -5   6 480.436 194.329   3
  -5   4   6 355.497 104.919   4
   4  -5  -7 466.070 158.963   2
   1   4  -7 398.216 123.866   6
   4   1  -7 445.480 134.605   6
   4  -5   7 408.908 191.691   3
   1  -5   7 933.235 323.852   3
   4   1   7 558.261 181.989   4
   1   4   7 337.716 126.100   4
  -5   4   7 324.338 105.892   4
   1   4  -8 422.956 149.796   6
   4   1  -8 176.435 103.079   6
   4  -5   8 255.377 184.248   3
   1  -5   8 252.059 157.292   3
   1   4   8 240.131 120.020   4
   4   1   8 409.507 158.014   4
   4  -5  -8 491.836 180.238   2
   4   1  -9 68.8973 73.7772   6
   1   4  -9 166.107 142.518   6
   1  -5   9 76.9877 186.323   3
   4  -5   9-173.369 146.852   3
   4  -5   9 105.614 83.1052   4
   4   1   9 344.916 161.727   4
   1   4   9 294.691 131.891   4
   4  -6   0 3262.95 339.192   3
   2  -6   0 3448.65 418.040   3
   4   2   0 3306.32 429.023   1
   4  -6   0 3828.83 317.576   2
   2   4   0 2947.43 366.211   1
   4  -6  -1 3679.15 317.691   3
   4  -6   1 4008.64 423.878   3
   2  -6  -1 4013.21 377.387   3
   2  -6   1 4006.31 508.640   3
   4   2   1 4091.12 485.801   1
   4   2  -1 4024.96 431.726   1
   2   4  -1 3849.64 183.782   4
   4   2   1 3860.14 243.902   4
   2   4   1 3882.84 239.797   4
   4  -6  -1 4166.13 323.993   2
   2   4   1 3635.76 412.850   1
   2   4  -1 3705.41 378.937   1
   4  -6  -2 2672.44 247.256   3
   4  -6   2 2895.37 405.329   3
   2   4   2 2379.48 333.474   1
   4   2   2 3135.86 436.721   1
   2  -6  -2 2633.32 256.481   3
   4   2  -2 2565.30 331.326   1
   4   2   2 2869.90 248.259   4
   2   4   2 2677.01 222.999   4
   2  -6   2 3212.65 479.090   3
   2  -6  -2 2526.46 222.091   2
   4  -6  -2 2832.49 263.846   2
   2   4  -2 2639.41 314.385   1
   4   2   3 3115.22 418.957   1
   4   2  -3 2687.08 322.432   1
   4  -6  -3 2682.42 266.850   2
   4   2  -3 2758.75 272.267   6
   2   4  -3 2818.77 265.364   6
   4  -6   3 2843.54 428.587   3
   4   2   3 2755.00 273.483   4
   2   4   3 2844.66 258.121   4
   2  -6   3 3787.94 537.439   3
   2  -6  -3 2779.73 234.934   2
   2   4   3 2666.19 341.313   1
   2   4  -3 2886.20 326.074   1
   4   2   4 2813.22 367.164   1
   4   2  -4 2378.47 291.492   1
   2   4  -4 2024.68 225.556   6
   4  -6   4 2328.90 207.073   5
   4  -6   4 2487.39 401.821   3
   2   4   4 2145.12 248.252   4
   4   2   4 2338.54 283.476   4
   2  -6   4 3247.22 507.360   3
   4  -6  -4 2267.23 267.509   2
   2  -6  -4 2707.00 257.122   2
   4   2  -4 2212.66 252.688   6
   2   4   4 2259.35 296.387   1
   2   4  -4 2337.62 287.606   1
   4   2  -5 1568.54 214.879   6
   4   2   5 1799.64 293.257   1
   4   2  -5 1587.57 245.099   1
   2   4   5 1714.49 252.319   4
   4   2   5 1752.08 269.387   4
   2   4  -5 1417.69 202.397   6
   4  -6   5 1520.79 338.384   3
   4  -6   5 1769.43 182.908   5
   2  -6   5 2344.81 446.588   3
   4  -6  -5 1830.86 268.532   2
   2  -6  -5 1926.29 232.855   2
   2   4   5 1737.62 250.696   1
   2   4  -5 1912.76 256.497   1
   4  -6  -6 1705.31 270.439   2
   4  -6   6 1648.35 350.263   3
   4   2  -6 1422.48 216.068   6
   2  -6   6 2179.73 428.069   3
   2   4   6 1223.17 241.503   4
   4   2   6 1485.12 258.532   4
   2   4  -6 1389.42 215.850   6
   4  -6  -7 1028.29 238.970   2
   2   4  -7 1223.85 229.906   6
   2  -6   7 1150.10 341.339   3
   4  -6   7 1250.50 340.632   3
   4   2  -7 818.926 185.697   6
   4   2   7 716.541 197.778   4
   2   4   7 738.158 208.810   4
   4   2  -8 1025.30 219.895   6
   4  -6   8 871.441 294.885   3
   2   4  -8 1124.72 255.048   6
   2  -6   8 1575.87 396.405   3
   4   2   8 1384.31 303.415   4
   2   4   8 1272.87 280.238   4
   3  -7   0 1601.91 266.172   3
   4   3   0 1077.96 288.580   1
   4  -7   0 1055.24 212.065   3
   3   4   0 1690.72 316.775   1
   3   4  -1 1521.21 280.306   1
   3   4   1 1616.38 323.060   1
   4  -7   1 1579.81 301.138   3
   4  -7  -1 1194.04 195.937   3
   3  -7  -1 1402.50 220.077   3
   3  -7   1 1652.86 312.549   3
   4   3   1 1262.64 137.212   4
   3   4   1 1504.09 155.429   4
   4   3   1 1273.73 312.976   1
   4  -7  -1 1383.35 206.068   2
   4   3  -1 1115.58 249.880   1
   3  -7  -1 1573.00 216.659   2
   3   4   2 1468.49 277.467   1
   3   4  -2 1235.65 239.767   1
   4  -7  -2 1093.11 170.536   3
   4  -7   2 826.902 259.529   3
   3  -7  -2 1048.32 164.298   3
   3  -7   2 1082.09 279.716   3
   4   3   2 820.390 135.799   4
   3   4   2 1250.42 162.229   4
   4  -7  -2 1163.13 190.011   2
   3  -7  -2 1106.62 174.639   2
   4   3   2 944.321 277.599   1
   4   3  -2 977.038 226.236   1
   3   4   3 1198.42 261.007   1
   3   4  -3 1038.84 224.526   1
   4  -7  -3 1152.52 188.671   2
   4  -7   3 1265.99 330.981   3
   4   3   3 935.874 162.976   4
   3   4   3 1202.18 172.681   4
   3  -7  -3 1229.58 177.885   2
   3  -7   3 1654.61 384.852   3
   4   3   3 887.690 246.841   1
   4   3  -3 866.500 202.672   1
   3   4  -4 1019.78 220.001   1
   3   4  -4 851.906 165.131   6
   4   3   4 634.096 207.809   1
   4   3  -4 785.095 154.814   6
   4  -7   4 966.001 302.419   3
   3  -7   4 1789.10 406.572   3
   4   3  -4 978.555 215.371   1
   4   3   4 545.885 139.351   4
   3   4   4 891.347 173.310   4
   3  -7  -4 1001.38 180.006   2
   4  -7  -4 894.403 178.677   2
   3   4   4 906.622 233.811   1
   3  -7   5 1082.77 323.307   3
   4   3   5 489.743 175.609   1
   4   3  -5 515.223 157.315   1
   4   3  -5 623.892 146.676   6
   4  -7  -5 782.070 180.244   2
   3  -7  -5 665.776 153.082   2
   3   4   5 822.908 210.381   1
   4  -7   5 1200.17 325.278   3
   3   4  -5 645.804 146.394   6
   4   3   5 494.775 152.733   4
   3   4   5 710.547 169.122   4
   3   4  -5 821.425 199.043   1
   4  -7  -6 498.154 163.762   2
   3  -7   6 1084.69 316.707   3
   4  -7   6 824.508 277.348   3
   3   4   6 679.106 178.439   4
   4   3   6 615.241 187.108   4
   3   4  -6 686.232 157.899   6
   4   3  -6 557.640 150.947   6
   3  -7   7 403.720 235.620   3
   4   3  -7 388.730 139.347   6
   3   4   7 543.683 184.987   4
   3   4  -7 332.373 129.675   6
   4  -7   7 540.259 264.417   3
   4   3   7 566.475 190.355   4
   4  -8   0 146.291 97.6989   3
   4   4   0 247.004 172.670   1
   4   4   1 1454.43 325.917   1
   4   4  -1 1142.16 270.363   1
   4  -8  -1 1121.26 195.724   3
   4  -8  -1 1476.41 233.546   2
   4  -8   1 1332.22 287.368   3
   4   4   2 473.890 252.203   1
   4  -8   2 259.300 201.759   3
   4  -8  -2 213.490 101.260   2
   4   4  -2 144.293 123.479   1
   4   4   2 45.0439 45.7713   4
   4   4   3 856.638 245.013   1
   4   4  -3 1009.14 235.672   1
   4  -8  -3 807.970 165.690   2
   4  -8   3 945.826 322.183   3
   4   4   3 832.295 153.894   4
   4   4   4 227.376 168.449   1
   4   4  -4 251.169 139.137   1
   4  -8   4 459.489 266.243   3
   4  -8  -4 126.387 93.6782   2
   4   4   4 194.574 94.2681   4
   4   4  -5 609.374 158.933   6
   4  -8  -5 578.024 156.140   2
   4  -8   5 702.168 263.745   3
   4   4   5 522.444 159.179   4
   4   4   5 454.970 156.777   1
   4   4  -5 379.361 134.920   1
   4  -8   6 55.0016 181.378   3
   4   4  -6 178.005 103.377   6
   4   4   6 144.699 110.307   4
   4   4   7 290.995 135.499   4
   5  -2   0 2335.90 284.013   3
   5  -3   0 2059.34 280.977   3
  -2   5   0 2355.64 195.702   4
   5  -2   0 2309.89 211.114   2
   5  -3   0 2446.81 237.517   2
   5  -2  -1 999.942 184.779   3
   5  -3  -1 1412.29 193.720   2
   5  -3  -1 1536.40 219.539   3
   5  -2   1 1284.38 238.671   3
   5  -3   1 1267.80 259.211   3
   5  -2  -1 1087.91 167.316   2
   5  -2   1 1130.84 147.181   2
   5  -3   1 1265.40 175.893   2
  -2   5   1 1227.46 145.187   4
  -3   5   1 1151.99 147.627   4
   5  -3  -2 1950.07 237.090   2
   5  -3  -2 1669.42 207.704   3
   5  -2  -2 1699.65 220.498   2
   5  -3   2 1863.05 317.727   3
   5  -2   2 1870.95 288.274   3
  -3   5  -2 1830.35 129.667   6
   5  -2  -2 1418.69 152.905   6
  -2   5   2 1724.10 180.672   4
  -3   5   2 1512.05 178.234   4
   5  -2   2 1791.26 213.014   5
   5  -2   2 1920.28 178.580   2
   5  -3   2 2008.89 202.010   2
   5  -2  -3 1394.75 228.216   2
   5  -2   3 1493.33 288.886   3
   5  -3  -3 1495.81 237.502   2
   5  -3   3 1558.60 311.390   3
   5  -2  -3 1163.09 149.070   6
   5  -3   3 1251.17 176.568   5
   5  -2   3 1329.19 187.788   5
  -2   5   3 1207.96 169.141   4
   5  -2   3 1247.81 148.228   2
   5  -3   3 1341.78 165.808   2
  -3   5   3 1035.67 151.987   4
   5  -3  -3 1337.82 139.145   6
   5  -2  -4 1447.45 241.607   2
   5  -3  -4 1360.26 224.341   2
   5  -2   4 1489.36 305.868   3
  -3   5  -4 1198.32 149.516   6
  -2   5  -4 1185.27 148.605   6
   5  -2  -4 1169.42 159.699   6
   5  -3  -4 1309.53 150.238   6
   5  -3   4 1191.37 178.832   5
   5  -2   4 1150.98 179.037   5
   5  -2   4 1523.83 158.865   2
  -2   5   4 1092.87 170.908   4
  -3   5   4 1023.01 162.101   4
   5  -3   4 596.921 225.905   3
   5  -2  -5 1247.56 253.529   2
   5  -3  -5 1086.74 220.423   2
   5  -2  -5 992.166 157.157   6
  -2   5  -5 1143.57 171.198   6
   5  -2   5 1096.13 272.165   3
  -3   5  -5 928.500 161.496   6
   5  -3   5 1075.93 289.992   3
   5  -3   5 914.114 158.516   5
  -2   5   5 1202.73 187.786   4
  -3   5   5 1083.98 185.301   4
   5  -3  -5 1059.98 153.056   6
   5  -3  -6 474.526 178.529   2
   5  -2   6 368.060 168.937   4
  -3   5  -6 446.777 135.981   6
   5  -2   6 317.200 195.862   3
   5  -3   6 470.748 235.137   3
  -2   5  -6 284.968 91.1384   6
   5  -3  -6 521.293 128.709   6
   5  -2  -6 357.938 102.045   6
  -2   5   6 405.262 125.772   4
  -3   5   6 312.051 113.575   4
   5  -2  -6 658.922 202.818   2
   5  -2   7 392.400 179.316   3
  -2   5  -7 679.320 189.161   6
   5  -3   7 661.144 255.320   3
  -3   5  -7 600.171 167.881   6
   5  -3  -7 867.665 173.205   6
   5  -2  -7 641.794 154.369   6
   5  -2   7 1167.10 296.512   4
  -2   5   7 719.846 178.357   4
  -3   5   7 839.736 190.174   4
   5  -2  -7 521.513 208.992   2
   5  -3  -7 706.626 224.465   2
   5  -2   8 155.432 167.469   3
   5  -3  -8 275.676 117.335   6
   5  -3   8-244.703 184.825   3
  -3   5  -8 182.274 91.0927   6
   5  -3   8 271.621 178.089   4
   5  -2   8 270.050 172.415   4
  -2   5   8 160.901 115.864   4
  -3   5   8 461.076 153.791   4
   5  -3  -8 268.096 206.904   2
  -2   5  -8 229.644 124.067   6
   5  -2  -8 60.9667 66.1408   6
  -3   5  -9 420.467 150.946   6
  -2   5  -9 317.142 146.374   6
   5  -3  -9 134.995 92.5289   6
   5  -2  -9 222.257 114.597   6
   5  -3   9 496.554 220.230   4
   5  -2   9 644.431 232.832   4
  -2   5   9 639.216 191.027   4
  -3   5   9 772.046 204.856   4
   5  -3 -10-153.076 98.5718   6
   5  -1   0 901.190 140.034   2
   5  -4   0 849.896 204.196   3
  -1   5   0 941.599 204.658   1
   5  -4   0 1033.41 172.212   2
  -1   5   0 888.151 117.594   4
   5  -4  -1 2983.78 300.818   3
   5  -4   1 2933.43 355.751   3
   5  -1   1 3234.46 253.631   5
  -1   5   1 3294.89 227.740   4
   5  -4   1 3213.12 274.602   2
   5  -1  -1 2994.76 262.354   2
   5  -1   1 2940.66 214.329   2
   5  -4  -1 3148.69 277.975   2
  -1   5   1 3203.61 334.237   1
  -1   5  -1 3385.57 318.540   1
   5  -1   1 3056.53 317.265   3
   5  -1  -2 542.703 150.173   2
   5  -1   2 819.312 212.323   3
   5  -4  -2 634.385 143.134   3
  -1   5   2 768.041 179.372   1
  -4   5  -2 632.496 67.0619   6
   5  -1   2 733.543 105.489   2
  -1   5  -2 697.074 159.087   1
   5  -4  -2 733.859 149.228   2
   5  -4   2 876.394 240.643   3
   5  -1   2 671.081 132.493   5
   5  -4   2 654.387 132.741   2
  -1   5   2 770.925 132.673   4
  -4   5   2 609.205 117.010   4
   5  -1  -3 2017.50 264.676   2
   5  -1   3 2265.13 315.497   3
  -1   5  -3 2411.36 199.178   6
   5  -4  -3 2072.33 149.302   6
   5  -1  -3 1853.26 201.283   6
   5  -4  -3 2039.99 249.412   2
   5  -4   3 1873.03 338.174   3
   5  -4   3 1763.47 196.408   5
   5  -1   3 2184.17 235.195   5
  -4   5  -3 2135.14 170.448   6
  -1   5   3 2399.66 236.952   4
  -4   5   3 1889.54 205.651   4
   5  -1   3 2315.00 165.434   2
  -1   5   3 1900.78 237.101   1
  -1   5  -3 2238.98 251.728   1
  -1  -4  -3 2605.23 148.474   2
   5  -1   4 826.219 224.643   3
  -1   5   4 468.577 131.332   1
  -1   5  -4 564.895 132.641   1
   5  -4  -4 464.928 142.805   2
  -4   5  -4 529.262 106.206   6
   5  -4   4 664.068 232.592   3
  -1   5  -4 607.976 113.305   6
   5  -4  -4 546.679 90.7726   6
   5  -4   4 448.700 109.364   5
   5  -1  -4 506.913 116.004   6
  -1   5   4 635.644 133.844   4
  -4   5   4 537.126 122.794   4
   5  -1  -4 499.665 175.455   2
   5  -4  -5 1025.65 221.672   2
   5  -1   5 1016.75 254.092   3
  -4   5  -5 1151.39 186.070   6
   5  -1  -5 908.010 159.696   6
   5  -4   5 1008.69 271.260   3
   5  -4  -5 1101.28 152.411   6
  -1   5  -5 1302.89 182.807   6
   5  -4   5 1021.46 167.961   5
  -4   5   5 1198.87 180.785   4
   5  -1   5 1252.57 265.872   4
  -1   5   5 1245.35 193.862   4
   5  -1  -5 1231.25 253.429   2
   5  -4  -6 56.9466 114.322   2
   5  -1   6 76.5598 155.515   3
  -4   5  -6 526.491 144.405   6
   5  -4   6 59.5395 136.737   3
   5  -4  -6 326.977 101.963   6
   5  -1  -6 270.166 100.544   6
  -1   5  -6 405.855 128.891   6
   5  -1   6 344.258 170.971   4
  -1   5   6 282.551 111.350   4
   5  -1  -6 335.884 177.004   2
  -4   5   6 428.215 126.826   4
   5  -4  -7 185.541 140.345   2
   5  -1   7 184.662 181.195   3
  -1   5  -7 490.344 161.707   6
  -4   5  -7 477.030 146.477   6
   5  -4  -7 253.532 98.9107   6
   5  -1  -7 193.756 98.2563   6
   5  -4   7 259.883 167.468   3
   5  -1   7 365.574 206.062   4
  -1   5   7 614.106 171.141   4
  -4   5   7 288.746 103.749   4
   5  -4   8 102.133 142.587   3
   5  -1  -8 226.793 104.614   6
  -4   5  -8 133.939 76.9971   6
  -1  -4   8 110.105 137.035   3
  -1   5  -8 356.589 151.533   6
   5  -1   8 259.550 185.346   4
   5  -4   8 380.230 183.848   4
  -1   5   8 530.689 166.517   4
  -4   5   8 233.871 109.101   4
   5  -4  -8 177.234 154.123   2
   5  -4   9-94.9192 131.446   3
  -4   5  -9 197.660 97.7774   6
   5  -1  -9 250.401 121.931   6
  -1   5  -9 252.064 139.725   6
  -1  -4   9 108.375 120.981   3
   5  -4   9-68.5072 119.123   4
   5  -1   9 178.716 104.387   4
  -1   5   9 245.590 127.453   4
   5  -4  -9-19.8473 115.709   2
  -4   5   9 286.818 126.062   4
   5  -5   0 5489.54 435.300   3
   5   0   0 6108.21 315.355   5
   5   0   0 6942.98 418.248   2
   0   5   0 6064.14 283.718   4
   5  -5   0 6227.45 392.097   2
   0   5   0 5583.64 457.558   1
   5  -5  -1 3211.31 320.401   3
   5  -5   1 3446.54 386.746   3
   5   0  -1 3596.49 225.997   5
   5   0   1 3584.94 259.308   5
   0   5   1 3185.46 230.344   4
   5   0  -1 3849.23 335.763   2
   5   0   1 3388.73 274.857   2
   5  -5  -1 3674.72 314.964   2
   0   5   1 3383.48 363.202   1
   0   5  -1 3473.08 348.077   1
   5  -5   1 3392.39 293.364   2
   5  -5  -2 4043.03 318.836   3
   5  -5   2 4248.68 442.467   3
   0   5  -2 4852.56 312.726   6
   0   5   2 4789.44 308.932   4
   5   0  -2 4599.25 407.978   2
   5   0   2 4383.60 279.196   2
   5   0   2 4417.88 384.045   4
   0   5   2 3470.63 321.155   1
   5  -5  -2 4111.81 339.241   2
   0   5  -2 4465.12 386.122   1
   0   5  -3 3068.26 255.773   6
   5   0  -3 3436.65 287.333   6
   0   5   3 3154.05 269.623   4
   5  -5   3 2560.31 379.933   3
   5  -5  -3 3105.11 301.383   2
   5   0   3 3122.34 351.384   4
   5   0  -3 3130.04 364.303   2
   0  -5  -3 3439.67 219.173   2
   0   5   3 2982.93 326.172   1
   0   5  -3 3053.76 309.875   1
   5   0   3 3007.61 332.756   3
   5  -5  -3 2666.52 227.643   3
   5   0   4 2785.38 397.967   1
   5   0  -4 2432.79 307.010   1
   5   0  -4 3261.99 292.996   6
   0   5  -4 3254.85 265.871   6
   5  -5   4 2446.64 394.750   3
   5  -5   4 2975.71 248.917   5
   5   0   4 2999.69 367.981   4
   0   5   4 3219.63 293.822   4
   5   0  -4 3106.09 357.209   2
  -5   5   4 2678.32 263.795   4
   5  -5  -4 3259.31 331.382   2
   0   5   4 2987.22 315.488   1
   0   5  -4 3132.63 296.689   1
   5   0   4 3049.68 355.928   3
   5   0   5 2622.07 357.103   3
   5   0   5 3008.76 406.802   1
   5   0  -5 1892.56 266.893   1
   5  -5   5 2162.32 366.620   3
   0   5   5 2714.44 278.564   1
   5   0  -5 2591.31 269.826   6
   0   5  -5 2298.36 243.527   6
   5  -5   5 2218.78 224.542   5
   5   0   5 2663.66 369.297   4
   0   5   5 2828.23 303.630   4
  -5   5   5 2366.70 253.000   4
   5  -5  -5 2650.45 314.591   2
   0   5  -5 2602.80 265.717   1
   5   0   6 1288.83 289.611   3
   5  -5  -6 1352.25 252.995   2
   0   5  -6 1074.82 186.435   6
   5   0  -6 1129.95 192.987   6
   5  -5   6 1315.16 304.192   3
  -5   5   6 1281.41 200.275   4
   5   0   6 1245.98 276.346   4
   0   5   6 1214.71 223.975   4
   5  -5  -7 2139.85 335.498   2
   5   0   7 1554.59 335.641   3
   5  -5   7 1538.61 336.877   3
   5   0  -7 1603.41 248.980   6
   0   5  -7 1667.59 249.900   6
   5   0   7 2210.72 357.019   4
   0  -5   7 3220.99 531.667   3
  -5   5   7 1491.10 234.314   4
   0   5   7 1668.28 290.935   4
   5  -5   8 131.899 128.104   3
   0   5  -8 562.551 172.835   6
   0  -5   8 1097.00 309.004   3
   5   0  -8 678.398 172.129   6
   5   0   8 798.885 237.023   4
   0   5   8 825.816 211.416   4
  -5   5   8 475.077 148.832   4
   5  -5  -8 373.145 172.301   2
  -5   5  -9 367.454 135.690   6
   5   0  -9 935.879 212.077   6
   5  -5   9 355.074 228.620   3
   0   5  -9 1203.18 263.353   6
   0  -5   9 1212.32 390.168   3
   5  -5   9 603.354 198.032   4
   5  -5  -9 659.228 275.898   2
   5   1   0 543.891 235.742   1
   5  -6   0 394.759 143.532   3
   5  -6   0 396.030 126.178   2
   1   5   0 495.387 183.133   1
   1   5   0 388.055 78.7192   4
   5  -6  -1 484.666 149.552   3
   5  -6   1 338.223 134.019   3
   5   1  -1 455.535 85.5862   5
   5  -6  -1 315.447 123.759   2
   5   1   1 451.736 116.124   4
   5  -6   1 478.879 134.750   2
   1   5   1 537.827 180.128   1
   1   5  -1 582.876 171.157   1
   5   1   1 321.918 199.946   1
   1   5   1 546.281 100.606   4
   5   1  -1 258.286 149.639   1
   5  -6  -2 265.397 97.3798   3
   5  -6   2 355.496 177.944   3
   5   1   2 469.807 199.430   1
   5  -6  -2 419.701 124.268   2
   5   1  -2 276.802 153.648   1
   1   5   2 614.723 192.380   1
   1   5  -2 568.832 156.121   1
   1  -6  -2 334.055 83.5764   2
   5   1   2 247.633 88.1675   4
   1   5   2 419.931 96.5103   4
   5   1   3 375.682 180.786   1
   5   1  -3 244.167 154.426   1
   5  -6  -3 174.805 115.355   2
   5  -6   3 154.166 162.899   3
   1   5   3 441.826 166.581   1
   1  -6  -3 255.421 72.7084   2
   1   5  -3 397.116 104.668   6
   1   5  -3 354.805 144.003   1
   5   1   3 276.245 116.645   4
   1   5   3 445.788 106.653   4
   5  -6  -4 234.258 114.725   2
   5  -6   4 297.140 200.629   3
   5   1  -4 110.350 89.5229   6
   5  -6   4 92.4014 57.9846   5
   1   5   4 266.267 120.095   1
   1   5  -4 294.771 127.592   1
   1   5  -4 260.556 97.4284   6
   5   1   4 94.7228 77.9191   4
   5   1   4 125.470 135.523   1
   5   1  -4 113.392 84.7937   1
   1   5   4 164.056 85.4720   4
   5   1   5 245.567 158.629   1
   5  -6  -5 118.310 119.258   2
   5   1  -5 79.3723 93.3242   1
   5  -6   5-3.74829 169.854   3
   1   5  -5 247.841 102.105   6
   5   1  -5 72.0717 51.8527   6
   1   5   5 328.438 144.517   1
   1   5  -5 84.1260 74.7164   1
   5  -6   5 75.2448 62.7027   5
   1  -6   5 88.6494 156.863   3
   5   1   5-23.7305 76.4038   4
   1   5   5 372.783 127.653   4
   5  -6   6 119.342 173.599   3
   5  -6  -6 288.307 157.103   2
   1  -6   6 163.252 194.766   3
   1   5  -6 112.197 79.3795   6
   5   1  -6 147.385 90.5274   6
   5  -6   6 185.681 82.1691   5
   5   1   6 183.178 113.797   4
   1   5   6 159.954 104.366   4
   5  -6  -7 109.841 119.720   2
   1   5   7 22.6690 90.8485   4
   5  -6   7-154.166 162.593   3
   1   5  -7 112.734 108.500   6
   5   1  -7 61.1507 79.0991   6
   1  -6   7-247.277 203.300   3
   5   1   7 201.788 135.397   4
  -6   5   7 130.620 92.6605   4
   5  -6  -8 108.893 143.744   2
   1   5  -8 242.347 120.998   6
   1  -6   8 151.182 186.262   3
   5   1  -8 8.82869 80.9180   6
   5  -6   8-150.668 158.652   3
   5   1   8 128.509 101.412   4
   1   5   8-196.818 172.448   4
   5  -7   0 1102.67 212.537   3
   5   2   0 1246.62 290.566   1
   2   5   0 1322.94 132.643   4
   5  -7   0 1294.05 229.474   2
   2  -7   0 1481.07 311.866   3
   2   5   0 1157.93 264.598   1
   5  -7  -1 284.065 122.091   3
   5  -7   1 503.886 188.388   3
   5   2   1 259.105 175.527   1
   5   2  -1 157.465 155.056   1
   5  -7  -1 217.150 92.5459   2
   2  -7  -1 133.646 82.8307   3
   2  -7   1 454.276 188.267   3
   5   2   1 248.684 72.2031   4
   2   5   1 327.223 76.8004   4
   2   5   1 328.826 173.988   1
   2   5  -1 205.890 123.780   1
   5   2   2 969.164 280.779   1
   5   2  -2 717.191 226.859   1
   5  -7   2 1026.75 260.388   3
   5  -7  -2 941.681 178.149   2
   2  -7  -2 705.368 149.524   3
   2  -7   2 1114.15 359.419   3
   2  -7  -2 823.390 135.682   2
   5   2   2 688.913 129.700   4
   2   5   2 941.971 242.875   1
   2   5  -2 668.178 179.950   1
   2   5   2 862.597 133.690   4
   5   2   3 228.202 158.062   1
   5   2  -3 123.437 110.166   1
   5  -7   3 28.9358 143.455   3
   5  -7  -3 204.676 104.075   2
   2  -7  -3 234.626 78.0050   2
   2  -7   3 16.6251 242.419   3
   5   2   3 33.8958 56.1662   4
   2   5   3 199.721 157.662   1
   2   5  -3 276.565 146.083   1
   2   5   3 302.187 101.761   4
   5  -7  -4 555.509 143.830   2
   5  -7   4 456.236 217.709   3
   2   5  -4 556.099 132.335   6
   5  -7   4 619.096 136.744   5
   5   2  -4 628.158 146.580   6
   2  -7   4 754.968 329.845   3
   2   5   4 717.382 193.106   1
   2   5  -4 608.823 176.494   1
   5   2   4 370.910 122.384   4
   2   5   4 636.446 145.574   4
   5   2   4 524.947 197.738   1
   5   2  -4 199.543 122.257   1
   5  -7  -5 10.0832 83.2404   2
   5  -7   5 72.4121 153.219   3
   2   5  -5 151.717 96.5368   6
   5   2  -5 78.9818 69.5143   6
   5  -7   5 427.560 108.278   5
   2  -7   5 390.487 259.655   3
   2   5   5 211.075 107.510   1
   2   5  -5 427.309 154.639   1
   5   2   5 213.078 148.145   1
   5   2  -5 158.850 107.257   1
   5   2   5-29.1817 79.3069   4
   2   5   5 115.269 88.8161   4
   5  -7  -6 255.988 149.586   2
   5   2  -6 119.864 87.8775   6
   2   5  -6 109.154 84.6916   6
   5  -7   6 10.9423 145.047   3
   2  -7   6 436.907 242.597   3
   5   2   6 73.5274 64.8439   4
   2   5   6 131.001 101.491   4
   5  -7  -7 174.092 178.644   2
   5  -7   7-163.459 170.939   3
   2   5  -7-31.8420 71.3118   6
   5   2  -7 89.6815 94.0838   6
   2  -7   7-204.383 199.179   3
   5   2   7 6.27609 100.939   4
   2   5   7 42.4283 82.0803   4
   3   5   0 2257.56 372.396   1
   5  -8   0 1963.99 314.190   3
   3  -8   0 2465.20 363.382   3
   5  -8   0 2627.67 325.428   2
   5   3   0 1887.45 366.573   1
   5  -8  -1 1252.61 218.988   3
   3  -8  -1 1425.35 236.810   3
   3  -8   1 1400.44 331.469   3
   5  -8  -1 1704.21 263.701   2
   3  -8  -1 1587.49 226.072   2
   5  -8   1 1427.44 300.482   3
   5   3   1 1899.95 349.965   1
   5   3  -1 1538.42 315.910   1
   3   5   1 1072.90 268.669   1
   3   5  -1 1154.87 248.051   1
   5  -8   2 1821.01 363.330   3
   3  -8   2 2295.65 451.385   3
   3   5   2 1966.05 205.186   4
   5   3   2 1912.91 374.643   1
   5   3  -2 1689.92 308.348   1
   5  -8  -2 2076.58 273.701   2
   3  -8  -2 2164.67 247.715   2
   3   5   2 2416.19 397.195   1
   3   5  -2 2049.49 326.147   1
   5  -8   3 1219.07 334.713   3
   5  -8  -3 1447.10 227.564   2
   3  -8  -3 1231.82 184.777   2
   3  -8   3 1798.23 443.543   3
   5   3   3 1174.26 187.948   4
   3   5   3 1323.49 187.949   4
   5   3   3 1336.32 321.229   1
   5   3  -3 1290.75 267.122   1
   3   5   3 1370.34 296.083   1
   3   5  -3 1311.40 257.555   1
   5  -8  -4 1332.46 226.333   2
   5   3   4 1064.37 281.635   1
   5   3  -4 1140.01 239.089   1
   3  -8   4 1935.37 475.927   3
   3   5   4 1320.33 215.999   4
   5   3   4 1137.06 204.045   4
   3   5   4 1021.02 249.258   1
   3   5  -4 1393.76 265.091   1
   5  -8   4 1288.48 359.346   3
   5   3   5 976.183 264.846   1
   5   3  -5 850.434 212.624   1
   5  -8  -5 1120.74 235.977   2
   5  -8   5 1151.37 346.077   3
   5   3  -5 1086.55 198.400   6
   3  -8   5 1432.30 400.934   3
   3   5   5 916.076 219.470   1
   3   5  -5 1133.84 225.187   1
   3   5  -5 829.510 178.504   6
   5   3   5 796.335 195.713   4
   3   5   5 1150.32 221.965   4
   5  -8  -6 438.498 157.176   2
   5  -8   6 431.259 190.315   3
   3   5  -6 719.588 176.739   6
   5   3  -6 632.316 162.491   6
   3  -8   6 1317.57 431.902   3
   5   3   6 730.768 194.256   4
   3   5   6 512.670 153.096   4
   4   5   0 734.927 258.495   1
   4  -9   0 686.827 208.439   3
   5   4   0 238.503 162.199   1
   5  -9   0 606.319 185.163   2
   4  -9   0 607.821 176.815   2
   5  -9   0 448.008 170.256   3
   4   5   1 784.410 234.252   1
   4   5  -1 704.038 239.172   1
   5   4   1 757.516 263.760   1
   5   4  -1 617.263 219.011   1
   5  -9   1 776.351 203.094   3
   4  -9   1 611.560 237.336   3
   4  -9  -1 1029.11 209.744   2
   5  -9   1 909.322 214.640   2
   5  -9  -1 909.874 204.351   2
   4   5   2 844.040 272.090   1
   4   5  -2 964.096 264.535   1
   5   4   2 272.546 195.105   1
   5   4  -2 388.588 163.309   1
   5  -9   2 33.6361 136.432   3
   4  -9   2 493.131 249.876   3
   5  -9  -2 500.812 154.507   2
   4  -9  -2 505.575 142.698   2
   4  -9  -3 713.226 164.251   2
   5   4   3 710.365 278.597   1
   5   4  -3 644.954 217.647   1
   4  -9   3 819.750 342.064   3
   5  -9   3 512.381 283.032   3
   5  -9  -3 517.549 145.122   2
   4   5   3 700.305 271.514   1
   4   5  -3 619.829 203.676   1
   5   4   4 440.753 203.018   1
   5   4  -4 230.686 154.523   1
   5  -9  -4 349.173 127.956   2
   5  -9   4 20.9118 185.901   3
   4  -9   4 890.540 382.883   3
   4   5   4 569.805 149.059   4
   4   5   4 775.163 264.188   1
   4   5  -4 491.715 178.247   1
   5   4   5 157.227 145.270   1
   5   4  -5 161.698 121.339   1
   5  -9   5 572.692 332.570   3
   4  -9   5 217.262 240.094   3
   4   5   5 317.484 163.935   1
   4   5  -5 93.2792 104.960   1
   5   4   5 232.195 103.629   4
   4   5   5 237.617 99.1392   4
   5   5   0 1516.07 385.339   1
   5 -10   0 2279.24 356.458   2
   5   5   1 291.463 207.893   1
   5   5  -1 406.995 214.372   1
   5 -10   1 77.3531 106.203   3
   5 -10  -1 231.324 122.770   2
   5 -10   1 260.905 127.727   2
   5   5   2 1845.94 422.459   1
   5   5  -2 1592.40 345.051   1
   5 -10  -2 1306.18 260.010   2
   5 -10   2 1360.52 376.119   3
   5 -10   3 0.38492 182.147   3
   5 -10  -3 427.497 158.707   2
   5   5   3 540.472 278.306   1
   5   5  -3 236.660 149.336   1
   6  -3   0 2948.26 288.385   2
   6  -3   0 3163.96 353.282   3
   6  -3  -1 356.608 166.427   3
   6  -3   1 286.179 163.480   3
   6  -3  -1 346.711 144.112   2
   6  -3   1 264.920 111.422   2
  -3   6   1 377.988 101.077   4
   6  -3   2 1865.62 306.511   3
   6  -3  -2 1848.68 249.550   2
  -3   6  -2 2520.44 163.874   6
   6  -3   2 1931.69 231.633   5
  -3   6   2 2396.51 231.510   4
   6  -3   2 1788.86 212.483   2
   6  -3  -3 342.239 145.657   2
   6  -3   3 100.919 179.646   3
   6  -3  -3 217.538 75.6994   6
   6  -3   3 297.295 112.914   5
   6  -3   3 133.773 64.7932   2
  -3   6   3 288.179 97.6904   4
   6  -3  -4 1450.50 254.105   2
   6  -3   4 1450.84 320.048   3
  -3   6  -4 1562.54 164.434   6
   6  -3  -4 1470.94 177.152   6
   6  -3   4 1336.73 203.186   5
  -3   6   4 1521.64 204.702   4
   6  -3   4 1561.15 183.418   2
   6  -3  -5 154.990 120.510   2
   6  -3   5 156.537 219.129   3
  -3   6  -5 378.643 98.3653   6
   6  -3  -5 201.118 72.1128   6
   6  -3   5 186.623 92.5008   5
  -3   6   5 116.293 63.2416   4
   6  -3   6 172.140 205.530   3
  -3   6  -6 613.690 137.544   6
   6  -3  -6 668.028 146.886   6
  -3   6   6 623.939 161.152   4
   6  -3  -6 641.916 201.341   2
   6  -3   7 0.11891 170.011   3
  -3   6  -7 214.115 97.1908   6
   6  -3  -7 185.523 95.1954   6
   6  -3   7-64.9175 167.963   4
  -3   6   7 195.359 107.077   4
   6  -3  -7 142.499 153.778   2
   6  -3   8 130.524 163.492   3
  -3   6  -8 174.950 112.156   6
   6  -3  -8 237.742 107.119   6
   6  -3   8 183.179 155.018   4
   6  -3  -8 141.166 160.257   2
  -3   6   8 373.219 149.199   4
  -3   6  -9 100.426 105.699   6
   6  -4   0 3813.58 387.530   3
   6  -2   0 3636.51 291.989   2
  -2   6   0 2796.15 326.952   1
   6  -4   0 3637.85 321.550   2
   6  -2   0 3234.04 355.279   3
   6  -4   1 3973.22 427.477   3
   6  -2   1 4565.87 322.811   5
  -2   6   1 3698.67 271.334   4
   6  -2  -1 3935.51 315.847   2
   6  -2   1 4206.49 299.011   2
  -2   6  -1 3818.18 362.880   1
   6  -4  -1 4187.79 355.736   2
   6  -4   1 4500.64 344.932   2
   6  -2   1 3965.85 402.626   3
   6  -4  -1 3706.58 374.930   3
   6  -2   2 3013.73 367.853   3
   6  -4   2 2621.14 389.723   3
   6  -2   2 3213.67 293.352   5
  -2   6   2 2788.79 251.693   4
  -4   6   2 2802.60 255.931   4
   6  -2  -2 2770.14 290.871   2
   6  -4  -2 3162.37 317.611   2
   6  -2   2 3222.69 244.898   2
   6  -4   2 2723.99 263.710   2
   6  -4  -2 2770.01 286.178   3
   6  -2   3 3419.06 401.941   3
   6  -4   3 2612.91 385.715   3
   6  -2  -3 2905.08 254.411   6
   6  -4   3 3083.16 286.405   5
   6  -2   3 3279.23 317.377   5
  -2   6  -3 3031.15 237.068   6
  -2   6   3 2999.35 277.634   4
  -4   6   3 2864.88 273.532   4
   6  -2  -3 3137.71 340.149   2
   6  -4  -3 2670.72 317.608   2
   6  -2   3 3261.83 241.588   2
   6  -4   3 2576.55 267.012   2
   6  -2   4 2654.68 394.331   3
   6  -4  -4 2294.24 308.543   2
   6  -4   4 2226.89 367.959   3
  -2   6  -4 2352.12 213.531   6
   6  -2  -4 2711.88 257.681   6
   6  -4   4 2200.53 249.257   5
   6  -2   4 2589.96 291.074   5
  -2   6   4 2150.83 245.534   4
  -4   6   4 2468.04 267.274   4
   6  -2  -4 2776.68 342.447   2
   6  -4   4 2505.52 244.312   2
   6  -4  -5 1576.63 282.687   2
   6  -2   5 1899.43 356.876   3
  -2   6  -5 1795.60 213.284   6
   6  -4   5 1989.23 386.099   3
   6  -2  -5 1943.98 235.083   6
   6  -4   5 1575.32 212.675   5
  -2   6   5 1894.52 243.848   4
  -4   6   5 1489.43 218.392   4
   6  -2  -5 1740.45 295.473   2
   6  -4  -6 1512.00 288.037   2
   6  -2   6 1360.20 334.189   3
  -2   6  -6 1507.71 223.500   6
   6  -4   6 776.128 267.043   3
   6  -2  -6 1595.52 225.274   6
  -4   6   6 1454.87 229.410   4
   6  -2   6 2038.35 379.353   4
  -2   6   6 1258.23 215.425   4
   6  -2  -6 1460.70 307.260   2
   6  -4  -7 902.482 253.669   2
   6  -2   7 503.138 264.370   3
   6  -4   7 340.319 206.355   3
  -2   6  -7 911.119 197.408   6
   6  -2  -7 575.626 149.446   6
   6  -2   7 989.528 311.810   4
  -2   6   7 901.707 215.913   4
   6  -2  -7 822.367 242.084   2
  -4   6   7 746.400 168.344   4
   6  -2   8 883.086 307.950   3
  -2   6  -8 785.177 202.447   6
   6  -4   8 705.181 314.101   3
   6  -2  -8 819.531 186.875   6
   6  -4   8 1045.20 300.418   4
   6  -2   8 985.443 311.102   4
  -2   6   8 1118.81 237.870   4
  -4   6   8 1100.65 229.261   4
   6  -4  -8 800.898 260.518   2
   6  -4   9 106.547 147.496   3
  -2   6  -9 245.778 125.456   6
   6  -2  -9 142.689 104.459   6
  -2  -4   9 0.16732 154.306   3
  -4   6   9 209.209 114.599   4
   6  -1   0 428.110 124.938   2
   6  -5   0 261.537 142.387   3
  -1   6   0 441.977 157.364   1
   6  -1   0 303.657 89.6819   5
   6  -5   0 578.970 158.598   2
  -1   6   0 354.360 84.5177   4
   6  -1  -1 598.500 149.968   2
   6  -1   1 504.131 115.525   2
   6  -5  -1 584.965 186.128   3
   6  -5   1 359.242 166.211   3
  -1   6   1 219.053 124.570   1
  -1   6  -1 362.689 130.461   1
   6  -5  -1 716.559 164.902   2
   6  -1   1 424.397 115.216   5
   6  -5   1 613.546 146.815   2
  -1   6   1 516.378 106.659   4
   6  -1  -2 424.005 155.066   2
   6  -1   2 277.784 140.902   3
   6  -1   2 452.826 120.145   2
   6  -5  -2 357.928 122.073   3
  -1   6   2 242.709 145.182   1
  -1   6  -2 387.147 127.873   1
   6  -5   2 500.652 212.687   3
   6  -5  -2 759.980 189.477   2
   6  -1   2 389.194 115.306   5
   6  -5   2 485.784 135.627   2
  -1   6   2 472.993 108.263   4
   6  -5  -3 451.692 133.168   3
   6  -1   3 153.291 137.229   3
  -1   6   3 402.070 142.849   1
  -1   6  -3 291.291 118.986   1
   6  -5   3 98.0795 178.293   3
   6  -5  -3 135.907 94.0091   2
  -1   6  -3 274.156 89.3073   6
   6  -5   3 374.984 120.483   2
  -1   6   3 342.220 108.514   4
   6  -1  -3 392.337 180.815   2
   6  -1   4 150.361 149.987   3
  -1   6   4 294.306 122.889   1
  -1   6  -4 332.222 121.462   1
   6  -5  -4 315.664 137.854   2
   6  -5   4 10.2537 165.909   3
  -1   6  -4 193.787 71.6905   6
   6  -1  -4 148.002 86.0469   6
   6  -5   4 242.942 97.0761   5
   6  -1   4 76.0404 95.9655   4
  -1   6   4 286.077 103.627   4
   6  -1  -4 323.093 157.204   2
  -5   6   4 120.964 70.3759   4
  -1   6  -5 140.426 76.5125   6
   6  -1   5 302.127 195.982   3
   6  -5  -5 184.024 132.219   2
   6  -5   5 463.192 252.548   3
   6  -1  -5 196.497 90.5136   6
   6  -5   5 109.992 78.5416   5
   6  -1   5 205.426 154.341   4
  -1   6   5 155.692 91.5775   4
   6  -1  -5 114.576 131.870   2
  -5   6   5 153.132 90.8049   4
   6  -1  -6 227.929 101.512   6
   6  -5  -6 339.219 168.320   2
   6  -1   6 102.337 135.939   3
   6  -5   6 216.764 166.683   3
  -1   6  -6 205.190 102.347   6
   6  -5   6 267.969 91.6549   5
   6  -1   6 267.852 165.127   4
  -1   6   6 161.671 78.2251   4
  -5   6   6 166.158 106.622   4
   6  -5  -7 203.831 152.436   2
   6  -1   7-124.576 169.460   3
  -1   6  -7 131.591 105.983   6
   6  -1  -7 24.8320 63.5040   6
   6  -1   7 162.564 183.323   4
  -1   6   7 42.8653 68.4140   4
  -5   6   7 92.9978 83.6628   4
   6  -5   8 206.165 178.767   3
   6  -1  -8 97.0553 88.0260   6
  -1  -5   8 41.2458 132.684   3
   6  -1   8 229.327 172.251   4
  -1   6   8 252.860 151.571   4
  -1   6  -8-19.7161 67.4779   6
  -5   6   8-98.3717 83.2087   4
   6  -5  -8-201.387 207.014   2
  -5   6   9-4.93375 91.6952   4
   6  -6   0 1067.84 228.174   3
   6   0   0 1100.16 146.293   5
   0   6   0 1141.35 234.859   1
   6  -6   0 1153.41 199.726   2
   0   6   0 1193.40 142.030   4
   6   0   0 761.937 149.705   4
   6   0   0 1042.13 218.600   2
   6  -6  -1 30.0449 100.047   3
   6  -6   1-63.7949 138.803   3
   0   6   1-38.2104 123.024   1
   0   6  -1 275.331 138.130   1
   6   0  -1 114.739 59.2736   5
   6  -6  -1 71.1937 81.8152   2
   6   0   1 25.6353 53.6844   5
   6  -6   1 13.1968 71.0065   2
   6   0   1 105.518 79.2240   4
   6   0  -1 76.1901 115.398   2
   0   6   1 18.6277 35.7826   4
   6  -6  -2 800.162 177.174   3
   6  -6   2 758.545 213.983   3
   6  -6  -2 836.815 192.086   2
   0   6   2 908.791 215.774   1
   0   6  -2 842.174 196.483   1
   6   0  -2 698.756 110.833   5
   6   0   2 509.791 162.129   4
   6  -6   2 740.207 159.337   2
   6   0  -2 890.492 215.041   2
   0   6   2 941.556 142.486   4
   6  -6   3 221.534 163.093   3
   6  -6  -3-20.9461 79.7161   2
   0   6   3-96.6442 106.840   1
   0   6  -3 125.844 97.5743   1
   0   6  -3 29.6868 50.9987   6
   6   0   3 6.28333 84.6755   4
   6   0   3 42.2252 143.263   1
   6   0  -3 233.015 148.374   2
   0   6   3 17.7849 51.0599   4
   6   0  -3-58.6582 123.597   1
   6  -6  -4 475.992 158.689   2
   0   6   4 686.794 164.611   1
   6  -6   4 534.196 247.192   3
   0   6  -4 584.573 150.084   1
   0   6  -4 550.014 122.361   6
   6   0  -4 418.056 122.393   6
   6  -6   4 409.029 116.540   5
   6   0   4 367.615 205.080   1
   6   0  -4 239.614 123.813   1
   6   0   4 494.678 178.428   4
   0   6   4 508.702 129.922   4
   6   0   5 193.563 143.929   1
   6  -6  -5 3.95615 119.825   2
   0   6   5 51.9666 82.4561   1
   6   0  -5 60.9109 102.475   1
   0   6  -5-29.2273 68.4760   1
   6  -6   5 327.714 209.357   3
   0   6  -5 0.53717 60.9825   6
   6   0  -5 91.8697 79.9068   6
   6  -6   5-12.1599 59.1555   5
   6   0   5 101.179 118.015   4
   0   6   5 17.9781 64.2220   4
   6  -6  -6 426.964 183.310   2
   6  -6   6 48.1814 142.816   3
   0   6  -6 209.832 99.9100   6
   6   0  -6 195.288 94.8117   6
   6  -6   6 93.7234 77.1382   5
   6   0   6 178.264 136.040   4
   0   6   6 205.071 120.619   4
  -6   6   6-48.8953 61.7595   4
   6  -6  -7 43.8445 120.112   2
   6  -6   7 53.5842 185.126   3
   0   6  -7 64.9347 92.3730   6
   6   0  -7 24.9942 59.2863   6
   0  -6   7 0.17668 195.624   3
   6   0   7-23.4960 86.5550   4
   0   6   7-26.5892 76.3719   4
  -6   6   7 27.5434 55.9254   4
   6  -6  -8 40.5563 131.232   2
   6  -6   8 239.335 180.407   3
   0   6  -8 60.0079 69.3532   6
   6   0  -8 14.9658 71.0333   6
   0  -6   8 98.5330 160.817   3
   6  -7   0 3019.25 364.073   3
   6   1   0 2742.15 453.855   1
   1   6   0 3068.26 218.121   4
   6  -7   0 3359.34 352.203   2
   1   6   0 2694.55 371.054   1
   6  -7  -1 3733.64 375.598   3
   6  -7   1 3855.98 436.465   3
   6   1   1 3279.21 492.753   1
   6   1  -1 3629.91 485.283   1
   6   1   1 3582.86 295.013   4
   1   6   1 3431.27 257.045   4
   6  -7  -1 3859.70 375.668   2
   6  -7   1 4040.08 380.111   2
   1   6   1 3559.64 412.640   1
   1   6  -1 3528.97 400.224   1
   6   1   2 2299.97 413.849   1
   6   1  -2 2490.64 384.706   1
   6  -7   2 2180.17 365.719   3
   6   1   2 2301.83 274.087   4
   1   6   2 2672.94 249.876   4
   6  -7  -2 2578.34 302.459   2
   1  -7  -2 2460.49 216.579   2
   6  -7   2 2638.44 309.244   2
   1   6   2 2587.70 365.722   1
   1   6  -2 2991.80 362.985   1
   6   1  -3 2608.66 366.910   1
   6  -7   3 2555.42 422.309   3
   6   1   3 2526.23 310.296   4
   1   6   3 2961.30 279.591   4
   6  -7  -3 2458.85 313.043   2
   1   6   3 2767.79 362.680   1
   1   6  -3 2789.03 343.799   1
   6   1   3 2504.06 432.480   1
   1   6  -4 2171.48 258.420   6
   6  -7   4 1550.66 360.342   3
   6  -7   4 2401.68 271.549   5
   6   1   4 2098.94 299.805   4
   6   1   4 1959.76 368.325   1
   1   6   4 2389.48 268.056   4
   6   1  -4 1845.45 304.863   1
   6  -7  -4 2101.05 294.209   2
   1   6   4 2208.43 315.471   1
   1   6  -4 2295.02 304.766   1
   6   1   5 1615.81 334.763   1
   6   1  -5 1566.51 272.112   1
   6  -7  -5 1867.00 281.789   2
   6   1  -5 1951.97 272.308   6
   6  -7   5 1488.79 357.682   3
   6  -7   5 1709.10 222.588   5
   1   6   5 1763.93 255.618   4
   1  -7   5 2678.04 568.608   3
   6   1   5 1529.20 273.491   4
   1   6   5 1913.53 281.907   1
   1   6  -5 2196.92 299.374   1
   1   6  -5 1590.11 224.878   6
   6  -7  -6 1673.95 292.304   2
   6   1  -6 1478.78 246.793   6
   6  -7   6 664.985 275.907   3
   6  -7   6 1383.80 212.163   5
   1   6  -6 1504.16 239.106   6
   6   1   6 1345.55 271.550   4
   1   6   6 1587.26 277.749   4
   6  -7  -7 943.723 261.274   2
   6  -7   7 869.088 323.853   3
   1   6  -7 830.370 198.619   6
   6   1  -7 906.129 200.902   6
   1  -7   7 2044.87 490.049   3
   6   1   7 942.175 235.452   4
   1   6   7 1250.06 265.052   4
   6  -7  -8 371.886 233.444   2
   6  -8   0 278.710 155.278   3
   6   2   0 118.153 161.620   1
   2  -8   0 233.588 159.369   3
   6  -8   0 384.502 159.332   2
   2   6   0 124.807 132.609   1
   6   2   1 94.5139 170.858   1
   6  -8  -1 103.144 109.299   3
   6   2  -1 283.453 172.609   1
   6  -8   1-12.7353 128.609   3
   6  -8  -1 182.812 124.049   2
   2  -8  -1 88.7875 86.2138   3
   2  -8   1 63.5682 150.868   3
   6  -8   1 149.041 123.296   2
   2   6   1 102.640 133.001   1
   2   6  -1 8.11956 125.373   1
   6   2   2 211.509 200.500   1
   6   2  -2 80.9282 145.798   1
   6  -8   2 269.808 186.075   3
   6  -8  -2 209.471 96.4374   2
   2  -8   2-141.298 266.386   3
   2  -8  -2 112.049 51.0320   2
   2   6   2 239.145 122.876   1
   2   6  -2 389.175 168.556   1
   6  -8   2 250.691 124.331   2
   2   6   2 268.879 84.6362   4
   6   2   3 209.144 194.385   1
   6   2  -3 37.0052 94.0646   1
   6  -8   3-49.3638 172.130   3
   6  -8  -3 11.7764 80.4781   2
   2  -8   3-49.0084 172.297   3
   2   6   3 223.190 110.341   1
   2   6  -3 212.740 138.056   1
   6   2   3 146.888 88.3064   4
   2   6   3 163.461 70.3666   4
   6  -8  -4 136.983 86.6327   2
   6  -8   4 186.895 187.666   3
   6  -8   4 320.009 132.743   5
   2   6   4 73.9433 106.591   1
   2   6  -4 237.960 124.661   1
   2  -8   4 3.16388 170.767   3
   6   2   4 168.001 100.053   4
   2   6   4 170.307 69.1678   4
   6   2   4 309.706 174.750   1
   6   2  -4-37.7046 114.057   1
   6  -8  -5 61.5720 100.786   2
   6  -8   5 13.3337 201.784   3
   2   6  -5 132.949 81.5348   6
   2   6   5 199.728 110.113   1
   2   6  -5 366.382 174.347   1
   2  -8   5 101.454 166.102   3
   6   2   5 56.4445 121.431   1
   6   2  -5-28.5812 91.5010   1
   6   2   5 300.508 148.559   4
   2   6   5 198.844 112.708   4
   6  -8  -6-26.0197 96.8298   2
   6  -8   6 306.516 252.667   3
   2   6  -6 194.956 98.7816   6
   6   2  -6 67.8364 89.0736   6
   2  -8   6-189.790 209.416   3
   6   2   6 45.7896 95.1238   4
   2   6   6 44.1809 96.7405   4
   6  -8  -7 103.371 165.514   2
   6  -9   0 374.973 154.950   3
   3  -9   0 492.385 186.057   3
   6  -9   0 766.894 199.144   2
   3   6   0 758.741 258.448   1
   6   3   0 341.873 199.688   1
   6  -9   1 683.778 209.628   3
   3  -9   1 1000.12 298.506   3
   6  -9  -1 1052.40 235.439   2
   6  -9   1 1063.92 221.932   2
   3  -9  -1 830.609 179.314   2
   3   6   1 952.133 269.686   1
   3   6  -1 966.986 261.361   1
   6   3   1 658.346 241.615   1
   6   3  -1 946.497 260.365   1
   6  -9   2 611.526 243.252   3
   6  -9  -2 356.494 120.078   2
   3  -9   2 309.596 195.866   3
   3  -9  -2 272.983 105.260   2
   6   3   2 521.751 254.572   1
   6   3  -2 490.563 200.619   1
   6  -9   2 388.855 142.700   2
   3   6   2 670.773 244.094   1
   3   6  -2 715.319 213.764   1
   6  -9   3 720.002 282.636   3
   6  -9  -3 473.311 150.203   2
   3  -9   3 1144.36 394.931   3
   6   3   3 416.389 202.017   1
   6   3  -3 616.368 207.818   1
   3   6   3 1094.32 301.224   1
   3   6  -3 797.263 205.878   1
   6  -9  -4 405.881 158.783   2
   6  -9   4 465.799 242.260   3
   6   3   4 259.490 143.537   1
   6   3  -4 231.415 132.257   1
   3  -9   4 609.172 360.751   3
   3   6   4 489.481 196.633   1
   3   6  -4 295.799 138.446   1
   3   6   4 410.335 125.807   4
   6   3   5 216.386 188.044   1
   6  -9  -5 484.574 177.981   2
   6   3  -5 241.774 148.019   1
   3   6   5 495.684 203.851   1
   3   6  -5 333.150 137.398   1
   6   3   5 130.869 105.272   4
   3   6   5 281.486 107.650   4
   6   4   0 1087.44 314.109   1
   6 -10   0 869.532 247.475   2
   4 -10   0 862.965 221.367   2
   4   6   0 1338.51 370.044   1
   6   4   1 667.636 259.964   1
   6   4  -1 954.760 300.062   1
   6 -10   1 467.475 194.363   3
   4 -10   1 541.756 216.118   3
   6 -10  -1 972.483 265.048   2
   4 -10  -1 920.317 217.898   2
   6 -10   1 1050.74 245.070   2
   4   6   1 740.255 308.293   1
   4   6  -1 864.099 253.687   1
   6   4   2 680.123 284.500   1
   6   4  -2 424.560 207.482   1
   6 -10   2 198.660 211.993   3
   4 -10   2 206.888 168.792   3
   6 -10  -2 503.003 180.553   2
   4 -10  -2 624.366 162.044   2
   4   6   2 435.166 216.633   1
   4   6  -2 480.892 172.790   1
   6 -10   3 216.952 188.144   3
   6 -10  -3 407.052 148.159   2
   4 -10   3 713.664 351.055   3
   7  -3   0 887.563 236.755   3
   7  -4   0 1211.80 278.508   3
   7  -3   0 1262.12 210.729   2
   7  -4   0 1386.71 236.799   2
   7  -4  -1 1595.36 272.114   3
   7  -3   1 1479.62 298.751   3
   7  -4   1 1352.55 284.206   3
   7  -3  -1 1362.58 233.156   2
   7  -4  -1 1422.18 227.643   2
   7  -3   1 1327.76 197.373   2
   7  -4   1 1431.04 224.999   2
   7  -3   2 1065.19 257.734   3
   7  -3  -2 1287.91 230.140   2
   7  -4   2 1164.61 303.358   3
   7  -4  -2 1091.11 225.545   2
   7  -3   2 1222.29 183.866   2
   7  -4   2 1314.59 210.883   2
   7  -3   2 1190.09 198.897   5
  -3   7   2 1239.27 186.926   4
  -4   7   2 1160.57 183.422   4
   7  -3  -3 1321.71 246.271   2
   7  -3   3 1474.00 329.062   3
   7  -4   3 1088.29 274.330   3
   7  -4  -3 1366.00 264.189   2
   7  -3   3 1311.87 184.009   2
   7  -4   3 1079.87 192.606   5
   7  -3   3 1462.91 224.111   5
   7  -4   3 1321.78 197.672   2
  -3   7   3 994.482 178.439   4
  -4   7   3 1180.51 187.898   4
   7  -3  -4 811.413 242.219   2
   7  -4  -4 636.765 196.690   2
   7  -3   4 1088.33 298.808   3
   7  -4   4 967.106 302.904   3
   7  -4   4 986.737 186.838   5
   7  -3   4 1133.30 212.052   5
   7  -4   4 971.221 174.851   2
  -3   7   4 994.317 178.518   4
  -4   7   4 850.928 166.947   4
   7  -3  -5 875.117 238.594   2
   7  -4  -5 671.591 217.645   2
   7  -3   5 883.032 291.237   3
   7  -4   5 955.340 303.189   3
   7  -3  -5 795.307 152.631   6
   7  -4   5 894.106 185.105   5
  -3   7   5 732.096 171.407   4
  -4   7   5 774.543 173.733   4
   7  -4  -6 677.565 211.951   2
   7  -3   6 744.896 300.166   3
   7  -4   6 263.750 205.858   3
  -3   7   6 615.654 154.681   4
  -4   7   6 582.908 158.830   4
   7  -3  -6 707.939 234.393   2
   7  -3   7 215.831 207.319   3
   7  -4   7 536.820 291.630   3
   7  -3   7 827.680 274.748   4
  -3   7   7 395.356 130.200   4
   7  -3  -7 682.628 265.862   2
  -4   7   7 480.593 152.300   4
   7  -4  -7 228.161 172.167   2
   7  -3   8 69.7572 160.964   3
   7  -4   8 346.410 237.639   3
  -4   7   8 538.942 178.852   4
   7  -2   0 1232.58 203.843   2
  -2   7   0 1295.33 264.617   1
   7  -5   0 1268.28 264.803   3
   7  -5   0 1462.06 237.672   2
   7  -2   0 1066.63 177.161   5
   7  -2   1 130.947 135.886   3
   7  -2  -1 446.277 148.756   2
   7  -5  -1 160.923 128.862   3
   7  -2   1 364.518 121.134   2
   7  -5   1 399.696 221.603   3
   7  -5  -1 100.817 112.091   2
   7  -5   1 294.772 124.375   2
   7  -2   1 181.040 84.7055   5
  -2   7   1 360.766 103.305   4
   7  -2  -2 811.118 185.432   2
   7  -2   2 860.956 227.943   3
   7  -5  -2 808.931 176.278   3
   7  -5   2 967.613 293.133   3
   7  -5  -2 1261.04 251.597   2
   7  -2   2 865.751 175.463   5
   7  -5   2 835.074 171.234   2
  -2   7   2 857.260 157.510   4
   7  -2  -3 101.062 130.813   2
   7  -2   3 225.299 171.633   3
   7  -5   3 136.354 185.527   3
   7  -5  -3 198.850 128.589   2
   7  -5   3 76.9839 86.1078   5
   7  -2   3 177.157 106.281   5
   7  -5   3 194.915 97.9376   2
  -2   7   3 206.476 97.1783   4
   7  -2   4 518.568 228.510   3
   7  -5  -4 803.237 212.370   2
   7  -5   4 765.932 273.362   3
   7  -5   4 461.296 130.226   5
   7  -5   4 714.298 161.148   2
  -2   7   4 664.456 154.366   4
  -5   7   4 562.418 143.873   4
   7  -2  -4 599.778 193.015   2
   7  -2   5 47.5484 201.050   3
   7  -5  -5-61.3309 116.801   2
   7  -5   5-51.1484 171.363   3
   7  -2  -5 81.8860 74.9511   6
   7  -5   5 0.36568 64.6896   5
   7  -2   5 24.7790 113.504   4
   7  -5   5 128.466 73.7948   2
  -2   7   5 173.452 95.6852   4
   7  -2  -5 77.8011 147.641   2
  -5   7   5 186.437 81.4259   4
   7  -5  -6 675.773 242.774   2
   7  -2   6 332.021 231.593   3
   7  -5   6 220.251 234.546   3
   7  -2  -6 169.902 90.3718   6
   7  -5   6 135.694 78.3708   5
   7  -2   6-37.1095 142.444   4
  -2   7   6 142.537 89.5652   4
   7  -2  -6 181.177 145.963   2
  -5   7   6 222.908 108.716   4
   7  -5  -7-46.8595 133.240   2
   7  -2   7-430.519 246.804   3
   7  -5   7-173.525 194.436   3
   7  -2  -7 13.1797 48.7013   6
   7  -2   7 290.482 247.777   4
   7  -2  -7 81.8652 136.894   2
  -2   7   7 194.769 126.479   4
  -5   7   7 190.921 123.260   4
   7  -2   8 155.378 201.444   3
   7  -2  -8 89.0533 96.1718   6
  -5   7   8 147.713 120.368   4
   7  -6   0 3038.81 404.601   3
  -1   7   0 2403.55 327.893   1
   7  -1   0 2794.19 260.460   5
  -1   7   0 2813.32 233.361   4
   7  -1   0 3224.17 354.196   2
   7  -6   0 3257.95 345.350   2
   7  -6  -1 3845.31 402.522   3
   7  -6   1 3187.22 411.102   3
   7  -1  -1 3731.79 284.029   5
   7  -1   1 3592.83 308.848   5
  -1   7   1 3558.65 283.870   4
   7  -1  -1 4133.78 412.938   2
   7  -6  -1 3542.90 373.318   2
  -1   7   1 3750.52 412.187   1
  -1   7  -1 3666.88 412.799   1
   7  -6   1 3657.34 352.276   2
   7  -6   2 2704.54 404.197   3
   7  -1  -2 2801.11 239.618   5
   7  -1   2 2643.55 288.612   5
  -1   7   2 2718.41 266.769   4
   7  -1  -2 2806.53 351.698   2
   7  -6  -2 2947.08 343.339   2
  -1   7   2 3178.51 383.797   1
  -1   7  -2 3038.71 350.963   1
   7  -6   2 2667.04 306.785   2
   7  -6  -2 2579.87 300.917   3
   7  -6   3 2809.80 447.692   3
   7  -1   3 2875.68 371.451   4
  -1   7   3 2765.00 281.381   4
   7  -1  -3 2779.67 377.690   2
   7  -6  -3 2820.21 340.995   2
  -1   7   3 2655.26 349.671   1
  -1   7  -3 3299.71 378.749   1
   7  -6   3 2950.66 316.711   2
   7  -6   4 2253.22 416.566   3
  -1   7  -4 2579.21 259.144   6
   7  -6   4 2382.56 273.080   5
   7  -1   4 2059.78 338.270   4
  -1   7   4 2254.78 269.544   4
   7  -6  -4 2733.51 342.880   2
  -1   7   4 2568.08 325.645   1
  -1   7  -4 2171.19 299.536   1
   7  -6   4 1833.38 278.010   2
   7  -1  -4 2169.50 345.328   2
   7  -1   5 1470.74 340.830   3
   7  -1   5 1418.09 343.740   1
   7  -6  -5 1892.83 313.574   2
  -1   7  -5 1767.00 223.078   6
   7  -6   5 1160.62 343.119   3
   7  -1  -5 2006.86 266.924   6
   7  -6   5 1707.78 234.966   5
   7  -1  -5 1244.93 264.704   1
  -1   7   5 2033.92 276.105   4
   7  -1   5 1668.73 324.710   4
   7  -6   5 1906.23 262.119   2
   7  -1  -5 1499.66 295.790   2
   7  -1   6 1275.83 352.559   3
   7  -6  -6 1280.57 259.377   2
  -1   7  -6 1583.77 237.647   6
   7  -1  -6 1478.37 236.733   6
   7  -6   6 847.710 288.482   3
   7  -6   6 1513.45 225.846   5
  -6   7   6 1794.80 267.347   4
   7  -1   6 1689.26 356.226   4
  -1   7   6 1396.46 248.562   4
   7  -6  -7 910.651 274.953   2
   7  -1   7 641.740 288.092   3
   7  -6   7 389.600 215.025   3
  -1   7  -7 744.572 189.722   6
   7  -1  -7 1034.95 215.840   6
   7  -1   7 855.900 278.574   4
  -1   7   7 1307.60 260.284   4
  -6   7   7 771.601 195.847   4
  -1   7  -8 849.602 233.414   6
   7   0   0 153.751 179.513   1
   7  -7   0-108.815 149.538   3
   0   7   0 255.859 163.816   1
   7   0   0 117.571 62.8779   5
   7  -7   0 52.7155 99.9408   2
   0   7   0 85.7782 42.1665   4
   7   0  -1-74.7218 160.263   1
   7  -7  -1-82.7524 114.651   3
   7  -7   1-73.0963 122.494   3
   0   7   1-10.6805 131.316   1
   0   7  -1 62.1969 153.329   1
   7  -7  -1 67.9964 109.639   2
   7   0  -1 29.2721 51.0009   5
   7   0   1-117.225 196.389   1
   7  -7   1 9.16525 77.4636   2
   0   7   1 9.95037 34.7929   4
   7  -7   2 107.370 161.558   3
   0   7   2-30.5868 115.062   1
   0   7  -2 25.6952 90.7018   1
   7  -7  -2-59.8122 99.7854   2
   7  -7   2 158.079 91.2601   2
   7   0   2 87.5780 65.0567   4
   7   0   2 171.402 146.560   1
   7   0  -2 136.433 146.969   1
   0   7   2 34.3765 51.4172   4
   7  -7   3-139.340 160.754   3
   7   0   3-15.2992 136.602   1
   0   7   3-12.3051 90.6607   1
   0   7  -3 43.6382 107.108   1
   7  -7  -3 21.4972 98.3389   2
   7   0  -3 89.7239 180.605   1
   7  -7   3 20.9922 77.9514   2
   7   0   3-208.485 127.857   4
   0   7   3-5.66950 50.2237   4
   0   7   4-17.6856 96.3804   1
   0   7  -4-9.65514 88.4050   1
   7  -7  -4 190.903 129.551   2
   7  -7   4 175.438 231.360   3
   7   0   4-123.918 157.829   1
   7  -7   4-37.3661 60.8407   5
   7   0  -4-42.1598 117.958   1
   7   0   4 66.4917 84.3371   4
   7  -7   4-10.2320 65.4825   2
   0   7   4 149.154 84.4482   4
   0   7   5-9.44103 75.4172   1
   0   7  -5 64.7073 108.506   1
   7  -7  -5-146.661 130.370   2
   7  -7   5 3.83932 171.545   3
   0   7  -5-82.1568 76.5721   6
   7  -7   5 173.544 106.910   5
   7   0   5 21.2030 87.1310   4
   0   7   5-87.0145 77.5516   4
   7   0  -5-78.8333 118.339   1
   7  -7  -6 271.357 173.934   2
   7  -7   6 26.0034 158.180   3
   0   7  -6-156.574 102.905   6
   7   0  -6 0.86672 51.6938   6
   7  -7   6-94.9082 86.2553   5
   0  -7   6-365.723 283.647   3
   7   0   6 169.981 100.664   4
   0   7   6 63.2226 74.1949   4
   0   7  -7 79.3006 103.029   6
   7   0  -7 83.0810 81.8142   6
   7   1   0 210.309 162.301   1
   7  -8   0 251.877 130.922   3
   1   7   0 210.443 135.511   1
   7  -8   0 218.277 133.491   2
   7  -8   1 171.820 147.184   3
   1   7   1 474.541 187.666   1
   1   7  -1 391.291 157.330   1
   7  -8  -1 429.737 160.281   2
   7  -8   1 183.275 122.147   2
   7   1   1 304.524 219.725   1
   7   1  -1 332.158 223.744   1
   7  -8   2 201.117 151.697   3
   7  -8  -2 360.969 153.149   2
   1   7   2-20.3186 119.655   1
   1   7  -2 276.160 153.740   1
   7  -8   2 299.660 110.871   2
   7   1   2 196.322 202.615   1
   7   1  -2 205.691 179.297   1
   1   7   2 152.002 72.9031   4
   7  -8   3 69.6725 157.272   3
   7  -8  -3-101.346 110.183   2
   1   7   3 172.239 124.076   1
   1   7  -3 316.408 121.190   1
   7   1   3 64.4596 127.092   1
   7  -8   3 208.479 109.247   2
   7   1  -3 123.589 130.956   1
   7   1   3 276.763 111.839   4
   1   7   3 272.342 87.0738   4
   7  -8  -4 230.121 137.500   2
   7  -8   4 105.043 224.614   3
   1   7   4-74.2770 105.634   1
   1   7  -4 158.009 90.1751   1
   7   1   4 76.5305 135.995   1
   7   1  -4 56.0397 109.930   1
   7  -8   4-2.86396 92.2168   5
   1  -8   4 11.7443 183.089   3
   7  -8   4 281.400 130.771   2
   7   1   4-118.919 78.3007   4
   1   7   4 53.2871 67.5278   4
   7   1   5-88.6437 126.628   1
   7   1  -5 182.796 152.448   1
   7  -8  -5 279.756 148.199   2
   1   7   5 194.859 100.199   1
   1   7  -5 83.3933 66.8355   1
   7  -8   5 8.95000 152.962   3
   7  -8   5 200.527 102.518   5
   1  -8   5-246.175 245.035   3
   7   1   5-6.49314 69.3339   4
   1   7   5 138.994 86.3823   4
   7  -8  -6-139.638 157.156   2
   1   7  -6-83.2205 95.4641   6
   7   1   6 217.708 100.660   4
   1   7   6 6.79252 77.8159   4
   7   2   0 1487.59 365.119   1
   7  -9   0 1077.47 260.308   3
   7  -9   0 1706.43 298.908   2
   2   7   0 1663.84 329.015   1
   2  -9   0 1538.47 368.841   3
   7   2   1 1552.05 377.631   1
   7   2  -1 1215.72 311.711   1
   7  -9   1 1191.77 265.032   3
   7  -9  -1 1775.85 295.085   2
   2   7   1 1820.00 361.571   1
   2   7  -1 2173.51 352.723   1
   2  -9   1 1912.23 476.059   3
   7  -9   1 1953.93 311.710   2
   2  -9  -1 2188.75 271.034   2
   7   2   2 966.972 317.062   1
   7   2  -2 844.457 269.159   1
   7  -9   2 1419.18 340.848   3
   7  -9  -2 1796.56 303.104   2
   2   7   2 1241.30 321.357   1
   2   7  -2 1535.25 288.412   1
   2  -9   2 1970.50 577.128   3
   7  -9   2 1397.07 250.485   2
   7  -9   3 1024.84 341.480   3
   7  -9  -3 1271.76 262.692   2
   2   7   3 1756.22 342.017   1
   2   7  -3 1917.74 322.611   1
   2  -9   3 1166.52 411.842   3
   7  -9   3 1438.63 247.887   2
   7   2   3 780.828 286.627   1
   7   2  -3 571.344 201.197   1
   7  -9  -4 989.890 238.254   2
   7  -9   4 545.119 285.472   3
   2   7   4 1239.45 283.911   1
   2   7  -4 1426.13 286.121   1
   2  -9   4 1378.50 439.501   3
   7  -9   4 914.996 211.508   2
   7   2   4 669.268 293.629   1
   7   2  -4 207.488 132.874   1
   2   7   4 951.718 184.204   4
   2   7   5 941.277 240.083   1
   2   7  -5 724.061 211.072   1
   7   2   5 654.879 269.681   1
   7   2  -5 358.675 170.323   1
   2   7   5 643.102 156.125   4
   3 -10   0 491.322 199.393   2
   3 -10   1 22.2120 154.729   3
   7 -10   2 359.810 213.735   3
   3 -10   2 10.3789 197.137   3
   8  -4   0 444.674 203.525   3
   8  -4   0 104.222 92.5179   2
   8  -4   1 1020.26 265.922   3
   8  -4  -1 1212.55 238.585   2
   8  -4   1 1297.52 234.078   2
   8  -4   2 188.249 166.141   3
   8  -4  -2 126.690 126.980   2
   8  -4   2 281.581 121.871   2
   8  -4   2 206.507 92.8490   5
   8  -4  -3 975.615 251.887   2
   8  -4   3 1060.85 283.131   3
   8  -4   3 1109.55 205.678   5
  -4   8   3 985.708 188.034   4
   8  -4  -4-174.162 148.409   2
   8  -4   4 323.445 195.302   3
   8  -4   4 240.366 106.292   5
  -4   8   4 243.792 105.121   4
   8  -4  -5 414.737 230.027   2
   8  -4   5 542.881 268.923   3
   8  -4   5 641.873 184.213   5
  -4   8   5 690.254 173.288   4
   8  -4  -6-257.764 203.904   2
   8  -4   6-138.385 196.580   3
  -4   8   6 412.624 155.685   4
   8  -5   0 2540.34 373.220   3
   8  -3   0 2571.94 310.948   2
   8  -5   0 2753.49 340.161   2
   8  -3   1 1496.95 320.529   3
   8  -5  -1 1293.85 267.581   3
   8  -3  -1 1739.94 271.784   2
   8  -5   1 1376.30 287.436   3
   8  -3   1 1521.37 233.817   2
   8  -5  -1 1372.35 266.479   2
   8  -5   1 1409.79 243.047   2
   8  -3   1 1510.59 218.607   5
   8  -3  -2 1610.78 282.032   2
   8  -3   2 2104.99 365.723   3
   8  -5   2 2468.74 407.389   3
   8  -5  -2 2354.66 337.387   2
   8  -3   2 2159.19 267.421   5
  -3   8   2 2167.62 260.790   4
   8  -5   2 1960.86 285.121   2
   8  -3  -3 1493.55 285.469   2
   8  -3   3 1589.94 354.916   3
   8  -5   3 1565.93 351.433   3
   8  -5  -3 1360.77 275.692   2
   8  -5   3 1354.17 223.490   2
   8  -5   3 1269.23 224.632   5
   8  -3   3 1647.48 251.494   5
  -3   8   3 1566.74 231.364   4
   8  -3  -4 947.346 247.931   2
   8  -3   4 1488.45 347.264   3
   8  -5  -4 1300.67 283.613   2
   8  -5   4 1605.29 389.496   3
   8  -5   4 1429.54 240.829   5
   8  -3   4 1468.07 254.663   5
  -5   8   4 1449.35 229.966   4
  -3   8   4 1321.81 216.844   4
   8  -5  -5 925.199 254.737   2
   8  -3   5 927.884 315.134   3
   8  -5   5 882.174 325.316   3
   8  -5   5 1068.27 203.225   5
  -3   8   5 1461.13 238.320   4
  -5   8   5 1357.10 232.692   4
   8  -3  -5 1024.88 282.402   2
   8  -5  -6 557.072 229.869   2
   8  -3   6 486.681 251.518   3
   8  -5   6 262.418 227.618   3
   8  -3   6 507.731 226.127   4
  -3   8   6 903.272 199.990   4
   8  -3  -6 696.635 274.784   2
  -5   8   6 868.223 193.989   4
   8  -3   7 140.740 237.348   3
   8  -2   0 236.098 118.012   2
   8  -6   0 462.983 200.264   3
   8  -6   0 303.160 121.492   2
   8  -2   0 247.347 88.2501   5
   8  -2  -1 127.988 128.280   2
   8  -6  -1 65.9734 115.865   3
   8  -6   1 238.901 169.875   3
   8  -6  -1 138.718 131.210   2
   8  -6   1-45.5772 100.903   2
   8  -2  -1 134.512 66.4834   5
   8  -2   1 108.065 79.3102   5
  -2   8   1 102.527 47.0148   4
   8  -2  -2 114.613 129.049   2
   8  -6  -2 350.543 122.235   3
   8  -6   2 54.9719 158.199   3
   8  -6  -2 300.870 159.323   2
   8  -6   2 366.716 139.376   2
   8  -2   2 249.796 110.254   5
  -2   8   2 301.564 106.276   4
   8  -6   3 152.599 214.200   3
   8  -6  -3 39.8540 107.275   2
   8  -6   3 166.260 96.9378   5
   8  -2   3 16.1814 76.3050   5
   8  -6   3 103.047 87.2311   2
  -2   8   3 134.455 67.8362   4
   8  -2  -3 230.642 141.492   2
   8  -2   4 35.0105 149.095   3
   8  -6  -4 80.0407 109.296   2
   8  -6   4 156.177 183.404   3
   8  -6   4 217.435 111.255   5
   8  -6   4 257.431 122.714   2
   8  -2   4 123.905 121.070   4
  -2   8   4 216.987 103.630   4
   8  -2  -4-221.081 173.600   2
   8  -2   5 0.12521 200.491   3
   8  -6  -5 345.947 172.558   2
   8  -6   5 403.676 288.907   3
   8  -6   5 87.0867 81.4568   5
   8  -2   5 51.5768 121.187   4
   8  -2  -5 54.9619 146.606   2
  -2   8   5 250.180 121.399   4
   8  -2   6 117.367 182.597   3
   8  -6  -6 500.164 249.303   2
   8  -6   6 76.2454 67.4661   5
   8  -2   6 56.8437 123.971   4
   8  -2  -6 339.130 198.157   2
  -2   8   6 99.5963 81.9306   4
   8  -7   0 77.5869 137.661   3
  -1   8   0 361.870 168.488   1
   8  -7   0 264.835 139.692   2
   8  -1   0 176.215 89.4883   5
   8  -7  -1 318.576 159.318   3
   8  -7   1 291.028 181.468   3
  -1   8   1 504.128 198.395   1
  -1   8  -1 188.508 118.862   1
   8  -7  -1 194.631 128.086   2
   8  -1  -1 384.271 106.935   5
   8  -7   1 377.060 169.880   2
   8  -1   1 283.892 112.281   5
  -1   8   1 326.550 101.177   4
  -1   8   2 283.415 145.696   1
  -1   8  -2 119.381 100.607   1
   8  -7   2 39.6227 150.517   3
   8  -7  -2 167.041 99.3697   2
   8  -7   2 130.945 79.3507   2
   8  -1   2 447.507 185.285   4
   8  -1  -2 96.2399 149.770   2
  -1   8   2 218.227 89.8253   4
  -1   8   3 345.486 140.044   1
  -1   8  -3 159.478 101.166   1
   8  -7   3 450.510 253.346   3
   8  -7  -3 246.190 146.668   2
   8  -7   3 186.929 113.091   2
   8  -1   3 218.434 138.574   4
   8  -1  -3 426.259 192.535   2
  -1   8   3 199.193 88.4031   4
   8  -1   4 98.7628 146.429   1
   8  -7  -4-111.207 123.125   2
   8  -7   4-5.63100 208.011   3
   8  -1  -4 123.006 142.328   1
   8  -7   4 134.355 92.6167   5
   8  -7   4 33.1600 95.3242   2
   8  -1   4-40.8183 108.944   4
  -1   8   4 146.305 100.726   4
   8  -7  -5 403.615 171.882   2
   8  -7   5-14.4332 178.662   3
   8  -7   5 158.998 113.643   5
   8  -7   5 113.980 85.3298   2
   8  -1   5-99.8504 115.416   4
   8  -1   5-99.1017 123.225   1
  -1   8   5 300.141 120.488   4
   8  -1  -5 113.343 145.608   1
   8  -7   6 145.825 109.671   5
   8  -1   6-197.975 131.358   4
   8  -8   0 2283.46 359.646   3
   8   0   0 1963.12 486.652   1
   8  -8   0 2916.05 365.214   2
   0   8   0 2677.74 395.904   1
   8   0   1 1411.20 424.729   1
   8   0  -1 1017.34 328.054   1
   8  -8   1 1374.59 313.569   3
   0   8   1 1928.51 353.993   1
   0   8  -1 1706.85 300.393   1
   8  -8  -1 1481.79 269.387   2
   8  -8   1 1700.01 283.117   2
   0   8   1 1651.52 205.406   4
   8  -8   2 1934.85 367.100   3
   0   8   2 2591.68 393.063   1
   0   8  -2 2244.36 333.245   1
   8  -8  -2 2166.92 337.184   2
   8   0   2 1739.01 437.316   1
   0   8   2 2419.89 259.837   4
   8   0  -2 1350.33 354.738   1
   8  -8   2 2131.80 303.664   2
   0   8   3 1951.25 325.566   1
   0   8  -3 1826.44 291.550   1
   8  -8   3 1410.28 352.394   3
   8   0   3 750.940 321.426   1
   8  -8  -3 1737.50 297.525   2
   8   0  -3 533.271 240.645   1
   8  -8   3 1407.47 252.598   2
   0   8   3 1396.55 211.437   4
   8   0  -4 393.017 190.405   1
   0   8   4 1336.23 257.874   1
   0   8  -4 1398.65 266.834   1
   8  -8  -4 1625.47 297.971   2
   8  -8   4 926.369 321.138   3
   8  -8   4 1655.18 262.567   5
   0   8   4 1563.16 234.925   4
   8   0   4 959.227 242.897   4
   8  -8   4 1690.72 287.444   2
   0   8   5 1243.20 266.134   1
   0   8  -5 1462.55 281.942   1
   8  -8   5 1050.27 219.259   5
   8   0   5 82.9739 173.684   1
   8   0  -5 266.111 163.808   1
   8  -8   5 982.329 251.627   2
   8   0   5 854.137 247.755   4
   0   8   5 1215.76 231.574   4
   1   8   0 91.3640 114.999   1
   8  -9   0-60.3041 116.781   2
   8   1   0 147.384 221.209   1
   8  -9   1 218.422 176.550   3
   1   8   1 410.574 178.086   1
   1   8  -1 617.485 200.487   1
   8  -9  -1 283.777 168.234   2
   8  -9   1 104.471 83.9172   2
   1  -9   1 495.501 305.022   3
   8   1   1 663.857 292.935   1
   8   1  -1 18.8004 131.755   1
   8  -9   2 10.8223 164.805   3
   1   8   2 71.4517 109.033   1
   1   8  -2 344.813 141.171   1
   8  -9  -2 346.225 172.948   2
   8   1   2-367.262 248.482   1
   8   1  -2 433.380 225.868   1
   8  -9   2-48.0517 83.2610   2
   1  -9   2 60.2533 184.481   3
   8  -9   3 306.124 238.853   3
   1   8   3 285.036 126.370   1
   1   8  -3 186.774 106.321   1
   8   1   3 156.302 119.294   1
   8   1  -3-37.4421 127.692   1
   8  -9   3 47.7664 99.5698   2
   1   8   4 271.434 161.364   1
   1   8  -4 538.205 202.193   1
   8  -9   4 403.040 181.655   5
   1   8   4 200.524 100.182   4
   2 -10   1-282.467 223.783   3
   9  -5   0 749.662 238.501   3
   9  -4   0 695.045 207.758   2
   9  -5   0 793.823 213.702   2
   9  -4   1 689.643 251.851   3
   9  -5   1 761.431 263.225   3
   9  -4  -1 655.716 205.475   2
   9  -5  -1 867.762 245.606   2
   9  -5   1 1092.28 229.223   2
   9  -4   1 791.288 172.181   5
   9  -4   2 619.219 255.082   3
   9  -4  -2 4.83557 109.493   2
   9  -5   2 513.873 249.292   3
   9  -5  -2 582.341 227.974   2
   9  -5   2 562.203 172.261   2
   9  -5   2 420.598 146.051   5
   9  -4   2 521.922 149.026   5
   9  -4  -3 224.845 144.881   2
   9  -4   3 76.1143 155.604   3
   9  -5  -3 552.741 207.036   2
   9  -5   3 647.343 264.819   3
   9  -5   3 823.280 188.175   5
   9  -4   3 587.851 180.275   5
   9  -4  -4 300.725 205.447   2
   9  -5  -4 66.6735 130.982   2
   9  -4   4 180.652 185.303   3
   9  -5   4 450.146 264.755   3
   9  -5   4 380.143 147.581   5
   9  -4   4 163.109 104.382   5
  -4   9   4 532.220 156.250   4
   9  -4  -5 636.772 293.763   2
   9  -5  -5 501.104 226.716   2
   9  -4   5 321.360 268.061   3
   9  -5   5 259.559 254.517   3
   9  -5   5 454.140 167.766   5
  -4   9   5 313.685 149.484   4
  -5   9   5 238.963 123.852   4
   9  -6   0 680.208 227.762   3
   9  -6   0 936.927 238.633   2
   9  -3   0 604.752 146.366   5
   9  -3  -1 1133.19 249.026   2
   9  -6  -1 628.592 205.396   3
   9  -6   1 744.355 240.858   3
   9  -6  -1 1105.57 260.070   2
   9  -6   1 1006.35 238.215   2
   9  -3  -1 831.754 165.259   5
   9  -3   1 1002.50 189.459   5
   9  -3  -2 610.260 213.260   2
   9  -6   2 258.950 178.142   3
   9  -6  -2 669.891 223.448   2
   9  -6   2 499.124 148.804   2
   9  -6   2 619.057 181.947   5
   9  -3   2 591.794 158.063   5
   9  -3  -3 521.335 222.676   2
   9  -3   3 636.673 275.341   3
   9  -6   3 518.393 276.147   3
   9  -6  -3 639.404 218.880   2
   9  -6   3 533.569 163.878   2
   9  -6   3 358.379 142.085   5
   9  -3   3 864.238 199.184   5
  -3   9   3 915.473 195.244   4
   9  -3   4-14.4905 152.682   3
   9  -6  -4 541.093 199.276   2
   9  -6   4 312.434 240.224   3
   9  -6   4 439.985 160.378   5
  -3   9   4 507.134 173.553   4
   9  -3  -4 82.0484 178.622   2
   9  -3   5 224.585 142.586   4
   9  -3  -5-1.95314 197.156   2
   9  -7   0 801.255 254.069   3
   9  -7   0 1553.17 278.033   2
   9  -2   0 1370.02 212.461   5
   9  -7  -1 1269.81 285.049   3
   9  -7   1 886.192 271.532   3
   9  -7  -1 2224.10 352.839   2
   9  -7   1 1874.99 305.552   2
   9  -2  -1 1590.83 221.554   5
   9  -2   1 1559.40 232.043   5
   9  -7   2 1038.88 280.879   3
   9  -7  -2 1432.53 298.236   2
   9  -7   2 954.139 226.352   2
   9  -2   2 1491.96 238.459   5
  -2   9   2 1641.92 237.013   4
   9  -2  -2 651.500 234.031   2
   9  -7   3 640.950 243.718   3
   9  -7  -3 1388.55 287.320   2
   9  -7   3 1481.38 249.308   5
   9  -7   3 1366.38 265.647   2
   9  -2   3 940.696 260.729   4
   9  -2  -3 1031.95 276.008   2
  -2   9   3 1340.75 223.834   4
   9  -7  -4 1159.22 295.829   2
   9  -7   4 369.724 286.311   3
   9  -7   4 1046.27 219.848   5
   9  -7   4 1051.25 241.308   2
   9  -2   4 719.728 228.928   4
   9  -2  -4 485.926 202.946   2
  -2   9   4 1234.77 230.321   4
   9  -2   5 543.933 190.363   4
   9  -2  -5 45.9588 153.917   1
   9  -8   0 253.609 190.810   3
  -1   9   0 470.767 198.007   1
   9  -8   0 133.794 93.3957   2
  -1   9   1 200.536 124.763   1
  -1   9  -1 434.319 180.519   1
   9  -8   1 262.052 191.797   3
   9  -1   1-209.885 260.887   1
   9  -8  -1 464.653 183.372   2
   9  -8   1 387.039 162.989   2
   9  -1  -1 0.17080 168.747   1
  -1   9   2 117.996 133.975   1
  -1   9  -2 4.87553 101.626   1
   9  -8   2-235.090 211.670   3
   9  -1  -2 124.756 164.688   1
   9  -8  -2 67.7986 116.348   2
   9  -8   2 146.084 116.625   2
  -1   9   2 246.984 97.1387   4
   9  -1   2 259.332 247.633   1
   9  -8   3 312.679 240.399   3
   9  -8   3 271.292 138.500   5
   9  -8   3 461.048 173.533   2
   9  -1   3-116.444 150.681   1
   9  -1  -3 471.031 236.855   1
  -1   9   3 100.581 74.6659   4
   9  -8   4 17.2425 126.325   2
  -1   9   4 153.061 91.4195   4
   9  -9   1-136.878 150.353   3
   9  -9   2-116.187 162.150   3
  10  -5   0 1481.18 300.062   2
  10  -5   1 562.413 249.247   3
  10  -5  -1 301.641 165.391   2
  10  -5   1 302.623 136.495   5
  10  -5   2 1099.59 312.435   3
  10  -5  -2 785.264 256.097   2
  10  -5   2 1543.32 267.665   5
  10  -5  -3 362.486 202.579   2
  10  -6   0 387.182 219.755   3
  10  -6   0-7.61909 141.389   2
  10  -4   0 463.552 141.084   5
  10  -4  -1 621.507 226.818   2
  10  -6   1 739.500 291.542   3
  10  -6  -1 547.622 203.873   2
  10  -6   1 389.135 179.947   2
  10  -4  -1 684.783 165.689   5
  10  -4   1 654.615 177.954   5
  10  -4  -2 50.5763 118.975   2
  10  -6   2 126.836 182.235   3
  10  -6  -2 713.923 243.702   2
  10  -6   2 642.178 183.519   5
  10  -4   2 394.218 158.120   5
  10  -4  -3 623.660 254.016   2
  10  -7   0 417.716 250.868   3
  10  -7   0 2.46625 146.386   2
  10  -3   0 209.773 96.2308   5
  10  -7   1 86.0819 166.399   3
  10  -7  -1 389.474 189.774   2
  10  -7   1 468.181 189.412   2
  10  -3  -1-42.2763 84.4650   5
  10  -3   1 118.889 82.3110   5
  10  -7   2-320.347 152.713   2
  10  -3   2 129.381 81.0914   5
  10  -3  -3-3.22484 139.499   2
  10  -8   0 177.261 164.049   3
  10  -8   1 61.5307 150.784   3
  10  -2   1 12.4689 51.0682   5
   0   0   0    0.00    0.00   0

TITL exp_16007 in P-62m
REM P-62m (#189 in standard setting)
CELL 0.71073   7.139946   7.139946   7.463937  90.0000  90.0000 120.0000
ZERR    3.00   0.000482   0.000482   0.000736   0.0000   0.0000   0.0000
LATT -1
SYMM -y, x-y, z
SYMM -x+y,-x, z
SYMM  x, y,-z
SYMM -y, x-y,-z
SYMM -x+y,-x,-z
SYMM  y, x,-z
SYMM  x-y,-y,-z
SYMM -x,-x+y,-z
SYMM  y, x, z
SYMM  x-y,-y, z
SYMM -x,-x+y, z
SFAC O K Se I U
UNIT 3.00 3.00 3.00 3.00 3.00
TREF
HKLF 4
END
;
_shelx_hkl_checksum              14065
loop_
_space_group_symop_operation_xyz
'x, y, z'
'-y, x-y, z'
'y, x, z'
'-x+y, -x, z'
'-x, -x+y, z'
'x-y, -y, z'
loop_
_atom_site_label
_atom_site_type_symbol
_atom_site_fract_x
_atom_site_fract_y
_atom_site_fract_z
_atom_site_U_iso_or_equiv
_atom_site_adp_type
_atom_site_occupancy
_atom_site_site_symmetry_order
_atom_site_calc_flag
_atom_site_refinement_flags_posn
_atom_site_refinement_flags_adp
_atom_site_refinement_flags_occupancy
_atom_site_disorder_assembly
_atom_site_disorder_group
U1 U 0.61859(17) 0.000000 0.5475(6) 0.0142(3) Uani 1 2 d S T P . .
I1 I 1.000000 0.000000 0.0931(15) 0.025(2) Uani 0.5 6 d S T P . .
I2 I 1.000000 0.000000 1.0039(15) 0.025(2) Uani 0.4998 6 d S T P . .
Rb1 Rb 0.666667 0.333333 1.0479(10) 0.0275(15) Uani 0.5 3 d S TU P . .
K1 K 0.666667 0.333333 1.0479(10) 0.0275(15) Uani 0.5 3 d S TU P . .
O1 O 0.585(7) 0.000000 0.783(7) 0.062(3) Uani 1 2 d S TU P . .
O2 O 0.645(5) 0.000000 0.315(5) 0.040(8) Uani 1 2 d S TU P . .
O3 O 0.666667 0.333333 0.538(7) 0.027(8) Uani 1 3 d S T P . .
O4A O 1.233(9) 0.000000 0.987(9) 0.024(12) Uiso 0.5 2 d S . P . .
O4B O 1.234(9) 0.000000 0.106(9) 0.025(13) Uiso 0.5 2 d S . P . .
O5A O 1.000000 0.271(8) 0.487(8) 0.022(12) Uiso 0.5 2 d S . P . .
O5B O 1.000000 0.263(9) 0.613(8) 0.024(12) Uiso 0.5 2 d S . P . .
loop_
_atom_site_aniso_label
_atom_site_aniso_U_11
_atom_site_aniso_U_22
_atom_site_aniso_U_33
_atom_site_aniso_U_23
_atom_site_aniso_U_13
_atom_site_aniso_U_12
U1 0.0115(4) 0.0086(6) 0.0216(5) 0.000 -0.0002(5) 0.0043(3)
I1 0.025(4) 0.025(4) 0.023(5) 0.000 0.000 0.0127(18)
I2 0.024(4) 0.024(4) 0.025(5) 0.000 0.000 0.0122(18)
Rb1 0.025(9) 0.025(9) 0.036(4) 0.000(11) 0.000(10) 0.016(9)
K1 0.025(9) 0.025(9) 0.036(4) 0.000(11) 0.000(10) 0.016(9)
O1 0.062(4) 0.062(3) 0.062(4) 0.000 -0.0001(15) 0.0311(16)
O2 0.052(10) 0.034(9) 0.026(10) 0.000 0.006(8) 0.017(5)
O3 0.012(10) 0.012(10) 0.06(2) 0.000 0.000 0.006(5)
loop_
_atom_type_symbol
_atom_type_description
_atom_type_scat_dispersion_real
_atom_type_scat_dispersion_imag
_atom_type_scat_source
O O 0.0106 0.0060 'International Tables Vol C Tables 4.2.6.8 and 6.1.1.4'
Rb Rb -0.9393 2.9676 'International Tables Vol C Tables 4.2.6.8 and 6.1.1.4'
K K 0.2009 0.2494 'International Tables Vol C Tables 4.2.6.8 and 6.1.1.4'
I I -0.4742 1.8119 'International Tables Vol C Tables 4.2.6.8 and 6.1.1.4'
U U -9.6767 9.6646 'International Tables Vol C Tables 4.2.6.8 and 6.1.1.4'
loop_
_geom_angle_atom_site_label_1
_geom_angle_atom_site_label_2
_geom_angle_atom_site_label_3
_geom_angle
_geom_angle_site_symmetry_1
_geom_angle_site_symmetry_3
_geom_angle_publ_flag
O2 U1 O1 178.3(18) . . ?
O2 U1 O3 90.6(13) . . ?
O1 U1 O3 88.8(14) . . ?
O2 U1 O3 90.6(13) . 3_545 ?
O1 U1 O3 88.8(14) . 3_545 ?
O3 U1 O3 135.2(2) . 3_545 ?
O2 U1 O5B 97.0(16) . 2_645 ?
O1 U1 O5B 84.3(18) . 2_645 ?
O3 U1 O5B 153.0(14) . 2_645 ?
O3 U1 O5B 70.8(16) 3_545 2_645 ?
O2 U1 O5B 97.0(16) . . ?
O1 U1 O5B 84.3(18) . . ?
O3 U1 O5B 70.8(16) . . ?
O3 U1 O5B 153.0(13) 3_545 . ?
O5B U1 O5B 82(3) 2_645 . ?
O2 U1 O5A 75.0(16) . . ?
O1 U1 O5A 106.2(18) . . ?
O3 U1 O5A 68.7(15) . . ?
O3 U1 O5A 153.1(13) 3_545 . ?
O5B U1 O5A 88.2(16) 2_645 . ?
O5B U1 O5A 22.2(13) . . ?
O2 U1 O5A 75.0(16) . 2_645 ?
O1 U1 O5A 106.2(18) . 2_645 ?
O3 U1 O5A 153.1(13) . 2_645 ?
O3 U1 O5A 68.7(15) 3_545 2_645 ?
O5B U1 O5A 22.2(13) 2_645 2_645 ?
O5B U1 O5A 88.2(16) . 2_645 ?
O5A U1 O5A 85(3) . 2_645 ?
O2 U1 O5A 85.7(18) . 3_545 ?
O1 U1 O5A 93(2) . 3_545 ?
O3 U1 O5A 67.7(2) . 3_545 ?
O3 U1 O5A 67.7(2) 3_545 3_545 ?
O5B U1 O5A 138.5(15) 2_645 3_545 ?
O5B U1 O5A 138.5(15) . 3_545 ?
O5A U1 O5A 131.8(16) . 3_545 ?
O5A U1 O5A 131.8(16) 2_645 3_545 ?
O2 U1 O5B 107.0(18) . 3_545 ?
O1 U1 O5B 71(2) . 3_545 ?
O3 U1 O5B 68.5(3) . 3_545 ?
O3 U1 O5B 68.5(3) 3_545 3_545 ?
O5B U1 O5B 132.4(18) 2_645 3_545 ?
O5B U1 O5B 132.4(18) . 3_545 ?
O5A U1 O5B 137.1(14) . 3_545 ?
O5A U1 O5B 137.1(14) 2_645 3_545 ?
O5A U1 O5B 21.3(13) 3_545 3_545 ?
O2 U1 U1 94.8(10) . 2_545 ?
O1 U1 U1 83.9(12) . 2_545 ?
O3 U1 U1 105.33(6) . 2_545 ?
O3 U1 U1 30.05(7) 3_545 2_545 ?
O5B U1 U1 99.8(15) 2_645 2_545 ?
O5B U1 U1 167.6(13) . 2_545 ?
O5A U1 U1 167.8(13) . 2_545 ?
O5A U1 U1 98.5(13) 2_645 2_545 ?
O5A U1 U1 38.9(3) 3_545 2_545 ?
O5B U1 U1 39.0(3) 3_545 2_545 ?
O2 U1 U1 94.8(9) . 4_665 ?
O1 U1 U1 83.9(12) . 4_665 ?
O3 U1 U1 30.05(7) . 4_665 ?
O3 U1 U1 105.33(6) 3_545 4_665 ?
O5B U1 U1 167.6(13) 2_645 4_665 ?
O5B U1 U1 99.8(14) . 4_665 ?
O5A U1 U1 98.5(13) . 4_665 ?
O5A U1 U1 167.8(13) 2_645 4_665 ?
O5A U1 U1 38.9(3) 3_545 4_665 ?
O5B U1 U1 39.0(3) 3_545 4_665 ?
U1 U1 U1 75.33(6) 2_545 4_665 ?
I2 I1 O4B 93(2) 1_554 4_765 ?
I2 I1 O4B 93(2) 1_554 2_645 ?
O4B I1 O4B 119.7(5) 4_765 2_645 ?
I2 I1 O4B 93(2) 1_554 . ?
O4B I1 O4B 119.7(5) 4_765 . ?
O4B I1 O4B 119.7(5) 2_645 . ?
I2 I1 O4A 65(2) 1_554 4_764 ?
O4B I1 O4A 28.7(19) 4_765 4_764 ?
O4B I1 O4A 118.4(14) 2_645 4_764 ?
O4B I1 O4A 118.4(14) . 4_764 ?
I2 I1 O4A 65(2) 1_554 2_644 ?
O4B I1 O4A 118.4(14) 4_765 2_644 ?
O4B I1 O4A 28.7(19) 2_645 2_644 ?
O4B I1 O4A 118.4(14) . 2_644 ?
O4A I1 O4A 103(3) 4_764 2_644 ?
I2 I1 O4A 65(2) 1_554 1_554 ?
O4B I1 O4A 118.4(14) 4_765 1_554 ?
O4B I1 O4A 118.4(14) 2_645 1_554 ?
O4B I1 O4A 28.7(19) . 1_554 ?
O4A I1 O4A 103(3) 4_764 1_554 ?
O4A I1 O4A 103(3) 2_644 1_554 ?
I2 I1 Rb1 85.3(2) 1_554 1_544 ?
O4B I1 Rb1 31.0(6) 4_765 1_544 ?
O4B I1 Rb1 150.04(15) 2_645 1_544 ?
O4B I1 Rb1 90.3(2) . 1_544 ?
O4A I1 Rb1 35.4(11) 4_764 1_544 ?
O4A I1 Rb1 138.2(14) 2_644 1_544 ?
O4A I1 Rb1 88.00(16) 1_554 1_544 ?
I2 I1 Rb1 85.3(2) 1_554 3_544 ?
O4B I1 Rb1 31.0(6) 4_765 3_544 ?
O4B I1 Rb1 90.3(2) 2_645 3_544 ?
O4B I1 Rb1 150.04(15) . 3_544 ?
O4A I1 Rb1 35.4(11) 4_764 3_544 ?
O4A I1 Rb1 88.00(17) 2_644 3_544 ?
O4A I1 Rb1 138.2(14) 1_554 3_544 ?
Rb1 I1 Rb1 59.78(2) 1_544 3_544 ?
I2 I1 Rb1 85.3(2) 1_554 3_654 ?
O4B I1 Rb1 150.04(16) 4_765 3_654 ?
O4B I1 Rb1 31.0(6) 2_645 3_654 ?
O4B I1 Rb1 90.3(2) . 3_654 ?
O4A I1 Rb1 138.2(14) 4_764 3_654 ?
O4A I1 Rb1 35.4(11) 2_644 3_654 ?
O4A I1 Rb1 88.00(16) 1_554 3_654 ?
Rb1 I1 Rb1 170.6(4) 1_544 3_654 ?
Rb1 I1 Rb1 119.34(6) 3_544 3_654 ?
I2 I1 Rb1 85.3(2) 1_554 1_654 ?
O4B I1 Rb1 150.04(15) 4_765 1_654 ?
O4B I1 Rb1 90.3(2) 2_645 1_654 ?
O4B I1 Rb1 31.0(6) . 1_654 ?
O4A I1 Rb1 138.2(14) 4_764 1_654 ?
O4A I1 Rb1 88.00(16) 2_644 1_654 ?
O4A I1 Rb1 35.4(11) 1_554 1_654 ?
Rb1 I1 Rb1 119.34(6) 1_544 1_654 ?
Rb1 I1 Rb1 170.6(4) 3_544 1_654 ?
Rb1 I1 Rb1 59.78(2) 3_654 1_654 ?
I2 I1 Rb1 85.3(2) 1_554 1_554 ?
O4B I1 Rb1 90.3(2) 4_765 1_554 ?
O4B I1 Rb1 31.0(6) 2_645 1_554 ?
O4B I1 Rb1 150.04(15) . 1_554 ?
O4A I1 Rb1 88.00(17) 4_764 1_554 ?
O4A I1 Rb1 35.4(11) 2_644 1_554 ?
O4A I1 Rb1 138.2(14) 1_554 1_554 ?
Rb1 I1 Rb1 119.34(6) 1_544 1_554 ?
Rb1 I1 Rb1 59.78(2) 3_544 1_554 ?
Rb1 I1 Rb1 59.78(2) 3_654 1_554 ?
Rb1 I1 Rb1 119.34(6) 1_654 1_554 ?
I1 I2 O4A 94(2) 1_556 4_765 ?
I1 I2 O4A 94(2) 1_556 2_645 ?
O4A I2 O4A 119.5(6) 4_765 2_645 ?
I1 I2 O4A 94(2) 1_556 . ?
O4A I2 O4A 119.5(6) 4_765 . ?
O4A I2 O4A 119.5(6) 2_645 . ?
I1 I2 O4B 65(2) 1_556 2_646 ?
O4A I2 O4B 119.0(13) 4_765 2_646 ?
O4A I2 O4B 28.8(19) 2_645 2_646 ?
O4A I2 O4B 119.0(13) . 2_646 ?
I1 I2 O4B 65(2) 1_556 1_556 ?
O4A I2 O4B 119.0(13) 4_765 1_556 ?
O4A I2 O4B 119.0(13) 2_645 1_556 ?
O4A I2 O4B 28.8(19) . 1_556 ?
O4B I2 O4B 104(2) 2_646 1_556 ?
I1 I2 O4B 65(2) 1_556 4_766 ?
O4A I2 O4B 28.8(19) 4_765 4_766 ?
O4A I2 O4B 119.0(13) 2_645 4_766 ?
O4A I2 O4B 119.0(13) . 4_766 ?
O4B I2 O4B 104(2) 2_646 4_766 ?
O4B I2 O4B 104(2) 1_556 4_766 ?
I1 I2 Rb1 85.4(2) 1_556 1_655 ?
O4A I2 Rb1 150.09(7) 4_765 1_655 ?
O4A I2 Rb1 90.3(2) 2_645 1_655 ?
O4A I2 Rb1 31.2(7) . 1_655 ?
O4B I2 Rb1 88.11(17) 2_646 1_655 ?
O4B I2 Rb1 35.1(11) 1_556 1_655 ?
O4B I2 Rb1 138.8(14) 4_766 1_655 ?
I1 I2 Rb1 85.4(2) 1_556 3_655 ?
O4A I2 Rb1 150.09(8) 4_765 3_655 ?
O4A I2 Rb1 31.2(7) 2_645 3_655 ?
O4A I2 Rb1 90.3(2) . 3_655 ?
O4B I2 Rb1 35.1(11) 2_646 3_655 ?
O4B I2 Rb1 88.11(17) 1_556 3_655 ?
O4B I2 Rb1 138.8(14) 4_766 3_655 ?
Rb1 I2 Rb1 59.79(2) 1_655 3_655 ?
I1 I2 Rb1 85.4(2) 1_556 3_545 ?
O4A I2 Rb1 31.2(7) 4_765 3_545 ?
O4A I2 Rb1 90.3(2) 2_645 3_545 ?
O4A I2 Rb1 150.09(9) . 3_545 ?
O4B I2 Rb1 88.11(17) 2_646 3_545 ?
O4B I2 Rb1 138.8(14) 1_556 3_545 ?
O4B I2 Rb1 35.1(11) 4_766 3_545 ?
Rb1 I2 Rb1 170.9(4) 1_655 3_545 ?
Rb1 I2 Rb1 119.38(6) 3_655 3_545 ?
I1 I2 Rb1 85.4(2) 1_556 1_545 ?
O4A I2 Rb1 31.2(7) 4_765 1_545 ?
O4A I2 Rb1 150.09(9) 2_645 1_545 ?
O4A I2 Rb1 90.3(2) . 1_545 ?
O4B I2 Rb1 138.8(14) 2_646 1_545 ?
O4B I2 Rb1 88.11(17) 1_556 1_545 ?
O4B I2 Rb1 35.1(11) 4_766 1_545 ?
Rb1 I2 Rb1 119.38(6) 1_655 1_545 ?
Rb1 I2 Rb1 170.9(4) 3_655 1_545 ?
Rb1 I2 Rb1 59.79(2) 3_545 1_545 ?
I1 I2 Rb1 85.4(2) 1_556 . ?
O4A I2 Rb1 90.34(19) 4_765 . ?
O4A I2 Rb1 31.2(7) 2_645 . ?
O4A I2 Rb1 150.09(9) . . ?
O4B I2 Rb1 35.1(11) 2_646 . ?
O4B I2 Rb1 138.8(14) 1_556 . ?
O4B I2 Rb1 88.11(16) 4_766 . ?
Rb1 I2 Rb1 119.38(6) 1_655 . ?
Rb1 I2 Rb1 59.79(2) 3_655 . ?
Rb1 I2 Rb1 59.79(2) 3_545 . ?
Rb1 I2 Rb1 119.38(6) 1_545 . ?
O4B Rb1 O4B 117.7(8) 2_646 1_456 ?
O4B Rb1 O4B 117.7(8) 2_646 4_776 ?
O4B Rb1 O4B 117.7(7) 1_456 4_776 ?
O4B Rb1 O4A 18.0(11) 2_646 2_645 ?
O4B Rb1 O4A 120.7(15) 1_456 2_645 ?
O4B Rb1 O4A 120.9(15) 4_776 2_645 ?
O4B Rb1 O4A 120.9(15) 2_646 1_455 ?
O4B Rb1 O4A 18.0(11) 1_456 1_455 ?
O4B Rb1 O4A 120.7(15) 4_776 1_455 ?
O4A Rb1 O4A 117.5(8) 2_645 1_455 ?
O4B Rb1 O4A 120.7(15) 2_646 4_775 ?
O4B Rb1 O4A 120.9(15) 1_456 4_775 ?
O4B Rb1 O4A 18.0(11) 4_776 4_775 ?
O4A Rb1 O4A 117.5(8) 2_645 4_775 ?
O4A Rb1 O4A 117.5(8) 1_455 4_775 ?
O4B Rb1 O1 75.6(16) 2_646 . ?
O4B Rb1 O1 74.3(15) 1_456 . ?
O4B Rb1 O1 146.2(17) 4_776 . ?
O4A Rb1 O1 62.5(15) 2_645 . ?
O4A Rb1 O1 61.3(15) 1_455 . ?
O4A Rb1 O1 128.2(17) 4_775 . ?
O4B Rb1 O1 74.3(15) 2_646 2_655 ?
O4B Rb1 O1 146.2(17) 1_456 2_655 ?
O4B Rb1 O1 75.6(16) 4_776 2_655 ?
O4A Rb1 O1 61.3(15) 2_645 2_655 ?
O4A Rb1 O1 128.2(17) 1_455 2_655 ?
O4A Rb1 O1 62.5(15) 4_775 2_655 ?
O1 Rb1 O1 79.2(13) . 2_655 ?
O4B Rb1 O1 146.2(17) 2_646 4_665 ?
O4B Rb1 O1 75.6(16) 1_456 4_665 ?
O4B Rb1 O1 74.3(15) 4_776 4_665 ?
O4A Rb1 O1 128.2(17) 2_645 4_665 ?
O4A Rb1 O1 62.5(15) 1_455 4_665 ?
O4A Rb1 O1 61.3(15) 4_775 4_665 ?
O1 Rb1 O1 79.2(13) . 4_665 ?
O1 Rb1 O1 79.2(13) 2_655 4_665 ?
O4B Rb1 O2 68.6(13) 2_646 2_656 ?
O4B Rb1 O2 129.6(16) 1_456 2_656 ?
O4B Rb1 O2 55.0(13) 4_776 2_656 ?
O4A Rb1 O2 80.8(13) 2_645 2_656 ?
O4A Rb1 O2 147.2(15) 1_455 2_656 ?
O4A Rb1 O2 68.4(14) 4_775 2_656 ?
O1 Rb1 O2 143.3(11) . 2_656 ?
O1 Rb1 O2 84.0(7) 2_655 2_656 ?
O1 Rb1 O2 129.2(11) 4_665 2_656 ?
O4B Rb1 O2 55.0(13) 2_646 1_556 ?
O4B Rb1 O2 68.6(13) 1_456 1_556 ?
O4B Rb1 O2 129.6(15) 4_776 1_556 ?
O4A Rb1 O2 68.4(14) 2_645 1_556 ?
O4A Rb1 O2 80.8(13) 1_455 1_556 ?
O4A Rb1 O2 147.2(15) 4_775 1_556 ?
O1 Rb1 O2 84.0(7) . 1_556 ?
O1 Rb1 O2 129.2(11) 2_655 1_556 ?
O1 Rb1 O2 143.3(12) 4_665 1_556 ?
O2 Rb1 O2 81.8(9) 2_656 1_556 ?
O4B Rb1 O2 129.6(15) 2_646 4_666 ?
O4B Rb1 O2 55.0(13) 1_456 4_666 ?
O4B Rb1 O2 68.6(13) 4_776 4_666 ?
O4A Rb1 O2 147.2(15) 2_645 4_666 ?
O4A Rb1 O2 68.4(14) 1_455 4_666 ?
O4A Rb1 O2 80.8(13) 4_775 4_666 ?
O1 Rb1 O2 129.2(11) . 4_666 ?
O1 Rb1 O2 143.3(11) 2_655 4_666 ?
O1 Rb1 O2 84.0(7) 4_665 4_666 ?
O2 Rb1 O2 81.8(9) 2_656 4_666 ?
O2 Rb1 O2 81.8(9) 1_556 4_666 ?
O4B K1 O4B 117.7(8) 2_646 1_456 ?
O4B K1 O4B 117.7(8) 2_646 4_776 ?
O4B K1 O4B 117.7(7) 1_456 4_776 ?
O4B K1 O4A 18.0(11) 2_646 2_645 ?
O4B K1 O4A 120.7(15) 1_456 2_645 ?
O4B K1 O4A 120.9(15) 4_776 2_645 ?
O4B K1 O4A 120.9(15) 2_646 1_455 ?
O4B K1 O4A 18.0(11) 1_456 1_455 ?
O4B K1 O4A 120.7(15) 4_776 1_455 ?
O4A K1 O4A 117.5(8) 2_645 1_455 ?
O4B K1 O4A 120.7(15) 2_646 4_775 ?
O4B K1 O4A 120.9(15) 1_456 4_775 ?
O4B K1 O4A 18.0(11) 4_776 4_775 ?
O4A K1 O4A 117.5(8) 2_645 4_775 ?
O4A K1 O4A 117.5(8) 1_455 4_775 ?
O4B K1 O1 75.6(16) 2_646 . ?
O4B K1 O1 74.3(15) 1_456 . ?
O4B K1 O1 146.2(17) 4_776 . ?
O4A K1 O1 62.5(15) 2_645 . ?
O4A K1 O1 61.3(15) 1_455 . ?
O4A K1 O1 128.2(17) 4_775 . ?
O4B K1 O1 74.3(15) 2_646 2_655 ?
O4B K1 O1 146.2(17) 1_456 2_655 ?
O4B K1 O1 75.6(16) 4_776 2_655 ?
O4A K1 O1 61.3(15) 2_645 2_655 ?
O4A K1 O1 128.2(17) 1_455 2_655 ?
O4A K1 O1 62.5(15) 4_775 2_655 ?
O1 K1 O1 79.2(13) . 2_655 ?
O4B K1 O1 146.2(17) 2_646 4_665 ?
O4B K1 O1 75.6(16) 1_456 4_665 ?
O4B K1 O1 74.3(15) 4_776 4_665 ?
O4A K1 O1 128.2(17) 2_645 4_665 ?
O4A K1 O1 62.5(15) 1_455 4_665 ?
O4A K1 O1 61.3(15) 4_775 4_665 ?
O1 K1 O1 79.2(13) . 4_665 ?
O1 K1 O1 79.2(13) 2_655 4_665 ?
O4B K1 O2 68.6(13) 2_646 2_656 ?
O4B K1 O2 129.6(16) 1_456 2_656 ?
O4B K1 O2 55.0(13) 4_776 2_656 ?
O4A K1 O2 80.8(13) 2_645 2_656 ?
O4A K1 O2 147.2(15) 1_455 2_656 ?
O4A K1 O2 68.4(14) 4_775 2_656 ?
O1 K1 O2 143.3(11) . 2_656 ?
O1 K1 O2 84.0(7) 2_655 2_656 ?
O1 K1 O2 129.2(11) 4_665 2_656 ?
O4B K1 O2 55.0(13) 2_646 1_556 ?
O4B K1 O2 68.6(13) 1_456 1_556 ?
O4B K1 O2 129.6(15) 4_776 1_556 ?
O4A K1 O2 68.4(14) 2_645 1_556 ?
O4A K1 O2 80.8(13) 1_455 1_556 ?
O4A K1 O2 147.2(15) 4_775 1_556 ?
O1 K1 O2 84.0(7) . 1_556 ?
O1 K1 O2 129.2(11) 2_655 1_556 ?
O1 K1 O2 143.3(12) 4_665 1_556 ?
O2 K1 O2 81.8(9) 2_656 1_556 ?
O4B K1 O2 129.6(15) 2_646 4_666 ?
O4B K1 O2 55.0(13) 1_456 4_666 ?
O4B K1 O2 68.6(13) 4_776 4_666 ?
O4A K1 O2 147.2(15) 2_645 4_666 ?
O4A K1 O2 68.4(14) 1_455 4_666 ?
O4A K1 O2 80.8(13) 4_775 4_666 ?
O1 K1 O2 129.2(11) . 4_666 ?
O1 K1 O2 143.3(11) 2_655 4_666 ?
O1 K1 O2 84.0(7) 4_665 4_666 ?
O2 K1 O2 81.8(9) 2_656 4_666 ?
O2 K1 O2 81.8(9) 1_556 4_666 ?
U1 O1 K1 134.4(9) . . ?
U1 O1 Rb1 134.4(9) . . ?
K1 O1 Rb1 0.000(1) . . ?
U1 O1 Rb1 134.4(9) . 3_545 ?
K1 O1 Rb1 89.8(15) . 3_545 ?
Rb1 O1 Rb1 89.8(15) . 3_545 ?
U1 O2 Rb1 127.9(10) . 3_544 ?
U1 O2 Rb1 127.9(10) . 1_554 ?
Rb1 O2 Rb1 85.1(10) 3_544 1_554 ?
U1 O3 U1 119.91(14) . 2_655 ?
U1 O3 U1 119.91(13) . 4_665 ?
U1 O3 U1 119.91(14) 2_655 4_665 ?
O4B O4A I2 86(7) 1_556 . ?
O4B O4A I1 65(6) 1_556 1_556 ?
I2 O4A I1 21.1(9) . 1_556 ?
O4B O4A Rb1 81(5) 1_556 1_655 ?
I2 O4A Rb1 131.0(13) . 1_655 ?
I1 O4A Rb1 122.5(18) 1_556 1_655 ?
O4B O4A Rb1 81(5) 1_556 3_645 ?
I2 O4A Rb1 131.0(13) . 3_645 ?
I1 O4A Rb1 122.5(18) 1_556 3_645 ?
Rb1 O4A Rb1 93.0(19) 1_655 3_645 ?
O4A O4B I1 86(7) 1_554 . ?
O4A O4B I2 65(6) 1_554 1_554 ?
I1 O4B I2 21.2(9) . 1_554 ?
O4A O4B Rb1 81(5) 1_554 1_654 ?
I1 O4B Rb1 131.3(13) . 1_654 ?
I2 O4B Rb1 123.1(18) 1_554 1_654 ?
O4A O4B Rb1 81(5) 1_554 3_644 ?
I1 O4B Rb1 131.3(13) . 3_644 ?
I2 O4B Rb1 123.1(18) 1_554 3_644 ?
Rb1 O4B Rb1 93.2(19) 1_654 3_644 ?
O5B O5A U1 78.5(18) . 4_765 ?
O5B O5A U1 78.5(18) . . ?
U1 O5A U1 146(3) 4_765 . ?
O5B O5A U1 83(6) . 2_655 ?
U1 O5A U1 101.3(14) 4_765 2_655 ?
U1 O5A U1 101.3(14) . 2_655 ?
O5A O5B U1 79.3(18) . 4_765 ?
O5A O5B U1 79.3(18) . . ?
U1 O5B U1 146(3) 4_765 . ?
O5A O5B U1 75(6) . 2_655 ?
U1 O5B U1 99.6(15) 4_765 2_655 ?
U1 O5B U1 99.6(15) . 2_655 ?
loop_
_geom_bond_atom_site_label_1
_geom_bond_atom_site_label_2
_geom_bond_distance
_geom_bond_site_symmetry_2
_geom_bond_publ_flag
U1 O2 1.74(4) . ?
U1 O1 1.77(6) . ?
U1 O3 2.2295(17) . ?
U1 O3 2.2295(17) 3_545 ?
U1 O5B 2.464(17) 2_645 ?
U1 O5B 2.464(18) . ?
U1 O5A 2.470(17) . ?
U1 O5A 2.470(17) 2_645 ?
U1 O5A 2.52(6) 3_545 ?
U1 O5B 2.59(6) 3_545 ?
U1 U1 3.8598(8) 2_545 ?
U1 U1 3.8598(8) 4_665 ?
I1 I2 0.666(10) 1_554 ?
I1 O4B 1.67(6) 4_765 ?
I1 O4B 1.67(6) 2_645 ?
I1 O4B 1.67(6) . ?
I1 O4A 1.84(6) 4_764 ?
I1 O4A 1.84(6) 2_644 ?
I1 O4A 1.84(6) 1_554 ?
I1 Rb1 4.1364(13) 1_544 ?
I1 Rb1 4.1364(13) 3_544 ?
I1 Rb1 4.1364(13) 3_654 ?
I1 Rb1 4.1364(13) 1_654 ?
I1 Rb1 4.1365(13) 1_554 ?
I2 O4A 1.67(6) 4_765 ?
I2 O4A 1.67(6) 2_645 ?
I2 O4A 1.67(6) . ?
I2 O4B 1.84(6) 2_646 ?
I2 O4B 1.84(6) 1_556 ?
I2 O4B 1.84(6) 4_766 ?
I2 Rb1 4.1357(13) 1_655 ?
I2 Rb1 4.1357(13) 3_655 ?
I2 Rb1 4.1357(13) 3_545 ?
I2 Rb1 4.1357(13) 1_545 ?
I2 Rb1 4.1357(13) . ?
Rb1 O4B 2.84(4) 2_646 ?
Rb1 O4B 2.84(4) 1_456 ?
Rb1 O4B 2.84(4) 4_776 ?
Rb1 O4A 2.84(4) 2_645 ?
Rb1 O4A 2.84(4) 1_455 ?
Rb1 O4A 2.84(4) 4_775 ?
Rb1 O1 2.92(4) . ?
Rb1 O1 2.92(4) 2_655 ?
Rb1 O1 2.92(4) 4_665 ?
Rb1 O2 3.05(3) 2_656 ?
Rb1 O2 3.05(3) 1_556 ?
Rb1 O2 3.05(3) 4_666 ?
K1 O4B 2.84(4) 2_646 ?
K1 O4B 2.84(4) 1_456 ?
K1 O4B 2.84(4) 4_776 ?
K1 O4A 2.84(4) 2_645 ?
K1 O4A 2.84(4) 1_455 ?
K1 O4A 2.84(4) 4_775 ?
K1 O1 2.92(4) . ?
K1 O1 2.92(4) 2_655 ?
K1 O1 2.92(4) 4_665 ?
K1 O2 3.05(3) 2_656 ?
K1 O2 3.05(3) 1_556 ?
K1 O2 3.05(3) 4_666 ?
O4A O4B 0.89(5) 1_556 ?
O5A O5B 0.95(6) . ?
