#------------------------------------------------------------------------------
#$Date: 2021-11-17 02:15:37 +0200 (Wed, 17 Nov 2021) $
#$Revision: 270707 $
#$URL: file:///home/coder/svn-repositories/cod/cif/7/70/88/7708859.cif $
#------------------------------------------------------------------------------
#
# This file is available in the Crystallography Open Database (COD),
# http://www.crystallography.net/
#
# All data on this site have been placed in the public domain by the
# contributors.
#
data_7708859
loop_
_publ_author_name
'King, Rhys'
'Levason, William'
'Reid, Gillian'
_publ_section_title
;
 Neutral and cationic germanium(IV) fluoride complexes with phosphine
 coordination -- synthesis, spectroscopy and structures
;
_journal_name_full               'Dalton Transactions'
_journal_paper_doi               10.1039/D1DT03339E
_journal_year                    2021
_chemical_formula_moiety         'C6 H18 F4 Ge P2'
_chemical_formula_sum            'C6 H18 F4 Ge P2'
_chemical_formula_weight         300.764
_space_group_crystal_system      monoclinic
_space_group_IT_number           14
_space_group_name_Hall           '-P 2yn'
_space_group_name_H-M_alt        'P 1 21/n 1'
_symmetry_Int_Tables_number      14
_atom_sites_solution_primary     dual
_audit_creation_date             2021-11-02
_audit_creation_method
;
Olex2 1.5
(compiled 2021.08.20 svn.r13c46975 for OlexSys, GUI svn.r6396)
;
_audit_update_record
;
2021-11-05 deposited with the CCDC.	2021-11-15 downloaded from the CCDC.
;
_cell_angle_alpha                90
_cell_angle_beta                 91.210(3)
_cell_angle_gamma                90
_cell_formula_units_Z            2
_cell_length_a                   6.1467(2)
_cell_length_b                   10.1678(4)
_cell_length_c                   9.5754(3)
_cell_measurement_reflns_used    2803
_cell_measurement_temperature    100.00(14)
_cell_measurement_theta_max      28.9320
_cell_measurement_theta_min      3.8270
_cell_volume                     598.31(4)
_computing_cell_refinement       'CrysAlisPro 1.171.40.61a (Rigaku OD, 2019)'
_computing_data_collection       'CrysAlisPro 1.171.40.61a (Rigaku OD, 2019)'
_computing_data_reduction        'CrysAlisPro 1.171.40.61a (Rigaku OD, 2019)'
_computing_molecular_graphics    'Olex2 1.5 (Dolomanov et al., 2009)'
_computing_publication_material  'Olex2 1.5 (Dolomanov et al., 2009)'
_computing_structure_refinement  'olex2.refine 1.5 (Bourhis et al., 2015)'
_computing_structure_solution    'ShelXT (Sheldrick, 2015)'
_diffrn_ambient_environment      N~2~
_diffrn_ambient_temperature      100.00(14)
_diffrn_detector                 'CCD plate'
_diffrn_measured_fraction_theta_full 1.0000
_diffrn_measured_fraction_theta_max 0.9575
_diffrn_measurement_details
;
List of Runs (angles in degrees, time in seconds):

  # Type    Start    End  Width  t~exp~   \w     \q     \k     \f   Frames
#--------------------------------------------------------------------------
  1  \w    -70.00  65.00   1.00    1.00    --  -24.40  60.00 -60.00  135
  2  \w   -114.00  27.00   1.00    1.00    --  -24.40 -38.00  30.00  141
  3  \w   -114.00  21.00   1.00    1.00    --  -24.40 -57.00  90.00  135
  4  \w    -70.00  22.00   1.00    1.00    --  -24.40  60.00 150.00   92
  5  \w   -114.00  65.00   1.00    1.00    --  -24.40   0.00-180.00  179
;
_diffrn_measurement_device       'four-circle diffractometer'
_diffrn_measurement_device_type  'XtaLAB AFC12 (RCD3): Kappa single'
_diffrn_measurement_method       '\w scans'
_diffrn_orient_matrix_type
'CrysAlisPro convention (1999,Acta A55,543-557)'
_diffrn_orient_matrix_UB_11      0.0310735000
_diffrn_orient_matrix_UB_12      0.0526473000
_diffrn_orient_matrix_UB_13      -0.0436683000
_diffrn_orient_matrix_UB_21      -0.0322029000
_diffrn_orient_matrix_UB_22      -0.0371678000
_diffrn_orient_matrix_UB_23      -0.0597446000
_diffrn_orient_matrix_UB_31      -0.1065087000
_diffrn_orient_matrix_UB_32      0.0265435000
_diffrn_orient_matrix_UB_33      0.0036035000
_diffrn_radiation_monochromator  mirror
_diffrn_radiation_probe          x-ray
_diffrn_radiation_type           'Mo K\a'
_diffrn_radiation_wavelength     0.71073
_diffrn_reflns_av_R_equivalents  0.0327
_diffrn_reflns_av_unetI/netI     0.0262
_diffrn_reflns_Laue_measured_fraction_full 1.0000
_diffrn_reflns_Laue_measured_fraction_max 0.9575
_diffrn_reflns_limit_h_max       8
_diffrn_reflns_limit_h_min       -8
_diffrn_reflns_limit_k_max       13
_diffrn_reflns_limit_k_min       -13
_diffrn_reflns_limit_l_max       12
_diffrn_reflns_limit_l_min       -12
_diffrn_reflns_number            6990
_diffrn_reflns_point_group_measured_fraction_full 1.0000
_diffrn_reflns_point_group_measured_fraction_max 0.9575
_diffrn_reflns_theta_full        25.2417
_diffrn_reflns_theta_max         28.90
_diffrn_reflns_theta_min         2.92
_diffrn_source                   'Rotating-anode X-ray tube'
_diffrn_source_type              'Rigaku (Mo) X-ray Source'
_exptl_absorpt_coefficient_mu    2.838
_exptl_absorpt_correction_T_max  1.00000
_exptl_absorpt_correction_T_min  0.82307
_exptl_absorpt_correction_type   multi-scan
_exptl_absorpt_process_details
;
CrysAlisPro 1.171.40.61a (Rigaku Oxford Diffraction, 2019)
Empirical absorption correction using spherical harmonics,
 implemented in SCALE3 ABSPACK scaling algorithm.
;
_exptl_crystal_colour            colourless
_exptl_crystal_colour_primary    colourless
_exptl_crystal_density_diffrn    1.669
_exptl_crystal_description       irregular
_exptl_crystal_F_000             305.010
_exptl_crystal_size_max          0.1
_exptl_crystal_size_mid          0.07
_exptl_crystal_size_min          0.06
_refine_diff_density_max         1.7642
_refine_diff_density_min         -0.5345
_refine_diff_density_rms         0.1235
_refine_ls_d_res_high            0.7353
_refine_ls_d_res_low             6.9700
_refine_ls_goodness_of_fit_ref   1.0364
_refine_ls_hydrogen_treatment    constr
_refine_ls_matrix_type           full
_refine_ls_number_constraints    12
_refine_ls_number_parameters     64
_refine_ls_number_reflns         1509
_refine_ls_number_restraints     0
_refine_ls_restrained_S_all      1.0364
_refine_ls_R_factor_all          0.0369
_refine_ls_R_factor_gt           0.0304
_refine_ls_shift/su_max          0.0010
_refine_ls_shift/su_mean         0.0000
_refine_ls_structure_factor_coef Fsqd
_refine_ls_weighting_details
'w=1/[\s^2^(Fo^2^)+(0.0338P)^2^+0.8864P] where P=(Fo^2^+2Fc^2^)/3'
_refine_ls_weighting_scheme      calc
_refine_ls_wR_factor_gt          0.0686
_refine_ls_wR_factor_ref         0.0736
_reflns_Friedel_coverage         0.0
_reflns_limit_h_max              6
_reflns_limit_h_min              -8
_reflns_limit_k_max              13
_reflns_limit_k_min              0
_reflns_limit_l_max              12
_reflns_limit_l_min              -6
_reflns_number_gt                1352
_reflns_number_total             1509
_reflns_threshold_expression     I>=2u(I)
_iucr_refine_instructions_details
;
TITL gef4(pme3)2-2_a.res in P2(1)/n
REM Old TITL gef4(pme3)2-2_a.res in P2(1)/n
REM SHELXT solution in P2(1)/n
REM R1 0.103, Rweak 0.003, Alpha 0.011, Orientation as input
REM Formula found by SHELXT: C10 P2 Ge
CELL 0.71073 6.1467 10.1678 9.5754 90 91.21 90
ZERR 2 0.0002 0.0004 0.0003 0 0.003 0
LATT 1
SYMM 0.5-X,0.5+Y,0.5-Z
SFAC C H F Ge P
UNIT 12 36 8 2 4

L.S. 4
PLAN  2
SIZE 0.06 0.07 0.1
BOND $H
LIST 6
fmap 2
acta 
MORE -1
CONF 
WGHT 0.033788 0.886408
FVAR 0.769189
REM <olex2.extras>
REM <HklSrc "%.\\GeF4(PMe3)2%20-2.hkl">
REM </olex2.extras>

Ge1   4     0.50000  0.50000  0.50000  10.50000  0.01299  0.01438  0.01235 =
 0.00028  0.00145  0.00009 
P1    5     0.62179  0.34552  0.66997  11.00000  0.01443  0.01628  0.01375 =
 0.00163  0.00155  0.00098 
F1    3     0.28941  0.38709  0.43680  11.00000  0.01926  0.01974  0.01957 =
 0.00101 -0.00152 -0.00427 
F2    3     0.31330  0.57283  0.62246  11.00000  0.01898  0.02408  0.01623 =
 0.00026  0.00494  0.00423 
C3    1     0.91497  0.33305  0.67646  11.00000  0.01491  0.01986  0.02256 =
 0.00030  0.00175  0.00136 
AFIX 137
H3a   2     0.97645  0.41699  0.70074  11.00000 -1.50000 
H3b   2     0.95831  0.26912  0.74538  11.00000 -1.50000 
H3c   2     0.96595  0.30642  0.58670  11.00000 -1.50000 
AFIX 0
C2    1     0.53709  0.38849  0.84363  11.00000  0.02283  0.03467  0.01461 =
 0.00183  0.00385  0.00636 
AFIX 137
H2a   2     0.60336  0.32945  0.91020  11.00000 -1.50000 
H2b   2     0.58127  0.47700  0.86458  11.00000 -1.50000 
H2c   2     0.38163  0.38187  0.84841  11.00000 -1.50000 
AFIX 0
C1    1     0.51912  0.18194  0.63808  11.00000  0.02340  0.01794  0.02784 =
 0.00284 -0.00178 -0.00178 
AFIX 137
H1a   2     0.57681  0.12316  0.70804  11.00000 -1.50000 
H1b   2     0.36317  0.18262  0.64175  11.00000 -1.50000 
H1c   2     0.56272  0.15292  0.54746  11.00000 -1.50000 
AFIX 0
HKLF 4

END
Q1 1 0.875 0.166667 0.833333 11 0.05 1.76
Q2 1 0.708333 0.388889 0.555556 11 0.05 0.55
Q3 1 0.541667 0.416667 0.583333 11 0.05 0.51
Q4 1 0.791667 0.333333 0.666667 11 0.05 0.48
Q5 1 0.291667 0.444444 0.638889 11 0.05 0.48
Q6 1 0.416667 0.555556 0.583333 11 0.05 0.47
Q7 1 0.333333 0.444444 0.5 11 0.05 0.38
Q8 1 0.291667 0.388889 0.416667 11 0.05 0.36
Q9 1 0.75 0.527778 0.861111 11 0.05 0.36
Q10 1 0.958333 0.222222 0.75 11 0.05 0.35
Q11 1 0.5 0.194444 0.5 11 0.05 0.35
Q12 1 0.333333 0.333333 0.5 11 0.05 0.34
Q13 1 0.625 0.361111 0.666667 11 0.05 0.33
Q14 1 0.291667 0.277778 0.416667 11 0.05 0.32

  REM The information below was added by Olex2.
  REM
  REM R1 = 0.0304 for 1352 Fo > 4sig(Fo) and 0.0369 for all 1509 data
  REM 64 parameters refined using 0 restraints
  REM Highest difference peak 1.7642, deepest hole -0.5345
  REM Mean Shift 0.0000, Max Shift 0.0010.

  REM +++ Tabular Listing of Refinement Information +++
  REM R1_all = 0.0369
  REM R1_gt = 0.0304
  REM wR_ref = 0.0736
  REM GOOF = 1.0364
  REM Shift_max = 0.0010
  REM Shift_mean = 0.0000
  REM Reflections_all = 1509
  REM Reflections_gt = 1352
  REM Parameters = 64
  REM Hole = -0.5345
  REM Peak = 1.7642
  REM Flack = n/a
;
_cod_data_source_file            d1dt03339e2.cif
_cod_data_source_block           GeF4(PMe3)2-2
_cod_database_code               7708859
_chemical_oxdiff_formula         'Ge F4 P2 C6 H18'
_olex2_refinement_description
;
1.a Idealised Me refined as rotating group:
 C3(H3a,H3b,H3c), C2(H2a,H2b,H2c), C1(H1a,H1b,H1c)
;
_iucr_refine_fcf_details
;
data_GeF4(PMe3)2-2_CCDC1
_computing_structure_refinement   'olex2.refine 1.5 (Bourhis et al., 2015)'
_shelx_refln_list_code            4
loop_
  _space_group_symop_id
  _space_group_symop_operation_xyz
  1  x,y,z
  2  -x+1/2,y+1/2,-z+1/2
  3  -x,-y,-z
  4  x-1/2,-y-1/2,z-1/2

_space_group_crystal_system       monoclinic
_space_group_IT_number            14
_space_group_name_H-M_alt         'P 1 21/n 1'
_space_group_name_Hall            '-P 2ybc (x-z,y,z)'
_symmetry_space_group_name_H-M    'P 1 21/n 1'
_symmetry_space_group_name_Hall   '-P 2ybc (x-z,y,z)'
_symmetry_Int_Tables_number       14
_cell_length_a                    6.1467(2)
_cell_length_b                    10.1678(4)
_cell_length_c                    9.5754(3)
_cell_angle_alpha                 90
_cell_angle_beta                  91.210(3)
_cell_angle_gamma                 90
_cell_volume                      598.31(4)
loop_
  _refln_index_h
  _refln_index_k
  _refln_index_l
  _refln_F_squared_calc
  _refln_F_squared_meas
  _refln_F_squared_sigma
  _refln_F_squared_weight
  _refln_observed_status
-8 0 -2 130.009 88.768 34.007 7.254 o
-8 0 0 536.948 572.596 81.872 1.228 o
-8 0 2 45.318 43.590 13.234 42.604 o
-8 1 -3 202.458 199.796 26.147 10.178 o
-8 1 -2 156.870 164.390 17.880 18.877 o
-8 1 -1 249.824 206.648 33.732 6.560 o
-8 1 0 52.339 26.673 21.423 18.500 o
-8 1 1 258.186 226.721 26.587 9.282 o
-8 1 2 160.823 137.310 19.184 17.440 o
-8 2 -2 418.664 386.528 59.630 2.252 o
-8 2 -1 159.919 129.962 37.505 5.909 o
-8 2 0 72.595 38.175 13.893 36.779 o
-8 2 1 95.640 79.157 13.546 33.920 o
-8 3 -2 81.389 80.808 21.567 16.982 o
-8 3 -1 130.351 113.293 23.071 14.002 o
-8 3 0 22.442 27.499 25.792 13.457 o
-8 3 1 152.265 138.071 39.077 5.497 o
-8 3 2 36.490 40.531 23.409 15.860 o
-8 4 0 104.907 66.340 18.305 21.694 o
-7 0 -5 313.339 332.298 20.783 11.117 o
-7 0 -3 18.078 15.321 7.272 135.153 o
-7 0 -1 1167.490 1204.730 103.279 0.695 o
-7 0 1 97.902 97.716 25.902 12.034 o
-7 0 3 22.405 17.544 8.721 97.378 o
-7 0 5 1558.390 1753.060 73.134 0.944 o
-7 1 -6 385.503 429.783 22.797 8.747 o
-7 1 -5 240.259 228.120 16.491 16.969 o
-7 1 -4 87.417 72.617 11.517 43.315 o
-7 1 -3 209.740 199.287 20.530 14.166 o
-7 1 -2 771.641 789.410 28.378 4.233 o
-7 1 -1 78.319 63.567 6.838 78.395 o
-7 1 0 442.553 416.303 19.159 9.570 o
-7 1 1 340.120 334.446 23.422 9.447 o
-7 1 2 9.144 9.273 5.857 217.373 o
-7 1 3 57.265 52.668 9.051 68.574 o
-7 1 4 888.993 978.790 30.231 3.435 o
-7 1 5 7.577 26.693 7.722 128.081 o
-7 1 6 970.583 1083.100 34.138 2.873 o
-7 2 -6 15.354 23.054 12.558 53.168 o
-7 2 -5 306.951 313.476 22.964 10.159 o
-7 2 -4 9.774 -3.478 6.747 180.112 o
-7 2 -3 821.003 869.553 46.910 2.471 o
-7 2 -2 386.924 381.664 20.759 9.821 o
-7 2 -1 174.389 150.977 12.778 26.994 o
-7 2 0 89.113 64.505 7.962 64.868 o
-7 2 1 315.844 305.272 18.825 12.455 o
-7 2 2 65.829 60.591 9.283 62.637 o
-7 2 3 534.748 562.749 20.783 7.386 o
-7 2 4 33.091 29.561 6.347 132.628 o
-7 2 5 239.204 230.533 15.359 18.166 o
-7 2 6 198.306 196.152 15.321 20.351 o
-7 2 7 452.716 481.651 40.970 3.965 o
-7 3 -5 5.574 -5.801 6.999 176.837 o
-7 3 -4 1227.270 1335.280 49.582 1.713 o
-7 3 -3 50.856 54.158 9.310 68.102 o
-7 3 -2 179.985 155.916 13.945 24.298 o
-7 3 -1 15.643 4.281 5.973 199.579 o
-7 3 0 129.043 106.768 13.429 30.321 o
-7 3 1 19.645 12.901 7.173 137.585 o
-7 3 2 1870.100 2042.860 57.053 1.005 o
-7 3 3 6.927 4.099 7.201 161.694 o
-7 3 4 51.398 63.878 13.598 38.916 o
-7 3 5 45.186 49.362 9.552 68.504 o
-7 3 6 37.853 7.623 9.702 77.316 o
-7 4 -5 226.615 189.655 41.122 4.784 o
-7 4 -4 5.904 5.216 15.796 36.329 o
-7 4 -3 837.701 883.845 47.269 2.420 o
-7 4 -2 61.863 62.504 9.423 62.398 o
-7 4 -1 167.641 138.845 13.539 26.282 o
-7 4 0 351.540 318.648 20.799 10.669 o
-7 4 1 702.324 716.165 31.177 4.264 o
-7 4 2 18.177 19.517 7.990 114.535 o
-7 4 3 748.078 773.432 39.357 3.219 o
-7 4 4 386.307 388.921 18.799 10.658 o
-7 4 5 32.035 14.688 9.211 84.923 o
-7 5 -4 221.660 172.010 39.855 5.087 o
-7 5 -3 205.413 166.367 15.341 20.638 o
-7 5 -2 353.456 328.391 24.167 9.015 o
-7 5 -1 2.998 -18.827 8.615 121.693 o
-7 5 0 600.442 632.790 30.687 4.842 o
-7 5 1 401.939 384.362 23.409 8.578 o
-7 5 2 450.664 433.332 25.069 7.406 o
-7 5 3 230.462 219.055 18.247 15.609 o
-7 5 4 315.051 231.521 45.162 3.873 o
-7 5 5 2.101 7.686 13.175 52.221 o
-7 6 -2 46.929 6.795 14.958 36.303 o
-7 6 -1 1063.830 1147.660 55.858 1.697 o
-7 6 0 12.277 -2.744 8.252 122.610 o
-7 6 1 329.379 316.703 25.154 8.879 o
-7 6 2 28.280 21.347 8.536 95.697 o
-7 6 3 111.029 89.913 18.785 20.220 o
-7 6 4 0.802 5.899 21.431 20.039 o
-6 0 -4 70.696 55.497 8.168 71.248 o
-6 0 -2 2075.890 2187.310 46.338 1.014 o
-6 0 0 760.668 716.425 25.147 4.795 o
-6 0 2 114.048 120.184 25.598 11.957 o
-6 0 4 1935.350 2113.050 49.698 1.053 o
-6 0 6 546.736 602.632 28.070 5.592 o
-6 0 8 227.846 200.337 25.353 10.378 o
-6 1 -5 22.175 20.193 4.293 243.234 o
-6 1 -4 29.823 24.029 4.529 200.543 o
-6 1 -3 522.633 530.009 16.302 8.842 o
-6 1 -2 1.013 0.927 3.910 572.344 o
-6 1 -1 1288.050 1300.200 24.751 2.524 o
-6 1 0 210.509 202.538 10.606 26.727 o
-6 1 1 298.043 265.610 11.919 18.842 o
-6 1 2 86.295 89.276 6.145 74.685 o
-6 1 3 815.631 849.706 20.516 4.780 o
-6 1 4 25.521 26.627 5.731 163.521 o
-6 1 5 939.236 1027.080 30.536 3.232 o
-6 1 6 47.127 50.914 5.904 115.006 o
-6 1 7 351.159 394.566 19.712 10.689 o
-6 1 8 229.631 232.829 19.660 14.191 o
-6 2 -5 0.996 2.391 6.630 204.392 o
-6 2 -4 593.477 600.007 21.052 6.720 o
-6 2 -3 224.952 223.437 10.836 24.738 o
-6 2 -2 483.798 460.395 16.778 9.613 o
-6 2 -1 728.166 725.269 20.903 5.488 o
-6 2 0 894.235 859.902 22.278 4.265 o
-6 2 1 53.426 43.321 4.625 134.782 o
-6 2 2 591.252 607.865 17.351 7.479 o
-6 2 3 480.627 479.755 17.402 9.323 o
-6 2 4 302.934 303.501 14.253 16.036 o
-6 2 5 358.869 357.268 17.108 12.219 o
-6 2 6 800.120 899.329 35.368 3.325 o
-6 2 7 4.383 4.643 11.958 62.926 o
-6 2 8 426.080 433.814 27.070 6.993 o
-6 3 -5 1460.840 1544.180 34.770 1.828 o
-6 3 -4 7.442 1.859 4.876 321.604 o
-6 3 -3 282.843 267.433 19.851 12.700 o
-6 3 -2 81.485 63.822 8.199 65.711 o
-6 3 -1 252.537 238.795 15.033 17.925 o
-6 3 0 8.261 9.986 4.652 312.835 o
-6 3 1 2076.060 2136.120 54.550 0.939 o
-6 3 2 13.042 10.852 3.832 358.924 o
-6 3 3 88.872 84.719 7.566 64.436 o
-6 3 4 34.647 34.256 5.650 144.778 o
-6 3 5 87.230 87.240 8.144 60.714 o
-6 3 6 15.365 18.503 7.997 117.368 o
-6 3 7 1220.620 1347.440 46.227 1.822 o
-6 4 -5 0.052 -4.839 5.383 318.847 o
-6 4 -4 1674.550 1750.750 45.378 1.347 o
-6 4 -3 321.870 300.802 20.836 11.192 o
-6 4 -2 126.746 110.099 11.016 37.666 o
-6 4 -1 161.786 152.752 11.988 29.527 o
-6 4 0 644.745 621.472 24.111 5.747 o
-6 4 1 19.989 10.698 10.693 71.347 o
-6 4 2 1062.690 1095.000 27.705 3.048 o
-6 4 3 196.565 209.427 17.377 17.582 o
-6 4 4 15.962 16.914 4.937 236.519 o
-6 4 5 25.737 30.175 6.549 136.294 o
-6 4 6 337.998 360.102 23.211 9.428 o
-6 4 7 1.244 2.809 9.364 103.633 o
-6 5 -5 354.253 348.865 23.711 9.099 o
-6 5 -4 160.233 136.797 13.249 27.431 o
-6 5 -3 1059.500 1083.990 41.165 2.346 o
-6 5 -2 29.454 22.621 5.811 157.552 o
-6 5 -1 613.003 597.570 24.959 5.840 o
-6 5 0 431.125 429.273 22.809 8.307 o
-6 5 1 126.870 117.860 11.803 34.688 o
-6 5 2 54.987 60.238 9.334 65.555 o
-6 5 3 546.700 575.105 23.862 6.534 o
-6 5 4 11.042 3.822 5.004 282.140 o
-6 5 5 452.936 499.441 26.461 6.771 o
-6 5 6 38.548 48.512 10.241 64.228 o
-6 5 7 65.597 78.695 18.254 23.075 o
-6 6 -5 13.831 11.229 6.229 183.218 o
-6 6 -4 184.268 167.255 13.913 23.819 o
-6 6 -3 95.029 84.808 9.581 50.655 o
-6 6 -2 918.775 968.653 25.201 3.755 o
-6 6 -1 65.490 41.878 6.185 99.321 o
-6 6 0 186.034 154.699 12.417 26.806 o
-6 6 1 172.946 141.688 12.588 27.801 o
-6 6 2 302.122 301.330 22.629 10.466 o
-6 6 3 43.204 31.709 6.141 124.354 o
-6 6 4 1020.500 1142.350 86.799 0.948 o
-6 6 5 0.006 4.582 5.637 279.127 o
-6 6 6 37.801 33.268 9.313 76.817 o
-6 7 -5 70.928 93.095 24.609 13.561 o
-6 7 -4 24.455 22.950 6.943 131.940 o
-6 7 -3 359.567 347.543 22.054 9.778 o
-6 7 -2 51.553 39.766 5.526 122.757 o
-6 7 -1 547.395 599.009 20.572 7.183 o
-6 7 0 6.272 -2.110 4.871 336.869 o
-6 7 1 60.237 40.365 6.993 92.759 o
-6 7 2 72.390 68.994 9.158 60.519 o
-6 7 3 872.038 906.016 44.353 2.540 o
-6 7 4 0.336 10.019 5.579 269.639 o
-6 7 5 644.774 716.781 33.656 4.136 o
-6 7 6 45.609 52.277 25.860 12.958 o
-6 8 -4 143.073 106.583 26.468 11.061 o
-6 8 -3 209.763 180.085 17.311 17.703 o
-6 8 -2 233.646 213.103 12.499 22.233 o
-6 8 -1 65.841 48.640 6.235 96.064 o
-6 8 0 235.130 219.546 16.081 17.692 o
-6 8 1 1.210 -4.679 6.695 203.071 o
-6 8 2 301.668 303.714 18.779 12.757 o
-6 8 3 165.580 150.428 28.955 9.156 o
-6 8 4 736.910 780.218 40.440 3.140 o
-6 8 5 69.402 44.885 11.468 48.661 o
-6 9 -2 13.686 -6.509 12.398 57.134 o
-6 9 -1 13.848 -6.306 14.899 40.167 o
-6 9 0 150.292 143.149 14.141 25.976 o
-6 9 1 1014.970 1154.660 92.766 0.854 o
-6 9 2 22.054 4.378 14.113 43.259 o
-6 9 3 291.491 242.812 36.880 5.471 o
-5 0 -3 856.684 881.233 27.165 3.921 o
-5 0 -1 1770.050 1660.390 35.737 1.481 o
-5 0 1 2198.890 2211.860 48.755 0.937 o
-5 0 3 2386.760 2467.470 65.519 0.707 o
-5 0 5 150.228 158.776 18.153 18.800 o
-5 0 7 101.627 105.924 16.327 24.993 o
-5 0 9 1298.880 1470.370 68.554 1.156 o
-5 1 -4 186.362 179.404 8.101 34.585 o
-5 1 -3 15.612 10.993 2.783 452.389 o
-5 1 -2 2096.260 2095.770 26.207 1.223 o
-5 1 -1 394.760 383.641 10.651 14.573 o
-5 1 0 1623.740 1542.040 23.592 1.895 o
-5 1 1 18.831 21.289 2.522 381.888 o
-5 1 2 1247.800 1283.100 19.116 2.808 o
-5 1 3 345.351 312.926 11.759 16.440 o
-5 1 4 1367.910 1393.810 28.500 2.204 o
-5 1 5 43.745 37.299 6.073 122.141 o
-5 1 6 220.009 233.904 16.438 17.552 o
-5 1 7 7.727 4.222 5.310 271.549 o
-5 1 8 305.454 329.326 21.763 10.710 o
-5 1 9 37.164 26.772 9.583 75.188 o
-5 2 -4 103.226 95.258 6.010 67.604 o
-5 2 -3 512.831 512.375 13.439 9.890 o
-5 2 -2 753.093 754.283 15.803 5.907 o
-5 2 -1 1060.090 1066.440 18.190 3.612 o
-5 2 0 281.284 239.308 7.284 24.892 o
-5 2 1 1761.990 1742.920 25.347 1.618 o
-5 2 2 1036.650 1049.630 18.946 3.672 o
-5 2 3 686.142 662.916 16.361 6.633 o
-5 2 4 6.995 10.802 3.456 477.967 o
-5 2 5 454.154 509.954 23.300 7.599 o
-5 2 6 72.822 75.129 14.079 34.301 o
-5 2 7 764.792 792.425 44.807 2.738 o
-5 2 8 178.872 175.340 23.477 12.419 o
-5 2 9 331.496 333.034 31.606 6.517 o
-5 3 -4 862.386 854.803 20.935 4.524 o
-5 3 -3 12.991 9.684 2.484 548.235 o
-5 3 -2 32.320 27.151 3.363 234.130 o
-5 3 -1 551.257 527.690 14.540 8.978 o
-5 3 0 1804.560 1841.110 22.917 1.567 o
-5 3 1 8.510 9.469 2.573 636.330 o
-5 3 2 1189.030 1149.580 23.538 2.913 o
-5 3 3 515.419 503.993 15.678 9.266 o
-5 3 4 21.603 21.670 4.374 238.137 o
-5 3 5 0.232 8.260 5.156 317.021 o
-5 3 6 1222.940 1281.610 30.743 2.428 o
-5 3 7 29.270 35.176 8.242 95.618 o
-5 3 8 953.185 1031.970 53.680 1.909 o
-5 3 9 24.110 5.003 9.144 92.771 o
-5 4 -4 178.417 159.841 9.180 34.154 o
-5 4 -3 342.123 323.944 12.008 16.197 o
-5 4 -2 28.426 20.209 3.791 244.087 o
-5 4 -1 509.272 504.885 17.645 8.759 o
-5 4 0 50.235 41.611 3.936 154.056 o
-5 4 1 756.209 756.054 19.308 5.454 o
-5 4 2 33.584 28.457 3.938 205.897 o
-5 4 3 90.242 78.885 5.918 76.949 o
-5 4 4 38.440 35.545 5.441 143.551 o
-5 4 5 951.831 989.411 29.124 3.345 o
-5 4 6 50.326 45.072 8.552 77.794 o
-5 4 7 1181.410 1263.400 38.155 2.205 o
-5 4 8 103.906 97.434 11.998 37.602 o
-5 4 9 96.644 108.898 20.316 18.008 o
-5 5 -4 1258.740 1287.390 31.582 2.337 o
-5 5 -3 126.970 114.962 7.717 49.775 o
-5 5 -2 635.985 625.834 25.903 5.477 o
-5 5 -1 89.531 89.406 7.890 61.367 o
-5 5 0 94.778 87.241 7.496 62.622 o
-5 5 1 3.659 5.598 2.666 844.969 o
-5 5 2 349.119 345.189 14.514 14.076 o
-5 5 3 45.552 44.330 5.581 125.845 o
-5 5 4 883.283 958.591 28.339 3.626 o
-5 5 5 83.434 79.780 9.099 56.605 o
-5 5 6 613.268 661.608 29.446 4.927 o
-5 5 7 112.074 91.846 11.203 39.946 o
-5 5 8 366.894 360.967 19.404 10.855 o
-5 5 9 20.617 38.350 13.606 44.160 o
-5 6 -4 1.747 0.159 3.355 749.747 o
-5 6 -3 1153.650 1222.110 27.810 2.723 o
-5 6 -2 38.717 34.226 6.309 124.340 o
-5 6 -1 651.389 718.155 26.830 5.040 o
-5 6 0 10.063 4.757 5.528 243.453 o
-5 6 1 24.564 25.592 4.731 204.776 o
-5 6 2 50.526 34.719 4.867 139.830 o
-5 6 3 986.592 1051.980 32.361 2.982 o
-5 6 4 5.745 5.193 4.355 386.484 o
-5 6 5 849.372 925.448 36.581 3.096 o
-5 6 6 43.024 46.308 8.138 85.987 o
-5 6 7 102.924 96.212 12.593 35.654 o
-5 6 8 78.518 59.403 10.977 48.579 o
-5 7 -4 446.169 457.534 20.012 8.975 o
-5 7 -3 27.402 27.328 4.485 204.446 o
-5 7 -2 1484.640 1621.050 31.652 1.838 o
-5 7 -1 25.319 22.978 3.718 255.055 o
-5 7 0 99.529 89.462 8.891 52.896 o
-5 7 1 12.133 14.064 4.700 275.216 o
-5 7 2 318.505 322.794 15.449 14.471 o
-5 7 3 48.627 48.753 6.629 103.000 o
-5 7 4 1463.440 1584.670 48.611 1.473 o
-5 7 5 88.904 81.934 9.962 50.115 o
-5 7 6 139.805 138.512 13.122 29.094 o
-5 7 7 10.523 17.026 6.786 160.905 o
-5 8 -4 210.062 214.102 12.489 23.451 o
-5 8 -3 923.139 1015.910 26.596 3.568 o
-5 8 -2 5.857 10.800 4.540 338.447 o
-5 8 -1 420.530 424.013 16.829 10.754 o
-5 8 0 75.312 58.160 7.472 75.165 o
-5 8 1 255.369 240.856 15.068 17.760 o
-5 8 2 113.871 102.971 9.217 47.060 o
-5 8 3 930.586 995.458 30.838 3.268 o
-5 8 4 45.983 40.987 7.178 99.394 o
-5 8 5 468.020 501.679 24.229 7.259 o
-5 8 6 94.007 85.134 11.121 43.250 o
-5 8 7 87.146 80.665 14.940 30.148 o
-5 9 -4 240.568 251.200 13.911 19.352 o
-5 9 -3 52.672 37.217 5.220 128.541 o
-5 9 -2 193.237 183.359 11.807 26.505 o
-5 9 -1 59.466 46.331 5.967 105.219 o
-5 9 0 898.402 960.641 42.195 2.598 o
-5 9 1 11.922 3.496 8.690 110.503 o
-5 9 2 519.759 545.194 51.130 2.719 o
-5 9 3 18.601 14.393 8.551 104.268 o
-5 9 4 182.403 159.339 13.184 25.441 o
-5 9 5 68.615 38.407 9.594 62.558 o
-5 9 6 460.691 560.532 47.528 3.108 o
-5 10 -4 58.581 68.892 13.826 36.919 o
-5 10 -3 50.541 48.601 7.612 88.076 o
-5 10 -2 3.561 -7.808 6.751 193.969 o
-5 10 -1 207.843 192.098 12.377 24.363 o
-5 10 0 24.088 0.432 4.688 252.406 o
-5 10 1 1092.440 1260.810 64.343 1.388 o
-5 10 2 25.887 8.963 5.042 211.012 o
-5 10 3 116.969 91.699 14.848 28.017 o
-5 10 4 2.782 -4.698 22.158 18.774 o
-5 11 -1 74.324 75.230 14.789 31.759 o
-5 11 0 303.856 331.783 32.975 6.262 o
-5 11 1 34.821 6.457 10.073 74.172 o
-4 0 -2 3327.090 3261.640 43.029 0.536 o
-4 0 0 540.638 518.689 13.066 9.553 o
-4 0 2 3471.870 3651.390 55.271 0.453 o
-4 0 4 1420.000 1322.980 30.700 2.116 o
-4 0 6 170.747 160.968 12.079 28.337 o
-4 0 8 1127.470 1138.930 46.945 1.981 o
-4 0 10 1026.690 994.924 65.047 1.466 o
-4 1 -3 3136.030 3162.910 28.438 0.621 o
-4 1 -2 231.140 226.384 6.786 29.865 o
-4 1 -1 733.858 695.882 10.832 6.849 o
-4 1 0 25.016 31.989 2.211 308.534 o
-4 1 1 1545.010 1598.980 17.205 2.069 o
-4 1 2 851.765 810.271 10.502 5.590 o
-4 1 3 3894.720 3827.430 39.914 0.418 o
-4 1 4 319.113 305.856 8.568 19.872 o
-4 1 5 36.943 36.473 3.910 187.061 o
-4 1 6 43.293 37.298 4.371 160.405 o
-4 1 7 72.659 70.118 6.275 84.913 o
-4 1 8 90.651 84.069 9.078 54.486 o
-4 1 9 1542.730 1599.050 44.993 1.494 o
-4 1 10 525.151 509.836 22.990 7.124 o
-4 1 11 255.389 250.800 17.067 15.679 o
-4 2 -3 209.772 188.502 5.794 35.555 o
-4 2 -2 647.613 626.958 10.787 8.022 o
-4 2 -1 1129.850 1053.460 14.175 3.596 o
-4 2 0 2296.050 2257.690 20.444 1.102 o
-4 2 1 560.784 565.272 10.789 9.479 o
-4 2 2 1421.970 1381.570 17.089 2.430 o
-4 2 3 790.112 736.182 18.543 5.412 o
-4 2 4 928.370 905.397 21.528 4.115 o
-4 2 5 196.637 180.038 9.937 29.851 o
-4 2 6 1076.050 1114.560 26.602 3.056 o
-4 2 7 31.106 25.204 4.185 208.704 o
-4 2 8 219.271 205.179 13.145 22.256 o
-4 2 9 90.096 72.047 8.780 57.916 o
-4 2 10 431.782 427.510 23.358 8.124 o
-4 2 11 78.365 75.163 13.101 37.449 o
-4 3 -3 105.823 91.008 4.072 78.631 o
-4 3 -2 79.609 69.150 3.602 106.231 o
-4 3 -1 1693.790 1748.060 17.953 1.784 o
-4 3 0 2.077 2.843 2.065 1459.350 o
-4 3 1 3676.300 3657.460 28.323 0.476 o
-4 3 2 292.396 271.564 8.651 21.974 o
-4 3 3 36.559 36.209 4.077 183.355 o
-4 3 4 58.815 48.544 11.781 48.326 o
-4 3 5 2258.720 2343.310 44.621 0.926 o
-4 3 6 2.637 9.035 5.003 315.840 o
-4 3 7 1667.710 1672.550 42.832 1.424 o
-4 3 8 40.921 30.204 6.362 123.029 o
-4 3 9 10.948 5.322 5.033 276.324 o
-4 3 10 117.876 90.434 12.878 33.545 o
-4 3 11 651.395 604.375 47.663 2.806 o
-4 4 -3 14.610 12.383 2.285 521.552 o
-4 4 -2 122.035 108.065 5.409 62.060 o
-4 4 -1 359.345 350.280 8.000 17.623 o
-4 4 0 2113.520 2102.020 22.190 1.243 o
-4 4 1 641.518 613.033 12.949 7.812 o
-4 4 2 707.006 703.375 14.234 6.621 o
-4 4 3 45.108 46.106 6.664 106.247 o
-4 4 4 866.336 877.655 28.072 3.816 o
-4 4 5 757.276 768.281 22.006 5.082 o
-4 4 6 2479.140 2616.250 51.599 0.759 o
-4 4 7 386.854 398.417 21.321 9.484 o
-4 4 8 367.781 360.267 21.532 9.842 o
-4 4 9 43.591 27.522 6.789 113.271 o
-4 4 10 161.774 157.525 15.966 21.690 o
-4 5 -3 1014.410 1021.490 18.828 3.797 o
-4 5 -2 332.976 323.221 9.906 17.976 o
-4 5 -1 987.085 954.650 18.482 4.030 o
-4 5 0 194.746 181.347 7.940 33.873 o
-4 5 1 235.632 229.455 10.813 23.946 o
-4 5 2 679.683 639.138 23.875 5.548 o
-4 5 3 1163.570 1225.310 28.634 2.665 o
-4 5 4 932.643 965.921 33.209 3.129 o
-4 5 5 1802.450 1886.690 44.312 1.248 o
-4 5 6 7.262 18.352 5.085 258.981 o
-4 5 7 741.320 757.651 30.468 4.153 o
-4 5 8 361.627 376.472 22.833 9.252 o
-4 5 9 304.398 296.710 21.264 11.228 o
-4 5 10 336.210 296.593 32.063 6.452 o
-4 6 -3 0.090 -0.807 2.641 1316.300 o
-4 6 -2 1868.980 1974.340 31.152 1.361 o
-4 6 -1 7.476 2.228 2.373 860.828 o
-4 6 0 33.992 35.868 4.328 182.132 o
-4 6 1 248.422 229.908 11.082 22.863 o
-4 6 2 1209.050 1224.660 31.326 2.472 o
-4 6 3 8.038 12.304 3.619 428.472 o
-4 6 4 1285.550 1357.840 32.729 2.207 o
-4 6 5 26.476 29.169 10.192 71.701 o
-4 6 6 142.910 141.126 13.393 28.142 o
-4 6 7 13.819 24.835 6.401 162.771 o
-4 6 8 1312.610 1428.570 65.385 1.224 o
-4 6 9 23.175 24.334 10.445 70.805 o
-4 7 -3 2549.500 2808.370 43.780 0.759 o
-4 7 -2 16.485 15.800 4.119 291.943 o
-4 7 -1 604.059 627.057 17.954 7.160 o
-4 7 0 96.069 88.751 6.530 68.186 o
-4 7 1 133.543 118.903 8.972 43.330 o
-4 7 2 0.110 -3.571 2.599 1355.840 o
-4 7 3 1398.360 1484.010 53.433 1.435 o
-4 7 4 138.203 133.876 11.012 35.053 o
-4 7 5 224.821 205.899 13.745 21.158 o
-4 7 6 3.281 6.660 5.003 319.386 o
-4 7 7 342.910 362.004 22.964 9.474 o
-4 7 8 110.187 111.430 13.584 31.191 o
-4 7 9 742.655 733.148 36.675 3.524 o
-4 8 -3 0.245 -2.011 5.103 353.261 o
-4 8 -2 1410.100 1485.760 29.813 2.049 o
-4 8 -1 430.279 428.501 15.549 11.098 o
-4 8 0 621.857 616.667 15.916 7.447 o
-4 8 1 369.438 340.248 15.791 12.919 o
-4 8 2 204.219 196.809 13.769 22.293 o
-4 8 3 35.407 28.739 6.913 117.873 o
-4 8 4 394.945 357.335 22.863 8.992 o
-4 8 5 428.627 444.183 21.214 8.813 o
-4 8 6 531.238 568.724 24.842 6.438 o
-4 8 7 364.655 365.824 27.130 7.633 o
-4 8 8 160.786 163.998 24.846 11.697 o
-4 9 -3 176.653 176.787 10.842 29.852 o
-4 9 -2 132.747 126.403 9.268 41.819 o
-4 9 -1 1026.250 1080.060 26.169 3.239 o
-4 9 0 28.379 20.291 5.729 164.161 o
-4 9 1 1099.280 1159.970 29.063 2.830 o
-4 9 2 171.522 133.631 10.612 32.765 o
-4 9 3 6.985 6.300 5.447 258.998 o
-4 9 4 203.561 206.009 17.921 16.815 o
-4 9 5 363.138 402.047 36.688 5.024 o
-4 9 6 2.672 0.042 12.272 60.768 o
-4 9 7 496.289 511.633 34.677 4.782 o
-4 10 -3 18.451 8.367 4.244 292.289 o
-4 10 -2 230.119 240.695 13.235 20.803 o
-4 10 -1 245.021 237.301 18.666 14.670 o
-4 10 0 1574.130 1758.050 37.178 1.571 o
-4 10 1 0.318 -5.419 5.075 356.518 o
-4 10 2 70.023 45.831 5.704 100.710 o
-4 10 3 12.528 16.007 6.745 159.913 o
-4 10 4 73.727 46.822 9.372 61.648 o
-4 10 5 22.910 21.486 7.506 120.432 o
-4 11 -3 230.248 212.452 14.670 19.616 o
-4 11 -2 102.793 99.150 10.098 45.382 o
-4 11 -1 325.527 319.550 29.937 7.101 o
-4 11 0 121.120 97.716 11.125 38.719 o
-4 11 1 268.298 250.984 48.415 3.483 o
-4 11 2 65.383 50.809 10.774 53.180 o
-4 11 3 281.865 268.695 17.092 14.774 o
-4 11 4 73.403 33.567 8.164 74.548 o
-3 0 -1 1394.920 1513.060 21.028 2.277 o
-3 0 1 2796.550 2976.980 26.298 0.738 o
-3 0 3 4249.110 4345.340 39.053 0.352 o
-3 0 5 18.559 11.646 3.561 337.634 o
-3 0 7 1883.990 1782.460 34.645 1.371 o
-3 0 9 1624.060 1619.260 38.039 1.570 o
-3 0 11 60.445 39.421 7.754 83.515 o
-3 1 -2 1141.980 1072.180 13.384 3.558 o
-3 1 -1 522.366 576.807 7.827 10.583 o
-3 1 0 18.271 15.981 1.611 500.868 o
-3 1 1 461.359 444.880 6.556 13.515 o
-3 1 2 2485.270 2543.970 19.410 0.948 o
-3 1 3 1598.280 1664.700 18.017 1.944 o
-3 1 4 1323.430 1305.420 17.641 2.673 o
-3 1 5 65.831 53.746 3.841 125.159 o
-3 1 6 758.703 721.940 14.597 6.122 o
-3 1 7 152.033 142.767 7.031 44.727 o
-3 1 8 1101.470 1068.700 20.597 3.365 o
-3 1 9 591.176 565.955 17.464 7.648 o
-3 1 10 371.023 353.422 14.665 13.386 o
-3 1 11 18.593 5.955 4.431 283.556 o
-3 1 12 594.624 583.288 23.047 6.363 o
-3 2 -2 232.860 201.635 4.609 33.642 o
-3 2 -1 2000.040 2006.550 16.507 1.396 o
-3 2 0 2017.740 2131.290 17.214 1.332 o
-3 2 1 520.282 480.641 8.447 11.357 o
-3 2 2 10.244 17.453 1.850 624.323 o
-3 2 3 2165.380 2215.470 25.548 1.153 o
-3 2 4 1751.700 1731.770 20.340 1.701 o
-3 2 5 2554.170 2602.960 27.293 0.875 o
-3 2 6 452.519 396.034 10.865 12.896 o
-3 2 7 252.682 232.719 9.145 24.942 o
-3 2 8 31.280 19.204 3.727 237.790 o
-3 2 9 403.948 402.900 15.195 11.940 o
-3 2 10 413.080 406.711 16.032 11.361 o
-3 2 11 887.253 881.201 27.570 3.791 o
-3 2 12 233.014 192.791 20.443 13.853 o
-3 3 -2 2486.940 2518.150 27.509 0.917 o
-3 3 -1 388.351 384.996 7.241 16.316 o
-3 3 0 5242.900 5267.190 27.638 0.251 o
-3 3 1 69.937 59.281 3.000 126.918 o
-3 3 2 393.164 389.314 7.561 15.950 o
-3 3 3 179.304 160.731 5.697 42.018 o
-3 3 4 3367.650 3323.510 37.610 0.537 o
-3 3 5 14.280 12.238 2.449 506.384 o
-3 3 6 1626.130 1611.790 28.474 1.762 o
-3 3 7 5.214 4.686 2.951 700.626 o
-3 3 8 18.635 19.095 4.261 262.672 o
-3 3 9 120.233 107.182 9.343 45.041 o
-3 3 10 888.036 902.033 27.773 3.741 o
-3 3 11 2.822 8.197 5.546 265.244 o
-3 4 -2 1977.750 1975.950 14.106 1.442 o
-3 4 -1 6194.320 6334.860 26.991 0.182 o
-3 4 0 438.396 394.772 6.449 14.860 o
-3 4 1 1834.060 1803.480 33.741 1.411 o
-3 4 2 340.004 325.375 13.879 14.968 o
-3 4 3 851.751 815.268 22.160 4.534 o
-3 4 4 300.531 278.691 11.486 18.873 o
-3 4 5 3637.220 3602.740 44.772 0.457 o
-3 4 6 19.672 19.735 4.116 265.494 o
-3 4 7 296.285 293.783 13.520 16.991 o
-3 4 8 1.129 -5.026 3.640 664.616 o
-3 4 9 78.366 71.552 8.324 64.521 o
-3 4 10 0.197 2.466 6.833 194.553 o
-3 4 11 651.388 640.786 45.301 2.978 o
-3 5 -2 1143.920 1122.640 17.995 3.295 o
-3 5 -1 15.681 9.709 1.205 670.111 o
-3 5 0 1810.340 1763.170 19.810 1.634 o
-3 5 1 1378.570 1282.650 19.383 2.541 o
-3 5 2 3086.380 3146.520 70.808 0.492 o
-3 5 3 678.230 632.656 25.515 5.313 o
-3 5 4 1127.240 1124.700 34.445 2.546 o
-3 5 5 48.775 51.105 6.814 99.286 o
-3 5 6 638.276 591.545 20.465 6.543 o
-3 5 7 159.570 152.038 10.976 32.130 o
-3 5 8 754.077 747.759 23.405 4.973 o
-3 5 9 227.881 200.607 20.772 13.600 o
-3 5 10 197.492 170.883 14.562 22.027 o
-3 6 -2 22.543 19.690 2.219 376.029 o
-3 6 -1 444.333 432.506 9.110 13.312 o
-3 6 0 427.775 401.789 12.286 12.793 o
-3 6 1 3737.650 3705.390 45.032 0.436 o
-3 6 2 31.402 26.284 4.901 180.113 o
-3 6 3 1298.430 1255.300 32.249 2.278 o
-3 6 4 483.539 462.876 40.167 4.029 o
-3 6 5 12.915 13.101 4.171 317.885 o
-3 6 6 0.916 11.851 4.980 320.374 o
-3 6 7 1947.590 2004.160 49.005 1.081 o
-3 6 8 0.893 4.940 6.457 211.743 o
-3 6 9 658.688 631.188 39.421 3.542 o
-3 6 10 48.270 36.259 10.209 63.482 o
-3 7 -2 641.379 666.241 14.529 7.289 o
-3 7 -1 46.904 40.295 3.739 165.509 o
-3 7 0 692.319 684.820 16.911 6.420 o
-3 7 1 106.590 84.942 7.402 59.996 o
-3 7 2 1978.510 2012.050 38.768 1.188 o
-3 7 3 201.470 184.593 11.443 26.552 o
-3 7 4 54.857 50.091 11.678 49.504 o
-3 7 5 85.513 66.593 8.719 60.295 o
-3 7 6 357.516 351.896 19.993 10.763 o
-3 7 7 346.093 341.963 21.129 10.419 o
-3 7 8 1815.280 1903.560 51.945 1.125 o
-3 7 9 86.484 81.919 12.060 40.388 o
-3 8 -2 909.947 963.630 22.030 4.038 o
-3 8 -1 756.198 734.576 16.299 5.891 o
-3 8 0 225.910 206.292 9.867 26.673 o
-3 8 1 329.931 326.058 15.504 14.121 o
-3 8 2 18.531 16.085 4.096 281.612 o
-3 8 3 406.498 421.415 18.075 10.454 o
-3 8 4 223.111 201.531 13.276 21.975 o
-3 8 5 362.628 377.525 18.351 11.323 o
-3 8 6 265.830 267.454 33.415 6.451 o
-3 8 7 501.983 514.522 26.180 6.483 o
-3 8 8 0.196 -0.678 5.219 338.079 o
-3 9 -2 1138.500 1235.110 27.905 2.735 o
-3 9 -1 59.002 50.087 4.901 119.698 o
-3 9 0 1442.250 1609.070 39.748 1.691 o
-3 9 1 333.656 343.305 13.645 15.055 o
-3 9 2 33.511 35.693 5.933 138.281 o
-3 9 3 28.247 29.971 5.751 155.252 o
-3 9 4 450.493 462.813 25.869 7.071 o
-3 9 5 61.169 55.108 7.837 78.483 o
-3 9 6 867.614 922.085 39.891 2.826 o
-3 9 7 22.430 15.330 6.727 145.662 o
-3 10 -2 47.557 36.674 5.161 136.453 o
-3 10 -1 1408.850 1563.820 58.621 1.291 o
-3 10 0 0.007 -4.385 3.884 612.910 o
-3 10 1 149.946 150.084 9.738 36.489 o
-3 10 2 20.438 25.478 5.697 175.774 o
-3 10 3 54.104 46.819 10.888 55.249 o
-3 10 4 2.693 16.246 7.734 139.557 o
-3 10 5 924.355 961.812 41.430 2.606 o
-3 10 6 112.258 79.746 12.349 36.394 o
-3 11 -2 407.096 407.621 28.294 6.846 o
-3 11 -1 33.479 16.275 5.566 163.828 o
-3 11 0 324.413 315.482 19.603 11.750 o
-3 11 1 123.311 134.320 11.568 34.931 o
-3 11 2 207.982 203.147 14.441 21.015 o
-3 11 3 235.622 240.486 15.501 17.965 o
-3 11 4 490.231 536.376 26.475 6.419 o
-3 11 5 45.766 41.833 7.603 92.988 o
-3 12 -2 50.386 31.012 8.413 82.639 o
-3 12 -1 38.501 39.730 7.443 100.953 o
-3 12 0 10.451 5.920 8.827 107.628 o
-3 12 1 632.386 664.550 26.934 5.232 o
-3 12 2 23.623 18.909 6.086 161.855 o
-3 12 3 550.723 599.880 40.666 3.665 o
-2 0 0 3469.720 3500.250 28.488 0.522 o
-2 0 2 816.521 773.148 15.065 5.530 o
-2 0 4 934.456 942.274 18.498 4.252 o
-2 0 6 6139.450 6086.500 79.619 0.170 o
-2 0 8 2165.620 2241.830 57.889 0.858 o
-2 0 10 6.989 -0.923 4.300 408.468 o
-2 0 12 570.396 595.569 37.395 4.032 o
-2 1 -1 39.859 30.372 1.436 255.997 o
-2 1 0 926.658 947.606 11.280 4.743 o
-2 1 1 543.146 498.909 6.609 11.132 o
-2 1 2 2204.920 2367.850 17.781 1.135 o
-2 1 3 3295.950 3479.210 22.730 0.565 o
-2 1 4 772.201 832.287 12.288 5.892 o
-2 1 5 2927.180 2920.590 25.439 0.711 o
-2 1 6 534.887 513.862 11.570 10.054 o
-2 1 7 2428.680 2394.170 27.119 0.969 o
-2 1 8 4.868 2.288 2.352 1016.210 o
-2 1 9 537.440 533.169 14.933 9.013 o
-2 1 10 27.216 12.733 6.275 154.681 o
-2 1 11 196.146 190.569 10.438 28.522 o
-2 1 12 99.191 67.947 8.430 58.261 o
-2 2 -1 1194.930 1246.580 15.048 3.105 o
-2 2 0 522.479 476.911 7.193 11.631 o
-2 2 1 542.034 564.159 10.958 9.718 o
-2 2 2 861.389 821.722 18.512 4.828 o
-2 2 3 3126.470 3288.910 23.269 0.620 o
-2 2 4 4157.780 4300.950 28.121 0.374 o
-2 2 5 42.898 25.681 2.713 220.855 o
-2 2 6 1954.260 1980.170 23.008 1.387 o
-2 2 7 119.583 112.963 6.109 58.877 o
-2 2 8 364.563 330.810 11.078 15.990 o
-2 2 9 32.892 34.913 4.149 191.675 o
-2 2 10 619.247 602.748 19.122 6.904 o
-2 2 11 178.335 157.937 10.588 31.062 o
-2 2 12 381.562 369.236 19.302 10.633 o
-2 3 -1 7366.840 7648.600 26.888 0.130 o
-2 3 0 464.460 483.246 6.739 12.924 o
-2 3 1 1305.540 1312.980 26.229 2.433 o
-2 3 2 834.194 849.728 13.708 5.327 o
-2 3 3 1420.420 1349.940 15.180 2.502 o
-2 3 4 1195.680 1271.750 16.515 3.025 o
-2 3 5 2462.000 2505.880 25.980 0.937 o
-2 3 6 77.606 62.616 4.712 99.897 o
-2 3 7 203.177 189.344 8.718 31.137 o
-2 3 8 161.576 147.455 8.479 38.691 o
-2 3 9 580.021 572.461 20.431 7.060 o
-2 3 10 4.201 9.532 4.657 342.216 o
-2 3 11 679.761 699.103 25.388 5.166 o
-2 3 12 0.133 10.948 14.191 45.177 o
-2 4 -1 325.329 376.594 7.877 18.519 o
-2 4 0 2651.040 2595.270 20.426 0.867 o
-2 4 1 234.375 241.404 7.936 27.462 o
-2 4 2 1610.220 1624.890 34.819 1.645 o
-2 4 3 128.686 131.116 7.297 49.412 o
-2 4 4 2540.490 2500.080 23.347 0.918 o
-2 4 5 45.123 36.804 3.238 184.718 o
-2 4 6 101.154 102.225 5.909 67.680 o
-2 4 7 40.601 27.476 4.548 170.358 o
-2 4 8 191.315 165.656 10.721 29.355 o
-2 4 9 67.809 56.165 6.939 84.474 o
-2 4 10 1175.740 1233.900 32.161 2.483 o
-2 4 11 67.139 66.610 9.778 57.776 o
-2 4 12 157.730 153.367 28.784 9.296 o
-2 5 -1 3407.560 3461.750 24.827 0.542 o
-2 5 0 213.347 183.761 7.359 32.821 o
-2 5 1 3814.140 3844.150 39.776 0.427 o
-2 5 2 274.610 255.064 9.317 22.753 o
-2 5 3 1235.210 1237.200 34.796 2.284 o
-2 5 4 19.360 13.985 1.800 482.549 o
-2 5 5 456.842 429.917 14.674 10.993 o
-2 5 6 214.307 195.956 10.559 26.768 o
-2 5 7 351.537 335.908 14.620 14.063 o
-2 5 8 207.871 195.409 12.031 24.815 o
-2 5 9 367.908 341.383 16.416 12.584 o
-2 5 10 0.624 -9.524 5.070 354.661 o
-2 5 11 458.507 434.613 41.290 3.959 o
-2 6 -1 22.880 16.297 2.222 389.201 o
-2 6 0 3715.720 3695.030 33.583 0.460 o
-2 6 1 120.032 113.351 6.349 57.599 o
-2 6 2 4230.580 4485.860 65.303 0.315 o
-2 6 3 395.193 374.675 18.526 10.759 o
-2 6 4 11.747 15.523 2.986 448.119 o
-2 6 5 54.557 43.810 5.750 113.886 o
-2 6 6 432.670 399.395 15.515 11.316 o
-2 6 7 4.291 2.034 3.190 693.917 o
-2 6 8 1435.960 1495.110 44.349 1.629 o
-2 6 9 31.942 29.107 5.754 149.955 o
-2 6 10 147.174 116.800 10.567 36.328 o
-2 6 11 159.741 153.688 26.316 10.745 o
-2 7 -1 171.746 139.619 6.674 42.643 o
-2 7 0 153.640 115.984 6.115 49.945 o
-2 7 1 3846.800 3908.270 68.635 0.367 o
-2 7 2 16.503 11.577 2.647 452.698 o
-2 7 3 938.306 972.431 27.384 3.528 o
-2 7 4 152.061 144.343 9.629 36.886 o
-2 7 5 61.917 57.886 6.809 88.725 o
-2 7 6 143.932 133.848 10.327 36.441 o
-2 7 7 1531.760 1586.310 37.291 1.679 o
-2 7 8 132.617 108.540 9.658 41.767 o
-2 7 9 522.980 526.815 22.127 7.294 o
-2 7 10 25.197 9.919 5.330 198.064 o
-2 8 -1 14.655 12.161 2.457 499.752 o
-2 8 0 653.362 663.994 17.923 6.624 o
-2 8 1 196.738 184.662 9.317 30.827 o
-2 8 2 1278.770 1258.910 30.855 2.355 o
-2 8 3 62.479 60.944 6.038 96.577 o
-2 8 4 663.184 663.700 21.641 5.934 o
-2 8 5 166.553 165.567 11.200 30.391 o
-2 8 6 728.394 753.103 25.339 4.831 o
-2 8 7 4.332 3.818 4.845 340.293 o
-2 8 8 628.456 652.095 26.375 5.371 o
-2 8 9 164.529 147.830 15.860 21.953 o
-2 9 -1 677.084 683.033 15.362 6.779 o
-2 9 0 53.712 48.426 5.395 118.219 o
-2 9 1 252.094 260.394 10.260 22.818 o
-2 9 2 0.010 2.769 2.482 1324.460 o
-2 9 3 959.003 974.325 20.883 3.933 o
-2 9 4 1.219 10.531 4.956 325.530 o
-2 9 5 780.235 822.963 29.333 4.047 o
-2 9 6 28.355 23.961 7.708 110.011 o
-2 9 7 278.316 276.396 26.418 8.962 o
-2 9 8 65.459 69.488 10.896 50.533 o
-2 10 -1 31.723 24.098 3.875 220.982 o
-2 10 0 500.240 480.888 20.358 8.181 o
-2 10 1 62.105 60.061 6.391 92.855 o
-2 10 2 57.873 48.221 6.450 98.966 o
-2 10 3 0.948 -1.482 3.114 901.783 o
-2 10 4 1156.930 1228.490 33.382 2.465 o
-2 10 5 0.798 12.603 7.510 152.559 o
-2 10 6 477.375 500.349 31.026 5.568 o
-2 10 7 17.287 23.496 8.755 98.144 o
-2 11 -1 613.810 650.369 20.979 6.412 o
-2 11 0 340.189 330.453 16.799 13.017 o
-2 11 1 104.235 91.710 9.011 51.005 o
-2 11 2 61.651 54.371 7.207 85.288 o
-2 11 3 483.266 492.087 23.316 7.432 o
-2 11 4 0.221 6.480 4.162 477.390 o
-2 11 5 670.772 744.677 27.735 4.773 o
-2 11 6 183.724 187.108 14.436 22.488 o
-2 11 7 75.410 58.852 13.437 37.282 o
-2 12 -1 126.156 96.559 10.803 39.317 o
-2 12 0 445.505 444.842 32.174 5.584 o
-2 12 1 64.102 43.799 7.508 83.366 o
-2 12 2 421.613 460.296 21.597 8.667 o
-2 12 3 163.667 149.962 12.650 28.032 o
-2 12 4 121.248 98.547 13.881 30.008 o
-2 12 5 85.545 85.168 16.006 27.183 o
-2 13 0 2.223 20.637 15.617 36.791 o
-2 13 1 718.967 747.517 44.418 2.868 o
-2 13 2 2.469 -3.465 8.992 112.360 o
-1 0 1 15531.700 16847.800 60.872 0.030 o
-1 0 3 1582.180 1626.930 19.661 1.962 o
-1 0 5 2207.820 2153.980 28.808 1.122 o
-1 0 7 6165.850 6300.300 73.164 0.168 o
-1 0 9 83.526 80.109 8.233 62.258 o
-1 0 11 11.007 7.200 6.168 197.676 o
-1 1 0 8677.140 9151.150 53.443 0.093 o
-1 1 1 574.327 591.156 7.899 9.630 o
-1 1 2 3306.740 3368.830 17.028 0.582 o
-1 1 3 2285.320 2469.310 14.792 1.077 o
-1 1 4 851.459 808.102 10.486 5.600 o
-1 1 5 1680.930 1724.060 16.944 1.824 o
-1 1 6 5579.400 5685.280 35.188 0.219 o
-1 1 7 7.794 6.909 1.653 979.390 o
-1 1 8 1291.050 1301.730 19.202 2.697 o
-1 1 9 108.167 94.252 5.461 69.111 o
-1 1 10 7.243 4.001 2.959 648.669 o
-1 1 11 289.548 267.129 13.168 17.984 o
-1 1 12 499.981 497.563 22.386 7.531 o
-1 2 0 1212.130 1209.000 7.226 3.303 o
-1 2 1 618.213 585.984 7.662 9.081 o
-1 2 2 20.708 21.496 1.367 441.269 o
-1 2 3 3153.300 3194.610 20.206 0.631 o
-1 2 4 409.966 445.999 7.944 14.441 o
-1 2 5 2842.710 2967.140 22.644 0.736 o
-1 2 6 518.932 491.121 10.082 10.881 o
-1 2 7 730.779 685.311 12.939 6.671 o
-1 2 8 5.192 3.381 2.004 1140.610 o
-1 2 9 965.264 979.877 18.123 4.087 o
-1 2 10 130.207 107.204 6.493 55.078 o
-1 2 11 411.201 414.270 16.318 11.202 o
-1 2 12 0.995 -5.338 14.518 43.761 o
-1 3 0 2260.630 2209.840 16.016 1.157 o
-1 3 1 61.441 50.920 2.693 148.131 o
-1 3 2 216.593 186.502 4.421 36.796 o
-1 3 3 217.930 213.836 5.462 33.591 o
-1 3 4 3638.440 3753.930 27.372 0.476 o
-1 3 5 14.695 8.403 1.632 660.119 o
-1 3 6 315.390 310.083 9.077 19.567 o
-1 3 7 45.533 39.759 3.726 169.060 o
-1 3 8 855.183 834.462 20.594 4.630 o
-1 3 9 107.122 86.302 6.062 67.504 o
-1 3 10 1799.960 1918.550 30.130 1.445 o
-1 3 11 43.050 27.026 4.801 159.205 o
-1 3 12 28.086 20.189 9.057 87.806 o
-1 4 0 77.083 68.970 3.914 105.619 o
-1 4 1 128.107 95.245 3.704 69.416 o
-1 4 2 226.517 208.496 5.055 33.446 o
-1 4 3 1368.210 1291.820 14.605 2.672 o
-1 4 4 290.194 258.867 8.027 23.021 o
-1 4 5 1172.770 1171.570 25.256 2.849 o
-1 4 6 153.275 153.962 6.601 44.779 o
-1 4 7 177.608 176.653 7.585 36.912 o
-1 4 8 623.134 639.346 16.396 7.243 o
-1 4 9 1376.380 1414.400 24.543 2.291 o
-1 4 10 1.700 1.931 4.285 463.869 o
-1 4 11 756.881 745.235 24.685 4.807 o
-1 4 12 101.736 113.749 25.370 12.330 o
-1 5 0 252.075 204.408 6.435 29.412 o
-1 5 1 975.397 1013.030 24.320 3.583 o
-1 5 2 2313.470 2299.250 26.482 1.047 o
-1 5 3 549.570 479.952 9.519 10.588 o
-1 5 4 1178.160 1130.380 14.123 3.337 o
-1 5 5 1862.560 1828.610 27.040 1.472 o
-1 5 6 214.734 210.481 7.855 30.552 o
-1 5 7 19.467 18.410 2.961 353.989 o
-1 5 8 688.703 695.908 18.703 6.135 o
-1 5 9 367.137 363.425 14.528 13.438 o
-1 5 10 925.066 959.845 25.038 3.762 o
-1 5 11 286.300 288.931 14.730 16.350 o
-1 5 12 421.498 471.409 38.350 4.450 o
-1 6 0 148.093 125.575 4.365 55.638 o
-1 6 1 5448.840 5528.300 39.353 0.228 o
-1 6 2 464.265 459.174 11.158 11.876 o
-1 6 3 493.559 477.049 10.621 11.316 o
-1 6 4 74.260 53.282 3.432 120.788 o
-1 6 5 265.352 250.300 8.396 24.428 o
-1 6 6 316.751 298.499 13.229 16.499 o
-1 6 7 1886.660 2003.530 30.859 1.342 o
-1 6 8 7.623 5.466 3.135 578.061 o
-1 6 9 150.471 147.079 9.678 36.775 o
-1 6 10 3.215 3.399 4.793 357.220 o
-1 6 11 324.425 333.486 21.577 10.531 o
-1 7 0 2479.870 2463.100 38.427 0.868 o
-1 7 1 128.817 128.916 5.107 58.078 o
-1 7 2 3039.040 3057.040 26.561 0.661 o
-1 7 3 177.310 168.165 6.837 39.210 o
-1 7 4 283.647 274.718 10.164 20.924 o
-1 7 5 28.401 26.592 4.284 210.802 o
-1 7 6 1242.200 1313.340 24.196 2.615 o
-1 7 7 8.893 9.558 3.342 478.103 o
-1 7 8 472.868 452.888 16.463 9.919 o
-1 7 9 198.036 189.302 12.527 24.772 o
-1 7 10 72.860 59.696 6.724 83.134 o
-1 8 0 416.995 414.120 11.429 13.269 o
-1 8 1 1440.580 1457.550 33.815 1.922 o
-1 8 2 445.723 441.578 13.850 11.403 o
-1 8 3 2553.890 2631.700 36.500 0.825 o
-1 8 4 82.947 79.977 5.726 81.775 o
-1 8 5 1101.910 1150.310 27.196 2.929 o
-1 8 6 148.639 134.280 8.272 42.125 o
-1 8 7 147.423 128.174 10.919 34.650 o
-1 8 8 555.583 550.044 18.735 7.760 o
-1 8 9 285.745 275.953 13.865 17.329 o
-1 8 10 12.637 18.494 12.002 58.823 o
-1 9 0 806.759 808.413 22.573 4.697 o
-1 9 1 91.845 74.681 6.727 71.111 o
-1 9 2 897.291 869.651 22.271 4.236 o
-1 9 3 18.193 14.861 3.523 331.680 o
-1 9 4 2068.370 2192.320 37.619 1.105 o
-1 9 5 243.398 216.889 17.008 16.516 o
-1 9 6 334.286 315.662 21.644 10.484 o
-1 9 7 37.815 31.395 11.539 55.639 o
-1 9 8 157.525 148.710 13.320 27.064 o
-1 9 9 28.529 19.895 8.285 100.394 o
-1 10 0 300.321 280.000 13.001 17.529 o
-1 10 1 111.236 96.896 9.453 47.028 o
-1 10 2 16.198 13.600 3.723 333.655 o
-1 10 3 1778.080 1935.490 41.165 1.295 o
-1 10 4 63.910 50.094 6.509 93.473 o
-1 10 5 715.757 735.488 22.862 5.259 o
-1 10 6 11.326 8.487 4.354 326.998 o
-1 10 7 27.226 26.641 8.528 94.840 o
-1 10 8 12.544 4.011 6.867 165.579 o
-1 11 0 175.409 149.282 10.394 32.167 o
-1 11 1 138.603 111.412 10.505 37.853 o
-1 11 2 430.221 423.152 22.176 8.564 o
-1 11 3 191.831 185.317 12.012 26.165 o
-1 11 4 719.758 750.347 23.960 5.056 o
-1 11 5 9.943 -0.766 5.384 264.896 o
-1 11 6 178.732 172.670 16.842 19.432 o
-1 11 7 15.817 23.477 15.584 35.639 o
-1 12 0 238.310 206.496 14.042 20.184 o
-1 12 1 693.032 715.877 44.873 2.895 o
-1 12 2 175.132 160.882 13.603 25.050 o
-1 12 3 37.586 30.347 7.338 106.998 o
-1 12 4 8.400 -1.949 4.249 401.143 o
-1 12 5 108.915 93.666 9.769 46.295 o
-1 13 0 631.489 649.950 25.418 5.520 o
-1 13 1 3.034 -0.424 8.194 134.147 o
-1 13 2 191.613 174.416 14.164 22.846 o
-1 13 3 12.560 16.023 9.313 93.327 o
-1 13 4 12.770 14.705 9.009 99.180 o
0 0 2 710.603 768.594 9.653 6.859 o
0 0 4 450.760 515.844 10.548 11.784 o
0 0 6 5566.470 5768.790 43.499 0.214 o
0 0 8 251.386 238.268 10.595 23.072 o
0 0 10 65.995 55.841 8.606 69.005 o
0 0 12 981.709 1046.740 45.568 2.247 o
0 1 1 11111.500 12608.600 34.001 0.056 o
0 1 2 851.554 817.406 6.635 5.800 o
0 1 3 1029.400 1014.460 8.665 4.240 o
0 1 4 2880.590 2955.760 25.425 0.719 o
0 1 5 1587.290 1497.160 13.677 2.133 o
0 1 6 11.190 8.026 1.400 836.073 o
0 1 7 996.423 981.118 20.117 3.845 o
0 1 8 314.191 300.856 8.430 20.320 o
0 1 9 313.069 284.012 8.944 20.372 o
0 1 10 227.013 218.558 10.254 25.603 o
0 1 11 716.546 751.168 22.442 5.272 o
0 1 12 49.919 38.592 6.159 113.813 o
0 2 0 1538.650 1629.050 10.465 2.146 o
0 2 1 1192.350 1131.340 8.995 3.441 o
0 2 2 5263.360 5566.430 22.118 0.243 o
0 2 3 2093.090 2226.050 16.166 1.255 o
0 2 4 2024.930 1997.080 14.538 1.394 o
0 2 5 1734.250 1772.750 15.125 1.758 o
0 2 6 524.097 462.401 8.537 11.437 o
0 2 7 1317.230 1278.420 18.157 2.698 o
0 2 8 1664.260 1706.040 22.531 1.775 o
0 2 9 55.401 45.785 4.422 134.181 o
0 2 10 734.778 729.793 18.211 5.798 o
0 2 11 228.157 202.266 11.820 23.757 o
0 2 12 96.247 73.471 8.316 59.021 o
0 3 1 1139.930 1112.510 9.661 3.619 o
0 3 2 2678.330 2912.730 18.970 0.806 o
0 3 3 5222.980 5419.170 27.053 0.248 o
0 3 4 407.166 356.395 7.697 15.973 o
0 3 5 282.596 258.857 7.185 24.260 o
0 3 6 176.303 141.537 5.795 43.926 o
0 3 7 1497.620 1470.670 19.709 2.182 o
0 3 8 1.034 4.976 2.699 987.004 o
0 3 9 2816.340 3000.550 34.877 0.700 o
0 3 10 36.367 33.050 4.506 174.568 o
0 3 11 16.033 20.104 4.854 235.221 o
0 3 12 47.708 31.859 5.716 127.862 o
0 4 0 1281.840 1456.610 18.505 2.583 o
0 4 1 1428.480 1428.500 14.241 2.435 o
0 4 2 2928.840 2975.580 20.909 0.714 o
0 4 3 165.918 149.444 4.925 47.227 o
0 4 4 4284.800 4355.410 28.330 0.358 o
0 4 5 227.825 222.469 6.970 30.099 o
0 4 6 229.971 237.085 7.819 28.136 o
0 4 7 144.957 141.167 6.796 46.918 o
0 4 8 2272.840 2340.360 29.165 1.039 o
0 4 9 30.899 33.161 4.217 196.853 o
0 4 10 1093.930 1161.150 25.572 3.016 o
0 4 11 19.409 16.706 5.486 197.250 o
0 5 1 433.390 374.252 6.904 15.169 o
0 5 2 2221.880 2284.870 29.346 1.076 o
0 5 3 1132.750 1071.220 13.899 3.569 o
0 5 4 1407.730 1391.060 16.845 2.452 o
0 5 5 3097.750 3240.130 39.968 0.590 o
0 5 6 78.297 71.851 4.872 94.520 o
0 5 7 1269.040 1328.250 29.482 2.367 o
0 5 8 311.127 288.452 10.669 18.948 o
0 5 9 320.221 320.038 12.789 16.388 o
0 5 10 108.242 103.478 13.987 30.509 o
0 5 11 672.532 694.346 28.057 4.824 o
0 6 0 3515.850 3541.570 34.783 0.500 o
0 6 1 329.448 341.095 7.159 19.530 o
0 6 2 307.953 287.235 7.447 21.722 o
0 6 3 40.808 33.480 2.446 221.955 o
0 6 4 925.874 953.139 14.927 4.513 o
0 6 5 959.425 928.690 15.470 4.385 o
0 6 6 3602.930 3919.770 38.039 0.453 o
0 6 7 37.979 33.616 3.909 188.072 o
0 6 8 85.972 75.320 5.902 79.971 o
0 6 9 35.156 31.255 4.945 165.849 o
0 6 10 252.780 256.628 14.849 17.807 o
0 6 11 3.122 10.292 6.335 205.292 o
0 7 1 1688.170 1702.510 29.747 1.635 o
0 7 2 1532.760 1515.460 15.954 2.166 o
0 7 3 349.312 334.658 8.029 18.307 o
0 7 4 97.287 85.126 4.856 79.629 o
0 7 5 2507.750 2682.270 38.910 0.818 o
0 7 6 1.942 4.286 2.838 882.626 o
0 7 7 645.886 647.026 18.054 6.723 o
0 7 8 229.191 206.807 11.434 24.122 o
0 7 9 6.173 9.101 3.902 427.734 o
0 7 10 141.884 120.204 9.964 38.643 o
0 7 11 728.746 865.711 48.762 2.467 o
0 8 0 880.199 901.594 19.513 4.476 o
0 8 1 807.843 795.675 15.070 5.515 o
0 8 2 1370.280 1353.210 26.100 2.303 o
0 8 3 34.761 22.498 2.890 252.609 o
0 8 4 1606.150 1678.000 29.750 1.724 o
0 8 5 226.656 218.330 8.470 28.249 o
0 8 6 468.931 466.430 15.309 10.283 o
0 8 7 334.083 326.273 14.931 14.402 o
0 8 8 74.360 64.588 7.104 77.552 o
0 8 9 35.242 25.930 6.145 137.161 o
0 8 10 186.954 184.168 12.834 25.057 o
0 9 1 553.444 546.053 16.799 8.279 o
0 9 2 177.360 158.132 8.184 36.721 o
0 9 3 3161.470 3404.690 73.563 0.456 o
0 9 4 114.232 113.257 8.241 50.349 o
0 9 5 112.728 101.023 8.761 49.529 o
0 9 6 1.109 4.276 3.352 702.718 o
0 9 7 56.433 45.893 6.004 107.356 o
0 9 8 23.391 20.485 6.822 138.076 o
0 9 9 688.942 780.676 29.465 4.410 o
0 10 0 180.251 138.420 13.075 26.429 o
0 10 1 0.072 -4.910 5.130 350.815 o
0 10 2 1467.090 1563.120 32.090 1.878 o
0 10 3 9.831 6.463 3.276 498.857 o
0 10 4 772.711 814.859 24.263 4.641 o
0 10 5 49.679 39.630 5.467 125.994 o
0 10 6 15.903 21.290 7.758 121.326 o
0 10 7 126.229 96.209 20.054 17.766 o
0 10 8 559.756 570.109 26.843 5.847 o
0 11 1 368.134 352.198 15.652 12.902 o
0 11 2 337.887 339.784 15.293 13.913 o
0 11 3 722.827 759.333 23.031 5.142 o
0 11 4 168.939 150.884 10.984 31.314 o
0 11 5 299.285 284.420 19.876 12.253 o
0 11 6 84.070 73.062 11.115 45.743 o
0 11 7 167.935 175.661 25.335 11.194 o
0 12 0 1059.140 1120.850 86.199 0.952 o
0 12 1 117.674 94.634 20.922 16.846 o
0 12 2 106.565 89.129 8.869 51.508 o
0 12 3 1.887 -1.231 4.362 459.153 o
0 12 4 86.891 65.718 10.842 47.285 o
0 12 5 15.242 10.428 8.131 117.946 o
0 12 6 707.193 740.384 68.419 1.566 o
0 13 1 599.658 611.936 36.940 3.994 o
0 13 2 27.605 21.131 10.212 72.493 o
0 13 3 40.205 20.998 7.955 97.820 o
0 13 4 15.254 -7.166 21.313 19.959 o
1 0 1 1902.670 2054.530 14.682 1.467 o
1 0 3 907.957 888.436 10.608 5.028 o
1 0 5 1137.070 1044.190 17.114 3.464 o
1 0 7 59.701 54.543 4.594 121.153 o
1 0 9 1005.340 1021.800 29.220 3.171 o
1 0 11 1725.510 1856.680 45.408 1.284 o
1 1 1 1610.750 1642.830 16.902 1.958 o
1 1 2 2073.230 2126.520 12.101 1.323 o
1 1 3 1381.640 1462.820 8.580 2.578 o
1 1 4 799.914 750.931 8.136 6.327 o
1 1 5 184.592 170.757 4.490 42.685 o
1 1 6 650.559 595.020 9.146 8.408 o
1 1 7 877.959 822.465 12.108 5.280 o
1 1 8 371.203 352.707 9.687 16.239 o
1 1 9 0.324 5.721 2.480 1150.860 o
1 1 10 1282.390 1337.300 25.469 2.478 o
1 1 11 2.955 2.249 3.966 509.552 o
1 1 12 636.023 628.237 21.085 6.317 o
1 2 1 5312.030 5567.750 28.097 0.238 o
1 2 2 5023.360 5436.890 16.666 0.262 o
1 2 3 4618.690 4770.350 21.816 0.313 o
1 2 4 1384.220 1397.410 13.723 2.554 o
1 2 5 437.588 399.702 8.132 14.251 o
1 2 6 1651.350 1601.740 17.678 1.922 o
1 2 7 786.125 772.098 13.292 5.904 o
1 2 8 74.743 59.414 4.233 108.585 o
1 2 9 1159.120 1177.150 21.314 3.046 o
1 2 10 82.914 75.853 6.272 78.273 o
1 2 11 413.428 398.950 17.718 10.671 o
1 2 12 155.725 145.254 12.759 28.528 o
1 3 1 38.216 35.745 1.803 243.431 o
1 3 2 9226.330 9768.090 46.064 0.083 o
1 3 3 1296.550 1345.130 13.635 2.788 o
1 3 4 868.520 798.042 10.805 5.502 o
1 3 5 90.764 83.437 3.951 89.965 o
1 3 6 819.199 827.919 13.113 5.531 o
1 3 7 602.730 567.102 11.659 8.740 o
1 3 8 2843.710 3006.870 28.506 0.713 o
1 3 9 76.241 62.345 6.935 78.762 o
1 3 10 147.177 130.888 8.370 42.303 o
1 3 11 23.988 20.593 4.920 205.246 o
1 3 12 64.496 59.439 10.254 55.944 o
1 4 1 3913.120 3994.190 24.433 0.424 o
1 4 2 0.017 2.173 0.813 7037.080 o
1 4 3 3810.670 3876.240 21.934 0.448 o
1 4 4 0.642 2.621 1.361 3075.430 o
1 4 5 1336.580 1345.870 17.793 2.603 o
1 4 6 160.184 152.308 5.948 45.476 o
1 4 7 2607.080 2741.350 28.418 0.827 o
1 4 8 186.753 170.571 7.670 35.969 o
1 4 9 574.831 588.582 18.884 7.378 o
1 4 10 94.858 88.981 7.949 59.520 o
1 4 11 14.354 10.238 4.707 273.209 o
1 4 12 147.325 160.314 25.336 11.524 o
1 5 1 585.824 564.481 9.808 9.328 o
1 5 2 1529.190 1499.890 14.794 2.201 o
1 5 3 231.946 235.984 6.010 30.319 o
1 5 4 5003.110 5179.050 35.164 0.264 o
1 5 5 4.774 9.614 1.950 972.509 o
1 5 6 1662.740 1710.650 22.009 1.782 o
1 5 7 222.444 208.485 8.253 29.332 o
1 5 8 419.528 410.836 13.989 12.119 o
1 5 9 142.833 127.194 7.633 45.816 o
1 5 10 435.934 459.266 22.189 8.329 o
1 5 11 16.744 15.177 4.581 259.357 o
1 6 1 395.443 352.153 9.248 15.703 o
1 6 2 71.144 65.808 3.835 113.227 o
1 6 3 280.025 276.270 7.153 23.899 o
1 6 4 41.911 34.540 2.797 207.499 o
1 6 5 4374.690 4701.090 31.130 0.332 o
1 6 6 137.808 122.470 6.254 52.301 o
1 6 7 834.598 843.687 18.034 4.949 o
1 6 8 4.723 8.216 3.348 561.559 o
1 6 9 89.913 76.302 6.653 72.108 o
1 6 10 0.006 -3.334 4.527 451.228 o
1 6 11 411.656 407.104 27.857 6.946 o
1 7 1 607.299 566.549 12.561 8.513 o
1 7 2 13.867 10.082 2.019 599.359 o
1 7 3 2.880 4.844 1.794 1452.620 o
1 7 4 1567.420 1662.130 34.344 1.677 o
1 7 5 0.003 4.145 1.673 2297.370 o
1 7 6 1900.870 2066.890 27.591 1.347 o
1 7 7 7.122 5.651 2.449 775.517 o
1 7 8 38.602 32.842 4.566 168.466 o
1 7 9 112.133 107.949 8.828 48.657 o
1 7 10 365.969 378.856 16.369 12.288 o
1 8 1 321.450 292.897 9.664 19.230 o
1 8 2 84.906 62.920 4.346 97.847 o
1 8 3 590.852 574.898 12.582 8.654 o
1 8 4 211.369 192.078 7.482 32.385 o
1 8 5 866.802 916.088 18.510 4.587 o
1 8 6 137.440 130.551 7.443 47.178 o
1 8 7 229.096 226.937 12.141 22.593 o
1 8 8 29.147 24.046 4.744 193.911 o
1 8 9 245.526 240.408 12.875 20.564 o
1 8 10 141.384 128.703 11.661 33.146 o
1 9 1 53.727 44.306 4.061 143.945 o
1 9 2 1060.060 1099.980 21.523 3.388 o
1 9 3 35.989 31.104 3.508 209.666 o
1 9 4 24.970 13.198 2.621 355.312 o
1 9 5 14.964 11.485 4.010 324.142 o
1 9 6 363.316 366.126 15.627 12.871 o
1 9 7 37.829 34.980 5.136 152.570 o
1 9 8 812.996 920.617 33.325 3.444 o
1 9 9 120.435 97.089 9.852 43.751 o
1 10 1 822.673 836.196 22.127 4.615 o
1 10 2 3.505 0.360 2.604 1031.590 o
1 10 3 856.736 873.829 25.263 4.107 o
1 10 4 47.837 42.225 6.969 100.837 o
1 10 5 9.264 9.480 7.609 139.559 o
1 10 6 22.458 6.402 8.403 107.414 o
1 10 7 498.935 565.253 31.295 5.281 o
1 10 8 0.072 3.801 4.631 408.994 o
1 11 1 414.436 403.046 16.007 11.380 o
1 11 2 842.475 871.048 28.483 3.861 o
1 11 3 198.635 192.868 11.602 26.190 o
1 11 4 444.768 418.941 22.805 8.229 o
1 11 5 0.001 2.693 5.256 325.455 o
1 11 6 106.265 106.127 12.731 34.369 o
1 11 7 66.301 -27.550 24.829 14.059 o
1 12 1 353.993 327.907 23.188 9.439 o
1 12 2 108.311 96.689 8.892 50.241 o
1 12 3 261.612 238.002 21.411 12.220 o
1 12 4 205.042 181.950 16.607 18.677 o
1 12 5 513.126 487.172 38.822 4.120 o
1 12 6 12.006 30.051 20.705 20.782 o
1 13 1 0.001 -6.370 8.482 128.543 o
1 13 2 86.649 57.722 25.361 12.877 o
1 13 3 0.924 -13.995 16.868 32.443 o
2 0 2 108.133 87.299 4.844 74.082 o
2 0 4 2845.450 2821.720 22.622 0.757 o
2 0 6 1655.200 1603.790 28.056 1.744 o
2 0 8 289.346 277.309 13.894 17.162 o
2 0 10 1515.170 1649.510 42.301 1.554 o
2 0 12 510.602 521.033 26.212 6.403 o
2 1 2 201.570 209.086 5.161 36.259 o
2 1 3 3507.610 3580.580 19.783 0.521 o
2 1 4 103.281 90.024 3.474 83.431 o
2 1 5 3168.340 3151.610 39.646 0.586 o
2 1 6 500.507 457.806 9.172 11.780 o
2 1 7 122.472 117.542 6.043 57.700 o
2 1 8 4.832 4.181 2.267 999.401 o
2 1 9 1034.400 1068.810 20.654 3.554 o
2 1 10 20.511 20.027 4.292 250.431 o
2 1 11 1367.510 1475.880 28.995 2.134 o
2 1 12 38.282 30.444 6.347 126.083 o
2 2 2 4304.840 4245.310 36.766 0.354 o
2 2 3 73.406 58.804 2.738 125.641 o
2 2 4 2064.150 2074.420 17.084 1.320 o
2 2 5 99.156 92.545 4.011 82.024 o
2 2 6 783.580 770.782 14.516 5.799 o
2 2 7 420.046 397.152 10.352 13.868 o
2 2 8 905.207 944.125 18.271 4.383 o
2 2 9 91.420 85.716 6.218 72.729 o
2 2 10 483.965 472.562 14.944 10.140 o
2 2 11 2.330 7.230 3.713 534.028 o
2 2 12 358.393 334.707 21.058 10.341 o
2 3 2 17.389 19.324 1.329 510.357 o
2 3 3 2415.130 2385.020 17.256 1.024 o
2 3 4 3.267 7.452 1.413 1502.880 o
2 3 5 248.980 244.673 6.746 27.618 o
2 3 6 157.890 124.768 5.356 50.409 o
2 3 7 2295.280 2425.060 24.238 1.039 o
2 3 8 0.195 3.752 2.461 1270.280 o
2 3 9 343.518 336.900 11.906 16.021 o
2 3 10 1.562 3.412 3.007 842.332 o
2 3 11 10.272 8.788 4.540 314.695 o
2 4 2 5975.380 6161.160 26.870 0.194 o
2 4 3 598.815 578.956 7.490 9.424 o
2 4 4 1089.210 1071.970 11.957 3.785 o
2 4 5 493.994 484.685 9.940 11.432 o
2 4 6 676.343 703.886 12.732 7.080 o
2 4 7 51.745 43.814 3.564 156.819 o
2 4 8 929.652 963.800 16.869 4.343 o
2 4 9 482.503 474.582 14.421 10.320 o
2 4 10 63.637 66.766 8.191 71.584 o
2 4 11 27.241 29.000 5.759 157.528 o
2 5 2 193.380 204.521 5.396 37.268 o
2 5 3 1336.560 1367.650 19.330 2.542 o
2 5 4 2.040 1.302 1.055 3417.590 o
2 5 5 1263.210 1305.920 16.703 2.825 o
2 5 6 811.088 810.142 14.019 5.553 o
2 5 7 741.763 749.350 15.990 5.975 o
2 5 8 96.629 87.258 6.013 71.682 o
2 5 9 175.835 174.238 11.304 29.062 o
2 5 10 89.292 78.719 7.699 64.360 o
2 5 11 169.188 144.572 14.212 24.712 o
2 6 2 218.786 228.627 7.034 30.563 o
2 6 3 1.833 2.567 1.452 2339.400 o
2 6 4 1486.320 1532.990 16.869 2.207 o
2 6 5 135.448 131.732 6.414 51.194 o
2 6 6 1199.850 1218.440 21.640 2.892 o
2 6 7 111.130 100.060 6.299 62.452 o
2 6 8 159.388 155.936 8.711 37.791 o
2 6 9 20.017 18.200 4.914 221.354 o
2 6 10 490.590 504.447 23.527 7.269 o
2 6 11 1.610 -0.591 8.054 140.520 o
2 7 2 36.736 29.962 2.768 233.659 o
2 7 3 318.715 325.272 9.945 18.464 o
2 7 4 357.186 306.817 9.666 17.535 o
2 7 5 1704.590 1772.600 28.221 1.613 o
2 7 6 44.213 35.693 4.256 163.010 o
2 7 7 332.651 313.872 16.213 13.726 o
2 7 8 1.868 3.787 3.325 696.138 o
2 7 9 481.240 505.759 20.822 8.107 o
2 7 10 2.673 3.310 5.780 257.128 o
2 8 2 192.555 157.490 6.462 38.630 o
2 8 3 586.177 570.381 13.096 8.630 o
2 8 4 561.188 578.073 16.838 8.023 o
2 8 5 88.143 90.646 7.505 64.121 o
2 8 6 637.964 642.581 17.803 6.847 o
2 8 7 30.712 22.708 3.886 226.370 o
2 8 8 622.110 676.936 19.802 6.477 o
2 8 9 298.423 320.959 17.205 13.721 o
2 8 10 366.588 337.090 35.984 5.266 o
2 9 2 237.467 218.911 8.403 27.470 o
2 9 3 325.028 308.181 11.799 17.165 o
2 9 4 1.535 3.578 2.988 848.487 o
2 9 5 118.646 108.946 7.759 52.044 o
2 9 6 270.852 258.581 11.615 20.435 o
2 9 7 1022.520 1179.820 25.950 3.140 o
2 9 8 102.464 101.973 8.547 52.648 o
2 9 9 518.697 487.677 24.259 6.932 o
2 10 2 1031.240 1073.610 20.332 3.574 o
2 10 3 50.687 45.572 5.006 129.866 o
2 10 4 10.322 4.511 3.609 450.328 o
2 10 5 26.626 21.075 4.536 213.909 o
2 10 6 494.899 549.616 22.953 7.213 o
2 10 7 0.010 11.140 5.615 265.428 o
2 10 8 877.846 1015.690 36.686 2.946 o
2 11 2 0.061 5.853 4.293 457.958 o
2 11 3 519.704 541.589 25.091 6.542 o
2 11 4 248.480 240.886 19.894 13.545 o
2 11 5 216.043 220.443 20.076 14.232 o
2 11 6 3.907 -8.245 15.778 36.810 o
2 12 2 265.686 249.515 23.206 10.925 o
2 12 3 183.649 186.284 18.809 16.628 o
2 12 4 535.919 570.658 33.580 4.731 o
3 0 3 5881.540 5925.940 32.546 0.201 o
3 0 5 5397.320 5389.990 65.650 0.219 o
3 0 7 84.787 80.006 7.478 67.230 o
3 0 9 1261.260 1354.780 32.810 2.240 o
3 0 11 367.094 389.070 21.676 9.616 o
3 1 3 9.238 4.686 0.735 1241.150 o
3 1 4 5839.000 5974.090 44.354 0.198 o
3 1 5 339.685 310.728 7.296 19.673 o
3 1 6 1197.650 1224.590 18.664 3.003 o
3 1 7 151.318 136.354 6.776 46.229 o
3 1 8 502.800 491.354 13.376 10.214 o
3 1 9 104.793 93.442 6.360 65.303 o
3 1 10 664.635 708.538 17.993 6.367 o
3 1 11 114.255 106.349 8.140 51.546 o
3 2 3 1760.210 1758.190 18.717 1.699 o
3 2 4 553.335 547.413 9.396 10.009 o
3 2 5 1665.130 1654.060 17.496 1.876 o
3 2 6 302.717 289.833 9.169 20.541 o
3 2 7 1174.150 1198.200 19.679 3.052 o
3 2 8 1331.380 1345.000 22.157 2.491 o
3 2 9 189.006 173.634 9.009 32.709 o
3 2 10 5.798 9.100 5.216 277.100 o
3 2 11 331.525 314.861 13.769 15.419 o
3 3 3 669.940 651.938 9.862 7.778 o
3 3 4 14.698 9.536 1.563 654.100 o
3 3 5 15.035 11.097 1.883 580.746 o
3 3 6 2071.930 2181.540 29.922 1.180 o
3 3 7 234.021 204.383 8.384 28.342 o
3 3 8 730.176 765.666 17.382 5.823 o
3 3 9 11.815 8.670 3.845 378.078 o
3 3 10 5.720 9.143 4.156 395.132 o
3 3 11 5.690 -1.997 4.659 368.750 o
3 4 3 111.291 88.275 3.093 81.362 o
3 4 4 3.678 5.805 1.563 1455.520 o
3 4 5 144.567 141.401 5.567 50.898 o
3 4 6 593.879 588.508 11.944 8.662 o
3 4 7 1609.460 1673.660 27.794 1.760 o
3 4 8 158.871 146.922 9.023 37.581 o
3 4 9 69.797 65.330 6.766 82.837 o
3 4 10 0.978 2.049 3.750 606.580 o
3 4 11 229.080 246.850 22.200 12.103 o
3 5 3 704.813 646.173 12.345 7.137 o
3 5 4 1016.120 1039.290 22.274 3.557 o
3 5 5 668.679 631.436 13.680 7.337 o
3 5 6 94.496 85.963 5.303 77.755 o
3 5 7 2.290 0.111 3.234 780.698 o
3 5 8 255.768 228.723 11.643 21.824 o
3 5 9 154.152 147.817 9.970 35.497 o
3 5 10 776.392 831.120 24.701 4.544 o
3 5 11 74.561 64.109 19.167 21.206 o
3 6 3 1146.460 1194.320 26.578 2.820 o
3 6 4 48.343 46.845 3.853 154.486 o
3 6 5 523.943 505.177 12.804 9.958 o
3 6 6 81.554 67.397 5.136 91.369 o
3 6 7 56.631 43.732 4.751 128.310 o
3 6 8 121.397 105.463 8.216 49.781 o
3 6 9 1119.380 1224.740 29.110 2.726 o
3 6 10 5.861 0.382 5.188 303.131 o
3 7 3 558.570 530.662 14.090 8.981 o
3 7 4 1584.000 1618.250 25.687 1.857 o
3 7 5 84.193 71.634 5.269 87.258 o
3 7 6 105.788 97.188 6.596 62.988 o
3 7 7 4.439 4.834 3.116 670.974 o
3 7 8 489.007 532.917 25.220 6.741 o
3 7 9 8.788 9.461 6.787 170.823 o
3 8 3 1168.910 1254.120 25.664 2.755 o
3 8 4 0.327 2.761 3.701 628.878 o
3 8 5 480.733 516.554 17.478 9.074 o
3 8 6 264.669 250.274 15.581 16.809 o
3 8 7 391.765 432.006 17.995 10.626 o
3 8 8 162.953 156.226 14.074 24.995 o
3 8 9 507.402 487.286 32.197 5.235 o
3 9 3 154.375 145.689 9.384 37.215 o
3 9 4 8.156 10.806 3.926 393.255 o
3 9 5 227.573 225.430 12.062 22.817 o
3 9 6 1257.180 1471.220 32.995 2.160 o
3 9 7 0.267 -0.676 5.728 280.531 o
3 9 8 711.626 756.217 35.992 3.638 o
3 10 3 114.258 98.144 8.212 52.107 o
3 10 4 0.183 1.623 4.414 460.831 o
3 10 5 338.439 352.764 18.162 12.034 o
3 10 6 7.560 1.190 5.723 245.925 o
3 10 7 925.127 1034.570 32.015 3.153 o
3 11 3 216.900 189.838 14.442 20.917 o
3 11 4 351.670 356.080 24.520 8.753 o
3 11 5 178.815 174.137 17.681 18.293 o
3 12 3 379.816 314.845 30.892 6.521 o
4 0 4 1856.690 1884.260 41.704 1.255 o
4 0 6 392.164 400.036 16.234 11.686 o
4 0 8 1439.500 1527.780 34.875 1.857 o
4 0 10 35.029 34.419 7.053 112.792 o
4 1 4 351.717 319.717 9.127 17.841 o
4 1 5 1185.050 1177.850 18.492 3.096 o
4 1 6 100.129 94.971 5.767 70.311 o
4 1 7 460.008 460.322 12.850 11.353 o
4 1 8 271.664 240.241 10.058 22.527 o
4 1 9 531.224 551.968 15.688 8.777 o
4 1 10 120.290 113.298 7.715 51.390 o
4 1 11 50.034 47.645 8.824 74.422 o
4 2 4 990.860 993.389 13.851 4.216 o
4 2 5 208.552 189.304 7.475 32.833 o
4 2 6 1492.900 1548.300 26.570 1.988 o
4 2 7 1042.320 1073.870 19.509 3.586 o
4 2 8 277.663 275.136 10.649 20.726 o
4 2 9 0.389 3.765 2.994 897.198 o
4 2 10 219.350 198.543 11.006 25.625 o
4 2 11 106.596 93.583 32.654 7.913 o
4 3 4 93.547 83.796 4.138 86.870 o
4 3 5 1806.850 1834.590 31.163 1.457 o
4 3 6 11.580 8.710 2.289 625.596 o
4 3 7 1348.200 1424.650 26.085 2.282 o
4 3 8 255.086 234.274 11.178 22.275 o
4 3 9 24.211 10.287 4.074 269.015 o
4 3 10 0.013 -3.383 4.573 442.033 o
4 4 4 386.544 356.815 10.880 15.059 o
4 4 5 188.443 175.105 8.021 34.758 o
4 4 6 1261.990 1318.340 30.748 2.339 o
4 4 7 54.296 49.694 6.033 107.120 o
4 4 8 158.110 158.056 12.020 29.536 o
4 4 9 20.376 19.211 5.429 194.127 o
4 4 10 503.686 493.753 45.284 3.327 o
4 5 4 170.661 157.947 7.681 38.838 o
4 5 5 130.961 117.373 7.238 50.619 o
4 5 6 70.431 60.171 6.667 84.871 o
4 5 7 407.778 406.137 17.222 10.921 o
4 5 8 79.763 65.482 7.689 70.051 o
4 5 9 714.560 738.408 28.475 4.518 o
4 6 4 821.144 848.477 20.927 4.717 o
4 6 5 37.613 30.580 3.995 190.145 o
4 6 6 8.893 7.472 3.648 443.595 o
4 6 7 117.443 110.676 9.598 44.172 o
4 6 8 873.016 923.564 27.448 3.781 o
4 6 9 16.965 17.884 9.458 88.004 o
4 7 4 145.697 138.587 9.263 39.139 o
4 7 5 89.720 81.659 7.404 65.771 o
4 7 6 3.305 3.057 4.024 485.253 o
4 7 7 122.185 114.962 13.119 31.389 o
4 7 8 11.192 14.140 4.977 258.875 o
4 7 9 758.895 689.223 53.866 2.217 o
4 8 4 785.516 852.092 23.169 4.630 o
4 8 5 267.025 259.527 13.479 18.645 o
4 8 6 162.729 165.414 10.994 31.196 o
4 8 7 82.460 62.596 9.697 55.109 o
4 9 4 46.603 39.289 5.595 127.250 o
4 9 5 929.044 1060.310 37.158 2.783 o
4 9 6 0.222 0.388 4.762 403.410 o
4 9 7 221.421 159.976 26.434 10.021 o
4 10 4 158.984 147.642 16.459 21.214 o
4 10 5 156.399 159.256 11.525 30.772 o
4 10 6 786.009 921.234 47.883 2.422 o
4 11 4 326.621 311.620 40.229 4.575 o
5 0 5 34.153 30.563 6.877 118.959 o
5 0 7 613.454 647.948 29.148 5.001 o
5 0 9 454.657 462.199 24.836 7.336 o
5 1 5 11.426 14.215 3.883 352.968 o
5 1 6 167.640 164.932 8.643 36.378 o
5 1 7 93.895 84.703 7.287 64.662 o
5 1 8 830.930 865.914 21.344 4.595 o
5 1 9 127.034 120.323 9.234 43.287 o
5 2 5 733.239 745.240 17.877 5.804 o
5 2 6 8.393 1.513 2.864 677.378 o
5 2 7 390.575 405.976 13.938 12.778 o
5 2 8 27.754 20.993 8.107 103.843 o
5 2 9 265.396 259.563 14.146 18.033 o
5 2 10 58.092 33.330 15.955 30.668 o
5 3 5 4.657 1.239 2.831 829.555 o
5 3 6 1444.000 1490.810 29.931 2.001 o
5 3 7 13.161 9.118 3.839 364.612 o
5 3 8 116.890 116.451 9.533 44.059 o
5 3 9 13.005 8.500 9.402 93.667 o
5 4 5 1358.070 1409.690 28.662 2.202 o
5 4 6 102.162 90.624 7.882 57.696 o
5 4 7 539.349 539.631 24.905 6.465 o
5 4 8 17.519 10.959 4.561 266.806 o
5 4 9 202.471 199.858 19.491 15.288 o
5 5 5 34.052 21.856 4.691 186.424 o
5 5 6 446.214 423.108 16.911 10.343 o
5 5 7 174.377 164.659 11.832 28.447 o
5 5 8 244.261 227.342 14.419 19.093 o
5 5 9 166.569 151.323 65.343 2.082 o
5 6 5 184.124 158.850 13.058 25.586 o
5 6 6 52.326 48.608 8.361 78.272 o
5 6 7 466.583 490.872 23.302 7.575 o
5 6 8 1.721 -1.584 12.088 62.855 o
5 7 5 9.029 4.203 5.173 276.954 o
5 7 6 82.612 72.705 9.950 52.407 o
5 7 7 1.028 -2.198 7.040 184.359 o
5 8 5 208.617 187.943 15.153 20.332 o
5 8 6 89.680 92.841 11.821 40.289 o
5 9 5 0.068 -3.526 11.461 70.388 o
6 0 6 126.524 155.192 14.259 26.802 o
6 0 8 1325.740 1538.770 49.646 1.560 o
6 1 6 69.996 65.167 7.261 77.927 o
6 1 7 435.372 474.821 20.391 8.867 o
6 1 8 113.718 129.723 16.143 24.193 o
6 2 6 260.239 244.731 14.908 17.697 o
6 2 7 14.641 7.065 5.793 208.014 o
6 2 8 158.978 130.843 15.482 23.247 o
6 3 6 36.940 20.716 5.474 156.638 o
6 3 7 109.064 102.181 10.121 44.023 o
6 3 8 56.610 58.785 17.865 24.747 o
6 4 6 539.462 543.521 32.758 4.903 o
6 4 7 173.333 141.633 13.927 25.100 o
6 5 6 216.310 199.738 19.097 15.357 o
6 6 6 371.989 379.632 44.384 3.756 o
6 7 6 182.069 204.191 35.088 6.422 o
;
_olex2_submission_special_instructions 'No special instructions were received'
_oxdiff_exptl_absorpt_empirical_details
;
Empirical correction (ABSPACK) includes:
- Absorption correction using spherical harmonics
- Frame scaling
;
_oxdiff_exptl_absorpt_empirical_full_max 2.203
_oxdiff_exptl_absorpt_empirical_full_min 0.520
loop_
_space_group_symop_id
_space_group_symop_operation_xyz
1 x,y,z
2 -x+1/2,y+1/2,-z+1/2
3 -x,-y,-z
4 x-1/2,-y-1/2,z-1/2
loop_
_atom_site_label
_atom_site_type_symbol
_atom_site_fract_x
_atom_site_fract_y
_atom_site_fract_z
_atom_site_U_iso_or_equiv
_atom_site_adp_type
_atom_site_occupancy
_atom_site_site_symmetry_order
_atom_site_refinement_flags_posn
_atom_site_refinement_flags_adp
_atom_site_refinement_flags_occupancy
Ge1 Ge 0.5 0.5 0.5 0.01322(11) Uani 1.000000 2 S T P
P1 P 0.62179(10) 0.34552(6) 0.66997(6) 0.01480(14) Uani 1.000000 1 . . .
F1 F 0.2894(2) 0.38709(14) 0.43680(14) 0.0196(3) Uani 1.000000 1 . . .
F2 F 0.3133(2) 0.57283(14) 0.62246(14) 0.0197(3) Uani 1.000000 1 . . .
C3 C 0.9150(4) 0.3331(2) 0.6765(3) 0.0191(5) Uani 1.000000 1 . . .
H3a H 0.9765(4) 0.4170(5) 0.7007(18) 0.0286(7) Uiso 1.000000 1 GR . .
H3b H 0.9583(4) 0.2691(13) 0.7454(13) 0.0286(7) Uiso 1.000000 1 GR . .
H3c H 0.9660(4) 0.3064(17) 0.5867(6) 0.0286(7) Uiso 1.000000 1 GR . .
C2 C 0.5371(4) 0.3885(3) 0.8436(2) 0.0240(5) Uani 1.000000 1 . . .
H2a H 0.603(3) 0.3294(13) 0.9102(3) 0.0360(8) Uiso 1.000000 1 GR . .
H2b H 0.581(3) 0.4770(7) 0.8646(8) 0.0360(8) Uiso 1.000000 1 GR . .
H2c H 0.3816(5) 0.382(2) 0.8484(7) 0.0360(8) Uiso 1.000000 1 GR . .
C1 C 0.5191(4) 0.1819(2) 0.6381(3) 0.0231(5) Uani 1.000000 1 . . .
H1a H 0.577(3) 0.1232(4) 0.7080(12) 0.0346(8) Uiso 1.000000 1 GR . .
H1b H 0.3632(5) 0.1826(4) 0.642(2) 0.0346(8) Uiso 1.000000 1 GR . .
H1c H 0.563(3) 0.1529(8) 0.5475(9) 0.0346(8) Uiso 1.000000 1 GR . .
loop_
_atom_site_aniso_label
_atom_site_aniso_U_11
_atom_site_aniso_U_22
_atom_site_aniso_U_33
_atom_site_aniso_U_12
_atom_site_aniso_U_13
_atom_site_aniso_U_23
Ge1 0.01299(18) 0.01438(18) 0.01235(17) 0.00009(12) 0.00145(12) 0.00028(12)
P1 0.0144(3) 0.0163(3) 0.0138(3) 0.0010(2) 0.0016(2) 0.0016(2)
F1 0.0193(7) 0.0197(7) 0.0196(7) -0.0043(6) -0.0015(5) 0.0010(5)
F2 0.0190(7) 0.0241(7) 0.0162(6) 0.0042(6) 0.0049(5) 0.0003(5)
C3 0.0149(11) 0.0199(12) 0.0226(11) 0.0014(9) 0.0017(9) 0.0003(9)
C2 0.0228(13) 0.0347(14) 0.0146(11) 0.0064(11) 0.0039(9) 0.0018(10)
C1 0.0234(13) 0.0179(12) 0.0278(13) -0.0018(10) -0.0018(10) 0.0028(10)
loop_
_atom_type_symbol
_atom_type_scat_dispersion_real
_atom_type_scat_dispersion_imag
_atom_type_scat_Cromer_Mann_a1
_atom_type_scat_Cromer_Mann_a2
_atom_type_scat_Cromer_Mann_a3
_atom_type_scat_Cromer_Mann_a4
_atom_type_scat_Cromer_Mann_b1
_atom_type_scat_Cromer_Mann_b2
_atom_type_scat_Cromer_Mann_b3
_atom_type_scat_Cromer_Mann_b4
_atom_type_scat_Cromer_Mann_c
_atom_type_scat_source
_atom_type_scat_dispersion_source
C 0.00347 0.00161 2.31000 1.02000 1.58860 0.86500 20.84390 10.20750 0.56870
51.65120 0.21560 'International Tables Volume C Table 6.1.1.4 (pp. 500-502)'
'Henke, Gullikson and Davis, At. Data and Nucl. Data Tables, 1993, 54, 2'
F 0.01794 0.01033 3.53920 2.64120 1.51700 1.02430 10.28250 4.29440 0.26150
26.14760 0.27760 'International Tables Volume C Table 6.1.1.4 (pp. 500-502)'
'Henke, Gullikson and Davis, At. Data and Nucl. Data Tables, 1993, 54, 2'
Ge 0.18162 1.86805 16.08160 6.37470 3.70680 3.68300 2.85090 0.25160 11.44680
54.76250 2.13130 'International Tables Volume C Table 6.1.1.4 (pp. 500-502)'
'Henke, Gullikson and Davis, At. Data and Nucl. Data Tables, 1993, 54, 2'
H 0.00000 0.00000 0.49300 0.32291 0.14019 0.04081 10.51090 26.12570 3.14236
57.79970 0.00304 'International Tables Volume C Table 6.1.1.4 (pp. 500-502)'
'Henke, Gullikson and Davis, At. Data and Nucl. Data Tables, 1993, 54, 2'
P 0.10434 0.09671 6.43450 4.17910 1.78000 1.49080 1.90670 27.15700 0.52600
68.16450 1.11490 'International Tables Volume C Table 6.1.1.4 (pp. 500-502)'
'Henke, Gullikson and Davis, At. Data and Nucl. Data Tables, 1993, 54, 2'
loop_
_diffrn_refln_index_h
_diffrn_refln_index_k
_diffrn_refln_index_l
_diffrn_refln_intensity_net
_diffrn_refln_intensity_u
0 0 2 443.9 8.74
0 0 -2 451.46 13.31
0 0 2 447.18 10.78
0 0 2 461.88 10.09
0 0 -2 483.03 14.17
0 0 3 0.64 0.93
0 0 3 -0.13 0.69
0 0 -3 0.97 1.43
0 0 -3 0.24 0.88
0 0 3 0.21 0.9
0 0 4 307.57 13.03
0 0 4 303.37 12.2
0 0 -4 311.25 15.78
0 0 4 302.23 10.51
0 0 5 -1.27 1.35
0 0 5 1.13 1.84
0 0 -5 -2.54 1.6
0 0 6 3400.74 50.82
0 0 -6 3377.39 63.18
0 0 6 3352.79 53.41
0 0 6 3477.86 43.79
0 0 7 3.07 3.25
0 0 7 -0.65 2.83
0 0 7 1.35 1.89
0 0 -7 0.38 2.27
0 0 8 149.14 13.41
0 0 -8 154.89 15.76
0 0 8 137.97 10.32
0 0 8 126.89 12.43
0 0 9 -0.34 2.75
0 0 9 3.7 3.59
0 0 9 -1.85 2.91
0 0 -9 -1.53 3.35
0 0 10 23.76 6.43
0 0 -10 43.64 10.16
0 0 10 34.76 8.39
0 0 -11 3.25 4.18
0 0 11 1.95 6.16
0 0 -12 613.37 40.67
0 0 12 623.88 36.01
0 1 1 7446.54 30.96
0 1 1 7488.85 31.84
0 -1 -1 7426.5 47.6
0 1 2 498.78 10.23
0 -1 -2 496.01 14.44
0 -1 2 452.02 9.15
0 1 2 493.59 10.75
0 1 2 470.07 15.61
0 1 -2 490.88 13.29
0 -1 -2 485.15 15.19
0 -1 2 476.37 11.78
0 1 2 479.75 11.78
0 -1 2 498.81 10.61
0 -1 -3 620.81 19.59
0 1 3 600.09 15.52
0 1 3 608.16 14.66
0 1 -3 593.34 17.95
0 -1 -3 596 19.84
0 -1 3 585.19 15.89
0 -1 3 583.47 12.31
0 -1 3 613.17 14.35
0 1 3 607.33 13.39
0 1 4 1712.57 25.88
0 -1 -4 1825.55 38.86
0 -1 -4 1785.52 39.17
0 1 -4 1688.22 35.27
0 -1 4 1764.49 31.94
0 -1 4 1722.77 24.22
0 1 4 1703.48 28.75
0 -1 4 1821.52 29
0 1 4 1761.67 30.56
0 1 5 912.68 20.97
0 -1 5 891.46 19.34
0 1 5 862.06 23.11
0 1 -5 862.64 28.28
0 -1 -5 896.1 30.78
0 -1 -5 869.63 29.75
0 -1 5 888.52 25.4
0 -1 5 879.82 23.71
0 1 5 889.62 24.34
0 -1 -6 1.46 2.31
0 1 6 6.52 2.37
0 -1 6 5.32 2.14
0 1 6 6.19 3.17
0 1 -6 6.44 3.12
0 -1 6 2.48 2.07
0 1 6 3.69 1.7
0 -1 6 8.49 3.31
0 -1 7 593.92 19.19
0 -1 -7 622.24 30.17
0 1 7 598.59 20.21
0 -1 7 541.38 23.31
0 -1 7 588.38 24.87
0 1 7 618.17 24.58
0 1 -7 539.77 27.11
0 1 7 527.26 22.8
0 -1 -8 171.32 16.96
0 1 8 181.9 14.13
0 -1 8 154.74 14.26
0 1 8 195.61 14.99
0 1 8 180.97 11.93
0 -1 8 174.88 15.02
0 1 -8 177.59 17.11
0 -1 8 179.27 11.57
0 1 9 171.66 12.85
0 -1 9 147.55 14.01
0 -1 9 172.64 12.62
0 1 9 166.64 15.57
0 1 9 170.25 15.28
0 -1 -9 174.03 18.37
0 -1 9 166.09 16.05
0 1 -9 175.84 18.18
0 1 10 134.27 14.76
0 -1 -10 121.1 15.72
0 -1 10 141 14.89
0 1 -10 129.88 16.85
0 -1 10 126.86 13.86
0 1 10 121.36 13.74
0 1 -11 436.97 31.74
0 1 11 480.58 29.06
0 -1 11 443.91 28.58
0 -1 -11 436.99 32.32
0 1 11 419.11 27.59
0 1 12 20.57 6.61
0 1 12 16.34 6.21
0 1 -12 25.58 9.11
0 -1 -12 33.53 12.03
0 -1 12 25.25 11.52
0 2 0 951.52 12.95
0 -2 0 983.12 19.42
0 2 0 968.87 10.73
0 -2 0 961.13 10.67
0 -2 1 677.15 14.41
0 2 1 658.19 12.97
0 2 1 669.28 10.88
0 -2 -1 677.45 17.87
0 2 -1 663.35 13.23
0 2 1 674.35 11.74
0 2 2 3288.21 29.84
0 -2 2 3339.75 35.62
0 -2 -2 3357.25 39.8
0 2 2 3296.75 29.56
0 2 2 3239.89 34.26
0 2 -2 3261.56 35.28
0 -2 -2 3281.22 44.84
0 -2 3 1340.06 25.86
0 2 3 1315.61 21.6
0 2 3 1315.97 24.44
0 2 -3 1315.63 26.54
0 2 3 1312.01 22.2
0 -2 -3 1285.04 28.91
0 -2 -3 1336.72 32.05
0 2 4 1216.05 26.11
0 2 -4 1178.35 29.17
0 -2 4 1226.09 24.27
0 2 4 1153.2 24.29
0 2 4 1194.94 22.92
0 -2 -4 1192.78 33.58
0 -2 -4 1196.88 31.88
0 -2 4 1125.4 20.55
0 -2 4 1178.57 27.32
0 2 5 1045.36 25.76
0 -2 -5 1039.45 32.5
0 2 5 1058.01 23.59
0 -2 5 1007.42 28.02
0 -2 5 1037.29 21.56
0 2 -5 1058.16 30.64
0 -2 -5 1057.16 34.48
0 -2 5 1083.8 25.92
0 2 5 1050.24 26.56
0 -2 -6 290.46 19.73
0 2 6 287.25 15.18
0 -2 6 268.63 16.16
0 -2 6 240.99 13.99
0 -2 6 282.27 12.5
0 2 -6 279.14 17.6
0 2 6 286.71 13.23
0 -2 -6 260.6 17.67
0 2 6 261 14.42
0 -2 7 764.29 22.54
0 -2 7 769.52 29
0 2 7 761.52 26.68
0 2 -7 689.48 30.15
0 2 7 804.01 27.68
0 -2 7 703.9 26.16
0 -2 -7 786.04 34.92
0 2 7 760.89 23.54
0 -2 8 975.49 27.59
0 2 -8 969.19 38.24
0 -2 -8 1010.46 42.5
0 2 8 1054.64 33.6
0 2 8 1060.24 34.43
0 2 8 1022.34 29.32
0 -2 8 965.04 35.64
0 2 9 26.86 5.64
0 2 -9 26.05 7.07
0 2 9 32.3 6.89
0 -2 -9 27.9 8.45
0 2 9 18.47 4.73
0 -2 9 34.78 8.19
0 2 -10 406.61 28.18
0 2 10 422.54 25.39
0 2 10 452.67 26.02
0 2 10 444.35 22.67
0 -2 -10 413.88 30.33
0 -2 10 435.64 27.8
0 2 11 127.94 14.69
0 2 11 117.06 14.9
0 -2 -11 120.74 17.52
0 -2 11 114.53 15.19
0 2 -11 116.45 16.4
0 -2 12 53.99 11.4
0 2 -12 31.63 10.36
0 2 12 42.03 10.12
0 -2 -12 55.12 12.34
0 2 12 29.72 9.52
0 3 0 0.63 0.78
0 -3 0 0.59 1.09
0 3 0 0.84 0.95
0 3 -1 661.72 15.12
0 -3 1 666.37 17.8
0 3 -1 669.33 10.89
0 3 1 634.78 13.54
0 3 1 656.62 12.11
0 -3 -1 657.16 20.55
0 3 -2 1733.91 28.09
0 3 2 1758.82 23.48
0 3 2 1688.59 24.11
0 -3 -2 1756.34 30.39
0 -3 2 1716.2 29.82
0 3 2 1674.17 26.96
0 -3 -2 1745.66 36.94
0 3 -3 3193.22 43.05
0 -3 -3 3172.29 53.61
0 3 3 3181.59 36.02
0 3 3 3226.62 36.69
0 -3 -3 3240.04 49.03
0 -3 3 3252.34 45
0 3 3 3180.85 41.09
0 -3 -4 214.1 15.18
0 3 -4 215.53 12.89
0 -3 -4 200.97 13.3
0 -3 4 209.21 12.58
0 3 4 214.31 11.45
0 3 4 214.29 10.46
0 3 4 206.62 10.47
0 -3 -5 155.03 12.97
0 3 5 163.33 10.9
0 3 5 156.99 10.38
0 -3 -5 154.87 13.72
0 -3 5 134.52 11.16
0 3 5 159 9.6
0 3 -5 141.19 11.54
0 -3 6 78.66 9.59
0 3 6 87.49 8.28
0 3 6 83.05 8.71
0 -3 -6 82.12 10.87
0 -3 -6 76.64 9.49
0 3 -6 87.53 9.89
0 3 6 86.58 7.75
0 3 7 875.82 25.93
0 -3 7 837.17 32.19
0 3 7 907.05 29.04
0 3 -7 845.83 33.16
0 -3 -7 871.91 37.87
0 3 7 882.17 28.71
0 -3 -7 849.35 33.41
0 -3 8 8.55 4.92
0 3 -8 0.19 2.68
0 3 8 5.1 4.57
0 3 8 5.18 4.29
0 3 8 -2.94 3.62
0 -3 -8 5.73 5.35
0 3 9 1856.99 48.65
0 -3 9 1711.64 53
0 3 -9 1702.81 53.97
0 3 9 1812.73 48.23
0 -3 -9 1770.49 61.05
0 3 9 1764.7 43.5
0 -3 -10 20.69 7.55
0 3 -10 19.61 6.73
0 3 10 23.08 7.29
0 3 10 26.31 7.72
0 -3 10 12.66 7.07
0 3 10 16.86 4.69
0 3 11 13.85 6.47
0 3 11 9.69 5.93
0 3 -11 13.75 6.62
0 -3 -11 17.16 9.01
0 -3 11 7.57 5.44
0 3 12 28.91 9.59
0 3 -12 20.27 8.38
0 -3 -12 19.6 8.14
0 3 12 11.91 6.12
0 -3 12 17.58 6.98
0 4 0 860.29 13.91
0 4 0 864.26 17.75
0 4 1 864.76 15.24
0 4 1 843.14 17.99
0 -4 1 849.3 23.44
0 4 -1 827.19 17.06
0 -4 -1 825.85 26.41
0 -4 2 1798.09 35.02
0 4 2 1733.13 30.04
0 4 2 1733.27 27.18
0 4 2 1778.54 25.13
0 4 -2 1769.96 30.56
0 -4 -2 1753.63 40.72
0 4 -3 88.67 7.86
0 -4 -3 88.49 9.83
0 4 3 97.22 7.85
0 -4 -3 76.76 8.3
0 4 3 88.45 6.36
0 4 3 85.47 6.57
0 -4 3 92.24 8.9
0 -4 -4 2603.52 51.13
0 4 -4 2577.76 45.36
0 -4 -4 2566.25 55.97
0 -4 4 2520.88 47.93
0 4 4 2557.54 42.03
0 4 4 2588.86 37.9
0 4 4 2604.8 38.52
0 -4 -5 138.7 13.92
0 4 5 127.88 9.56
0 -4 -5 128.44 11.77
0 -4 5 120.63 11.56
0 4 -5 130.42 11.38
0 4 5 137.31 9.71
0 4 5 136.17 10.17
0 -4 -6 151.45 15.57
0 4 6 145.81 10.64
0 4 6 143.22 11.25
0 -4 6 126.32 12.68
0 4 6 141.28 11.36
0 -4 -6 130.01 12.98
0 4 -6 140.66 12.95
0 4 7 84.99 8.46
0 4 -7 80.77 10.67
0 4 7 88.92 9.33
0 4 7 86.03 9.23
0 -4 -7 79.06 11.93
0 -4 7 75.5 10.63
0 4 -8 1372.42 45.93
0 -4 -8 1380.86 52.3
0 -4 8 1318.15 45.1
0 4 8 1397.44 39.56
0 4 8 1449.78 40.12
0 4 8 1368.47 36.11
0 4 9 21.8 5.57
0 4 -9 10.63 5.73
0 4 9 20.92 6.13
0 4 9 18.54 5.5
0 -4 -9 25.26 8.42
0 -4 9 21.72 6.43
0 -4 10 660.06 37.1
0 4 -10 621.61 35.82
0 4 10 665.58 32.16
0 4 10 693.73 30.09
0 4 10 753.5 32.75
0 -4 -10 703.01 41.59
0 -4 11 -1.21 4.74
0 4 -11 8.58 5.56
0 -4 -11 18.44 8.94
0 4 11 14.11 7.04
0 4 11 17.16 7.15
0 5 0 2.29 1.23
0 -5 0 -1.07 1.87
0 5 0 -0.19 1.16
0 5 1 220.31 8.36
0 5 -1 232.81 7.66
0 5 -1 211.87 9.76
0 5 1 217.56 10.33
0 -5 -1 206.67 14.8
0 -5 1 222.96 15.53
0 -5 -2 1358.63 39.28
0 5 -2 1434.75 21.14
0 -5 2 1382.44 34.84
0 5 2 1348.7 28.86
0 5 2 1268.54 25.92
0 5 2 1362.97 23.19
0 5 -2 1271.99 24.25
0 5 3 638.24 18.02
0 -5 -3 649.34 28.46
0 5 3 629.37 19.03
0 5 3 632.81 21
0 5 -3 640.22 21.84
0 -5 3 655.54 25.33
0 -5 -3 593.33 23.64
0 -5 4 800.46 29.08
0 5 -4 847.86 26.91
0 5 4 815.08 23.01
0 -5 -4 802.33 29.54
0 5 4 833.24 25.3
0 5 4 835.9 22.27
0 -5 -4 807.09 33.5
0 5 5 1948.03 37.84
0 5 -5 1973.2 44.6
0 -5 5 1770.27 47.11
0 -5 -5 1847.4 53.78
0 -5 -5 1886.71 48.67
0 5 5 1926.45 37.13
0 5 5 1979.2 40.6
0 5 6 36.08 5.76
0 -5 -6 35.71 7.26
0 -5 6 32.86 7.39
0 5 6 52.22 7.16
0 5 6 47.78 7.13
0 -5 -6 37.98 8.44
0 5 -6 49.54 8.36
0 5 7 831.77 28.85
0 -5 7 740.29 33.95
0 5 -7 749.06 31.95
0 5 7 818.55 28.47
0 -5 -7 722.91 36.98
0 5 7 795.96 27.46
0 5 8 174 14.56
0 -5 -8 179.08 19.24
0 -5 8 154.7 16.88
0 5 -8 159.62 16.4
0 5 8 181.8 14.22
0 5 8 168.94 13.48
0 5 -9 165.53 17.78
0 -5 -9 200.44 22.03
0 5 9 204.84 16.05
0 5 9 185.74 16.26
0 5 9 187.15 14.78
0 5 10 78.75 11.29
0 5 -10 48.45 11.04
0 -5 10 41.02 11.6
0 5 10 49.08 9.13
0 -5 -10 81.33 14.71
0 -5 11 360.74 31.41
0 5 -11 362.76 30.11
0 -5 -11 434.48 35.45
0 5 11 416.5 27.35
0 5 11 449.33 25.71
0 6 0 2090.11 26.02
0 6 0 2104.12 33.63
0 6 -1 202.23 10.41
0 6 1 211.69 8.65
0 -6 -1 194.57 15.68
0 6 -1 204.93 7.96
0 6 1 190.09 10.49
0 -6 1 185.31 15.42
0 6 -2 158.92 9.52
0 6 -2 191.72 8.44
0 6 2 162.64 10.97
0 -6 -2 172.34 15.38
0 6 2 159.69 8.81
0 6 2 163.58 10.17
0 -6 -3 14.08 4.49
0 6 -3 22.8 4.5
0 6 3 19.42 3.66
0 6 -3 24.06 3.43
0 6 3 17.49 4.1
0 -6 3 15.11 4.16
0 6 3 19.35 3.84
0 -6 -3 19.22 5.44
0 6 -4 563.55 23.14
0 -6 4 568.57 27.05
0 -6 -4 562.25 26.67
0 -6 -4 552.17 29.74
0 6 4 604.48 22.81
0 6 4 541.32 20.05
0 6 4 556.29 19.46
0 6 5 531.02 21.05
0 6 5 569.27 20.7
0 -6 5 514.96 27.15
0 6 -5 565.19 24.56
0 -6 -5 551.95 31
0 6 5 559.4 22.56
0 -6 -5 539.39 27.46
0 6 6 2368.96 48.32
0 6 -6 2262.72 52.89
0 -6 -6 2286.98 66
0 6 6 2361.04 45.13
0 6 6 2284.91 46.23
0 6 -7 13.69 5.19
0 -6 7 16.39 6.76
0 6 7 21.76 5.1
0 6 7 20.93 5.16
0 6 7 26.41 6.37
0 -6 -7 16.88 6.05
0 6 -8 35.46 8.48
0 6 8 45.72 7.49
0 -6 -8 44.52 10.49
0 -6 8 45.97 10.83
0 6 8 58.15 9.17
0 6 8 36.03 6.94
0 -6 9 22.86 8.95
0 -6 -9 18.79 8.72
0 6 9 20.19 6.58
0 6 9 15.94 4.57
0 6 -9 17.53 7.03
0 -6 -10 172.93 21.58
0 -6 10 122.76 19.54
0 6 10 168.39 16.97
0 6 10 152.9 14.54
0 6 -10 131.77 17.2
0 6 11 -6.59 5.88
0 6 -11 17.44 8.13
0 -6 -11 9.15 9.01
0 -6 11 14.55 10.71
0 6 11 4.16 5.22
0 7 0 0.07 1.46
0 7 0 -0.57 1.46
0 7 -1 1054.78 26.32
0 -7 -1 963.42 37.95
0 7 1 1021.57 20.25
0 7 -1 1016.87 19.1
0 -7 1 916.44 37.15
0 7 1 977.23 25.59
0 7 2 872 27.35
0 7 -2 907.76 23.96
0 7 2 932.74 21.54
0 -7 -2 855.28 36.69
0 7 2 885.17 25.26
0 7 -2 897.42 18.39
0 -7 2 862.19 37.19
0 7 -3 201.58 11.62
0 7 3 201.62 13.51
0 7 3 182.24 11.45
0 7 -3 210.77 9.79
0 7 3 199.46 12.63
0 -7 -3 189.45 17.89
0 -7 3 180.91 15.87
0 -7 -4 42.94 8.43
0 7 4 54.87 7.8
0 7 4 50 6.87
0 -7 4 46.63 8.17
0 7 -4 51.65 7.41
0 -7 -4 48.64 9.62
0 7 4 52.69 6.27
0 7 5 1636.14 35.7
0 7 5 1656.22 40.5
0 7 -5 1595.46 42.59
0 7 5 1519.24 37.58
0 -7 5 1504.05 49.3
0 -7 -5 1555.67 54.6
0 7 6 -2.16 3.29
0 -7 -6 1.1 4.21
0 -7 6 -2.76 5.48
0 7 6 9.17 4.24
0 7 6 3.49 2.86
0 7 -6 6.05 4.2
0 -7 -7 390.7 29.43
0 -7 7 333.88 27.08
0 7 -7 375.95 24.16
0 7 7 403.69 20.95
0 7 7 387.33 21.06
0 7 8 121.15 13.5
0 -7 8 95.12 16.85
0 7 8 132.59 13.56
0 -7 -8 136.38 18.5
0 7 -8 116.54 14.94
0 -7 9 -2.07 6.29
0 7 -9 3.64 4.5
0 7 9 6.61 4.38
0 -7 -9 10.22 7.07
0 7 9 8.4 4.95
0 -7 10 54.35 15.44
0 7 -10 53.11 12.26
0 7 10 74.5 10.18
0 7 10 78.41 12.11
0 -7 -10 84.62 17.21
0 7 11 512.2 28.85
0 8 0 537.22 20.35
0 -8 0 495.19 29.08
0 8 0 540.38 14.66
0 8 1 487 14.64
0 8 -1 477.56 18.8
0 -8 -1 450.79 28.12
0 8 1 460.48 18.93
0 -8 1 434.89 26.95
0 8 2 817.81 26.01
0 -8 2 748.45 36.63
0 8 2 817.82 21.32
0 -8 -2 742.5 36.81
0 8 2 768.46 27.88
0 8 -2 830.96 24.77
0 -8 3 13.13 6.26
0 -8 -3 7.86 3.53
0 8 -3 16.38 3.98
0 8 3 13.92 3.9
0 8 3 15.13 4.25
0 8 3 12.53 4.38
0 8 4 969.51 30.3
0 8 4 1052.37 33.28
0 8 4 1013.63 27.1
0 -8 -4 944.47 43.23
0 -8 4 914.84 40.1
0 8 -4 998.97 27.79
0 8 -5 134.36 10.25
0 8 5 137.75 10.93
0 8 -5 130.96 13.24
0 8 5 123.51 11.62
0 -8 -5 132.52 16.82
0 -8 5 103.06 13.75
0 -8 -6 290.61 25.75
0 8 6 279.28 18.24
0 8 -6 270.52 20.31
0 8 6 289.41 17.48
0 -8 6 236.76 22.48
0 8 7 196.19 15.89
0 8 -7 175.82 17.82
0 8 7 196.26 16.23
0 -8 -7 205.02 22.89
0 -8 8 28.1 11.07
0 8 -8 42.78 9.42
0 8 8 40.77 8.51
0 8 8 36.96 8.1
0 -8 -8 37.58 11.09
0 -8 9 -0.74 7.25
0 8 9 18.21 6.06
0 8 -9 18.87 7.33
0 -8 -9 12.49 5.67
0 8 9 26.37 7.41
0 -8 10 81.07 17.5
0 8 -10 95.79 15.55
0 -8 -10 123.01 20.62
0 8 10 126.77 14.61
0 8 10 105.95 12.52
0 9 0 1.23 2.42
0 -9 0 -4.29 5.62
0 -9 -1 327.98 25.18
0 -9 1 295.56 24.15
0 9 1 327.93 17.34
0 9 -1 328.38 16.89
0 -9 2 79.9 12.87
0 -9 -2 89.79 13.35
0 9 -2 100.49 9.62
0 9 2 84.35 9.99
0 9 2 101.98 9.91
0 -9 3 1911.61 64.96
0 9 3 1976.6 43.86
0 9 -3 2110.41 41.87
0 -9 -3 1949.45 64.76
0 9 4 66.74 8.5
0 -9 -4 64.63 12.96
0 -9 4 62.08 12.34
0 9 -4 69.9 7.98
0 9 5 54.91 8.36
0 -9 -5 58.84 12.27
0 9 -5 63.8 7.84
0 9 6 0.92 3.79
0 -9 -6 5.69 5.59
0 9 6 2.17 2.56
0 9 7 26.34 6.74
0 9 7 32.07 7.18
0 9 -7 28.18 8.17
0 -9 -7 32.04 10.97
0 -9 7 15.11 8.29
0 -9 8 -0.4 8
0 9 8 23.46 6.92
0 -9 -8 3.85 5.84
0 9 8 12.79 6.24
0 9 -8 19.68 7.4
0 9 -9 412.58 30.01
0 -9 -9 436.85 37.51
0 9 9 498.68 27.32
0 9 9 471.53 28.04
0 10 0 83.42 9.51
0 -10 0 78.74 13.3
0 -10 -1 -12.51 7.32
0 10 -1 3.16 3.55
0 -10 1 -7.56 6.76
0 10 1 -2.2 2.41
0 10 2 909.27 30.84
0 10 -2 969.36 30.25
0 -10 -2 920.78 46.12
0 -10 2 857.42 43.49
0 -10 -3 3.57 6.37
0 -10 3 -1.11 5.48
0 10 -3 4.75 2.62
0 10 3 6.17 4
0 -10 4 455.86 35.51
0 -10 -4 456.68 33.83
0 10 4 466.52 23.85
0 10 -4 514.29 22.59
0 10 -5 18.79 4.42
0 -10 5 28.53 10.19
0 10 5 25.01 6.25
0 -10 -5 30.35 10.45
0 10 6 8.96 5.3
0 -10 -6 18.14 8.08
0 -10 7 30.57 8.55
0 -10 -7 63.53 16.02
0 10 7 74.3 11.73
0 10 8 375.37 25.22
0 -10 8 273.04 30.14
0 -10 -8 333.38 31.75
0 10 -8 333.53 26.1
0 -11 0 -6.42 6.13
0 11 0 2.16 4.53
0 11 -1 204.67 15.94
0 -11 -1 213.84 23.27
0 -11 1 210.4 23.77
0 11 1 208.47 15.6
0 -11 2 180.26 21.61
0 11 2 208.38 16.17
0 11 -2 208.94 15.3
0 -11 -2 187.86 22.49
0 11 -3 455.82 22.31
0 11 3 467.97 24.43
0 -11 -3 435.85 35.1
0 -11 3 405.04 33.53
0 -11 -4 77.92 15.38
0 11 -4 95.16 10.66
0 11 4 94.52 12.12
0 -11 4 72.98 16.13
0 -11 -5 166.77 22.98
0 -11 5 176.84 25.06
0 11 5 165.15 16.34
0 11 6 37.99 8.72
0 -11 -6 49.96 13.02
0 -11 6 46.53 15.67
0 -11 -7 114.09 21.51
0 -11 7 92.04 20.9
0 -12 0 591.1 42.56
0 12 0 693.1 29.71
0 -12 -1 27.48 10.27
0 12 -1 77.94 11.72
0 12 1 64.31 9.55
0 -12 1 29.01 8.85
0 12 2 57.98 9.75
0 -12 -2 42.63 11.11
0 12 -2 54.51 9.11
0 -12 2 49.6 13.31
0 -12 3 -1.65 7
0 12 3 2.23 3.8
0 12 -3 1.08 3.51
0 -12 -3 -12.92 10.49
0 -12 -4 28.09 11.58
0 12 4 41.26 9.22
0 -12 4 45.92 14.03
0 12 5 8.38 6.4
0 -12 5 -3.54 7.77
0 -12 -5 14.66 9.39
0 -12 -6 438.05 40.48
0 13 0 7.12 7.22
0 -13 0 -36.05 13.19
0 -13 -1 294.22 32.37
0 -13 1 322.44 34.3
0 13 -1 392.34 23.65
0 13 1 375.74 24.37
0 -13 -2 -4.84 10.9
0 13 -2 21.51 8.32
0 13 2 22.75 8.02
0 -13 2 7.24 6.84
0 13 -3 20.29 7.1
0 -13 3 9.21 7.84
0 -13 -3 5.08 10.52
0 -13 -4 -4.24 12.61
-1 0 12 -6.28 5.7
1 0 -12 -1.44 6.16
1 0 -11 6.6 6.86
-1 0 11 2.79 4.31
1 0 -10 3.25 6.12
-1 0 10 -0.49 4.13
-1 0 10 -1.89 4.55
-1 0 9 47.74 7.02
1 0 -9 50.66 10.49
-1 0 9 44.14 8.85
-1 0 8 -2.46 3.03
1 0 -8 5.46 4
-1 0 8 3.89 2.84
1 0 -7 3695.77 70.17
-1 0 7 3746.87 55
1 0 -6 -0.07 2.22
-1 0 6 -1.09 1.71
-1 0 6 -3.09 2.63
-1 0 5 1260.37 26.94
-1 0 5 1280.84 28.66
1 0 -5 1287.57 34.36
-1 0 4 0.28 1.63
1 0 -4 2.45 2.07
-1 0 4 0.58 1.22
-1 0 3 970.38 19.26
1 0 -3 961.6 22.48
-1 0 3 955.42 19.19
-1 0 2 0.08 0.71
1 0 -2 1.13 1.39
-1 0 2 2 1.55
1 0 -1 9999 39.13
-1 0 1 9926.97 44.9
1 0 0 0.31 0.37
-1 0 0 1.13 0.76
1 0 0 0.78 0.94
1 0 0 0.56 0.55
-1 0 0 0.45 0.56
1 0 0 0.59 0.87
1 0 1 1227.52 19.04
1 0 1 1225.97 19.97
-1 0 -1 1222.36 29.21
-1 0 -1 1230.09 18.53
1 0 1 1186.58 16.01
1 0 2 0.75 0.45
-1 0 -2 0.72 1.31
-1 0 -2 0.15 0.38
1 0 2 0.53 1.2
1 0 2 0.82 0.81
-1 0 -2 2.65 2.62
1 0 3 517.48 16.95
1 0 3 537.93 14.24
-1 0 -3 509.26 18.26
-1 0 -3 542.05 24.98
1 0 3 524.55 8.99
1 0 4 -1.1 1.18
1 0 4 2.25 1.5
1 0 4 -0.4 1.05
-1 0 -4 -0.5 2.34
-1 0 -4 1.3 2.19
1 0 5 604.06 14.34
-1 0 -5 626.49 31.33
1 0 5 642.36 22.31
1 0 5 598.74 19.44
-1 0 -5 653 26.28
1 0 6 0.34 2.12
1 0 6 0.07 1.82
1 0 6 -0.48 1.38
-1 0 -6 -0.57 2.93
-1 0 -6 -0.7 2.95
-1 0 -7 23.37 7.21
1 0 7 32.18 4.26
1 0 7 42.88 7.1
1 0 7 31.09 5.88
-1 0 -7 25.87 6.6
1 0 8 3.47 2.26
1 0 8 0.77 2.35
1 0 8 -0.03 2.76
-1 0 -8 1.17 2.8
1 0 9 625.16 30.26
-1 0 -9 594.79 33.67
1 0 9 593.56 27
1 0 10 8.49 4.33
1 0 10 5.96 4.66
-1 0 -10 5.56 5.61
1 0 11 1139.88 45.75
-1 0 -11 1071.97 51.06
1 0 11 1077.94 43.68
-1 0 -12 7.36 7.92
1 0 12 3.42 7.52
1 0 12 -0.65 4.86
-1 -1 12 282 25.67
1 -1 -12 307.53 28.42
1 1 -12 297.5 27.59
-1 1 12 292.45 24.76
1 1 -11 150.46 18.01
-1 -1 11 164.96 18.05
1 -1 -11 167.02 20.03
-1 1 11 158.63 15.71
-1 1 11 150.87 16.27
1 -1 -10 3.18 4.94
-1 1 10 2.16 4.35
1 1 -10 4.5 4.24
-1 -1 10 5.85 3.71
-1 1 10 -0.36 4.11
-1 -1 10 -1.85 4.71
1 1 -9 49.22 9.61
-1 1 9 42.97 6.54
1 -1 -9 67.54 11.24
-1 -1 9 55.2 9.86
-1 1 9 65.39 8.26
-1 -1 9 53.27 7.73
-1 1 9 60.41 9.13
-1 1 8 758.77 29.24
-1 1 8 787.31 27.58
-1 -1 8 749.1 26.9
1 -1 -8 794.78 35.7
-1 1 8 796.65 29.29
-1 -1 8 782.67 31.54
1 1 -8 716.59 32.86
-1 1 7 7.03 3.01
-1 1 7 0.91 2.55
1 -1 -7 3.13 2.12
-1 -1 7 1.33 2.62
1 1 -7 8.71 3.72
-1 -1 7 4.95 2.88
-1 1 7 4.58 2.13
-1 1 6 3299.71 48.14
-1 -1 6 3461.26 55.14
1 1 -6 3308.56 59.38
-1 1 6 3311.64 52.87
-1 1 6 3432.83 50.1
1 -1 -6 3375.43 62.86
-1 -1 6 3356.34 47.31
1 1 -5 1026.56 29.65
-1 -1 5 1005.16 23.89
1 -1 -5 1029.27 31.71
-1 1 5 1015.62 26.47
-1 -1 5 1026.13 27.41
-1 1 5 1026.96 24.68
-1 1 5 1017.46 24.5
-1 1 4 486.99 14.68
-1 1 4 481.86 15.53
-1 -1 4 463.59 15.03
-1 -1 4 481.54 17.54
-1 1 4 475.64 16.19
1 -1 -4 482.86 19.39
1 1 -4 474.87 18.13
-1 1 3 1453.57 24.08
-1 1 3 1467.71 21.39
1 1 -3 1471.57 27.5
-1 -1 3 1443.37 24.09
-1 -1 3 1470.97 27.53
-1 1 3 1468.06 24.62
1 -1 -3 1465 29.21
-1 1 3 1452.74 22.59
-1 -1 2 1989.95 25
1 1 -2 2024.49 26.6
-1 -1 2 1991.63 29.36
-1 1 2 1964.5 24.5
-1 1 2 1991.35 19.18
1 -1 -2 2003.94 27.79
1 -1 -1 345.74 8.04
-1 1 1 337.79 8.56
1 1 -1 361.02 8.8
-1 1 1 354.89 8.68
-1 -1 0 5498.95 40.57
1 -1 0 5548.91 50.87
-1 1 0 5564.44 49.09
-1 1 0 5394.72 26.41
1 -1 0 5439.3 27.3
1 -1 0 5301.42 26.64
-1 1 0 5399 27.91
1 1 1 1010.96 19.75
-1 -1 -1 1019.29 26.49
-1 -1 -1 1022.58 20.95
-1 1 -1 1007.57 26.09
1 -1 1 949.58 15.57
1 -1 1 934.3 14.66
1 -1 1 966.59 12.25
-1 1 -1 972.75 13.74
1 1 1 956.13 16.17
1 1 2 1262.3 25.31
1 -1 2 1247.64 17.06
-1 1 -2 1270.85 22.26
-1 -1 -2 1286.28 34.91
1 1 2 1240.74 20.3
-1 1 -2 1306.8 34.1
1 -1 2 1234.7 21.6
-1 -1 -2 1270.23 27.07
1 1 2 1260.39 14.32
1 -1 3 890.43 16.92
-1 1 -3 890.34 31.57
1 -1 3 825.14 9.76
-1 1 -3 884.17 22.62
1 1 3 887.83 23.29
-1 -1 -3 873.4 25.5
1 1 3 868.49 18.99
1 -1 3 877.37 20.84
1 1 3 878.22 13.95
-1 1 -3 873.36 9.29
-1 -1 -3 867.46 31.78
-1 -1 -4 444.86 24.31
1 -1 4 446.16 14.02
1 1 4 456.44 11.81
-1 -1 -4 445.61 20.33
-1 1 -4 437.62 24.79
1 1 4 435.36 15.27
1 -1 4 437.72 16.95
1 1 4 447.27 18.09
-1 1 -4 455.84 18.99
1 -1 4 437.75 9.3
-1 -1 -5 104.36 11.01
1 -1 5 106.35 8.13
1 1 5 106.17 6.43
-1 1 -5 96.15 9.84
1 -1 5 90.19 5.46
1 1 5 105.17 9.47
-1 1 -5 99.33 13.04
1 1 5 104.08 8.13
-1 -1 -5 105.3 13.09
1 -1 5 102.39 9.02
1 1 6 370.61 13.16
-1 -1 -6 345.04 24.34
1 -1 6 334.82 11.67
1 1 6 363.51 18.52
-1 1 -6 332.46 24.49
1 -1 6 347.95 16.06
-1 -1 -6 369.02 22.37
1 1 6 359.8 16.72
1 -1 6 337.88 18.31
-1 1 -6 355.31 20.72
1 -1 7 465.01 15.29
1 1 7 447.21 21
1 -1 7 478.56 21.11
1 -1 7 486.87 23.45
1 1 7 497.89 23.24
-1 -1 -7 515.68 28.37
-1 -1 -7 477.86 30.27
-1 1 -7 486.58 26.3
1 1 7 525.81 17.55
1 -1 8 182.92 15.16
1 1 8 195.25 15.17
1 -1 8 210.96 16.67
1 1 8 216.68 16.63
-1 1 -8 219.2 18.96
-1 -1 -8 206.16 20.96
1 1 8 223.93 12.32
-1 -1 -8 202.11 18.61
1 -1 9 2.19 2.61
1 -1 9 1.01 3.36
-1 -1 -9 0.37 3.26
-1 1 -9 11.16 6.46
1 1 9 5.79 4.17
1 1 9 4.72 4.32
1 1 10 859.26 37.42
-1 -1 -10 764.45 41.22
1 -1 10 775.19 33.87
1 -1 10 790.38 36.79
1 1 10 762.49 33.46
-1 1 -10 793.67 40.91
1 -1 11 4.44 6.66
-1 1 -11 1.73 5.51
-1 -1 -11 14.22 8.87
1 1 11 3.68 5.2
1 1 11 -5.34 4.67
1 -1 11 -4.48 5.72
1 -1 12 405.32 29.82
1 1 12 398.23 28.82
1 -1 12 337.36 26.96
-1 1 -12 370.62 31.5
1 1 12 324.6 27.26
-1 -1 -12 396.4 33.23
-1 -2 12 -21.49 10.47
1 -2 -12 12.54 7.67
1 2 -12 -5.57 8.15
-1 2 11 267.07 21.02
1 2 -11 230.74 22.58
-1 -2 11 216.33 21.66
1 -2 -11 246.36 24.34
-1 2 11 253.86 19.3
1 2 -10 56.29 10.58
1 -2 -10 63.7 11.29
-1 2 10 51.34 9
-1 2 10 77.64 11.08
-1 -2 10 60.83 9.93
-1 -2 10 68.62 11.53
-1 2 10 64.69 8.83
-1 2 9 648.12 27.68
-1 2 9 571.69 26.03
-1 2 9 553.36 27.18
-1 -2 9 578.3 31.38
1 -2 -9 582.75 33.13
-1 -2 9 565.42 25.16
1 2 -9 546.46 30.76
1 -2 -8 -1.79 4.1
-1 -2 8 3.87 3.1
-1 2 8 4.62 3.46
1 2 -8 0 3.04
-1 -2 8 5.83 3.34
-1 2 8 -0.96 3
-1 2 8 2.16 2.54
-1 2 7 417.37 18.84
-1 2 7 404.43 19.7
-1 2 7 427.34 19
1 -2 -7 394.34 23.89
-1 -2 7 398.54 18.03
1 2 -7 384.46 22.39
-1 -2 7 397.56 21.95
-1 2 6 308.06 14.57
-1 -2 6 291.95 17.29
-1 -2 6 293.01 14.19
-1 2 6 275.33 15.43
1 2 -6 271.28 17.06
1 -2 -6 292.44 19.1
-1 2 6 293.36 14.58
-1 -2 5 1727.84 38.76
-1 2 5 1817.29 31.65
1 2 -5 1709.3 38.62
-1 -2 5 1741.76 32.4
1 -2 -5 1767.8 43.39
-1 2 5 1738.5 34.38
-1 2 5 1761.17 33.2
-1 2 4 266.07 12.05
1 -2 -4 259.74 15.07
-1 2 4 262.85 11.6
-1 -2 4 262.38 14.02
-1 2 4 274.08 10.65
1 2 -4 266.49 13.85
-1 -2 4 251.25 11.6
-1 2 3 1890.09 28.49
-1 2 3 1905.2 22.92
-1 -2 3 1873.61 34.93
-1 2 3 1920.62 28.01
1 2 -3 1871.59 32.06
1 -2 -3 1841.94 35.49
-1 2 2 15.03 1.51
1 -2 -2 9.97 2.45
-1 -2 2 14.91 3.04
-1 2 2 12.58 2.27
1 -2 -2 7.83 1.42
1 2 -2 12.71 2.39
-1 2 2 14.3 2.1
1 -2 -1 339.34 10.69
1 -2 -1 337.1 9.98
1 2 -1 350.57 10.14
1 2 -1 353.41 10.29
-1 2 1 351.68 9.67
1 -2 0 718.36 10.14
1 2 0 724.52 14.51
-1 2 0 699.27 9.18
1 -2 0 727.33 13.66
-1 -2 0 722.86 18.93
1 -2 0 716.14 8.85
-1 2 0 717.24 11.59
1 2 1 3298.71 27.53
-1 2 -1 3271.26 27.13
1 -2 1 3292.37 17.17
-1 -2 -1 3363.77 43.92
-1 2 -1 3220.3 19.32
-1 2 -1 3320.32 20.02
1 2 1 3321.15 39.27
-1 2 -1 3384.48 48.03
1 2 1 3324.97 33.03
1 -2 1 3252.74 28.63
-1 -2 -1 3484.04 48.47
1 2 2 3211.33 42.78
1 -2 2 3207.95 24.3
-1 2 -2 3288.74 34.3
-1 2 -2 3213.69 17.63
-1 2 -2 3258.6 54.34
1 -2 2 3209.08 35.08
-1 -2 -2 3238.95 55.28
1 2 2 3150.09 35.07
-1 -2 -2 3231.85 48.45
1 2 2 3213.73 28.17
1 2 3 2827.76 44
-1 -2 -3 2834.67 58.46
-1 -2 -3 2836.18 49.94
1 2 3 2812.76 28.77
1 2 3 2768.62 35.99
1 -2 3 2812.86 38.32
-1 2 -3 2858.73 39
1 -2 3 2835.26 29.29
-1 2 -3 2846.76 57
1 2 4 810.94 21.49
-1 -2 -4 852.83 29.91
1 2 4 807.16 25.03
-1 -2 -4 803.79 33.53
1 -2 4 830.84 18.86
1 2 4 831.07 17.67
-1 2 -4 837.66 25.03
1 -2 4 833.01 23.64
-1 -2 -5 242.31 17
-1 -2 -5 220.33 18.17
-1 2 -5 231.79 14.92
1 2 5 249 10.74
1 -2 5 230.82 11.69
1 2 5 238.29 14.64
1 -2 5 229.74 13.96
1 2 5 236.01 12.47
1 2 6 919.62 26.92
-1 -2 -6 955.98 41.22
-1 -2 -6 966.34 37.11
1 -2 6 911.68 30.3
1 2 6 940.74 30.28
1 2 6 985.4 22.94
1 -2 6 926.19 26.17
-1 2 -6 969.4 33.21
1 2 7 424.92 20.38
1 2 7 482.14 23.01
1 -2 7 443.58 20.55
1 2 7 478.65 17.08
-1 2 -7 462.07 24.68
1 -2 7 454.19 22.76
-1 -2 -7 412.99 28.66
-1 -2 -7 470.02 27.88
1 2 8 35.9 6.72
1 -2 8 41.29 7.91
-1 -2 -8 30.44 9.71
-1 2 -8 34.74 8.02
1 2 8 38.22 7.08
-1 -2 -8 45.64 9.06
1 2 8 31.79 5.24
1 -2 8 23.84 6.13
1 2 9 717.94 32.17
1 2 9 725.48 30.11
1 -2 9 714.9 32.59
1 -2 9 644.88 29.94
-1 2 -9 669.87 34.96
-1 -2 -9 723.22 38.65
-1 -2 -9 670.39 38.51
1 -2 10 58.66 10.35
1 2 10 52.41 9.35
1 2 10 39.44 8.23
1 -2 10 38.28 8
-1 2 -10 36.5 9.33
-1 -2 -10 41.4 10.02
-1 2 -11 210.3 22.01
1 2 11 213.65 19.97
1 -2 11 237.6 21.99
-1 -2 -11 259.53 25.84
1 2 11 282.66 22.89
1 -2 11 215.2 19.43
1 2 12 110.23 16.02
-1 -2 -12 75.94 15.56
1 -2 12 95.82 15.73
-1 2 -12 59.87 13.16
1 2 12 80.69 14.17
-1 -3 12 26.28 9.83
1 -3 -12 9.24 8.72
1 3 -12 6.25 4.96
-1 3 11 16.23 5.82
-1 -3 11 20.49 7.5
1 -3 -11 20.98 8.35
1 3 -11 20.04 7.84
-1 3 11 7.81 4.66
-1 3 10 1135.29 39.49
1 3 -10 1076.93 45.76
-1 3 10 1095.83 41.82
-1 3 10 1233.7 40.52
-1 -3 10 1113.55 47.48
1 -3 -10 1115.08 49.78
1 -3 -9 58.59 10.88
-1 3 9 42.85 7.32
-1 3 9 49.26 7.74
1 3 -9 53.05 10.24
-1 3 9 59.95 8.58
-1 -3 9 42.52 9.62
-1 3 8 488 23.86
1 -3 -8 519.43 30.1
-1 -3 8 444.62 27.06
1 3 -8 454.75 26.57
-1 3 8 493.65 22.52
-1 3 8 537.64 22.88
-1 3 7 20.69 4.72
1 -3 -7 28.47 7.01
1 3 -7 18.49 5.16
-1 3 7 22.69 5.06
-1 -3 7 23.47 6.3
-1 3 7 27.33 5.08
1 -3 -6 191.52 16.25
1 3 -6 175.23 14.21
-1 3 6 176.42 11.51
-1 -3 6 180 14.83
-1 3 6 196.29 11.63
-1 3 6 179.03 12.46
-1 3 5 5.98 2.24
-1 -3 5 6.42 3.11
-1 3 5 3.8 1.98
1 3 -5 6.46 3.04
-1 3 5 3.91 1.83
1 -3 -5 4.26 3.04
-1 3 4 2266.45 35.21
1 3 -4 2212.43 40.59
1 -3 -4 2186.94 45.66
-1 3 4 2207.64 29.71
-1 3 4 2219.69 35.65
-1 3 3 130.72 5.87
-1 -3 3 120.98 10.26
-1 3 3 123.36 7.25
1 3 -3 132.18 9.08
1 -3 -3 119.94 10.18
-1 3 3 124.74 7.8
-1 3 2 116.64 7.11
-1 3 2 111.13 4.44
1 3 -2 110.85 7.48
-1 -3 2 111.38 9.15
-1 3 2 107.86 5.65
1 -3 -2 101.57 8.3
1 3 -1 36.07 3.65
1 -3 -1 31.29 4.23
-1 3 1 34.67 3.44
-1 3 1 26.31 1.86
-1 3 1 29.66 2.4
-1 -3 0 1306.24 29.83
1 3 0 1309.21 21.25
1 -3 0 1281.91 24.42
-1 3 0 1341.39 18.52
1 -3 0 1287.82 17.66
1 3 1 21.3 3.06
-1 -3 -1 22.07 4.21
-1 3 -1 19.99 2.17
1 3 1 21.75 2.68
1 3 1 23.38 3.79
-1 3 -1 20.36 2.56
1 -3 1 21.29 2.66
-1 -3 -2 5903.24 76.76
-1 3 -2 5871.74 49.2
1 3 2 5750.35 44.25
1 -3 2 5864.84 49.96
1 3 2 5779.36 50.46
1 -3 2 5629.27 31.46
-1 3 -2 5811.69 32.74
-1 -3 -2 5932.33 72.71
1 3 2 5806.76 61.75
1 -3 3 807.74 15.51
1 3 3 780.06 24.38
1 3 3 764.55 19.86
-1 -3 -3 741.92 27.66
-1 3 -3 817.16 21.62
1 3 3 811.87 17.63
-1 -3 -3 815.65 31.8
1 -3 3 795.14 21.04
1 -3 4 476.62 14.5
-1 3 -4 463.57 18.56
1 3 4 480.7 17.19
-1 -3 -4 468.06 26.01
1 -3 4 464.81 18.32
-1 -3 -4 452.24 22.93
1 3 4 485.13 14.82
1 3 4 462.78 19.95
1 -3 5 51.7 6.91
1 3 5 48.49 6.24
1 3 5 50.24 5.12
-1 -3 -5 48.42 9.19
1 3 5 55.17 7.33
1 -3 5 45.53 5.82
-1 3 -5 47.3 6.75
-1 -3 -5 47.79 7.83
1 3 6 490.48 20.24
-1 -3 -6 486.54 28.86
1 3 6 528.19 17.96
1 -3 6 457.48 19.1
1 3 6 500.05 23.01
1 -3 6 457.05 21.85
-1 -3 -6 499.06 27.59
-1 3 -6 483.8 23.36
1 -3 7 281.85 17.13
1 3 7 357.49 20.34
1 3 7 342.03 18.07
-1 -3 -7 315.82 24.69
1 -3 7 336.53 20.22
-1 -3 -7 339.69 24.22
-1 3 -7 346.47 21.31
1 3 7 352.27 15.55
1 3 8 1748.34 37.36
1 3 8 1793.16 44.05
-1 -3 -8 1770.7 58.98
1 -3 8 1781.2 49.39
-1 3 -8 1742.75 51.61
-1 -3 -8 1744.14 60.58
1 3 8 1846.66 48.21
1 -3 8 1795.01 44.36
1 3 9 45.35 7.92
1 3 9 46.7 8.12
1 -3 9 21.38 5.79
-1 3 -9 27.89 7.74
-1 -3 -9 54.56 11.37
1 3 9 34.65 5.8
1 -3 9 29.22 7.35
1 3 10 91.96 12.84
1 -3 10 73.48 12.36
1 -3 10 63.33 10.15
-1 3 -10 62.14 11.94
1 3 10 87.62 12.4
-1 -3 -10 85.37 14.22
1 -3 11 16.49 7.74
-1 3 -11 11.5 6.37
1 3 11 5.67 6
-1 -3 -11 14.24 6.2
1 3 11 14.2 6.61
-1 3 -12 40.78 12.18
1 3 12 31.29 9.13
1 -3 12 34.87 10.89
1 -4 -12 67.3 15.01
-1 4 11 461.44 26.96
1 -4 -11 493.57 35.46
-1 -4 11 412.66 32.93
-1 4 11 406.67 27.47
1 4 -11 430.55 31.56
1 -4 -10 1.39 5.16
-1 4 10 -3.66 5.27
-1 -4 10 10.24 7.9
1 4 -10 5.11 5.46
-1 4 10 -4.49 5.55
-1 4 9 827.69 33.5
1 4 -9 800.18 37.37
1 -4 -9 834.57 41.8
-1 4 9 894.27 31.74
-1 -4 9 776.98 39.32
-1 4 9 846.94 32.9
1 4 -8 341.57 23.25
-1 4 8 371.66 20.81
-1 -4 8 348.52 25.19
-1 4 8 419.39 20.22
1 -4 -8 390.39 27.03
-1 4 8 374.42 20.44
-1 4 7 104.22 10.23
-1 4 7 101.07 9.59
-1 4 7 112.94 9.61
1 4 -7 96.78 12.05
-1 -4 7 95.84 12.84
1 -4 -7 111.1 13.55
-1 4 6 91.31 8.57
1 -4 -6 91.96 11.53
-1 4 6 92.48 8.01
-1 4 6 90.69 9.12
1 4 -6 93.58 10.68
-1 -4 6 84.51 11.15
-1 4 5 720.79 22.99
1 -4 -5 650.07 28.85
1 4 -5 669.76 25.64
-1 4 5 719.42 22.46
-1 -4 5 630.32 28.08
-1 4 5 710.42 19.39
-1 4 4 153.83 9.85
1 4 -4 151.07 11.11
-1 4 4 165.39 9.76
1 -4 -4 137.73 6.64
1 -4 -4 176.57 14.09
-1 4 4 163.08 8.38
-1 -4 4 135.48 12.47
1 4 -3 785.68 22.99
-1 4 3 786.34 18.33
-1 4 3 779.12 16.14
-1 4 3 755.14 20.78
1 -4 -3 761.73 26.99
-1 -4 3 790.32 27.79
1 -4 -3 712.12 16.56
1 -4 -2 118.86 10.33
1 4 -2 123.76 7.58
-1 4 2 120.19 5.83
-1 4 2 124.96 6.21
1 4 -2 133.31 8.86
-1 4 2 120.03 7.69
1 4 -1 61.86 5.39
-1 -4 1 54.15 7.34
-1 4 1 56.53 3.35
1 -4 -1 46.28 6.25
-1 4 1 57.01 4.97
-1 -4 0 45.3 6.36
1 -4 0 33.61 5.14
-1 4 0 42.52 3.89
1 4 0 40.51 4.16
-1 -4 -1 2409.84 48.18
1 4 1 2366.2 31.31
-1 4 -1 2357.09 26.57
1 4 1 2369.84 32.53
1 -4 1 2341.04 32.06
1 -4 2 0.31 1.19
1 4 2 1.97 1.45
1 4 2 1.13 1.68
1 4 2 1.76 0.96
-1 4 -2 0.82 1.21
-1 -4 -2 1.85 2.09
-1 4 -2 0.96 1.18
-1 -4 -2 2.58 3.83
1 4 3 2297.12 32.65
-1 -4 -3 2333.35 55.55
-1 4 -3 2296.95 37.9
1 4 3 2271.68 43.8
1 -4 3 2360.75 38.73
1 4 3 2251.23 35.52
-1 -4 -3 2287.4 52.51
-1 4 -3 2281.58 24.72
1 4 4 0.41 1.85
-1 -4 -4 2.27 2.89
-1 4 -4 1.86 2.53
1 4 4 3.3 3.27
1 -4 4 1.15 1.68
-1 -4 -4 2.8 3.61
1 4 4 0.96 1.49
1 4 5 804.35 22.2
1 4 5 784.91 25.07
-1 4 -5 813.89 27.92
1 4 5 790.66 28.54
-1 -4 -5 805.19 37.08
-1 -4 -5 816.55 34.84
1 -4 5 766.43 27.3
1 4 6 96.91 9.56
-1 -4 -6 99.52 12.99
-1 4 -6 80.88 10.07
1 -4 6 89.38 10.67
-1 -4 -6 80.59 12.61
1 -4 6 73.73 7.87
1 4 6 102.49 10.94
1 4 6 96.51 8.32
-1 -4 -7 1626.27 55.39
1 4 7 1616.31 39.73
-1 4 -7 1605.18 45.79
1 -4 7 1568.45 44.44
1 4 7 1689.29 44.95
-1 -4 -7 1531.84 55.28
1 4 7 1659.04 35.98
1 4 8 101.93 11.79
1 4 8 104.22 9.68
1 4 8 98.96 10.96
-1 -4 -8 82.62 13.39
-1 -4 -8 110.73 15.07
1 -4 8 100.61 12.8
-1 4 -8 102.53 12.61
1 4 9 375.88 22.99
-1 -4 -9 373.29 29.19
1 4 9 348.2 18.5
-1 4 -9 309.78 24.15
1 4 9 363.8 21.88
1 -4 9 305.09 24.46
1 4 10 61.09 10.08
-1 -4 -10 63.22 13.98
1 -4 10 42.84 9.69
1 4 10 51.15 9.66
-1 4 -10 44.55 10.61
-1 4 -11 5.2 5.66
-1 -4 -11 -3.77 6.55
1 4 11 12.26 6.1
1 4 11 14.64 7.75
1 -4 11 3.68 5.03
1 4 12 94.85 14.99
-1 5 12 278.91 22.69
-1 5 11 192.13 17.52
-1 -5 11 152.12 21.82
-1 5 11 159.43 17.38
1 -5 -11 172.57 21.62
1 5 -11 166.45 20.59
-1 5 10 563.8 30.85
1 -5 -10 602.54 38.35
-1 5 10 595.1 29.34
1 5 -10 553.46 33.67
-1 -5 10 508.79 35.75
-1 5 9 213.99 17.47
1 -5 -9 232.49 23.24
1 5 -9 212.52 19.71
-1 5 9 221.77 16.69
-1 -5 9 189.61 21.12
1 -5 -8 435.53 29.48
-1 5 8 408.73 21.64
1 5 -8 409.15 25.52
-1 5 8 416.86 22.28
-1 -5 8 388.57 27.41
-1 5 7 13.1 4.01
-1 5 7 15.2 4.48
-1 -5 7 15.83 6.67
1 5 -7 6.56 4.22
-1 5 7 8.53 3.38
1 -5 -7 7.68 4.58
-1 5 6 120.83 10.54
1 -5 -6 125.66 14.15
-1 5 6 131.24 9.31
-1 5 6 131.76 10.68
1 5 -6 117.09 12.26
-1 -5 6 108.33 13.67
-1 5 5 1054.29 29.17
-1 5 5 1083.95 28
1 5 -5 1026.8 33.11
1 -5 -5 1064.1 38.91
-1 -5 5 1039.43 39.19
-1 5 5 1151.51 25.4
-1 5 4 682.45 22.18
-1 5 4 698.35 18.17
1 -5 -4 679.59 29.4
1 -5 -4 641.88 19.15
1 5 -4 646.68 24.02
-1 5 4 670.89 20.23
-1 -5 4 640.84 28.86
-1 5 3 282.88 11.81
-1 5 3 287.97 11.09
-1 5 3 289.02 13.64
-1 -5 3 266.29 17.91
1 -5 -3 301.84 18.43
1 5 -3 271.47 14.45
-1 5 2 1399.47 21.09
-1 5 2 1304.6 22.5
1 -5 -2 1365.48 37.3
-1 5 2 1368.91 27.43
1 -5 -1 555.78 22.83
-1 5 1 567.91 16.88
-1 5 1 616.2 10.87
1 5 -1 621.07 16.81
-1 -5 1 569.05 25.57
-1 -5 0 127.81 11.92
1 5 0 124.96 7.99
-1 5 0 119.9 7.34
1 -5 0 103.73 9.87
1 5 0 123.98 7.57
-1 -5 -1 339.65 19.87
1 -5 1 330.37 17.77
1 5 1 335.16 13.06
-1 5 -1 329.76 11.52
1 5 1 349.84 13.13
1 -5 1 317.46 14.44
-1 5 -2 877.86 22.28
-1 5 -2 879.67 18.24
1 5 2 891.94 22.07
1 5 2 911.48 21.79
1 -5 2 862.15 24.5
1 5 2 876.83 27.36
-1 -5 -2 926.55 33.89
-1 -5 -3 148.67 14.39
1 -5 3 140.31 10.7
1 5 3 140.64 9.37
1 5 3 145.75 9.24
-1 5 -3 138.78 9.97
-1 5 -3 131.52 7.07
-1 -5 -3 144.16 14.36
1 5 3 139.5 11.55
-1 -5 -4 3167.52 69.61
1 5 4 3102.37 46.32
1 5 4 3083.87 43.48
-1 5 -4 3100.9 33.55
-1 -5 -4 3044.4 70.55
-1 5 -4 2932.05 50.69
1 -5 4 2987.84 53.56
1 5 4 3050.01 56.61
-1 5 -5 6.86 3.4
1 5 5 2.62 2.49
1 5 5 5.22 2.14
1 5 5 6.58 3.08
-1 -5 -5 8.71 5.36
1 -5 5 5.38 3.28
-1 -5 -5 7.21 4.38
-1 5 -6 1050.97 34.59
1 5 6 1037.03 34.72
-1 -5 -6 968.38 42.42
1 5 6 1002.82 30.26
-1 -5 -6 973.62 43.37
1 -5 6 991.13 34.75
1 5 6 1024.29 28.58
-1 5 -7 117.68 12.86
-1 -5 -7 120.84 15.5
1 5 7 132.38 13.25
1 -5 7 123.54 13.28
-1 -5 -7 112.78 14.8
1 5 7 115.96 11.21
1 5 7 133.49 11.29
1 5 8 270.18 19.13
-1 5 -8 204.38 18.35
1 5 8 249.12 15.82
1 5 8 244.22 17.38
-1 -5 -8 261.03 23.69
1 -5 8 222.98 19.46
1 5 9 78.62 10.74
-1 -5 -9 89.89 15.43
-1 5 -9 75.34 12.4
1 5 9 74.82 8.57
1 -5 9 52.81 11.09
1 5 9 78.81 11.24
1 5 10 280.82 21.49
1 5 10 291.99 21.63
1 -5 10 221.77 24.53
-1 -5 -10 300.14 28.53
-1 5 -10 248.17 23.89
1 -5 11 0.46 6.19
-1 -5 -11 11.88 6.01
-1 5 -11 6.33 6.8
1 5 11 10.9 6.01
1 5 11 14.28 5.5
-1 -6 11 159.9 24.08
1 -6 -11 187.62 23.36
-1 6 11 187.79 18.36
-1 6 11 229.14 19.62
1 6 -10 -0.61 4.87
-1 -6 10 3.91 7.35
-1 6 10 3.05 4.54
-1 6 10 -7.8 6.15
1 -6 -10 15 7.89
-1 6 9 83.72 11.17
-1 -6 9 72.18 14.32
1 -6 -9 108.93 16.83
-1 6 9 88.13 11.42
1 6 -9 83.78 12.49
-1 6 8 -0.46 3.98
1 6 -8 3.2 3.49
-1 6 8 3.98 3.44
-1 -6 8 -0.02 5.86
1 -6 -8 10.38 5.6
1 6 -7 1166.58 41.3
-1 -6 7 1099.76 46.79
1 -6 -7 1189.1 48.19
-1 6 7 1245.23 36.18
-1 6 7 1182.14 36.22
-1 6 6 200.1 13.28
-1 6 6 179.83 13.34
1 -6 -6 161.96 17.13
1 6 -6 168.12 15.07
-1 -6 6 148.19 16.46
1 -6 -5 151.57 15.86
-1 6 5 136.87 11.3
-1 6 5 158.42 10.1
1 6 -5 142.84 12.93
-1 6 5 155.84 10.97
-1 -6 5 128.48 14.7
1 -6 -4 22.79 4.6
-1 6 4 31.71 5.29
1 -6 -4 32.46 7.01
-1 -6 4 22.44 5.91
-1 6 4 37.09 4.57
1 6 -4 32.78 5.72
-1 6 4 34.48 5.58
-1 6 3 289.45 12.24
1 6 -3 301.59 13.67
1 -6 -3 269.28 18.74
-1 6 3 264.17 13.86
-1 6 3 277 11.86
1 6 -2 289.24 12.69
-1 6 2 285.77 9.87
1 -6 -2 240.97 17.05
-1 -6 2 268.55 19.68
-1 6 2 270.14 13.32
-1 6 2 250.12 11.2
-1 6 1 3273.61 43.13
-1 -6 1 3173.58 65.66
1 6 -1 3272.04 44.07
1 6 -1 3333.78 40.99
1 -6 -1 3202.19 60.4
1 6 0 82.72 6.64
-1 -6 0 76.34 9.87
-1 6 0 81.4 6.76
1 -6 0 71.44 8.81
1 6 0 84.5 7.19
-1 6 0 70.28 2.53
1 -6 1 207.18 15.53
1 6 1 209.42 10.86
-1 6 -1 210.2 10.19
1 6 1 202.54 11.34
-1 -6 -1 214.61 17.23
1 6 2 42.08 5.2
-1 6 -2 40.24 4.68
-1 -6 -2 36.33 7.31
1 -6 2 36.79 6.28
1 6 2 39.18 4.98
1 6 2 34.82 6.06
1 6 3 170.21 10.85
-1 -6 -3 169.13 16.61
1 -6 3 135.39 13
-1 -6 -3 149.27 15.37
1 6 3 163.35 13.13
1 6 3 172.25 11.01
-1 6 -3 167.56 9.09
-1 6 -3 161.35 11.62
1 6 4 17.72 5.4
-1 -6 -4 21.27 5.7
-1 6 -4 19.52 3.22
1 6 4 22.62 4.62
-1 6 -4 18.48 4.48
1 -6 4 24.37 6.03
-1 -6 -4 19.19 6.22
1 6 4 20.7 4.32
-1 6 -5 2771.79 36.04
1 6 5 2865.5 49.46
1 6 5 2783.19 46.48
-1 6 -5 2776.9 53.89
-1 -6 -5 2751.08 73.64
1 6 5 2769.51 58.18
-1 -6 -5 2750.23 71.72
1 -6 5 2738.07 58.95
1 6 6 74.74 9.85
1 6 6 80.85 8.92
-1 6 -6 64.25 9.26
1 6 6 75.65 8.18
1 -6 6 57.06 9.38
-1 -6 -6 66.72 12.82
-1 -6 -6 81.65 12.8
1 6 7 481.82 22.9
1 6 7 521.96 22.87
1 6 7 517.55 26.39
1 -6 7 449.56 27.82
-1 6 -7 493.97 26.94
-1 -6 -7 525.51 34.12
-1 -6 -8 6.52 4.91
1 6 8 10.98 5.36
1 -6 8 -6.97 5.39
1 6 8 6.31 4.42
1 6 8 6.96 4.62
-1 6 -8 4.55 4.66
1 6 9 50.07 9.53
1 6 9 36.48 7.56
-1 -6 -9 59.61 11.89
1 -6 9 25.88 8.85
-1 6 -9 47.99 10.07
1 6 9 47.79 8.16
1 6 10 1.74 6.48
1 6 10 -1.58 3.71
1 -6 10 -16.84 8.71
-1 6 -10 4.95 6.52
1 6 10 -7.14 7.92
-1 -6 -10 2.9 7.87
-1 6 -11 228.49 24.35
1 6 11 250.41 22.39
-1 7 10 34.56 8.12
-1 7 10 39.41 7.79
-1 -7 10 32.98 10.49
1 7 -10 23.99 7.81
1 -7 -10 45.76 12.84
1 7 -9 101.51 14.19
-1 -7 9 75.6 16.47
1 -7 -9 121.37 17.76
-1 7 9 117.04 12.49
-1 7 9 124.82 14.1
1 -7 -8 269.58 25.95
-1 -7 8 216.06 23.85
-1 7 8 275.03 19.41
1 7 -8 284.41 22.41
-1 7 8 274.24 19.42
1 7 -7 5.26 4.33
-1 7 7 8.96 4.64
-1 7 7 7.81 3.49
-1 -7 7 1.32 5.82
1 -7 -7 3.31 4.75
-1 7 6 772.09 28.85
1 7 -6 770.94 32.36
1 -7 -6 766.52 38.66
-1 7 6 812.46 26.94
-1 -7 6 725.74 38.46
-1 7 5 19.56 5.02
-1 7 5 19.37 4.66
1 -7 -5 9 5.26
1 7 -5 12.37 4.25
1 -7 -4 164.2 16.19
-1 7 4 154.75 10.59
1 7 -4 170.03 11.22
-1 7 4 162.17 11.97
-1 7 3 102.7 7.43
-1 -7 3 98.36 13.33
-1 7 3 88.28 7.45
1 -7 -3 84.94 11.77
1 7 -3 118 8.85
-1 7 3 93.84 9.07
-1 -7 2 1796.13 55.07
1 7 -2 1839.61 36.26
-1 7 2 1815.61 25.91
1 -7 -2 1728.51 49.9
-1 7 2 1745.49 32.98
-1 7 2 1801.18 36.38
1 7 -2 1876.84 33.66
-1 7 1 83.2 4.54
1 -7 -1 58.6 8.83
-1 -7 1 64.06 9.84
1 7 -1 76.42 7.39
-1 7 1 75.59 7.41
1 7 -1 73.38 6.02
1 -7 0 1382.28 43.3
-1 -7 0 1370.52 46.98
1 7 0 1499.76 29.53
-1 7 0 1477.14 30.53
1 7 0 1460.55 31.76
1 7 1 353.82 14.6
1 7 1 338.87 15.56
1 -7 1 314.8 20.99
-1 7 -1 322.88 13.88
-1 -7 -1 333.85 23.42
1 -7 2 9.96 4.42
-1 7 -2 6.7 2.7
-1 -7 -2 3.77 3.12
1 7 2 5.62 2.69
1 7 2 7.97 2.8
1 -7 2 1.05 4.45
1 7 2 6.11 3.27
1 7 3 3.44 2.76
-1 -7 -3 3.02 3.97
1 -7 3 1.47 3.11
-1 -7 -3 -1.46 3.71
1 7 3 4.31 2.27
-1 7 -3 3.64 2.13
1 7 3 4.02 3.13
1 -7 4 834.01 34.96
1 7 4 1068.55 29.14
-1 7 -4 1031.56 23.61
-1 7 -4 981.19 30.64
1 7 4 950.6 27.69
-1 -7 -4 970.08 43.25
-1 -7 -4 888.24 42.13
1 7 4 987.3 34.81
1 7 5 2.88 2.91
-1 7 -5 2.83 3.2
1 -7 5 -0.28 3.3
-1 -7 -5 5.32 3.35
1 7 5 3.22 2.03
-1 7 -5 0.95 2.24
1 7 5 0.69 2.63
-1 -7 -5 5.89 5.13
1 7 6 1243.08 35.08
-1 7 -6 1186.95 39.24
-1 -7 -6 1225.2 52.14
1 7 6 1256.1 41.51
1 -7 6 1131.85 43.49
1 7 6 1258.54 35.06
1 7 7 1.43 3.11
-1 7 -7 1.74 2.95
1 7 7 1.34 3.01
-1 -7 -7 8.43 5.29
1 -7 7 6.45 4.69
1 7 7 4.12 3.88
1 7 8 19.58 6.61
-1 7 -8 9.06 5.09
1 7 8 27.98 6.74
-1 -7 -8 16.43 8.03
1 -7 8 15.17 7.6
1 7 8 26.07 6.95
1 7 9 69.67 10.71
-1 7 -9 46.26 10.8
-1 -7 -9 55.58 12.39
1 7 9 76.09 10.04
1 -7 9 55.56 12.92
1 7 10 229.13 17.88
-1 -7 -10 242.35 27.59
-1 7 -10 209.32 21.4
1 -7 10 191.69 24.59
1 7 10 237.76 20.49
-1 8 10 -3.83 8.6
1 -8 -10 24.03 9.97
-1 8 10 13.21 5.6
-1 -8 9 116.26 20.65
-1 8 9 165.29 15.99
1 8 -9 163.56 18.74
1 -8 -9 173.42 22
-1 8 9 175.23 16.46
-1 8 8 336.88 22.38
-1 8 8 331.26 21.28
1 8 -8 327.74 24.84
1 -8 -8 339.59 29.12
-1 -8 8 262.01 29.69
-1 -8 7 44.91 11.66
-1 8 7 69.03 9.44
1 -8 -7 82.6 13.86
-1 8 7 84.12 10.83
1 8 -7 87.66 12.5
1 -8 -6 83.03 14.12
-1 8 6 83.84 9.41
-1 -8 6 57.85 11.53
-1 8 6 76.61 9.7
1 8 -6 88.8 11.71
-1 8 5 665.03 27.17
-1 8 5 701.76 23.89
1 -8 -5 656.34 36.38
1 8 -4 51.91 6.52
1 -8 -4 40.17 8.75
-1 8 4 50.49 6.29
-1 8 4 41.72 6.29
1 8 -3 1595.2 36.42
-1 8 3 1550.11 37.68
-1 -8 3 1499.01 55.72
1 -8 -3 1538.7 52.42
1 8 -2 267.86 14.71
-1 -8 2 245.15 21.6
1 -8 -2 221.23 19.39
-1 8 2 258.74 14.85
1 8 -2 277.94 13.15
1 -8 -1 838.29 36.78
-1 -8 1 791.5 37.57
1 8 -1 904.37 26.9
-1 8 1 864.03 25.92
1 8 0 248.35 12.4
-1 -8 0 232.58 21.02
1 8 0 259.84 14.46
-1 8 0 241.93 13.42
1 -8 0 223.83 19.01
1 8 1 183.59 11.01
-1 -8 -1 172.75 18.12
1 -8 1 140.43 15.26
1 8 1 178.11 12.17
-1 8 -1 172.39 11.01
-1 8 -2 39.04 5.42
1 8 2 35.95 5.67
1 -8 2 28.82 7.58
1 8 2 43 5.49
1 8 2 34.48 6.9
-1 -8 -2 30.4 8.3
1 8 3 346.05 21.23
1 8 3 355.35 16.54
-1 -8 -3 291.6 24.46
1 -8 3 336.94 25.46
-1 -8 -3 352 27.03
-1 8 -3 339.36 15.26
1 8 3 336.94 17.42
1 8 4 128.8 10.83
-1 8 -4 105.6 8.57
-1 -8 -4 118.84 16.32
1 8 4 115.13 12.78
1 -8 4 91.42 12.61
-1 -8 -4 110.8 15.83
1 8 4 119.02 10.7
1 8 5 569.74 23.24
-1 8 -5 532.78 25.68
-1 -8 -5 550.26 35.71
1 8 5 547.23 28.01
1 8 5 547.93 23.51
1 -8 5 475.39 30.13
1 8 6 65.87 9.28
1 8 6 79.97 9.56
-1 8 -6 81.55 10.95
1 8 6 81.72 9.82
-1 -8 -6 93.03 15.71
1 -8 6 60.35 12.65
1 8 7 143 13.49
1 8 7 133.4 13.35
-1 -8 -7 146.87 19.68
1 -8 7 88.79 15.74
-1 8 -7 123.33 14.62
1 8 7 152.02 15.24
1 8 8 14.39 6.24
-1 8 -8 14.16 5.95
-1 -8 -8 4.74 5.27
1 8 8 20.15 6.18
1 -8 8 21.38 9.62
-1 8 -9 132.03 16.93
1 8 9 157.5 16.15
1 -8 9 116.88 18.62
-1 -8 -9 146.18 20.72
1 8 9 146.16 14.59
1 8 10 75.98 12.31
-1 8 -10 67.51 12.82
1 8 10 81.5 10.96
-1 -9 9 -1.69 10.68
1 -9 -9 20.97 9.43
-1 9 9 8.08 5.83
1 9 -9 19.38 8.29
-1 -9 8 52.54 14.51
1 9 -8 101.06 14.97
1 -9 -8 90.16 16.01
-1 9 8 91.89 12.82
1 -9 -7 11.58 6.7
-1 -9 7 -3.04 10.72
1 9 -7 34.96 8.42
-1 9 7 20.88 6.61
-1 9 6 180.88 15.89
1 -9 -6 196.78 21.63
1 -9 -5 123.36 16.84
-1 9 5 130.92 12.55
-1 -9 4 1229.4 55.56
1 -9 -4 1255.46 51.55
1 9 -4 1341.8 35.81
-1 9 4 1296.92 38.06
-1 9 3 8.85 3.33
1 -9 -3 9.84 5.51
1 9 -3 10.33 3.73
-1 -9 3 5.49 5.33
1 -9 -2 501.03 31.44
-1 -9 2 509.99 33.31
1 9 -2 530.18 23.02
-1 9 2 507.77 22.59
-1 9 1 41.64 7
1 9 -1 46.36 7.27
1 -9 -1 41.13 8.63
-1 -9 1 48.08 9.82
1 -9 0 435.35 28.8
-1 9 0 480 20.46
1 9 0 506.08 21.62
-1 -9 0 458.2 31.16
1 9 1 31.93 5.55
1 9 1 27.23 4.28
1 -9 1 25.05 6.92
-1 9 -1 23.62 5.09
-1 -9 -1 17.11 6.12
1 9 2 677.84 22.85
-1 -9 -2 625.83 37.12
1 -9 2 587.14 33.9
1 9 2 650.81 24.77
1 9 2 618.93 30.14
-1 9 -2 674.1 22.7
1 -9 3 13.65 7.53
-1 9 -3 15.22 4.23
1 9 3 24.9 5.07
1 9 3 22.19 5.04
-1 -9 -3 20.19 7.67
-1 -9 -3 12.62 6.08
1 9 3 13.42 5.25
-1 9 -4 5.38 2.66
1 9 4 8.26 5.3
1 9 4 7.65 3.44
1 9 4 11.77 4.25
-1 -9 -4 10.21 5.71
1 -9 4 3.14 5.79
1 -9 4 11.27 7.85
-1 -9 -4 7.05 6.69
1 9 5 -2.35 5.33
1 9 5 12.24 4.34
-1 -9 -5 12.11 7.74
1 -9 5 4.17 5.1
1 9 5 7.99 4.13
1 9 6 223.78 16.75
-1 9 -6 204.32 18.26
1 9 6 213.15 16.91
-1 -9 -6 228.41 24.71
1 9 7 22 5.86
1 -9 7 22.45 8.56
-1 -9 -7 26.66 9.85
1 9 7 19.87 5.61
-1 9 -7 14.72 6.53
1 9 8 519.3 28.03
-1 9 -8 505.73 31.36
-1 -9 -8 578.84 42.07
1 9 8 582.79 29.43
1 -9 9 30.79 10.44
1 9 9 76.53 12.25
1 9 9 57.93 10.32
-1 -9 -9 60.47 13.89
-1 9 -9 48.41 11.53
-1 10 8 3.44 5.16
1 -10 -8 1.01 6.59
-1 10 7 16.97 5.95
1 -10 -7 13.83 9.52
1 -10 -6 8.58 6.44
-1 -10 6 7.24 8.11
-1 10 6 8.84 5.22
1 10 -6 -0.68 3.66
1 10 -5 448.01 22.41
-1 -10 5 420.32 35.76
1 -10 -5 408.29 31.66
-1 10 5 440.97 24.29
-1 10 4 31.86 6.93
1 10 -4 32.31 6.65
1 -10 -4 25.69 9.05
-1 -10 4 23.14 9.21
1 -10 -3 1115.73 51.04
1 10 -3 1190.88 35.77
-1 -10 3 1056.64 52.16
-1 10 3 1150.23 36.51
-1 -10 2 1.67 4.46
-1 10 2 13.01 4.93
1 10 -2 9.16 3.92
1 -10 -2 8.67 4.49
1 -10 -1 46.57 10.43
1 10 -1 62.63 8.33
-1 10 1 64.28 8.8
-1 -10 1 41.59 10.49
-1 -10 0 163.78 20.62
1 10 0 174.32 13.72
1 -10 0 149.13 17.58
-1 10 0 166.35 12.91
1 -10 1 459.19 31.9
1 10 1 522.66 23.4
-1 10 -1 487.47 21.46
-1 -10 -1 487.73 34.21
-1 10 -2 -1.06 2.18
1 10 2 6.65 3.59
1 -10 2 -1.34 4.02
-1 -10 -2 -3.14 5.51
1 10 2 -0.88 5.1
-1 -10 -3 426.65 34.82
1 10 3 524 30.8
1 10 3 522.36 24.56
1 -10 3 467.39 34.15
-1 -10 -3 531.53 37.36
-1 10 -3 550.69 22.2
1 -10 4 17.87 7.12
-1 -10 -4 26.96 7.68
1 10 4 28.32 6.72
-1 -10 -5 0.34 5.89
1 10 5 16.58 5.7
1 -10 5 -7.72 10.27
1 -10 5 7.23 6.06
1 10 6 6.38 4.68
1 -10 6 -7.62 8.28
-1 -10 -6 10.88 8.61
1 10 7 333.17 22.56
-1 -10 -7 337.01 32.41
-1 -10 -8 1.8 6.93
1 10 8 3.09 5
1 -10 8 -1.05 8.71
-1 10 -8 3.38 4.11
1 -11 -7 13.89 9.22
-1 11 6 108.88 14.63
1 -11 -6 94.96 18.63
-1 -11 6 96.18 19.93
1 11 -5 5.72 4.48
-1 11 5 -5.5 5.48
-1 -11 5 3.91 7.01
1 -11 -5 -6.94 6.01
-1 11 4 449.23 25.44
-1 -11 4 404.4 35.41
1 11 -4 464.12 23.75
1 -11 -4 423.31 34.09
-1 -11 3 87.62 16.24
1 -11 -3 96.82 15.74
1 11 -3 123.46 11.97
-1 11 3 110.22 12.26
1 -11 -2 203.54 22.83
-1 -11 2 236.24 25.55
-1 11 2 271.1 18.6
1 11 -2 259.58 18.31
1 11 -1 77.42 9.56
1 -11 -1 40.76 8.69
-1 -11 1 65.27 12.27
-1 11 1 71.67 10.01
-1 11 0 89.46 11.02
-1 -11 0 87.87 15.57
1 -11 0 66.38 12.62
1 11 0 99.26 11.32
1 -11 1 220.01 23.73
1 11 1 210.77 20.12
1 11 1 259.16 17.81
-1 11 -1 250.25 16.62
-1 -11 -1 222.39 24.49
-1 11 -2 537.19 23.54
1 -11 2 434.56 33.9
-1 -11 -2 519.67 38.11
1 11 2 525.17 25.63
1 -11 3 92.31 15.96
-1 -11 -3 106.98 17.72
-1 11 -3 113.7 11.16
1 11 3 127.87 12.82
-1 -11 -4 255.08 27.98
1 11 4 258.41 19.24
1 -11 4 218.52 25.7
1 11 5 0.71 3.85
-1 -11 -5 -0.29 6.63
1 -11 5 6.06 8.7
1 -11 6 54.48 15.36
1 11 6 66.51 11.01
-1 -11 -6 62.41 13.95
1 -11 7 -16.3 14.69
-1 -12 5 48.95 14.7
1 -12 -5 40.83 13.63
-1 12 5 54.47 10.36
1 12 -5 63.12 9.71
-1 -12 4 -4.38 7.06
1 12 -4 3.1 3.58
1 -12 -4 -9.2 9.65
-1 12 4 -0.69 4.5
1 -12 -3 3.5 6.33
-1 12 3 27.31 6.92
1 12 -3 17.36 5.69
-1 -12 3 23.63 9.28
-1 -12 2 87.54 17.92
1 12 -2 113.13 12.45
1 -12 -2 66.01 12.82
-1 12 2 96.18 11.63
1 -12 -1 340.32 30.64
-1 -12 1 380.03 35.01
1 12 -1 453.64 24.69
-1 12 1 450.65 23.96
-1 12 0 133.38 14.29
-1 -12 0 117.05 19.09
1 -12 0 91.2 15
1 12 0 132.43 14.05
1 12 1 217.27 17.72
-1 12 -1 203.48 16.58
-1 -12 -1 179.58 23.05
1 -12 1 146.12 19.59
1 12 2 68.78 10.42
-1 -12 -2 42.71 10.77
1 -12 2 62.3 14.61
-1 12 -2 52.32 8.57
1 -12 3 109.01 19.01
-1 -12 -3 152.74 22.98
1 12 3 150.83 15.68
1 -12 4 105.86 19.93
-1 -12 -4 97.77 19.77
1 12 4 112.61 13.76
-1 -12 -5 303.47 33.75
1 -12 5 273.66 31.35
1 -12 6 17.78 12.25
1 13 -4 8.7 5.33
1 13 -3 9.48 5.51
1 13 -2 113.69 13.3
-1 -13 2 93.76 20.03
-1 13 2 95.38 12.81
1 13 -1 8.6 6.95
-1 13 1 -0.59 4.64
-1 -13 1 -11.63 9.48
-1 -13 0 355.59 36.11
1 -13 0 341.55 33.91
1 13 0 411.93 25.48
-1 13 0 389.4 23.97
-1 -13 -1 -13.71 12.72
1 13 1 -1.13 4.87
1 -13 1 -16 12.93
-1 13 -1 6.19 8.4
1 -13 2 50.85 14.64
-1 -13 -2 20.84 10.08
1 -13 3 -8.28 9.98
-2 0 12 374.49 30.46
2 0 -12 330.24 28.61
-2 0 11 -6.25 5.17
2 0 -11 -10.02 5.8
-2 0 11 -12.32 8.05
2 0 -10 0.69 4.95
-2 0 10 -3.4 4.25
-2 0 10 1.2 4.14
2 0 -9 -2.03 3.19
-2 0 9 -12.41 5.95
-2 0 9 -2.65 4.06
2 0 -8 1276.07 43.06
-2 0 8 1397.7 42.1
-2 0 8 1302.7 37.78
-2 0 7 -1.9 2.97
2 0 -7 4.22 3.82
-2 0 7 -0.75 2.36
2 0 -6 3551.72 60.65
-2 0 6 3551.6 53.5
-2 0 6 3702.09 58.55
-2 0 5 0.77 1.73
2 0 -5 -0.75 1.51
-2 0 5 3.24 2.83
2 0 -4 547.84 18.85
-2 0 4 554.38 19.65
-2 0 4 569.06 18.43
-2 0 3 0.2 1.48
2 0 -3 0.77 1.42
-2 0 3 0.48 1.1
2 0 -2 457.33 11.7
-2 0 2 457.58 13.76
-2 0 1 -0.57 1.21
-2 0 1 0.16 0.81
-2 0 0 2040.18 23.53
2 0 0 2020.9 29.88
-2 0 0 2099.05 45.14
-2 0 0 2102.24 23.16
2 0 0 2099.27 28.19
2 0 1 0.66 1.33
2 0 1 0.31 0.87
-2 0 -1 0.63 1.06
-2 0 -1 1.72 1.81
2 0 2 54.49 4.99
2 0 2 50.24 5.81
-2 0 -2 52.35 5.28
-2 0 -2 43.99 7.88
2 0 3 4.05 2.24
2 0 3 0.07 0.58
2 0 3 1.67 1.78
-2 0 -3 1.16 1.81
-2 0 -3 3.15 2.73
2 0 4 1654.42 30.63
2 0 4 1650.91 37.45
-2 0 -4 1595.41 53.89
-2 0 -4 1683.82 39.35
2 0 4 1681.29 16.44
-2 0 -5 0.23 2.84
2 0 5 -1.58 1.31
-2 0 -5 0.97 3.12
2 0 5 -1.33 1.62
2 0 5 3.32 2.91
2 0 6 990.51 28.06
2 0 6 923.79 17.46
-2 0 -6 1007.54 36.62
2 0 6 944.46 32.03
-2 0 -6 912.69 45
-2 0 -7 6.11 5.5
2 0 7 3.16 2.79
-2 0 -7 -6.09 4.06
2 0 7 1.9 2.26
-2 0 -8 174.63 17.21
2 0 8 150.54 13.91
2 0 8 173.83 15.51
-2 0 -8 155.64 21.84
-2 0 -9 -1.08 4.12
2 0 9 6.87 5.04
-2 0 -9 1.73 5.56
2 0 9 6.26 4.84
2 0 10 1008.41 38.36
-2 0 -10 912.68 45.31
2 0 10 986.39 41.91
2 0 11 -4.72 7.16
2 0 11 3.23 4.86
-2 0 -11 16.52 9.08
2 0 12 296.83 24.96
-2 0 -12 307.15 29.06
2 0 12 321.58 27.03
-2 -1 12 54.13 15
2 -1 -12 34.25 10.11
2 1 -12 35.7 8.77
-2 1 12 41.56 8.78
-2 -1 11 131.95 18.19
-2 1 11 100.81 13.13
-2 -1 11 113.88 14.1
2 -1 -11 108.18 15.9
2 1 -11 97.45 15.01
-2 1 11 127.12 15.87
-2 1 10 -8.51 7.25
-2 -1 10 24.33 8.4
2 -1 -10 13.35 6.26
2 1 -10 0.89 4.59
-2 1 10 11.55 4.8
-2 -1 10 7.04 4.68
-2 1 9 299.34 19.87
-2 -1 9 327.69 20.74
-2 1 9 331.86 21.18
-2 -1 9 314.27 23.21
2 -1 -9 318.83 23.61
2 1 -9 298.5 21.96
-2 1 8 0.58 2.8
-2 -1 8 8.34 4.66
2 -1 -8 5.23 4.57
2 1 -8 -0.72 3.07
-2 1 8 0.93 2.89
-2 -1 8 -3.18 3.63
-2 1 7 1415.04 36.88
2 1 -7 1361.85 40.85
-2 1 7 1448.54 37.63
-2 -1 7 1448.41 37.39
-2 -1 7 1415.86 41.96
2 -1 -7 1391.99 42.24
2 -1 -6 300.92 18.08
-2 1 6 305.79 15.89
-2 -1 6 308.72 15.93
2 1 -6 286.28 17.22
-2 1 6 310.96 15.87
-2 -1 6 307.87 18.15
-2 -1 5 1652.43 34.56
-2 -1 5 1729.5 40.22
2 1 -5 1719.46 38
-2 1 5 1774.83 36.1
2 -1 -5 1748.83 39.42
-2 1 5 1745.2 34.19
2 -1 -4 485.46 18.23
2 1 -4 493.55 18.06
-2 1 4 501.83 17.57
-2 -1 4 501.7 17.74
-2 1 4 481.43 15.96
-2 -1 4 491.75 19.99
2 -1 -3 2071.23 31.5
-2 1 3 2075.57 33.05
2 1 -3 2031.76 31.77
-2 -1 3 2094.19 33.39
-2 1 3 2055.05 30.68
-2 -1 3 2009.29 39.04
-2 1 2 1416.73 28.45
2 -1 -2 1400.07 19.88
-2 -1 2 1408.57 25.16
-2 1 2 1381.18 24.35
2 1 -2 1402.55 22.34
2 1 -1 306.01 11.33
2 -1 -1 289.01 5.4
-2 1 1 302.82 10.03
-2 1 1 295.31 15.17
-2 -1 1 299.68 10.52
-2 -1 0 582.98 16.11
-2 1 0 553.77 11.79
2 -1 0 543.71 13.88
-2 -1 0 568.69 23.4
-2 1 0 567.28 23.33
2 -1 0 539.9 13.22
2 1 0 593.51 16.24
2 1 1 15.86 3.18
2 -1 1 18.85 3.12
-2 1 -1 17.33 1.74
2 -1 1 18.94 2.52
-2 1 -1 19.25 2.23
2 -1 1 15.08 2.17
-2 -1 -1 22.14 3.75
-2 -1 -1 21.19 5.39
2 1 1 17.52 2.78
-2 1 -1 16.39 4.61
2 1 2 120.29 7.71
2 -1 2 125.04 6.62
2 1 2 123.13 9.36
-2 1 -2 129.25 7.56
-2 -1 -2 132.28 13.74
2 -1 2 117.65 8.18
-2 1 -2 118.27 12.54
-2 -1 -2 123.78 9.09
2 1 3 2081.2 33.54
-2 -1 -3 2142.72 42.61
2 -1 3 2103.25 30.14
2 1 3 2115.59 42.01
-2 1 -3 2162.9 37.01
2 -1 3 2105.7 37.87
2 1 3 2128.18 21.42
-2 -1 -3 2074.89 58.46
-2 1 -3 2132.59 58.42
2 1 4 47.79 5.83
2 -1 4 50.66 5.45
-2 1 -4 50.43 6.64
2 1 4 55.29 3.75
2 1 4 59.18 7.43
2 -1 4 56.75 6.68
-2 -1 -4 51.38 7.3
-2 -1 -4 48.3 9.84
-2 1 -4 54.89 9.87
2 1 5 1899.87 36.89
2 -1 5 1910.53 34.42
-2 -1 -5 1835.37 47.24
-2 1 -5 1892.59 44.35
2 -1 5 1809.61 40.38
-2 -1 -5 1718.16 59.5
-2 1 -5 1787.56 60.38
2 1 5 1740.05 42.55
2 1 5 1920.21 25.52
2 1 6 270.33 10.31
2 1 6 260.46 15.25
2 -1 6 283.32 14.44
2 -1 6 242.61 16.25
-2 1 -6 275.97 18.56
2 1 6 272.65 17.88
-2 -1 -6 262.85 24.58
-2 1 -6 282.82 25.63
-2 -1 -6 291.45 20.17
2 1 7 66.12 8.57
2 -1 7 68.31 8.42
2 -1 7 69.51 9.51
-2 -1 -7 70.18 11.07
2 1 7 73 9.79
-2 -1 -7 66.45 13.17
-2 1 -7 69.61 14.03
-2 1 -7 72.92 10
-2 1 -8 2.09 3.7
2 1 8 4.7 3.87
2 -1 8 8.57 4.27
-2 1 -8 0.18 4.94
2 1 8 0.24 2.46
-2 -1 -8 -2.56 3.8
2 -1 8 5.37 3.99
-2 -1 -8 2.95 6.61
2 1 9 620.35 28.04
2 -1 9 649.58 28.22
-2 -1 -9 615.67 35.82
-2 1 -9 641.3 35.23
2 1 9 640.15 31.33
-2 -1 -9 619.01 42.41
2 -1 9 629.77 31.48
-2 -1 -10 13.06 7.16
2 1 10 19.35 7.37
-2 1 -10 10.2 7.38
2 -1 10 6.18 5.62
2 -1 10 13.57 7.04
2 1 10 13.9 5.96
-2 -1 -10 7.89 7.29
2 1 11 831.49 37.55
2 -1 11 868.27 38.55
-2 1 -11 850.97 45.79
2 1 11 942.65 43
2 -1 11 900.29 42.88
-2 -1 -11 841.39 46.92
-2 1 -12 26.89 9.27
2 1 12 17.73 7.4
2 -1 12 14.64 6.76
2 1 12 14.97 7.23
2 -2 -12 235.81 24.66
2 2 -12 210.75 23.09
-2 2 12 217.12 20.02
-2 -2 12 209.94 24.6
-2 2 11 102.21 13.09
2 2 -11 92.81 14.78
-2 -2 11 83 12.53
-2 -2 11 99.59 15.65
2 -2 -11 88.71 14.72
2 -2 -10 374.55 27.57
2 2 -10 350.04 25.98
-2 2 10 357.63 23.26
-2 -2 10 347.22 23.25
-2 -2 10 356.49 27.55
-2 2 9 22.13 5.24
-2 -2 9 25.11 6.26
-2 2 9 16.66 5.48
-2 -2 9 23.56 8
2 2 -9 14.99 5.33
2 -2 -9 21.31 7.09
-2 -2 8 195.41 15.14
2 -2 -8 191.08 17.36
-2 2 8 203.88 15.08
2 2 -8 179.23 16.58
-2 2 8 207.4 14.91
-2 -2 8 188.39 18.06
-2 -2 7 68.09 8.44
-2 2 7 62.86 8.23
2 -2 -7 64.09 9.32
2 2 -7 65.81 9.33
-2 2 7 67.8 7.95
-2 -2 7 73.33 10.58
-2 -2 6 1184.44 32.11
2 -2 -6 1149.54 36.66
2 2 -6 1159.99 35.09
-2 2 6 1187.03 29.26
-2 2 6 1182.64 31.78
-2 -2 6 1147.84 37.47
-2 2 5 17.78 3.14
-2 2 5 17.54 3.5
-2 -2 5 19.31 4.18
-2 -2 5 22.1 5.62
2 -2 -5 14.58 3.6
2 2 -5 15.38 3.67
-2 2 5 4.42 1.91
2 2 -4 2571.42 42.42
-2 -2 4 2522.17 40.46
2 -2 -4 2480.97 43.73
-2 2 4 2521.75 39.99
-2 2 4 2581.32 33.39
-2 -2 4 2574.1 49.96
2 -2 -3 1931.78 32.63
-2 2 3 1945.37 32.41
2 2 -3 1994.47 33.37
-2 -2 3 1930.93 33.34
-2 2 3 1934.67 25.1
2 -2 -2 494.71 13.19
2 2 -2 512.18 14.86
-2 2 2 505.13 15.14
2 -2 -2 458.33 8.18
-2 2 2 514.36 15.01
-2 2 1 311.62 7.7
-2 2 1 336.87 11.04
-2 -2 1 367.33 15.3
2 -2 -1 344.33 7.33
2 -2 -1 322.72 7.2
-2 2 1 346.04 15.14
2 2 -1 352.29 13.07
-2 -2 0 301.42 13.64
-2 2 0 281.45 8.75
2 -2 0 277.91 8.32
-2 -2 0 309.41 17.47
-2 2 0 288.54 16.25
2 -2 0 273.53 8.56
2 2 0 275.67 11.38
2 -2 1 750.26 14.35
-2 -2 -1 760.44 22.99
2 -2 1 673.37 13.45
-2 2 -1 776.08 11.74
-2 -2 -1 781.96 30.66
2 -2 1 734.33 16.57
-2 2 -1 748.05 28.95
-2 2 -1 736.52 11.76
2 2 1 751.84 22.65
2 2 1 682.23 18.47
-2 2 -2 2650.3 59.42
2 2 2 2482.57 36.79
2 -2 2 2572.98 27.93
2 2 2 2542.17 27.47
-2 2 -2 2593.92 30.51
2 -2 2 2456.94 14.87
2 2 2 2574.29 45.26
-2 -2 -2 2616.43 46.91
-2 2 -2 2481.15 15.21
-2 -2 -2 2646.3 61.74
2 -2 2 2539.68 35.33
-2 2 -3 33.84 4.67
2 2 3 37.95 4.9
2 2 3 38.41 6.32
2 -2 3 34.86 3.8
2 -2 3 30.84 4.36
-2 -2 -3 37.94 6.12
2 2 3 35.22 3.47
-2 -2 -3 27.18 6.99
-2 2 -3 33.03 7.8
2 2 4 1212.95 28.61
2 -2 4 1237.45 24.45
-2 2 -4 1241.28 31.12
2 2 4 1225.4 35.05
-2 -2 -4 1191.97 48.13
2 -2 4 1244.85 30.65
-2 2 -4 1148.1 46.67
-2 -2 -4 1249.94 38.1
2 2 4 1227.92 20.4
2 2 5 52.01 6.53
2 2 5 56.42 7.99
2 -2 5 54.08 5.99
2 -2 5 55.19 7.28
-2 2 -5 50.43 7.52
-2 -2 -5 51.19 8.1
-2 -2 -5 52.57 10.24
2 2 5 60.43 4.99
-2 2 -5 46.19 10.48
2 2 6 414.96 19.81
2 -2 6 448.72 18.17
-2 2 -6 487.75 23.96
-2 2 -6 416.6 31.68
-2 -2 -6 462.26 26.39
2 2 6 447.42 23.44
-2 -2 -6 420.15 30.53
2 -2 6 443.26 22.07
2 2 6 491.62 15.43
2 2 7 249.94 11.71
2 2 7 216.92 14.82
-2 2 -7 247.97 18.57
-2 -2 -7 218.27 23.43
2 -2 7 231.18 17.03
-2 2 -7 183.77 22.58
2 -2 7 225.33 14.81
2 2 7 248.85 18.25
-2 -2 -7 249.65 20.31
-2 -2 -8 595.82 33.89
2 2 8 534.46 24.65
2 -2 8 562.27 28.31
-2 2 -8 548.3 29.85
2 2 8 583.26 28.58
-2 -2 -8 519.97 36.88
2 -2 8 561.53 24.17
2 -2 9 57.06 10.23
-2 -2 -9 53.18 11.2
2 2 9 45.18 7.62
2 2 9 54.46 9.41
2 -2 9 45.13 8.6
-2 2 -9 53.98 10.85
-2 -2 -9 48.62 13.11
-2 -2 -10 270.89 25.19
-2 2 -10 264.72 24.66
2 -2 10 289.35 20.82
2 2 10 281.01 22.13
-2 -2 -10 291.44 30.28
2 -2 10 279.04 23.28
2 2 10 278.62 20.91
-2 2 -11 1.81 5.19
2 2 11 -1.03 4.56
2 -2 11 12.52 7.6
2 -2 11 -0.31 5.34
-2 -2 -11 9.32 5.55
2 2 11 6.9 5.19
-2 2 -12 182.5 22.34
2 -2 12 188.92 20.42
2 2 12 219.89 22.14
-2 -3 12 25.54 11.24
2 -3 -12 9.1 8.72
-2 3 12 -7.46 6.98
2 -3 -11 412.19 31.23
-2 3 11 430.22 26.74
2 3 -11 384.81 29.53
-2 -3 11 422.79 34.07
-2 -3 10 9.27 7.77
2 -3 -10 10.16 5.66
2 3 -10 8.04 6.32
-2 3 10 -1.14 4.12
2 3 -9 344.97 24.56
-2 3 9 365.92 21.77
2 -3 -9 317.43 24.63
-2 -3 9 309.71 25.81
2 -3 -8 85.87 12.11
2 3 -8 90.01 12.24
-2 3 8 90.77 9.82
-2 -3 8 79.66 12.88
-2 3 8 86.61 10.08
-2 3 7 114.93 9.71
2 3 -7 110.11 12.38
2 -3 -7 114.57 12.9
-2 -3 7 100.98 13.39
-2 3 7 114.3 10.62
2 -3 -6 31.01 6.21
-2 3 6 37.67 5.86
-2 3 6 36.59 5.13
-2 -3 6 40.09 8.08
2 3 -6 40.61 7.02
-2 3 5 1457.02 33.71
2 -3 -5 1466.26 39.52
2 3 -5 1490.84 37.01
-2 3 5 1503.24 26.33
-2 -3 5 1475.64 43.05
-2 3 4 719.86 21.91
2 -3 -4 736.6 24.86
2 3 -4 787.51 24.62
-2 -3 4 754.63 29.39
-2 3 4 759.16 15.88
2 -3 -3 786.83 22.62
2 3 -3 824.94 22.58
-2 3 3 807.01 21.31
-2 3 3 790.84 12.62
-2 3 2 485.71 15.43
2 3 -2 513.62 16.24
2 -3 -2 493.18 15.46
2 3 -2 521.46 17.12
-2 3 1 757.87 17.6
-2 3 1 806.47 21.82
-2 -3 1 815.45 26.21
2 -3 -1 739.08 16.32
2 3 -1 807.04 21.04
-2 3 0 286.56 9.59
2 -3 0 297.61 7.5
-2 -3 0 298.45 15.51
-2 3 0 301.86 16.14
2 -3 0 275.86 7.62
2 -3 0 270.53 9.49
2 3 0 283.81 12.29
2 -3 1 4533.43 29.62
-2 3 -1 4506.23 33.17
-2 -3 -1 4576.9 63.5
-2 -3 -1 4660.76 74.44
2 3 1 4549.84 59.17
-2 3 -1 4581.25 72.27
2 -3 1 4452.73 39.35
-2 3 -1 4512.76 32.96
2 3 1 4550.44 51.18
-2 3 -2 9.71 2.2
2 3 2 12.19 2.96
2 -3 2 11.58 2.8
2 -3 2 12.95 2.1
-2 -3 -2 11.16 3.58
-2 3 -2 11.5 1.52
-2 -3 -2 14.36 5.79
2 3 2 10.71 1.9
-2 3 -2 11.17 4.24
2 3 2 9.48 3.79
2 3 3 1424.94 30.61
2 -3 3 1369.77 21.35
-2 -3 -3 1382.16 49.29
-2 -3 -3 1432.97 40.59
2 3 3 1431.6 37.24
2 3 3 1401.14 23.71
2 -3 3 1430.39 30.11
-2 3 -3 1377.2 47.3
-2 3 -3 1462.32 28.12
2 3 4 5.43 3.45
2 -3 4 3.31 2.61
2 3 4 5.12 1.94
2 3 4 3.86 2.26
2 -3 4 4.05 1.79
-2 3 -4 2.79 2.32
-2 3 -4 5.35 4.21
-2 -3 -4 2.78 2.79
-2 -3 -4 9.75 4.24
2 -3 5 149 11.87
2 3 5 156.44 13.62
2 3 5 150.58 11.22
2 -3 5 119.98 9.57
-2 -3 -5 157.65 15.37
-2 3 -5 126.25 17.05
-2 -3 -5 136.78 16.81
-2 3 -5 141.39 11.63
2 3 5 153.88 8.83
-2 -3 -6 81.76 11.66
2 3 6 61.19 7.94
-2 3 -6 72.86 9.14
2 -3 6 59.53 7.51
2 3 6 85.94 10.51
2 -3 6 73.52 9.67
-2 -3 -6 68.73 12.63
2 3 6 83.35 6.96
2 3 7 1501.04 30.93
2 3 7 1417.3 37.55
-2 -3 -7 1404.56 50.68
2 -3 7 1420.32 35.14
2 3 7 1431.94 44.19
-2 -3 -7 1324.82 57.72
2 -3 7 1439.65 42.33
-2 3 -7 1420.07 43.08
2 3 8 6.09 4.14
2 -3 8 1.7 3.43
2 3 8 1.07 2.75
-2 -3 -8 2.73 5.6
-2 3 -8 1.71 3.35
2 -3 8 3.37 4.32
-2 -3 -8 -1.66 6.8
2 3 9 191.88 16.3
-2 -3 -9 228.05 23.16
-2 3 -9 175.81 18.59
2 3 9 217.09 18.22
2 -3 9 175.52 17.96
2 -3 9 205.57 16.16
-2 -3 -9 203.84 24.32
-2 3 -10 5 4.05
2 3 10 4.44 4.74
-2 -3 -10 4.59 6.03
2 3 10 -3.48 4.05
2 -3 10 0.76 4.08
2 -3 10 1.99 4.02
2 3 11 5.09 4.93
2 3 11 15.71 8.42
-2 3 -11 -0.36 4.81
2 -3 11 9.17 7.18
-2 -3 -11 11.75 5.99
2 -3 11 -4.14 5.44
2 -4 -12 90.74 17.03
2 4 -11 45.38 11.33
-2 -4 11 20.75 10.58
2 -4 -11 33.83 10.38
-2 4 11 49.28 9.93
2 -4 -10 730.46 40.34
2 4 -10 699.92 37.49
-2 4 10 780.15 34.32
-2 -4 10 684.28 41.28
2 -4 -9 29.53 8.46
-2 -4 9 40.63 11.19
-2 4 9 27.37 6.16
2 4 -9 40.71 9.53
2 -4 -8 96.11 13.15
-2 4 8 96.8 11
-2 -4 8 98.88 14.58
2 4 -8 100.65 12.8
-2 4 7 18.62 4.58
-2 -4 7 10.65 5.96
2 -4 -7 14.57 6.32
2 4 -7 18.47 5.18
-2 4 6 61.73 7.4
-2 -4 6 47.81 8.89
2 -4 -6 67.01 9.69
2 4 -6 57.07 8.79
-2 4 6 62.88 6.05
-2 4 5 20.72 4.25
-2 4 5 22.96 3.14
2 4 -5 21.4 4.57
2 -4 -5 21.05 5.4
-2 -4 5 20.86 5.46
-2 4 4 1499.61 32.82
2 -4 -4 1448.45 37.49
2 4 -4 1509.07 35.48
-2 4 4 1481.13 19.18
-2 -4 4 1424.05 44.03
-2 4 3 80.39 7.13
2 -4 -3 76.69 8.04
2 4 -3 75.13 7.35
-2 4 2 953.67 22.93
2 4 -2 1005.2 25.25
2 -4 -2 925.5 24.54
-2 -4 1 143.24 12.15
-2 4 1 145.17 8.32
2 -4 -1 132.84 8.72
2 4 -1 150.18 9.54
2 -4 0 1484.13 13.77
-2 -4 0 1578.19 40.23
2 -4 0 1532.09 28.51
2 -4 0 1568.52 19.49
2 -4 0 1545.62 14.91
-2 4 0 1593.16 25.2
2 4 0 1544.44 29.87
2 4 1 237.1 12.4
-2 -4 -1 221.31 15.31
2 4 1 228.79 14.1
-2 -4 -1 227.93 17.58
2 -4 1 215.44 8.78
-2 4 -1 219.35 8.44
2 4 2 3577.13 48.69
-2 4 -2 3666.12 39.76
-2 -4 -2 3654.3 66.26
2 4 2 3657.03 59.61
2 4 2 3654.04 41.73
-2 -4 -2 3607.8 74.58
2 -4 2 3680.26 42.79
-2 4 -2 3637.81 30.25
2 4 3 340.07 15.75
2 -4 3 346.1 9.74
-2 -4 -3 341.85 21.09
2 4 3 328.02 18.59
2 -4 3 345.93 15.26
-2 -4 -3 340.8 24.72
-2 4 -3 334.36 14.33
-2 4 -3 340.89 8.26
2 4 3 353.46 13.18
2 4 4 656.56 22.66
2 -4 4 587.08 16.23
-2 4 -4 632.12 10.12
-2 4 -4 652.54 22.61
2 4 4 626.94 27.42
-2 -4 -4 652.67 36.92
2 4 4 654.19 18.51
2 -4 4 631.55 23.04
-2 -4 -4 676.04 31.47
2 4 5 301.59 16.26
2 -4 5 286.99 13.12
-2 4 -5 269.65 16.74
-2 -4 -5 281.11 25.91
2 -4 5 271.47 16.68
2 4 5 286.86 12.93
2 4 5 289.24 19.17
-2 -4 -5 310.28 22.54
2 4 6 423.76 20.47
2 -4 6 405.7 17.94
-2 4 -6 426.65 21.72
2 4 6 414.6 23.46
2 -4 6 370.54 20.51
-2 -4 -6 429.3 27.64
2 4 6 443.97 16.99
-2 -4 -6 389.99 31
2 -4 7 28.63 6.02
2 4 7 24.95 6.61
2 4 7 26.34 5.43
-2 -4 -7 23.59 6.95
2 4 7 27.8 4.38
2 -4 7 26.88 6.45
-2 4 -7 23.68 6.03
-2 -4 -7 18.85 7.87
2 4 8 588.96 22.33
2 4 8 587.27 30.46
2 4 8 557.71 25.55
2 -4 8 573.46 24.76
-2 -4 -8 591.23 35.59
-2 4 -8 547.18 29.29
-2 -4 -8 546.74 39.28
2 -4 8 551.97 29
2 4 9 279.03 20.24
2 -4 9 297.53 19.4
-2 -4 -9 290.86 26.33
-2 4 -9 271.38 23.22
2 4 9 277.19 21.76
-2 -4 -9 287.18 28.64
2 -4 9 258.34 22.3
2 4 10 51.59 9.96
2 -4 10 28.88 9.02
2 4 10 32.04 7.79
-2 -4 -10 52.54 13.68
-2 4 -10 34.25 8.97
2 4 11 22.98 7.31
2 -4 11 10.02 6.71
2 4 11 15.53 7.17
-2 -4 -11 18.5 8.84
-2 4 -11 19.83 8.78
2 5 -11 219.59 24.21
-2 5 11 298.9 22.75
-2 -5 11 189.66 26.35
2 -5 -11 279.6 27.37
-2 -5 10 -4.69 7.66
2 5 -10 -6.85 5.12
-2 5 10 -7.8 5.97
2 -5 -10 -2.78 5.99
-2 5 9 219.75 17.62
2 -5 -9 200.75 20.41
-2 -5 9 177.37 21.03
2 5 -9 198.05 19.18
-2 5 8 117.34 12.89
2 5 -8 114.42 13.37
-2 -5 8 103.96 15.27
2 -5 -8 125.47 16.15
2 5 -7 188.46 16.77
2 -5 -7 209.77 19.06
-2 5 7 196.35 14.54
-2 -5 7 204.5 20.73
-2 5 6 120.4 10.98
2 -5 -6 113.6 12.98
2 5 -6 113.76 12.17
-2 -5 6 113.65 14.68
-2 5 5 251.31 14.92
-2 -5 5 238.25 20.32
2 -5 -5 260.06 18.4
2 5 -5 263.69 17.15
-2 5 4 7.47 1.27
2 5 -4 12.96 4.09
2 -5 -4 7.24 4.04
-2 5 4 8.96 2.67
-2 5 3 708.74 22.43
2 -5 -3 709.17 26.07
2 5 -3 773.26 23.75
-2 5 2 153.92 9.93
2 -5 -2 138.83 10.9
-2 -5 2 161.04 14.67
2 5 -2 152.15 10.15
-2 -5 1 2253.08 53.06
2 5 -1 2303.09 39.37
-2 5 1 2260.35 35.24
2 -5 0 97.88 8.76
-2 -5 0 113.85 11.71
-2 5 0 109.7 7.31
2 5 0 113.58 8.54
2 5 1 2123.11 38.47
-2 -5 -1 2019.6 51.12
-2 5 -1 2065.53 28.86
2 5 1 2046.11 34.04
2 -5 1 1981.2 31.47
2 -5 1 2055.34 40.55
2 5 2 127.49 9.78
-2 5 -2 118.32 7.8
2 5 2 121.45 11.18
2 5 2 114.72 8.05
-2 -5 -2 113.71 13.84
2 -5 2 118.96 8.66
-2 5 -2 121.87 6.49
-2 -5 -2 137.36 13.49
2 5 3 797.34 24.94
-2 5 -3 784.21 22.76
2 5 3 835.44 31.29
-2 -5 -3 768.43 38.93
2 5 3 834.54 22.06
-2 -5 -3 873.87 36.85
-2 5 -3 815.04 15.5
2 -5 3 766.84 24.56
2 5 4 4.54 3.56
2 -5 4 -0.22 1.79
-2 5 -4 0.88 1.19
2 5 4 0.82 1.66
2 -5 4 3.34 3.12
2 5 4 0.03 1.64
-2 -5 -4 1.81 2.84
-2 -5 -4 -4.08 3.77
-2 5 -4 0.65 1.51
-2 -5 -5 809.7 38.04
2 5 5 800.92 27.01
2 -5 5 730.06 20.98
2 5 5 780.4 33.01
-2 5 -5 784.22 27.52
2 -5 5 753.55 28.45
-2 -5 -5 752.55 42.75
2 5 5 791.03 23.03
2 5 6 497.57 22.96
2 -5 6 473.74 18.44
-2 -5 -6 484.97 30.77
-2 5 -6 463.66 23.36
2 5 6 476.64 26.05
-2 -5 -6 438.32 33.52
2 -5 6 462.88 23.95
2 5 6 502.96 19.24
2 5 7 441.73 22.5
-2 -5 -7 466.23 31.28
-2 5 -7 426.38 24.5
-2 -5 -7 399.58 33.06
2 -5 7 429.33 24.71
2 5 7 442.57 26.09
2 5 7 468.21 20.05
2 5 8 56.98 10.6
2 -5 8 50.43 9.86
-2 5 -8 39.46 8.11
2 5 8 45.65 8.43
-2 -5 -8 58.43 11.98
2 5 8 56.71 7.33
-2 -5 -8 54.96 14.2
2 5 9 100.87 12.67
2 5 9 117.07 14.67
2 -5 9 74.08 13.68
-2 -5 -9 121.17 17.67
-2 5 -9 99.5 14.3
2 5 10 45.81 9.36
2 -5 10 41.07 11.76
2 5 10 43.92 8.2
-2 -5 -10 64.2 14.22
-2 5 -10 42.11 10.14
2 5 11 95.74 13.89
2 -5 11 74.52 14.98
-2 5 -11 81.72 14.9
2 -6 -11 90.93 15.57
-2 -6 10 51.25 12.66
2 -6 -10 73.3 13.47
2 6 -10 63.51 12
-2 6 10 80.76 12.05
-2 6 9 16.94 5.57
-2 -6 9 13.13 8.91
2 -6 -9 21.68 9.23
2 6 -9 17.38 5.8
-2 6 8 894.4 34.76
2 -6 -8 955.18 43.87
2 6 -8 873.4 37.92
-2 -6 8 794.39 44.92
2 6 -7 1.37 3.63
-2 -6 7 -3.86 5.88
2 -6 -7 4.37 4.39
-2 6 7 1.47 2.84
-2 6 6 248.3 16.24
2 -6 -6 235.65 19.54
2 6 -6 236.88 17.85
-2 -6 6 213.42 20.77
2 -6 -5 22.18 6.18
2 6 -5 28.63 6.21
-2 6 5 26.1 5.4
2 6 -4 10.85 3.98
2 6 -4 9.81 3.63
2 -6 -4 10.02 4.35
-2 6 4 7 2.79
-2 6 3 225.38 13.45
2 -6 -3 193.92 15
2 6 -3 236.72 13.58
-2 -6 2 2644.49 63.81
2 -6 -2 2593.43 52.7
2 6 -2 2780.94 46.79
-2 6 2 2583.47 43.07
-2 -6 1 62.79 9.39
2 -6 -1 59.86 7.7
-2 6 1 67.09 6.54
2 6 -1 74.24 7.2
-2 -6 0 2166.64 56.71
2 -6 0 2155.81 44.92
2 6 0 2186.59 38.27
-2 6 0 2134.59 35.3
2 6 0 2282.97 40.71
2 -6 1 8.35 3.19
2 -6 1 7.29 3.1
2 6 1 8.26 3.21
-2 6 -1 11.19 2.83
-2 -6 -1 10.56 4.63
2 6 1 11.31 3.05
2 6 2 143.17 10.7
-2 -6 -2 142.96 15.1
2 6 2 143.66 13.19
-2 -6 -2 137.74 16.13
2 6 2 140.74 9.96
-2 6 -2 129.65 7.83
2 -6 2 116.57 10.76
2 6 3 2.54 2.62
-2 6 -3 -0.38 1.35
2 6 3 4.56 2.72
2 -6 3 -2.59 3.27
-2 -6 -3 3.02 3.66
-2 6 -3 1.73 2.16
-2 -6 -3 0.02 3.29
2 6 3 6.38 4.41
2 6 4 926.94 25.61
2 6 4 927.94 29.03
-2 -6 -4 937.82 41.74
-2 6 -4 898.29 27.85
-2 -6 -4 837.9 44.11
-2 6 -4 904.19 17.96
2 -6 4 891.36 30.79
2 6 4 899.44 35.47
2 6 5 80.82 11
2 6 5 81.99 9.38
-2 6 -5 76.42 9.12
-2 -6 -5 90.7 13.46
-2 -6 -5 60.83 12.8
2 6 5 79.79 8.11
2 -6 5 69.27 9.55
2 6 6 750.34 29.3
-2 -6 -6 729.56 39.6
-2 6 -6 710.06 29.27
2 6 6 735.18 33.39
-2 -6 -6 651.29 43.28
2 -6 6 664.59 29.84
2 6 6 751.29 25.18
2 6 7 58.94 9.97
2 6 7 60.6 8.79
2 -6 7 59.43 10.53
-2 -6 -7 73.49 13.46
2 6 7 58.41 7.9
-2 6 -7 61.01 10.05
-2 -6 -7 35.07 10.83
2 6 8 94.39 11.8
2 6 8 101.75 13.66
-2 6 -8 85.76 12.61
2 -6 8 65.99 12.09
-2 -6 -8 94.91 15.62
2 6 8 101.88 11.27
2 6 9 13.32 6.39
2 6 9 17.38 6.31
-2 6 -9 8.18 6.52
-2 -6 -9 7.77 7.82
2 -6 9 6.84 5.89
2 6 10 292.01 22.5
2 6 10 326.85 25.24
-2 6 -10 289 25.34
2 -6 10 243.84 25.69
-2 -6 -10 338.74 31.69
-2 6 -11 2.04 6.81
2 6 11 -2.69 6.67
-2 7 10 14.09 6.59
-2 -7 10 -1.38 7.98
2 -7 -10 8.72 7.09
2 7 -10 2.34 4.76
-2 7 9 328.87 23.3
2 -7 -9 331.41 28.87
2 7 -9 297.05 24.42
-2 -7 9 276.16 29.93
-2 7 8 67.27 10.31
-2 -7 8 47.41 11.48
2 -7 -8 62.79 12.35
2 7 -8 73.29 11.89
-2 7 7 912.87 34.44
2 7 -7 964.94 38.58
2 -7 -7 943.75 43.06
2 7 -6 80.51 10.71
2 -7 -6 72.46 11.23
-2 7 6 82.7 9.93
2 7 -5 34.79 6.68
2 -7 -5 23.73 6.19
2 7 -5 29.04 6.59
-2 7 5 45.89 7.47
-2 7 4 76.58 8.84
2 -7 -4 81.6 11.33
2 7 -4 96.6 9.89
2 -7 -3 509.25 26.68
2 7 -3 607.74 23.06
-2 -7 3 583.75 33.57
-2 7 3 580.69 22.95
2 7 -2 5.89 2.76
-2 -7 2 7.62 4.39
2 -7 -2 6.59 3.29
-2 7 2 7.54 2.75
-2 -7 1 2241.03 60.73
2 -7 -1 2203.6 51.19
-2 7 1 2349.39 41.13
2 7 -1 2376.58 42.81
2 7 0 75.15 7.69
2 -7 0 62.47 8.81
-2 -7 0 63.43 10.7
2 7 0 70.37 7.7
-2 7 0 66.81 6.9
2 7 1 84.71 8.24
-2 -7 -1 93.53 12.86
2 7 1 87.12 8.34
2 -7 1 73.44 9.89
-2 7 -1 77.39 7.3
2 7 2 16.32 3.62
2 -7 2 11.31 4.89
-2 -7 -2 21.35 6.3
2 -7 2 14.82 5.21
-2 7 -2 18.03 3.44
-2 -7 -2 15.12 6.68
2 7 2 19.7 4
2 7 2 24.29 6.57
2 7 3 200 13.16
-2 -7 -3 177.49 18.92
-2 -7 -3 168.61 19.82
2 7 3 200.4 16.95
2 7 3 210.28 12.91
-2 7 -3 194.19 10.08
2 -7 3 165.43 14.11
2 7 4 186.55 13.28
-2 -7 -4 177.11 19.32
-2 7 -4 194.14 13.28
2 7 4 187.6 16.81
-2 -7 -4 178.27 21.1
2 7 4 183.77 12.45
2 -7 4 145.82 15.22
2 7 5 1085.65 33.36
2 7 5 1082.71 41.45
-2 -7 -5 1058.19 48.48
-2 7 -5 1088.83 33.94
-2 -7 -5 1013.1 52.59
2 7 5 1049.87 30.21
2 -7 5 919.58 36.8
2 7 6 14.88 4.8
2 7 6 29.64 5.62
2 -7 6 9.26 5.14
2 7 6 24 6.03
-2 -7 -6 24.42 8.43
-2 7 -6 17.87 4.94
-2 -7 -6 28.24 9.49
-2 -7 -7 212.74 23.4
2 7 7 196.56 16.23
-2 7 -7 173.91 16.8
2 7 7 170.99 17.28
2 -7 7 140.38 17.35
2 7 7 204.68 14.6
2 7 8 5.25 6.45
-2 -7 -8 3.97 5.84
2 7 8 0.56 3.52
-2 7 -8 -0.05 3.85
2 7 8 9.63 5.02
2 -7 8 -6.63 7.63
2 7 9 304.94 21.93
-2 7 -9 277.18 23.03
2 7 9 339.27 25.82
-2 -7 -9 313.22 29.88
2 -7 9 257.82 24.79
2 7 10 5.02 5.14
-2 7 -10 -0.77 4.58
-2 8 9 90.03 12.53
2 8 -9 83.95 14.16
-2 8 8 399.29 24.84
2 -8 -8 355.64 29.49
2 8 -8 392.71 27.36
2 -8 -7 5.76 4.95
2 8 -7 5.65 5.1
-2 8 7 -3.01 3.84
-2 8 6 444.73 23.76
2 -8 -6 408.26 27.94
2 8 -6 471.02 24.37
-2 8 5 102.76 11.2
2 -8 -5 87.15 12.98
2 8 -5 99.83 10.62
-2 8 4 401.6 21.08
-2 -8 4 375.2 29.39
2 -8 -4 353.82 24.46
2 8 -4 416.13 20.82
2 8 -3 41.56 6.1
-2 -8 3 32.81 9.04
2 -8 -3 27.89 7.44
-2 8 3 35.08 6.87
-2 -8 2 696.08 37.63
2 -8 -2 738.52 33.38
-2 8 2 720.2 25.97
2 8 -2 791.6 26.07
-2 -8 1 93.71 13.64
2 -8 -1 89.08 11.17
2 8 -1 119.76 10.27
-2 8 1 112.77 10.04
2 8 -1 114.64 9.84
2 8 0 436.63 19.27
2 8 0 389.8 18.57
2 -8 0 353.44 22.59
-2 -8 0 387.15 27.75
-2 8 0 378.76 17.29
2 8 1 5.56 2.76
-2 8 -1 9.22 2.95
2 -8 1 6.23 3.84
-2 -8 -1 8.6 5.32
2 8 1 6.81 2.84
2 8 2 100.69 9.54
2 -8 2 67.16 9.73
2 -8 2 88.09 12.27
-2 -8 -2 97.31 14.68
2 8 2 97.21 12.63
2 8 2 100.11 9.44
-2 -8 -2 106.82 16.4
-2 8 -2 89.77 8.34
2 8 3 378.92 19.01
-2 -8 -3 339.68 27.83
2 8 3 343.21 23.48
-2 -8 -3 311.4 27.5
2 8 3 348.81 17.9
-2 8 -3 335.23 14.38
2 -8 3 317.32 24.36
2 -8 3 282.67 20.97
2 8 4 348.67 18.76
-2 -8 -4 337.21 28.14
2 8 4 352.57 23.6
-2 -8 -4 306.89 29.56
2 8 4 343.09 18.16
2 8 5 51.93 7.22
2 8 5 39.65 8.63
2 8 5 66.42 9.02
2 -8 5 39.08 9.86
-2 -8 -5 63.43 12.82
-2 8 -5 60.53 8.84
-2 -8 -5 37.21 11.55
2 8 6 401.17 27.13
2 8 6 386.16 23.24
-2 -8 -6 382.03 31.47
-2 8 -6 369.76 23.29
2 8 6 405.63 21.05
2 -8 6 303.54 26.71
2 8 7 8.3 5.28
-2 8 -7 12.27 5.58
2 -8 7 20.44 8.35
2 8 7 19.04 5.45
2 8 7 10.38 4.13
-2 -8 -7 12.48 8.29
2 8 8 407.53 24.53
-2 -8 -8 427.28 35.53
-2 8 -8 360.97 24.91
2 8 8 421.86 28.13
2 8 8 397.69 22.61
2 8 9 217.7 17.63
2 8 9 194.43 17.57
-2 -8 -9 169.13 23.14
-2 8 -9 163.51 18.23
2 -8 9 152.97 21.48
2 8 9 210.05 21.16
-2 8 -10 199.44 21.29
2 9 -8 47.73 10.67
-2 9 8 36.08 8.09
-2 9 7 163.53 15.63
2 -9 -6 14.56 6.91
-2 9 6 13.84 6.07
-2 9 5 488.35 24.93
-2 -9 5 486.09 37.1
2 -9 -5 485.14 31.87
-2 -9 4 7.56 5.58
2 -9 -4 0.52 4.48
-2 9 4 11.63 5.21
-2 -9 3 541.75 36.62
2 9 -3 586.26 25.26
2 9 -3 608.86 24.36
-2 9 3 560.12 25.35
2 -9 -3 551 31.68
2 9 -2 2.32 2.56
2 -9 -2 5.3 3.79
2 9 -2 -1.04 3.05
-2 9 2 0.67 2.73
2 9 -1 166.38 12.41
-2 -9 1 155.57 19.26
2 -9 -1 118.34 13.97
2 9 -1 157.49 12.65
-2 9 1 158.24 12.33
2 9 0 34.25 5.48
-2 9 0 25.94 4.97
-2 -9 0 35.04 8.62
2 -9 0 13.81 5.06
2 9 0 31.03 5.73
2 9 1 419.32 19.87
2 9 1 383.56 25.58
2 -9 1 364.64 25.27
-2 -9 -1 405.28 30.72
2 9 1 424.58 20.59
-2 9 -1 402.05 18.08
2 9 2 128.76 11.14
2 -9 2 106.61 13.57
-2 -9 -2 127.61 17.35
2 9 2 128.67 14.63
-2 -9 -2 141.42 19.5
2 9 2 139.3 12.22
-2 9 -2 130.96 10.18
2 9 3 200.82 14.28
2 -9 3 170.31 18.47
2 9 3 189.09 18.47
-2 -9 -3 166.04 21.37
2 9 3 170.02 13.62
-2 -9 -3 185.49 21.46
2 9 4 3.55 5.89
2 9 4 -1.1 3.65
-2 -9 -4 1.69 5.91
2 -9 4 14.3 7.79
-2 -9 -4 1.69 6.04
2 9 4 0.05 2.64
2 9 5 61.65 11.26
2 9 5 67.96 9.39
2 -9 5 42.52 11.29
-2 -9 -5 75.19 14.71
2 9 5 70.86 9.75
-2 -9 -5 55.85 13.82
2 9 6 147.39 15.17
2 -9 6 120.21 18.19
-2 -9 -6 163.21 21.92
-2 9 -6 143.66 15.05
2 9 6 168.21 18.54
2 9 6 167.24 15.07
2 9 7 702.77 31.17
2 9 7 708.79 37.02
2 9 7 717.37 30.52
-2 9 -7 657.01 32.64
-2 -9 -7 702.43 46.08
2 9 8 57.78 9.83
2 -9 8 48.69 11.92
-2 -9 -8 70.05 15.89
-2 9 -8 49.16 10.27
2 9 8 73.52 10.99
2 9 9 301.63 22.5
2 -9 9 250.58 27.37
-2 9 -9 298.38 24.5
-2 -10 7 20.96 12.08
-2 10 7 10.6 5.65
-2 10 6 300.27 22.2
-2 -10 6 286.43 32.64
-2 -10 5 4.39 6.08
-2 10 5 10.74 6.51
-2 -10 4 727.63 46.07
2 10 -4 734.03 30.52
-2 10 4 718.73 31.33
-2 -10 3 -1.59 4.48
-2 10 3 -1.42 3.46
2 10 -3 -0.09 2.49
-2 10 2 24.92 5.89
-2 -10 2 27.7 7.99
2 10 -2 32.31 6.43
-2 -10 1 41.77 11.35
2 -10 -1 28.06 7.22
-2 10 1 32.35 6.63
2 10 -1 40.8 7.03
-2 -10 0 263 25.75
2 -10 0 250.51 22.26
2 10 0 297.7 18.67
-2 10 0 299.26 17.46
2 10 1 15.42 4.37
-2 10 -1 18.24 4.97
-2 -10 -1 11.06 5.28
2 10 1 12.6 6.03
2 -10 1 12.02 5.42
2 10 2 673.26 27.18
2 -10 2 559.19 34.51
-2 -10 -2 622.77 40.81
2 10 2 624.55 35.21
-2 -10 -2 591.66 42.54
2 10 2 648.26 27.23
-2 10 -2 647.71 24.18
2 10 3 28.53 6.17
2 10 3 33.86 6.28
2 -10 3 16.55 6.96
-2 -10 -3 29.53 10.27
-2 -10 -3 28.44 10.8
2 10 3 18.8 6.5
2 10 4 -2.3 4.94
2 10 4 1.66 3.08
2 10 4 12.32 5.28
2 -10 4 -1.94 5.18
-2 -10 -4 -0.15 6.26
-2 -10 -4 8.26 6.61
2 10 5 12.1 6.53
2 10 5 13.16 5.09
2 -10 5 19.04 8.95
2 10 5 5.75 4.35
-2 -10 -5 19.3 9.34
2 10 6 334.43 21.51
2 10 6 327.34 21.3
-2 -10 -6 299.11 30.76
2 10 7 3.24 4.9
2 10 7 8.84 5.32
-2 -10 -7 8.83 8.57
2 10 8 587.42 30.42
2 10 8 614.34 30.98
2 11 -7 34.82 7.95
-2 -11 6 98.6 20.53
-2 11 6 103.3 13.53
2 11 -6 120.6 13.05
-2 11 5 428.51 26.36
2 11 -5 464.07 25.23
-2 -11 5 406.81 37.7
-2 -11 4 2.27 6.72
-2 11 4 4.38 3.93
2 11 -4 4.17 3.58
-2 -11 3 250.9 27.47
2 11 -3 307.77 20.48
-2 11 3 292.8 20.26
-2 -11 2 31.92 9.69
-2 11 2 33.76 7.11
2 11 -2 30.88 6.38
-2 -11 1 41.39 11.01
-2 11 1 54.51 8.22
2 11 -1 60.02 9.08
-2 -11 0 182.5 23.22
2 11 0 197.61 15.91
-2 11 0 198.74 15.22
-2 -11 -1 377.86 32.92
2 11 1 370.97 28.04
2 11 1 395.21 22.51
-2 11 -1 385.7 20.75
2 11 2 7.3 4.46
-2 -11 -2 1.65 5.45
-2 -11 -2 1.89 7.26
2 11 2 2.1 4.38
-2 -11 -3 358.38 33.28
2 11 3 299.92 26.23
2 11 3 315.91 20.69
-2 -11 -4 137.34 20.18
2 11 4 145.05 14.49
-2 -11 -5 126.92 20.74
2 11 5 132.07 14.49
2 11 6 0.11 4.67
-2 -11 -6 -18.56 12.81
2 12 -5 50.39 9.47
-2 12 4 64.62 10.78
-2 -12 4 33.94 12.07
2 12 -4 62.47 10.11
-2 -12 3 78.14 16.34
-2 12 3 82.31 11.75
2 12 -3 98.92 12.07
-2 -12 2 244.22 29.54
2 12 -2 281.16 20.46
-2 12 2 275.06 19.65
2 12 -1 27.35 7.95
-2 -12 1 15.7 6.25
-2 12 1 33.11 7.46
-2 -12 0 244.97 28.38
2 12 0 298.53 20.46
-2 12 0 235.99 18.07
2 12 1 66.5 10.32
-2 -12 -1 59.14 13.94
2 12 1 41.44 10.03
-2 -12 -2 129.07 20.83
2 12 2 156.53 15.89
-2 -12 -3 110.87 20.25
2 12 3 109.93 13.32
2 12 4 331.12 23.91
-2 -12 -4 351.32 35.71
-2 13 2 -2.05 5.32
-2 13 1 442.27 26.28
-2 13 0 12.21 9.24
3 0 -12 -21.04 10.82
-3 0 12 -22.27 8.33
-3 0 11 24.17 6.08
3 0 -11 22.1 6.99
3 0 -10 -9.03 5.7
-3 0 10 -4.98 5.59
3 0 -9 916.64 38.13
-3 0 9 978.67 37.5
-3 0 9 978.88 41.69
-3 0 8 6.2 4.12
3 0 -8 -3.99 4.18
-3 0 8 -3.21 4.31
3 0 -7 1015.45 34.42
-3 0 7 1055.62 34.17
-3 0 7 1098.3 38.36
-3 0 6 0.32 2.9
-3 0 6 -1.82 2.82
3 0 -6 -4.76 3.25
-3 0 5 2.08 3.41
-3 0 5 7.32 2.4
3 0 -5 10.59 3.26
-3 0 4 1.07 1.3
3 0 -4 0.87 2.3
3 0 -3 2572.71 33.61
-3 0 3 2584.14 41.21
-3 0 3 2547.15 50.06
3 0 -2 0.89 1.21
-3 0 2 0.12 1.71
-3 0 2 1.78 1.2
-3 0 1 1759.35 25.53
-3 0 1 1702.56 46.98
-3 0 1 1775.6 29.33
3 0 -1 1773.56 31.93
3 0 0 0.81 1.34
-3 0 0 2.01 1.67
-3 0 0 2.24 3.23
-3 0 0 0.09 0.98
3 0 0 0.91 1.69
3 0 1 872.32 25.84
-3 0 -1 930.39 21.07
-3 0 -1 892.5 39.01
3 0 1 871.59 22.07
3 0 2 2.73 2.74
3 0 2 -0.72 1.24
-3 0 -2 0.39 1.44
-3 0 -2 0.97 3.35
3 0 3 3493.77 47.46
3 0 3 3496.63 25.01
3 0 3 3507.47 57.69
-3 0 -3 3562.1 53.16
3 0 4 0.58 2.48
3 0 4 2.4 2.31
-3 0 -4 0.23 2.54
3 0 4 0.81 1.09
-3 0 -4 -0.46 2.73
-3 0 -5 3162.39 62.02
3 0 5 3264.81 50.31
3 0 5 3162.92 60.92
-3 0 -5 3048.39 89.35
3 0 6 0.21 2.71
3 0 6 -2.45 3.28
-3 0 -6 -0.27 2.24
-3 0 -6 -5.7 6.02
3 0 7 49.71 8.9
3 0 7 40.69 7.29
-3 0 -7 45.52 8.33
-3 0 -7 62.09 13.83
3 0 8 -4.54 4.68
3 0 8 3.01 3.3
-3 0 -8 -2.7 3.87
-3 0 -8 5.35 5.72
3 0 9 838.79 32.89
-3 0 -9 805.26 40.93
3 0 9 780.21 36.62
-3 0 -9 737.63 50.86
3 0 10 -3.29 4.3
3 0 10 -4.44 4.19
-3 0 -10 -2.32 4.81
-3 0 -10 3.41 10.51
3 0 11 225.11 20.15
-3 0 -11 228.25 24.02
3 0 11 238.19 23.04
3 -1 -12 308.23 26.72
3 1 -12 336.72 28.69
-3 1 12 349.48 26.27
-3 -1 12 379.47 27.59
3 -1 -11 4.69 5.5
3 1 -11 10.5 4.77
-3 -1 11 -1.14 7.93
-3 1 11 0.02 6.41
-3 -1 11 0.31 5.95
3 -1 -10 204.32 19.83
3 1 -10 207.19 19.61
-3 1 10 214.57 17.8
-3 -1 10 219.3 18.98
-3 -1 10 194.19 21.28
3 -1 -9 319.58 22.8
3 1 -9 327.83 23.06
-3 -1 9 341.83 22.18
-3 1 9 352.44 22.21
-3 -1 9 327.31 25.8
3 -1 -8 611.81 29.29
3 1 -8 600.6 29.15
-3 1 8 637.99 28.19
-3 -1 8 668.97 29.64
-3 1 8 647.9 30.42
-3 -1 8 621.01 33.08
-3 -1 7 75.17 9.43
3 1 -7 78.26 10.03
-3 1 7 92.03 10.41
-3 -1 7 87.15 11.53
-3 1 7 93.01 10.19
3 -1 -7 80.66 9.89
3 -1 -6 412.55 20.14
-3 1 6 437.92 20.6
-3 -1 6 428.67 20.73
3 1 -6 436.83 21.14
-3 1 6 414.79 20.95
-3 -1 6 432.94 23.96
-3 -1 5 32.75 5.34
-3 1 5 28.36 4.56
3 -1 -5 28.8 4.76
3 1 -5 36.86 5.91
-3 1 5 33.44 5.15
3 -1 -4 772.72 21.29
3 1 -4 787.8 22.72
-3 1 4 771.1 24.08
-3 1 4 755.5 24.6
-3 -1 4 771.19 24.55
3 -1 -3 977.46 19.62
3 1 -3 993.79 22.02
-3 1 3 989.16 25.34
-3 1 3 962.37 30.03
-3 -1 3 997.39 26.05
-3 1 2 1497.98 28.74
-3 -1 2 1489.32 41.43
-3 1 2 1503.6 40.28
-3 -1 2 1519.25 29.85
3 1 -2 1511.86 31.13
3 -1 -2 1503.75 18.2
-3 1 1 271.15 18.57
-3 1 1 250.9 6.32
-3 -1 1 283.03 12.58
3 -1 -1 263.23 11.34
-3 1 1 265.87 10.91
-3 -1 1 273.35 18.87
3 -1 -1 266.64 11.79
3 1 -1 272.56 12.88
3 -1 0 7.93 2.31
3 1 0 9.55 2.5
-3 -1 0 7.19 2.32
3 -1 0 10.02 2.71
-3 1 0 9.02 2.13
-3 -1 0 14.55 4.51
-3 1 0 8.23 4.47
3 1 0 11.37 3
-3 -1 -1 363.22 15.66
3 1 1 353.53 17.01
-3 1 -1 343.09 23.49
3 -1 1 345.38 15.26
-3 -1 -1 328.23 23.73
-3 1 -1 338.98 9.94
-3 1 -1 348.17 10.07
3 -1 1 322.84 12.66
3 1 1 325.37 14.15
3 1 2 616.58 20.2
3 -1 2 629.81 18.43
-3 1 -2 650.41 17.85
-3 -1 -2 608.04 34.76
3 1 2 646.11 24.36
3 -1 2 621.46 21.98
-3 1 -2 592.54 33.16
-3 -1 -2 667.17 22.81
3 1 3 4.53 2.36
3 -1 3 5.22 2.8
3 -1 3 3.07 2.28
3 1 3 4.91 2.27
-3 -1 -3 4.71 3
3 -1 3 1.14 0.56
-3 1 -3 3.07 2.52
-3 -1 -3 2.98 2.52
3 1 3 2.8 1.09
-3 1 -3 1.04 2.68
3 1 4 3508.98 51.57
3 -1 4 3623.98 48.27
-3 1 -4 3573.65 56.51
-3 -1 -4 3588.56 63.25
3 1 4 3430.6 62.57
3 -1 4 3493.2 58.35
-3 -1 -4 3337.35 89.49
3 1 4 3539.38 30.42
3 1 5 179.92 12.89
3 -1 5 196.73 12.37
-3 1 -5 180.28 14.32
3 1 5 176.41 14.55
3 -1 5 198.26 14.89
-3 -1 -5 165.6 20.84
-3 1 -5 164.86 21.14
-3 -1 -5 194.34 15.71
3 1 5 180.78 7.37
3 1 6 724.01 26.52
3 -1 6 740.26 25.06
-3 -1 -6 766 33.54
-3 1 -6 737.22 30.99
3 1 6 711.49 31.01
3 -1 6 710.5 29.27
-3 -1 -6 669.76 43.94
-3 1 -6 681.17 43.37
3 1 7 77.38 9.69
3 -1 7 78.45 9.31
3 1 7 90.55 11.35
3 -1 7 77.62 10.14
-3 -1 -7 97 13.24
-3 1 -7 80.18 11.53
-3 -1 -7 63.15 13.99
-3 1 -7 70.62 15.41
3 1 8 275.11 18.18
3 -1 8 305.55 19.05
3 1 8 293.66 21.59
3 -1 8 303.2 21.57
-3 -1 -8 257.76 28.56
-3 1 -8 265.63 30.91
-3 -1 -8 307.2 24.4
-3 1 -8 289.59 22.71
3 1 9 62.2 10.39
3 -1 9 59.29 10.5
3 1 9 54.83 9.44
3 -1 9 55.53 9.05
-3 -1 -9 35.56 8.84
-3 1 -9 63.25 12.06
-3 -1 -9 53.91 14.65
-3 1 -9 54.61 14.85
3 1 10 430.11 25.8
3 -1 10 422.48 25.55
-3 -1 -10 450.33 32.77
-3 1 -10 412.64 30.9
3 1 10 437.06 28.89
-3 -1 -10 381.73 37.73
3 -1 10 414.51 28.97
-3 1 -10 355.19 37.29
3 -1 11 66.83 13.36
3 1 11 50.86 10.33
3 -1 11 67.47 11.57
-3 -1 -11 63.27 13.27
-3 1 -11 61.28 13.39
3 1 11 68.8 12.48
-3 -1 -11 62.02 18.29
-3 -2 12 105.31 18.93
3 -2 -12 94.17 15.15
-3 -2 12 136.73 16.99
3 -2 -11 544.59 34.05
3 2 -11 481.07 32.38
-3 2 11 554.41 31.23
-3 -2 11 536.02 32.32
-3 -2 11 469.47 36.07
3 -2 -10 247.46 21.73
3 2 -10 227.68 21.1
-3 2 10 249.22 19.94
-3 -2 10 244.64 20.34
-3 -2 10 229.34 23.45
3 -2 -9 243.1 20.46
3 2 -9 228.19 19.75
-3 2 9 240.86 19.11
-3 -2 9 246.92 19.14
-3 -2 9 229.03 22.63
-3 -2 8 5.44 3.88
3 -2 -8 22.58 7.14
3 2 -8 11.1 5.06
-3 -2 8 9.56 4.61
-3 2 8 13.07 5.46
3 -2 -7 151.71 13.57
3 2 -7 142.37 13.49
-3 2 7 139.59 12.91
-3 -2 7 127.61 12.35
-3 2 7 134.86 12.44
-3 -2 7 126.62 15.4
3 -2 -6 231.2 15.54
3 2 -6 242.5 15.95
-3 2 6 235.12 15.33
-3 -2 6 247.96 15.9
-3 2 6 223.02 14.19
-3 -2 6 224.5 18.41
-3 2 5 1547.15 37.43
3 2 -5 1513.12 36.26
-3 -2 5 1547.27 37.58
3 -2 -5 1533.26 35.32
-3 2 5 1557.83 34.28
3 2 -4 1050.19 27.27
-3 2 4 1029.89 28.25
-3 2 4 991.97 25.76
-3 -2 4 1037.28 28.94
3 -2 -4 1018.59 24.95
3 -2 -3 1273.82 22.54
-3 2 3 1335.62 30.01
3 2 -3 1316.47 27.53
-3 2 3 1348.03 33.04
3 2 -2 10.42 2.92
3 -2 -2 10.46 1.47
-3 2 2 11.55 2.63
-3 2 2 7.51 3.01
-3 -2 1 303.53 14.93
-3 2 1 282.64 11.56
3 -2 -1 284.2 10.38
-3 -2 1 284.28 19.19
-3 2 1 271.15 17.98
3 -2 -1 272.84 11.3
3 2 -1 293.53 13.94
-3 -2 0 1309.48 31.57
3 -2 0 1252.21 24.62
-3 2 0 1263.87 22.08
3 2 0 1272.36 32.64
-3 2 0 1252.64 40.95
3 -2 0 1279.41 24.69
3 2 0 1214.89 28.51
-3 -2 0 1214 43.43
-3 -2 -1 1212.12 46.09
-3 -2 -1 1210.15 32.12
-3 2 -1 1189.1 18.37
3 2 1 1217.99 33.35
3 -2 1 1184.84 26.02
-3 2 -1 1213.49 43.82
3 2 1 1167.48 28.11
3 -2 1 1157.87 22.83
3 2 2 119.35 9.11
3 -2 2 118.95 7.62
-3 -2 -2 127.91 10.95
-3 2 -2 121.25 6.71
3 2 2 112.35 10.72
-3 2 -2 117.5 4.7
3 -2 2 118.85 9.06
-3 -2 -2 118.14 15.22
-3 2 -2 126.49 15.5
3 2 3 995.67 27.59
3 -2 3 1025.64 23.27
-3 2 -3 1087.72 24.98
3 2 3 1003.12 33.48
3 2 3 1030 19.42
3 -2 3 1071.26 29.32
-3 -2 -3 1066.01 48.77
-3 2 -3 1003.66 45.95
-3 -2 -3 1074.76 34.32
3 2 4 333.49 16.57
3 -2 4 321.17 14
-3 2 -4 316.13 16.09
3 2 4 310.46 19.56
-3 -2 -4 293.43 26.84
3 2 4 340.41 10.95
3 -2 4 316.75 17.04
-3 2 -4 292.1 26.08
-3 -2 -4 323.88 20.01
3 2 5 912.9 29.53
3 -2 5 962.55 26.58
-3 -2 -5 1007.12 37.48
-3 2 -5 997.91 32.22
3 2 5 947.21 35.52
-3 -2 -5 950.89 50.52
3 -2 5 990.11 31.89
-3 2 -5 948.74 49.71
3 2 5 1012.03 19.83
-3 -2 -6 188.29 16.79
3 2 6 158.04 13.1
3 -2 6 159.42 11.88
-3 2 -6 193.32 15.6
3 2 6 176.75 15.67
-3 -2 -6 160.53 21.13
3 -2 6 165.33 13.99
-3 2 -6 179.22 22.4
3 2 7 677.07 28.23
3 -2 7 736.66 26.1
-3 -2 -7 730.82 36.3
-3 2 -7 730.25 32.14
3 2 7 724.53 33.15
-3 -2 -7 685.41 46.09
3 -2 7 696.09 30.79
-3 2 -7 633.64 45.1
3 2 8 796.3 30.96
3 -2 8 776.13 30.2
-3 -2 -8 848.27 41.68
-3 2 -8 802.45 36.62
3 2 8 813.07 36.27
-3 -2 -8 778.87 50.66
3 -2 8 807.86 35.68
-3 2 -8 706.65 48.66
3 -2 9 108.55 12.61
3 2 9 99.16 12.58
3 -2 9 103.69 14.42
-3 2 -9 104.46 15.27
3 2 9 89.89 11.84
-3 -2 -9 109.6 16.21
-3 -2 -9 111.13 19.8
3 2 10 13.51 6.1
3 2 10 12.16 6.1
3 -2 10 10.02 7.4
3 -2 10 1.31 4.65
-3 -2 -10 -4.91 7.39
-3 2 -10 10.21 7.03
-3 -2 -10 -8.8 9.54
-3 2 -11 188.58 21.77
-3 -2 -11 190.24 22.33
3 2 11 188.74 20.6
3 -2 11 194.22 22.74
3 2 11 192.03 20.35
-3 -2 -11 198.95 28.6
3 -2 11 161.21 18.18
-3 -3 11 0.47 6.54
3 -3 -11 4.55 6.61
3 3 -11 13.85 8.55
-3 3 11 2.99 5.51
3 -3 -10 538.72 33.01
3 3 -10 523.84 32.17
-3 3 10 557.43 30.67
-3 -3 10 503.3 36.36
-3 -3 9 51.32 11.13
3 -3 -9 69.03 11.4
3 3 -9 65.27 11.92
-3 3 9 65.23 10.04
3 -3 -8 14.36 5.62
3 3 -8 9.11 4.55
-3 3 8 9.08 4.38
-3 -3 8 14.08 6.29
-3 -3 7 -2.88 3.45
-3 3 7 4.01 3.62
3 -3 -7 7.04 4.83
3 3 -7 3.71 2.27
3 -3 -6 961.44 32.25
-3 3 6 963.23 31.61
3 3 -6 959.69 32.72
-3 -3 6 915.4 39.93
-3 3 5 8.84 2.86
3 -3 -5 8.92 3.14
3 3 -5 5.03 1.99
3 -3 -4 1925.6 36.42
-3 3 4 1988.14 40.06
3 3 -4 1991.52 39.45
3 3 -3 97.49 7.91
3 -3 -3 90.49 6.52
-3 3 3 99.9 8.37
-3 3 3 86.37 6.7
3 3 -3 107.54 9.14
-3 -3 2 259.31 16.45
3 -3 -2 227.66 7.57
-3 3 2 232.23 11.78
3 -3 -2 224.11 5.82
-3 3 2 228.06 13.83
3 3 -2 248.31 13.74
3 -3 -1 34.03 2.73
-3 3 1 41.04 4.7
3 -3 -1 30.42 3.47
3 3 -1 39.66 5.49
-3 -3 1 38.23 5.82
-3 3 1 30.67 5.7
-3 3 0 3173.01 36.13
-3 -3 0 3114.72 69.26
3 -3 0 3083.07 32.43
-3 3 0 3130.2 64.34
-3 -3 0 3175.19 55.75
3 -3 0 3110.52 35.4
3 3 0 3047.38 46.97
-3 -3 -1 222.07 14.84
-3 3 -1 234.58 8.7
3 3 1 232.72 15.11
-3 -3 -1 235.43 20.73
3 -3 1 223.07 10.22
-3 3 -1 223.15 18.72
3 3 1 209.54 12.28
3 -3 1 233.2 9.55
3 3 2 1401.6 33.23
3 -3 2 1514.79 24.67
-3 3 -2 1521.77 22.46
3 3 2 1453.15 39.89
-3 -3 -2 1595.86 43.59
-3 -3 -2 1443.23 54.38
3 -3 2 1483.05 29.78
-3 3 -2 1423.97 51.76
-3 3 -2 1482.71 18.06
3 3 3 391.65 17.96
3 -3 3 383.78 13.39
-3 3 -3 372.18 14.21
3 3 3 384.81 21.28
3 3 3 399.45 13.42
-3 -3 -3 381.55 29.45
3 -3 3 378.48 16.66
-3 3 -3 369.49 28.35
-3 -3 -3 400.1 22.46
3 3 4 5.79 2.49
3 3 4 5.13 2.6
3 -3 4 7.85 2.65
3 3 4 4.8 2.39
3 -3 4 5.34 2.14
-3 -3 -4 11.26 5.32
-3 3 -4 2.81 2.18
-3 -3 -4 2.87 4.42
-3 3 -4 9.72 6.11
3 3 5 3.08 2.65
3 3 5 5.88 2.25
3 3 5 5.38 3.29
3 -3 5 7.95 3.37
-3 -3 -5 13.56 5.21
-3 3 -5 3.79 2.99
-3 -3 -5 9.27 7.18
-3 3 -5 14.54 6.86
3 -3 5 5.39 3.06
3 3 6 1277.75 36.45
3 -3 6 1319.25 31.61
-3 -3 -6 1298.86 47.35
-3 3 -6 1306.59 38.17
3 3 6 1239.16 43.12
-3 -3 -6 1178.33 59.35
3 -3 6 1257.01 39.01
-3 3 -6 1157.05 57.64
3 3 6 1344.55 26.62
3 3 7 121.01 12.42
3 -3 7 110.78 10.96
-3 -3 -7 124.93 15.6
-3 3 -7 114.71 12.84
3 3 7 133.7 14.8
3 -3 7 130.82 13.4
-3 -3 -7 118.14 19.03
-3 3 -7 112.74 19.03
3 3 8 443.37 23.77
3 -3 8 478.82 22.45
-3 -3 -8 470.97 32
-3 3 -8 426.72 26.57
3 3 8 471.39 28.86
-3 -3 -8 431.8 38.27
3 -3 8 431.06 26.49
3 3 9 -4.01 5.54
3 -3 9 9.36 6.78
3 3 9 5.57 4.03
3 -3 9 8.43 4.23
-3 -3 -9 19.87 8.77
-3 3 -9 1.53 3.32
-3 -3 -9 1.57 7.74
3 3 10 8.48 6.23
3 -3 10 3.24 4.68
3 3 10 3.72 5.79
-3 -3 -10 11.14 6.49
-3 3 -10 -2.9 6.24
-3 -3 -10 11.27 8.24
3 3 11 0.78 5.72
3 -3 11 -7.07 7.86
3 3 11 6.6 5.7
-3 -3 -11 -3.47 6.34
-3 3 -11 -4.68 5.85
3 4 -11 357.35 28.68
-3 4 11 423.92 27.98
-3 -4 11 331.98 32.52
-3 -4 10 9.06 6.91
3 -4 -10 8.37 6.53
3 4 -10 -11.04 6.37
-3 4 10 0.46 5.09
-3 -4 9 25.19 8
3 -4 -9 44.26 9.71
-3 4 9 54.99 9.88
3 4 -9 39.94 8.62
-3 -4 8 -12.4 7.4
3 -4 -8 -3.71 4.41
3 4 -8 0.46 3.2
-3 4 8 -1.65 3.6
3 -4 -7 182.54 16.18
-3 4 7 183.77 14.71
3 4 -7 167.92 15.64
-3 -4 7 151.49 17.96
-3 4 6 16.24 5.25
3 -4 -6 9.56 4.04
3 4 -6 10.28 3.75
-3 4 5 2135.34 45.3
3 -4 -5 2129.36 46.11
3 4 -5 2129.85 46.25
-3 4 4 165.58 11.91
3 -4 -4 158.79 11.23
3 4 -4 170.91 12.24
3 -4 -3 459.22 16.64
3 4 -3 509.25 21.05
-3 4 3 487.95 19.13
-3 -4 2 194.41 15.11
-3 4 2 202.55 11.25
3 -4 -2 172.68 8.37
3 4 -2 217.63 13.24
-3 -4 1 1122.18 35.91
-3 4 1 1091.42 24.38
3 -4 -1 1031.95 16.87
-3 4 1 1054.89 33.13
3 -4 -1 1035.24 20.04
3 4 -1 1176.31 31.68
-3 -4 0 242.14 16.4
3 -4 0 222.41 7.92
-3 -4 0 230.84 19.78
3 -4 0 243.91 8.14
-3 4 0 242.67 17.77
-3 4 0 236.77 10.54
3 -4 0 222.94 8.48
3 4 0 244.73 13.72
3 -4 1 3773.63 33.86
-3 4 -1 3720.17 37.37
3 -4 1 3732.67 39.91
-3 -4 -1 3810.31 68.05
3 4 1 3731.96 64.83
-3 -4 -1 3730.13 83.22
3 -4 1 3724.33 40.28
-3 4 -1 3811.1 76.85
3 4 1 3758.3 55.79
3 4 2 1174.35 31.54
3 -4 2 1167.57 19.11
-3 4 -2 1189.21 18.29
-3 -4 -2 1179.01 39.85
-3 4 -2 1161.43 20.59
3 4 2 1167.82 37.5
3 4 2 1146.34 25.09
-3 -4 -2 1134.55 49.59
3 -4 2 1179.37 26.37
-3 4 -2 1135.81 45.12
3 4 3 55.66 8.84
3 4 3 55.52 7.27
3 -4 3 54.11 4.87
-3 4 -3 46.51 2.83
-3 4 -3 49.93 5.66
-3 -4 -3 62.61 9.41
3 4 3 55.84 5.65
3 -4 3 59.07 7.18
-3 -4 -3 67 12.67
-3 4 -3 49.55 11.13
3 4 4 0.9 3.1
3 4 4 7.13 2.51
3 4 4 3.64 2.58
-3 4 -4 4.02 2.83
-3 -4 -4 5.05 4.76
3 -4 4 1.6 1.65
3 -4 4 1.27 2.58
-3 -4 -4 6.1 5.79
-3 4 -4 4.49 5.03
3 4 5 89.22 10.01
3 -4 5 74.33 7.27
-3 4 -5 82.2 8.99
-3 -4 -5 92.35 12.81
3 4 5 93.38 12.04
3 -4 5 81.33 9.52
3 4 5 89.68 7.57
-3 -4 -5 70.7 14.35
-3 4 -5 70.01 14.78
3 4 6 349.91 19.52
3 -4 6 349.3 16.2
-3 -4 -6 358.1 25.93
-3 4 -6 329.97 19.28
3 4 6 342.82 23.2
-3 -4 -6 313.01 30.85
3 -4 6 345.87 20.98
3 4 6 364.19 15.37
3 4 7 1040.52 35.8
-3 -4 -7 986.52 45.41
-3 4 -7 986.21 36.2
3 4 7 966.55 40.35
-3 -4 -7 904.09 54.4
3 -4 7 996.27 37.33
3 4 8 118.19 15.44
3 -4 8 80.91 12.61
3 4 8 80.91 10.46
-3 -4 -8 89.1 14.69
-3 4 -8 74.51 11.81
-3 -4 -8 79.15 16.53
3 4 9 38.71 9.79
3 -4 9 29.05 9.21
3 4 9 42.63 8.42
-3 -4 -9 45.25 11.46
-3 4 -9 34.22 8.73
-3 -4 -9 41.33 13.68
-3 -4 -10 5.94 6.8
3 4 10 -0.23 4.36
3 -4 10 1.51 5.7
3 4 10 -0.22 4.24
-3 4 -10 0.83 4.85
3 4 11 155.05 18.83
-3 4 -11 136.35 18.33
-3 -5 10 91.89 17.43
-3 5 10 112.68 14.38
3 5 -10 94.1 13.68
-3 5 9 129.46 14.08
3 5 -9 104.88 14.35
-3 5 8 454.79 25.51
3 5 -8 440.04 26.66
3 -5 -8 455.13 28.14
-3 -5 8 407.12 31.49
-3 5 7 98.96 11.4
3 -5 -7 83.26 11.24
3 5 -7 86.46 11.11
-3 5 6 355.21 19.99
3 -5 -6 346.71 21.55
3 5 -6 347.07 21.49
-3 5 5 22.01 5.1
3 -5 -5 30.77 6.81
3 5 -5 38.58 6.98
-3 5 4 654.5 24.06
3 -5 -4 634.94 24.16
3 5 -4 710.47 26.51
-3 -5 3 411.11 25.18
-3 5 3 352.36 16.62
3 -5 -3 355.44 16.49
3 5 -3 401.28 19.38
-3 5 2 1826.52 35.89
-3 -5 2 1927.4 52.53
3 -5 -2 1786.8 33.26
3 5 -2 1976.17 42.59
-3 5 1 776.76 21.8
3 -5 -1 741.76 19.75
-3 -5 1 774.83 32.12
3 -5 -1 738.72 15.8
3 5 -1 802.45 26.18
-3 5 0 1056.34 23.82
-3 -5 0 1112.3 39.31
3 -5 0 1018.79 22.72
3 -5 0 1027.61 17.58
3 -5 0 1040.31 15.61
3 5 0 1075.32 30.19
3 5 1 5.16 2.1
3 -5 1 4.77 2.07
3 -5 1 4.5 1.06
-3 -5 -1 7.28 2.99
3 -5 1 5.94 2.43
-3 -5 -1 11.58 5.39
-3 5 -1 6.77 2.11
3 5 1 6.52 3.63
3 5 2 695.05 25.3
-3 5 -2 645.46 15.46
-3 -5 -2 708.63 32.97
3 5 2 695.93 30.1
3 5 2 679.4 21.03
-3 -5 -2 659.25 38.89
3 -5 2 627.53 20.04
3 5 3 397.48 19.38
-3 -5 -3 395.93 25.86
-3 5 -3 352.04 14.83
3 5 3 405.62 23.91
3 5 3 395.94 16.02
-3 -5 -3 378.35 30.75
3 -5 3 372.95 17.31
3 5 4 639.23 25.39
-3 -5 -4 624.89 33.16
-3 5 -4 585.68 22.02
3 5 4 630.03 30.57
-3 -5 -4 557.27 39.52
3 5 4 656.3 20.72
3 -5 4 566.64 24.01
3 5 5 393 20.63
-3 -5 -5 401.84 27.49
-3 5 -5 360.4 19.02
3 5 5 373.73 24.23
-3 -5 -5 350.53 32.44
3 5 5 382.72 16.34
3 -5 5 343.25 20.29
3 5 6 39.78 7.66
3 5 6 53.13 6.57
3 -5 6 44.63 7.44
3 5 6 60.57 8.73
-3 -5 -6 54.82 11.06
-3 5 -6 54.11 8.1
-3 -5 -6 42.42 12.14
3 5 7 -1.72 3.36
3 -5 7 3.11 4.7
3 5 7 -5.55 4.35
-3 -5 -7 3.91 4.19
-3 5 -7 -2.25 2.91
-3 -5 -7 9.13 8.61
3 5 8 136.47 14.75
-3 -5 -8 142.4 19.22
-3 5 -8 119.32 14.96
3 5 8 164.79 17.94
3 -5 8 110.18 15.55
-3 -5 -8 140.36 22.03
3 5 9 97.22 14.82
3 -5 9 79.36 14.14
3 5 9 79.82 11.85
-3 -5 -9 97.54 16.57
-3 5 -9 86.5 13.27
-3 -5 -9 87.95 19.09
3 5 10 487.4 29.03
-3 -5 -10 515.47 38.97
-3 5 -10 460.69 31.18
3 5 10 536.84 33.59
3 -5 10 462.92 32.93
-3 5 -11 37.93 11.34
-3 6 10 26.91 7.27
3 6 -10 14.83 7.15
-3 6 9 409.51 26.37
3 6 -9 369.79 26.51
-3 -6 9 314.21 31.04
-3 6 8 7.57 5.42
3 6 -8 -0.07 3.49
-3 6 7 1160.01 39.37
3 6 -7 1214.91 42.86
-3 6 6 7.88 3.99
3 6 -6 6.06 4.37
-3 6 5 8.05 2.96
3 6 -5 7.3 4.47
-3 6 4 251.75 15.68
3 6 -4 299.28 18.33
-3 6 3 737.26 25.29
-3 -6 3 795.34 37.48
3 -6 -3 719.83 26.45
3 6 -2 23.31 4.94
-3 -6 2 20.08 6.33
3 -6 -2 8.97 2.64
-3 6 2 14.33 3.8
-3 6 1 2142.09 39.26
-3 -6 1 2197.6 59.03
3 -6 -1 2161.23 41.25
3 6 -1 2290.31 46.04
-3 6 0 229.83 12.29
-3 -6 0 248.32 19.73
3 -6 0 225.34 13.11
3 6 0 257.21 15.28
3 6 1 271.47 16.16
-3 6 -1 260.82 12.07
3 -6 1 235.92 14.24
-3 -6 -1 268.68 20.8
3 6 1 276.99 19.38
3 6 1 262.04 14.04
-3 -6 -1 246.57 23.54
3 -6 1 238.18 12
3 6 2 10.81 4
3 -6 2 10.14 3.76
3 -6 2 10.44 4.54
-3 -6 -2 17.62 6.01
-3 6 -2 14.01 3.07
-3 -6 -2 10.86 6.72
3 6 2 8.78 2.22
3 6 2 14.35 5.03
3 6 3 709.02 26.72
-3 -6 -3 739.92 37.74
3 6 3 741.41 33.52
3 6 3 743.4 23.99
-3 -6 -3 674.04 42.42
3 -6 3 635.5 24.08
3 6 4 32.72 7.91
3 6 4 29.12 5
3 -6 4 20.18 5.6
3 6 4 25.72 5.24
-3 -6 -4 35.74 8.51
-3 6 -4 26.14 4.8
-3 -6 -4 28.66 9.57
3 6 5 307.91 19.11
-3 -6 -5 323.74 26.14
-3 6 -5 301.16 17.33
3 6 5 298.75 22.14
-3 -6 -5 281.83 29.5
3 6 5 312.04 16.01
3 -6 5 253.82 18.89
3 6 6 35.09 8.49
3 6 6 37.92 5.83
3 -6 6 35.83 8.45
3 6 6 49.54 8.37
-3 -6 -6 50.27 11.86
-3 6 -6 32.22 6.45
-3 -6 -6 47.18 13.39
3 6 7 21.64 6.67
3 6 7 25.9 6.85
3 6 7 21.65 4.53
-3 -6 -7 38.37 9.99
-3 6 -7 37.9 7.86
-3 -6 -7 14.19 8.16
3 -6 7 22.37 7.59
3 6 8 50.29 10.42
3 -6 8 68.12 12.57
3 6 8 66.43 10.12
-3 -6 -8 65.24 14.1
-3 6 -8 69.37 12.01
-3 -6 -8 46.32 14.07
3 6 9 705.57 34.19
-3 -6 -9 758.84 46.51
-3 6 -9 736.74 36.96
3 6 9 769.62 40
3 -6 9 662.78 37.8
3 6 10 6 5.15
3 -6 10 -3.31 6.15
-3 6 -10 -2.44 4.88
-3 7 9 45.01 9.54
3 7 -9 52.25 10.75
3 7 -8 1124.84 44.8
-3 7 8 1127.49 42.24
-3 7 7 201.17 17.26
3 7 -7 203.58 18.13
-3 7 6 200.79 15.93
3 7 -6 216.64 17.66
3 7 -5 43.15 8.12
-3 7 5 36.39 6.68
3 7 -4 37.73 7.11
-3 -7 4 42.27 10.3
-3 7 4 21.05 4.04
-3 7 3 104.48 10.03
-3 -7 3 110.7 15.32
3 7 -3 114.07 11.46
-3 7 2 1158.52 32.31
-3 -7 2 1171.99 47.17
3 7 -2 1237.39 35.88
3 7 -1 50.15 7.18
-3 -7 1 42.45 9.05
-3 7 1 54 6.98
-3 7 0 386.98 16.81
-3 -7 0 386.6 26.54
3 7 0 419.94 18.97
3 7 0 422.96 20.51
3 7 1 22.18 4.54
-3 -7 -1 25.72 7.16
-3 7 -1 22.81 4.4
-3 -7 -1 28.08 9.15
3 7 1 24.92 4.65
3 7 1 22.84 6.14
3 7 2 436.09 21.18
-3 -7 -2 377.07 27.57
3 7 2 405.26 25.07
3 7 2 387.1 18.12
-3 -7 -2 371.34 30.28
-3 7 -2 380.75 15.32
3 7 3 312.52 18.43
-3 -7 -3 328.98 26.11
3 7 3 335.97 23.81
-3 -7 -3 292.66 28.97
3 7 3 322.7 16.42
3 -7 3 291.2 17.37
3 7 4 991 33.64
-3 7 -4 951.42 28.54
3 7 4 967.31 41.45
-3 -7 -4 914.18 52.92
3 7 4 1000.12 29.52
-3 -7 -4 984.81 46.7
3 -7 4 859.61 33.46
3 7 5 47.39 10.04
3 7 5 44.85 6.65
3 -7 5 28.94 7.52
3 7 5 42.93 7.61
-3 -7 -5 46.6 10.67
-3 7 -5 40.78 6.73
-3 -7 -5 48.45 14.85
3 7 6 58.12 10.9
3 7 6 65.41 8.11
3 -7 6 40.92 9.65
3 7 6 70.38 10.74
-3 -7 -6 62.25 13.51
-3 7 -6 48.56 8.01
-3 -7 -6 42.26 13.39
3 7 7 5.82 4.5
3 -7 7 6.03 4.33
3 7 7 -2.05 4.39
-3 -7 -7 11.52 7.55
-3 7 -7 -3.17 4.91
3 7 7 1.97 3.87
-3 -7 -7 3.2 8.5
3 7 8 344.19 22.54
-3 -7 -8 308.31 29.8
3 7 8 330.27 25.9
3 -7 8 262.77 23.73
3 7 9 13.6 9.25
3 -7 9 -4.72 7.21
3 7 9 3.26 5.61
-3 -7 -9 12.76 7.29
-3 8 8 -7.46 5.77
3 8 -8 1.91 5.28
3 8 -8 3.33 4.75
-3 8 7 295.67 21.03
3 8 -7 314.18 22.9
-3 8 6 139.98 13.75
3 8 -6 179.52 16.81
-3 8 5 218.34 16.53
-3 -8 5 215.68 24.31
3 8 -5 232.72 17.87
-3 8 4 112.91 11.83
-3 -8 4 105.85 17.28
3 8 -4 132.27 13.23
-3 8 3 244.35 16.38
-3 -8 3 246.77 23.97
3 8 -3 256.05 17.47
-3 -8 2 7.21 5.52
-3 8 2 13.46 4.41
3 8 -2 7.84 3.41
-3 8 1 199.92 13.7
-3 -8 1 166.09 19.02
3 8 -1 198 14.41
3 8 0 125.22 11.46
-3 -8 0 105.24 14.73
3 8 0 127.3 11.22
-3 8 0 121.9 10.44
3 8 1 440.31 21.83
-3 -8 -1 414.14 29.6
3 8 1 457.53 27.94
3 8 1 439.47 20.56
-3 -8 -1 429.33 34.13
-3 8 -1 425.14 18.23
3 8 2 582.94 25.27
-3 -8 -2 552.93 35.37
3 8 2 563.53 31.16
3 8 2 586.38 23.79
-3 -8 -2 525.21 37.16
3 8 3 767.25 29.7
-3 -8 -3 711.7 41.31
3 8 3 757.81 36.77
-3 -8 -3 690.35 45.77
3 8 3 740.89 26.72
3 8 4 4.83 5.4
3 8 4 -1.62 3.88
3 8 4 1.72 3.74
-3 -8 -4 -2.94 4.22
-3 -8 -4 12.42 8.25
3 8 5 298.47 19.74
-3 -8 -5 313.33 29.1
3 8 5 319.14 25.13
-3 -8 -5 262.43 30.17
3 8 5 314.59 18.5
3 8 6 156.96 15.87
-3 -8 -6 165.77 21.94
3 -8 6 104.05 16.29
3 8 6 156.26 18.4
-3 -8 -6 114.99 21.23
3 8 6 159.88 13.54
3 8 7 236.3 19.45
-3 -8 -7 260.22 28.05
3 8 7 267.12 23.66
3 8 7 261.75 17.9
3 8 8 106.94 16.1
3 8 8 84.69 11.65
-3 -8 -8 88.34 17.69
3 8 9 299.42 26.9
3 -8 9 276.18 26.98
-3 9 7 9.07 3.98
-3 9 6 551.6 28.53
-3 -9 6 531.96 42.01
-3 -9 5 28.12 11.03
3 9 -5 38.2 8.66
-3 9 5 30.46 6.33
-3 9 4 254.96 18.76
-3 -9 4 254.52 26.77
3 9 -4 300.59 19.8
3 9 -3 19.93 5.21
-3 -9 3 16.28 7.53
-3 9 3 15.8 5.6
-3 -9 2 19.39 7.82
3 9 -2 20.12 5.19
-3 9 2 23.3 6.01
-3 9 1 201.13 15.04
-3 -9 1 182.75 21.28
3 9 -1 201.24 14.82
3 9 -1 216.13 15.5
3 9 0 996.44 33.74
-3 -9 0 868.4 46.01
3 9 0 930.87 31.83
-3 9 0 965.76 29.92
3 9 1 26.21 5.65
-3 -9 -1 21.85 7.68
-3 9 -1 33.59 7.29
-3 -9 -1 30.72 10.94
3 9 1 36.32 9.11
3 9 1 29.77 5.64
3 9 2 742.47 29.64
-3 -9 -2 715.81 42.86
3 9 2 763.73 38.27
3 9 2 707.7 27.7
3 9 3 87.84 10.21
3 9 3 91.56 10.54
-3 -9 -3 80.53 15.06
-3 -9 -3 68.06 16.04
3 9 3 88.25 13.42
3 9 4 6.02 6.28
3 9 4 1.48 3.54
3 9 4 11.68 5
-3 -9 -4 3.41 5.95
-3 -9 -4 14.55 9.15
3 9 5 128.55 16.77
3 9 5 133.53 13.93
-3 -9 -5 130.49 19.09
3 9 5 143.45 12.96
-3 -9 -5 111.31 21.19
3 9 6 893.43 35.8
-3 -9 -6 856.24 51
3 9 6 903.48 45.12
3 9 6 838.41 32.14
3 9 7 -5.69 7.75
3 9 7 0.99 4.18
3 9 7 -5.3 6.01
-3 -9 -7 11.5 10.21
3 9 8 429.99 28.41
3 9 8 467.95 32.17
-3 -10 6 50.11 15.21
-3 10 6 46.23 8.33
-3 10 5 582.09 30.07
-3 -10 5 541.3 42.32
-3 -10 4 12.28 7.7
-3 10 4 7.64 5.69
-3 -10 3 13.8 7.26
-3 10 3 25.01 6.66
3 10 -3 38.44 7.54
-3 -10 2 14.52 7.37
-3 10 2 16.7 5.98
3 10 -2 14.11 4.9
3 10 -1 99.44 11.14
-3 -10 1 68.53 14.46
3 10 -1 86.99 11
-3 10 1 88.06 10.53
3 10 0 -5.15 3.1
-3 -10 0 -4.84 5.64
-3 10 0 6.05 4.57
3 10 0 -5.07 3.7
3 10 1 987.52 34.87
-3 -10 -1 869.67 48.92
3 10 1 882.22 43.39
-3 -10 -1 778.05 52.7
3 10 1 964.02 34.73
3 10 2 19.44 5.25
3 10 2 24.16 6.14
-3 -10 -2 16.76 8.21
-3 -10 -2 28.71 10.21
3 10 2 21.13 7.07
3 10 3 54.64 8.86
3 10 3 70.18 10.32
-3 -10 -3 62.17 14.17
-3 -10 -3 46.78 14.05
3 10 3 49.8 9.91
3 10 4 -6.57 6.38
3 10 4 4.89 4.79
3 10 4 3.74 4.6
-3 -10 -4 -3.1 7.91
-3 -10 -4 3.14 8.1
-3 -10 -5 210.7 26.2
3 10 5 186.5 20.44
3 10 5 242.07 19.23
3 10 5 207.29 16.44
-3 -10 -5 160.24 26.06
3 10 6 4.53 5.97
3 10 6 0.47 5.64
3 10 6 -7.66 4.69
-3 -10 -6 11.74 9.32
3 10 7 606.2 31.3
3 10 7 619.11 38.72
3 10 7 613.23 30.16
-3 -11 5 30.82 12.61
3 11 -5 28.6 7.5
-3 11 5 17.63 6.28
-3 11 4 325.47 22.5
3 11 -4 309.31 21.82
-3 11 3 147.24 14.67
-3 -11 3 116.79 19.51
3 11 -3 148.74 14.72
-3 11 2 120.6 13.34
-3 -11 2 107.73 18.73
3 11 -2 125.6 13.83
-3 -11 1 62.28 14.52
-3 11 1 79.18 10.71
3 11 -1 87.15 11.26
-3 -11 0 193.44 24.51
3 11 0 160.33 20.96
3 11 0 197.42 16.92
3 11 1 18.55 5.42
-3 -11 -1 -0.5 6.75
-3 -11 -1 9.14 10.16
3 11 1 7.61 6.14
-3 -11 -2 225.34 26.69
3 11 2 212.24 23.33
3 11 2 277.43 19.73
-3 -11 -2 206.21 27.47
-3 -11 -3 112.86 19.87
3 11 3 121.97 13.69
-3 -11 -3 92.3 21.61
3 11 3 105.97 16.47
-3 -11 -4 201.29 26.54
3 11 4 218.5 23.47
3 11 4 230.28 18.97
-3 -11 -4 146.98 26.87
3 11 5 104.22 17.72
3 11 5 102.38 12.96
-3 12 3 354.92 24.06
-3 -12 2 11.52 8.31
-3 12 2 15.4 6.37
3 12 -2 7.59 5.13
-3 12 1 393.96 24.56
-3 -12 1 371.66 36.33
3 12 -1 402.25 25.63
3 12 0 5.61 4.58
-3 -12 0 -8.18 7.23
3 12 0 11.87 7.24
3 12 1 27.12 7.39
-3 -12 -1 16.77 7.44
-3 -12 -1 22.22 13.19
3 12 1 27.67 10.29
3 12 2 25.27 7.38
-3 -12 -2 15.36 10.92
3 12 2 11.52 8.57
3 12 3 196.59 23.37
-3 -12 -3 167.18 29.33
-4 0 11 0.37 6.78
4 0 -10 550.71 31.38
-4 0 10 627.68 33.98
-4 0 9 -3.78 4.79
4 0 -9 3.28 4.93
4 0 -8 647.4 29.72
-4 0 8 702.95 32.48
-4 0 7 -2.12 4.29
4 0 -7 2.9 4.07
4 0 -6 95.89 9.88
-4 0 6 94.51 10.35
-4 0 5 2.36 2.66
4 0 -5 -2.01 1.88
-4 0 5 4.03 4.18
4 0 -4 791.66 21.63
-4 0 4 760.54 33.45
-4 0 3 -2.63 2.38
-4 0 3 2.14 4.02
-4 0 2 2211.03 34.74
-4 0 2 2078.71 59.67
-4 0 2 2187.13 39.92
4 0 -2 2092.89 41.51
-4 0 1 -0.26 2.29
4 0 -1 -2.3 1.63
-4 0 1 1.23 1.39
-4 0 1 -0.61 3.1
4 0 -1 -1.08 3.05
-4 0 0 311.54 12.01
4 0 0 304.37 16.55
-4 0 0 328.16 25.68
4 0 0 293.77 14.69
4 0 1 -1.84 3.14
4 0 1 -2.03 2.52
-4 0 -1 1.59 2.13
-4 0 -1 3.59 3.9
4 0 2 1941.42 39.41
-4 0 -2 1971.09 37.49
4 0 2 1885.97 45.32
-4 0 -2 1850.16 67.48
4 0 3 -1.11 3.34
4 0 3 4.65 2.8
-4 0 -3 2.37 2.87
-4 0 -3 0.42 4.07
4 0 4 1138.11 31.38
-4 0 -4 1145.03 35.23
4 0 4 1084.35 36.98
-4 0 -4 1027.84 54.04
4 0 5 3.82 3.65
4 0 5 2.46 3.27
-4 0 -5 2.82 3.5
-4 0 -5 6.58 5.98
4 0 6 223.18 15.85
-4 0 -6 249.67 18.79
4 0 6 243.81 19.11
-4 0 -6 230.11 27.86
4 0 7 10.75 5.38
4 0 7 -3.83 4.18
-4 0 -7 -1.38 5.16
-4 0 -7 -8.52 9.15
4 0 8 889.18 33.74
-4 0 -8 922.36 42.08
4 0 8 914.21 40.26
-4 0 -8 888.66 58.86
4 0 9 -1.26 5.7
4 0 9 7.22 5.69
-4 0 -9 -0.1 4.7
-4 0 -9 -7.33 8.34
4 0 10 20.4 7.36
4 0 10 13.23 6.71
-4 0 -10 23.08 8.84
-4 0 -10 32.3 15.89
4 0 11 2.93 5.73
-4 0 -11 4.24 6.76
-4 0 -11 5.5 12.39
-4 1 11 158.68 18.06
4 1 -11 133.25 17.2
-4 -1 11 151.93 17.25
4 1 -10 285.59 23.13
-4 1 10 310.55 23.47
-4 -1 10 308.34 24.11
4 1 -9 892.66 37.61
-4 1 9 944.49 39.29
-4 -1 9 1004.01 40.95
-4 1 8 42.4 7.95
4 -1 -8 37.93 7.68
4 1 -8 57.54 8.81
-4 -1 8 60 9.56
-4 1 7 44.75 8.23
4 -1 -7 38.66 6.64
4 1 -7 46.24 7.63
-4 -1 7 36.15 7.47
-4 1 6 23.38 5.97
4 -1 -6 25.04 4.91
4 1 -6 20.55 4.6
-4 -1 6 17.82 5.53
-4 -1 5 24.06 5.31
-4 1 5 23.17 5.28
4 -1 -5 22.07 4.53
4 1 -5 18.34 3.87
4 -1 -4 178.89 9.48
4 1 -4 183.38 11.05
-4 1 4 191.18 13.04
-4 -1 4 177.77 17.03
-4 1 4 155.91 14.78
-4 -1 4 189.17 13.26
4 -1 -3 2188.81 27.5
-4 1 3 2346.72 43.31
-4 -1 3 2247.46 60.17
-4 1 3 2270.05 58.28
-4 -1 3 2383.42 44.65
4 1 -3 2247.09 45.35
-4 1 2 445.59 12.09
-4 -1 2 512.22 19.39
4 -1 -2 475.16 17.92
-4 1 2 498.64 18.47
-4 -1 2 490.83 29.09
-4 1 2 481.83 28.03
-4 -1 2 502.64 19.25
4 -1 -2 469.07 18.86
4 1 -2 488.37 20.46
-4 -1 1 976.64 25.8
4 1 -1 939.08 29.49
4 -1 -1 931.29 26.27
-4 1 1 982.13 24.68
-4 -1 1 942.27 42.29
-4 1 1 932 41.16
4 -1 -1 912.25 25.84
4 1 -1 929.14 28.17
4 -1 0 21.84 3.73
4 -1 0 14.06 2.49
4 1 0 19.35 3.41
-4 -1 0 21.63 4.03
-4 1 0 19.42 3.17
-4 -1 0 21.36 7.03
-4 1 0 24.74 6.84
4 1 0 16 4
-4 -1 -1 425.95 18.06
-4 1 -1 418.19 11.71
4 1 1 398.29 20.32
4 -1 1 423.2 19.51
-4 -1 -1 399.36 30.29
-4 1 -1 375.95 28.72
4 -1 1 405.25 16.7
4 1 1 406.04 18.1
4 1 2 130.91 10.53
4 -1 2 137.23 9.99
-4 -1 -2 135.36 11.21
-4 1 -2 138.54 8.62
4 1 2 137.34 12.1
4 -1 2 131.8 11.1
-4 -1 -2 125.54 18.1
-4 1 -2 112.22 16.71
4 1 3 1876.41 40.86
4 -1 3 1856.37 37.5
-4 -1 -3 1884.07 45.45
-4 1 -3 1950.93 37.96
4 1 3 1853.7 48.84
4 -1 3 1859.89 44.47
-4 -1 -3 1804.27 70.84
-4 1 -3 1723.74 66.99
4 1 4 191.06 13.3
4 -1 4 188.2 12.32
-4 -1 -4 196.19 15.41
-4 1 -4 185.11 13.3
4 1 4 197.52 15.96
4 -1 4 190.39 14.82
-4 -1 -4 180.34 23.58
-4 1 -4 166.87 22.87
4 1 5 665.87 26.41
4 -1 5 722.83 25.27
-4 -1 -5 718.82 31.11
-4 1 -5 689.74 28.12
4 1 5 674.33 31.23
4 -1 5 718.06 30.63
-4 -1 -5 677.56 45.53
-4 1 -5 684.32 45.5
4 1 6 60.28 9.9
4 -1 6 63.61 10.34
4 1 6 50.61 8.28
4 -1 6 60.45 7.9
-4 -1 -6 54.08 9.7
-4 1 -6 53.68 8.82
-4 -1 -6 47.14 12.34
-4 1 -6 52.17 13.26
4 1 7 264.1 18.19
4 -1 7 273.69 17.48
-4 -1 -7 292.34 23.07
-4 1 -7 275.05 20.36
4 1 7 286.02 22.11
4 -1 7 268.34 19.93
-4 -1 -7 253.02 30.96
-4 1 -7 244.39 30.04
4 1 8 129.16 13.53
4 -1 8 141.04 14.67
-4 -1 -8 137.38 17.06
-4 1 -8 151.17 16.85
4 1 8 169.67 17.59
4 -1 8 143.91 15.83
-4 -1 -8 122.45 21.44
-4 1 -8 126.26 23.75
4 1 9 322.44 21.78
4 -1 9 321.86 21.38
-4 -1 -9 328.18 27.44
-4 1 -9 357.46 27.29
4 1 9 335.96 25.44
4 -1 9 317.19 25.31
-4 -1 -9 296.55 35.32
-4 1 -9 315.82 36.95
4 1 10 58.23 11.05
4 -1 10 74.01 13.67
4 1 10 58.16 10.37
4 -1 10 78.65 12.1
-4 -1 -10 61.41 11.89
-4 1 -10 68.28 13.05
-4 -1 -10 76.48 19.62
-4 1 -10 67.35 18.98
4 -1 11 24.9 8.26
-4 -1 -11 26.08 10.01
-4 1 -11 30.71 11.07
-4 -1 -11 34.33 16.03
4 2 -11 36.91 10.3
-4 -2 11 51.54 11.77
4 2 -10 222.03 21.33
-4 2 10 258.84 21.51
-4 -2 10 274.76 22.56
-4 2 9 40.68 8.54
4 2 -9 35.67 8.6
-4 -2 9 51.42 10.09
-4 2 8 117.37 13.01
4 2 -8 110.26 12.86
-4 -2 8 137.61 14.78
-4 2 7 16.23 4.95
-4 -2 7 19.55 5.68
4 2 -7 11.36 3.31
4 2 -6 640.04 25.52
-4 2 6 668.94 27.78
-4 -2 6 672.77 28.8
4 2 -5 102.92 9.29
-4 2 5 107.63 10.41
-4 -2 5 110.09 11.1
4 2 -4 521.4 19.45
-4 2 4 556.6 22.48
-4 2 4 531.58 25.47
-4 2 3 439.23 18.93
-4 -2 3 419.14 26.84
-4 2 3 421.18 23.75
4 2 -3 450.45 20.6
-4 -2 2 854.36 28.34
-4 2 2 840.46 24.12
4 -2 -2 792.19 21.33
-4 -2 2 792.75 37.27
-4 2 2 790.06 33.91
4 -2 -2 818.16 24.31
4 2 -2 820.26 27.33
-4 -2 1 351.26 17.71
-4 2 1 334.99 14.07
4 -2 -1 326.35 13.88
-4 -2 1 315.5 25
-4 2 1 329.89 23.65
4 -2 -1 328.2 14.76
4 2 -1 348.74 17.87
-4 -2 0 1345.3 34.8
4 2 0 1317.12 37.93
-4 2 0 1373.32 26.42
4 -2 0 1359.85 31.04
-4 -2 0 1290.7 52.92
-4 2 0 1313.72 49.76
4 -2 0 1322.73 28.99
4 2 0 1293.84 33.47
-4 -2 -1 654.32 25.5
4 2 1 607.95 26.58
4 -2 1 635.33 22.3
-4 2 -1 638.05 16.27
-4 -2 -1 613.52 38.17
-4 2 -1 553.44 33.81
4 2 1 605.65 23.09
4 -2 1 616.19 19.88
4 2 2 366.93 18.58
4 -2 2 370.93 15.85
-4 2 -2 369.49 11.3
4 2 2 365.89 21.22
4 -2 2 384.18 18.2
-4 -2 -2 359.34 30.65
-4 2 -2 343.49 28.99
-4 -2 -2 385.19 20.64
4 2 3 107.75 10.51
4 -2 3 113.69 8.95
-4 -2 -3 105.98 11.63
-4 2 -3 116.12 8.47
4 2 3 110.6 6.97
4 2 3 115.8 12.63
4 -2 3 118 10.96
-4 -2 -3 108.04 17.64
-4 2 -3 85.26 16.13
4 2 4 567.95 23.98
4 -2 4 605.67 21.08
-4 2 -4 602.64 22.2
4 2 4 567.17 29.12
4 2 4 599.08 16.41
-4 -2 -4 584.71 28.21
4 -2 4 593.11 26.03
-4 -2 -4 516.87 40.11
-4 2 -4 545.81 40.03
4 2 5 100.44 11.13
4 -2 5 122.26 10.33
-4 -2 -5 120.51 12.91
-4 2 -5 118.47 11.05
4 2 5 113.58 13.55
4 -2 5 100.57 11.37
-4 -2 -5 116.6 19.71
-4 2 -5 86.38 16.36
4 2 6 921.8 32.37
4 -2 6 964.51 29.5
-4 -2 -6 943.87 39.85
-4 2 -6 940.8 34.22
4 2 6 846.92 37.38
-4 -2 -6 833.05 53.31
4 -2 6 901.92 34.86
-4 2 -6 856.36 52.66
4 2 7 647.09 28.44
4 -2 7 635.45 25.71
-4 -2 -7 642.64 35.21
-4 2 -7 661.85 30.99
4 2 7 642.69 33.74
-4 -2 -7 577.62 45.35
4 -2 7 636.27 30.78
-4 2 -7 562.41 45.25
4 2 8 169.63 14.95
4 -2 8 154.28 14.19
-4 -2 -8 164.9 19.59
-4 2 -8 158.82 16.54
4 2 8 186.07 19.28
4 -2 8 152.79 16.26
-4 -2 -8 155.59 25.12
-4 2 -8 156.59 26.4
4 2 9 -0.15 4.91
4 -2 9 4.42 4.57
4 2 9 4.86 4.61
4 -2 9 6.47 3.94
-4 -2 -9 -3.27 5.97
-4 2 -9 3.44 3.87
-4 -2 -9 -9.08 9.28
-4 2 -9 3.94 9.35
4 2 10 125.42 16.86
4 -2 10 110.45 15.92
4 2 10 105.93 14.22
-4 -2 -10 127.42 17.97
-4 2 -10 141.67 17.35
-4 -2 -10 111.25 22.59
-4 2 -10 80.13 18.91
-4 2 -11 40.75 11.67
-4 -2 -11 79.39 20.88
4 3 -11 357.58 28.2
-4 3 10 59.23 11.7
4 3 -10 48.34 10.04
4 3 -9 2.3 4.03
-4 3 9 4.08 4.42
4 3 -8 15.55 4.76
-4 3 8 20.77 6.15
4 3 -7 967.29 34.94
-4 3 7 1013.18 36.81
4 3 -6 2.42 2.98
-4 3 6 8.34 3.05
4 3 -5 1390.9 36.38
-4 3 5 1381.41 38.37
4 3 -4 35.89 6.21
-4 3 4 21.95 4.72
4 3 -3 20.54 4.5
-4 -3 3 25.18 6.62
-4 3 3 21.49 4.48
-4 3 3 20.09 4.48
-4 -3 2 165.29 13.48
-4 3 2 172.48 11.1
-4 -3 2 158.75 17.54
-4 3 2 153.13 14.47
4 -3 -2 147.89 9.97
4 3 -2 165.16 12.44
-4 -3 1 2162.93 49.19
-4 3 1 2189.37 37.29
4 -3 -1 2136.22 31.16
-4 -3 1 2094.39 64.99
-4 3 1 2162.88 59.39
4 -3 -1 2124.03 36.67
4 3 -1 2286.58 48.33
4 -3 0 1.61 2.04
4 -3 0 -3.2 2.62
4 3 0 -1.9 2.63
-4 -3 0 -1.64 2.95
-4 -3 0 6.26 4.83
-4 3 0 4.75 2.49
-4 3 0 5.56 3.34
4 3 0 4.16 2.37
-4 -3 -1 1081.58 35.79
-4 3 -1 1044.2 20.88
4 3 1 1038.46 36.25
4 -3 1 1026.42 26.09
-4 -3 -1 1008.21 49.76
-4 3 -1 1015.5 45.75
4 3 1 996.08 30.85
4 -3 1 1036.78 24.8
4 3 2 49.5 8.03
4 -3 2 47.35 6.74
4 3 2 46.03 6.84
4 -3 2 42.34 5.14
-4 -3 -2 41.52 7.29
-4 3 -2 36.83 3.29
-4 -3 -2 34.47 9.83
-4 3 -2 28.51 8.49
4 3 3 62.47 8.47
4 3 3 56.88 8.96
4 -3 3 54.83 7.34
-4 3 -3 47.27 5.03
4 -3 3 56.28 6.14
-4 -3 -3 54.71 8.55
-4 -3 -3 54.71 12.24
4 3 3 54.33 5.48
-4 3 -3 41.76 11.44
4 3 4 51.5 9.28
4 -3 4 47.29 7.21
4 3 4 40.33 6.72
4 -3 4 55.32 6.62
-4 -3 -4 64.64 9.99
-4 3 -4 39.9 5.22
-4 -3 -4 51.97 13.76
-4 3 -4 43.57 10.85
4 3 4 54.35 5.72
4 3 5 1055.55 34.93
4 -3 5 1188.01 30.37
-4 -3 -5 1108.77 43.41
-4 3 -5 1058.87 32.04
4 3 5 1030.94 41.32
-4 -3 -5 1000.66 58.4
4 -3 5 1061.44 35.31
-4 3 -5 1040.83 56.88
4 3 6 5.48 4.52
4 -3 6 1.34 3.52
4 3 6 11.85 4.69
4 -3 6 5.95 3.65
-4 -3 -6 2.56 3.06
-4 3 -6 2.26 2.58
-4 -3 -6 7.23 6.63
-4 3 -6 13.38 8.06
4 3 7 873.76 33.61
4 -3 7 902.6 29.21
-4 -3 -7 826.47 41.12
-4 3 -7 822.82 33.94
4 3 7 826.15 39.08
-4 -3 -7 767.21 53.79
4 -3 7 826.66 36.19
-4 3 -7 751.99 52.01
4 3 8 145.1 14.59
-4 -3 -8 150.69 18.95
-4 3 -8 121.12 14.5
4 3 8 156.95 18.22
4 -3 8 135.42 16.25
-4 -3 -8 150.97 25.55
-4 3 -8 96.48 20.89
4 3 9 4.35 4.33
4 -3 9 4.42 5.3
4 3 9 17.11 6.44
-4 3 -9 0.24 4.56
-4 -3 -9 8.81 9.54
4 3 10 -1.75 5.97
4 -3 10 -2.62 6.98
4 3 10 1.34 4.65
-4 -3 -10 0.8 5.3
-4 -3 -10 -17.31 12.75
4 4 -10 88.77 13.27
-4 4 10 97.35 13.45
4 4 -9 16.61 6.01
-4 4 9 15.99 5.4
4 4 -8 211.28 18.23
-4 4 8 214.91 17.81
4 4 -7 233.25 17.78
-4 4 7 238.18 17.9
-4 4 6 1556.49 43.98
4 4 -6 1539.85 42.41
-4 4 5 459.98 22.68
4 4 -5 446.39 21.3
4 4 -5 458.52 23.9
-4 4 4 509.48 22.44
4 4 -4 530.65 24.7
4 4 -3 34.67 6.27
-4 -4 3 20.95 5.96
-4 4 3 24.27 5.12
-4 -4 2 418.08 23.56
-4 4 2 434.99 18.24
-4 -4 2 406.07 29.6
-4 4 2 388.2 22.3
4 -4 -2 404.32 15.79
4 4 -2 437.21 21.67
-4 -4 1 372.11 21.81
-4 4 1 354.7 15.54
-4 -4 1 341.63 26.93
-4 4 1 356.14 23.22
4 -4 -1 365.14 14.28
4 4 -1 376.97 19.4
-4 -4 0 1277.71 41.3
-4 4 0 1265.4 27.04
4 4 0 1260.56 40.89
-4 -4 0 1188.15 52.31
-4 4 0 1244.46 47.65
4 -4 0 1225.88 24.83
4 4 0 1227 34.88
4 -4 1 215.47 10.3
-4 -4 -1 219.27 17.1
-4 4 -1 207.82 9.87
4 4 1 203.35 16.49
-4 -4 -1 197.18 22.78
4 -4 1 200.46 10.62
-4 4 -1 189.49 20.47
4 4 1 207.11 14.64
4 -4 2 63.41 5.72
4 -4 2 60.72 6.8
4 4 2 62.08 8.22
-4 -4 -2 83.8 11.53
-4 -4 -2 48.09 11.69
-4 4 -2 57.08 12.62
4 4 2 67.75 10.24
4 4 3 4.27 3.95
4 -4 3 7.02 3.02
4 4 3 10.17 4.01
-4 -4 -3 7.27 3.58
-4 -4 -3 11.97 6.74
4 4 3 5.94 2.33
-4 4 -3 7.86 6.09
4 4 4 207.5 15.15
-4 -4 -4 229.26 19.62
4 4 4 218.85 19.2
4 4 4 219.01 12.1
-4 -4 -4 216.78 26.46
4 -4 4 192.31 14.96
-4 4 -4 180.73 23.97
4 4 5 97.78 11.24
-4 -4 -5 114.1 15.28
4 4 5 122.74 14.8
4 4 5 105.41 8.63
4 -4 5 97.98 11.44
-4 -4 -5 79.16 17.18
-4 4 -5 92.95 17.74
4 4 6 822.48 32.3
-4 -4 -6 799.74 40.45
4 4 6 793.23 38.36
-4 -4 -6 690.57 50.73
4 -4 6 774.69 33.01
-4 4 -6 706.12 48.16
4 4 7 22.62 7.47
4 -4 7 36.32 8.45
4 4 7 28.95 7.16
-4 -4 -7 34.53 9.13
-4 -4 -7 19.21 10.96
-4 4 -7 30.01 12.18
4 4 8 112.1 16.35
4 -4 8 108 14.13
4 4 8 77.4 11.31
-4 -4 -8 88.89 15.39
-4 -4 -8 76.21 17.84
4 4 9 18.07 9.06
4 -4 9 10.14 5.78
4 4 9 5.4 5.41
-4 -4 -9 15.24 8.88
-4 -4 -9 12.92 11.2
-4 -4 -10 342.57 32.01
4 -4 10 274.24 26.28
-4 -4 -10 246.79 33.86
4 5 -10 175.48 18.97
4 5 -9 172.45 18.1
-4 5 9 178.35 17.5
-4 5 8 230.44 19.09
4 5 -8 214.44 19.12
-4 5 7 462.16 25.68
4 5 -7 433.89 25.31
4 5 -6 13.84 5.89
-4 5 6 11.12 5.46
4 5 -6 8.33 4.56
-4 5 5 1101.73 35.98
4 5 -5 1132.27 38.28
-4 -5 4 587.43 32.64
-4 5 4 535.48 23.88
4 5 -4 602.9 27.51
-4 -5 3 728.09 34.71
-4 5 3 706.24 25.69
4 5 -3 746.29 29.63
-4 -5 2 384.69 23.88
-4 5 2 374.53 17.52
-4 -5 1 145.25 14.71
-4 5 1 134.25 10.11
-4 -5 1 130.25 18.04
4 5 -1 133.4 11.99
-4 -5 0 116.43 13.14
-4 5 0 104.11 8.28
4 5 0 112 12.25
-4 -5 0 106.36 16.3
-4 5 0 90.8 13.2
4 5 0 111.52 10.68
4 5 1 600.57 25.8
-4 -5 -1 569.66 29.73
-4 5 -1 564.06 17.35
4 5 1 575.06 29.44
-4 -5 -1 518.85 37.21
-4 5 -1 515.67 32.83
4 5 2 191.22 14.82
-4 -5 -2 185.2 17.63
4 5 2 212.44 18.6
4 5 2 191.06 11.67
-4 -5 -2 191.79 23.53
-4 5 -2 168.94 20.49
4 -5 2 190.94 12.02
4 5 3 613.77 26.65
-4 -5 -3 617.08 33.19
4 5 3 571.25 30.88
4 5 3 623.64 21.21
-4 -5 -3 530.81 40.6
4 -5 3 605.76 23.16
4 5 4 103.82 13.52
4 5 4 92.2 10.78
-4 -5 -4 99.79 13.41
4 5 4 96.85 8.78
4 -5 4 89.93 10.83
-4 -5 -4 74.26 16.43
-4 5 -4 76.18 16.71
4 5 5 76.09 10.48
4 5 5 61.7 11.26
4 5 5 70.53 7.51
4 -5 5 63.22 9.89
-4 -5 -5 78.85 13.63
-4 -5 -5 60.99 15.44
4 5 6 31.3 8.52
4 -5 6 36.46 7.99
4 5 6 33.45 7.38
-4 -5 -6 51.29 11.42
-4 -5 -6 23.21 10.66
4 5 7 250.09 19.85
-4 -5 -7 271.86 25.61
4 5 7 233.2 22.55
4 -5 7 217.73 19.96
-4 -5 -7 225.17 30.25
4 5 8 45.3 10.73
4 -5 8 31.95 8.33
4 5 8 36.68 8.64
-4 -5 -8 46.32 12.3
-4 -5 -8 35.24 13.85
4 5 9 396.9 27.22
-4 -5 -9 483.9 37.11
4 5 9 479.89 33.64
-4 -5 -9 418.01 43.6
4 -5 9 417.29 29.82
-4 6 9 9.12 6.49
4 6 -9 21.48 8.71
-4 6 8 883.09 38.22
4 6 -8 805.72 37.28
4 6 -7 7.76 5.17
-4 6 7 16.94 6.47
4 6 -7 21.58 7.06
-4 6 6 84 10.96
4 6 -6 82.94 11.47
4 6 -5 24.19 6.91
-4 6 5 12.13 4.38
-4 -6 4 807.49 40.9
-4 6 4 778.75 29.45
4 6 -4 829.83 33.04
-4 6 3 10.12 3.72
4 6 -3 6.35 3.13
-4 -6 3 5.05 4.78
-4 -6 2 717.4 35.15
-4 6 2 696.02 25.17
4 6 -2 767.48 30.44
-4 -6 1 139.39 15.37
-4 6 1 129.9 10.26
-4 -6 1 134.85 18.47
4 6 -1 142.45 12.31
-4 6 0 15.82 3.93
4 6 0 18.97 5.16
-4 -6 0 29.79 8.19
-4 -6 0 20.22 8.27
4 6 0 27.67 6.95
-4 6 -1 4.94 2.69
4 6 1 1.6 2.64
-4 -6 -1 1.76 3.53
-4 -6 -1 -4.88 5.34
4 6 1 0.06 3.01
4 6 2 1142.03 37.27
-4 -6 -2 1174.13 47.71
4 6 2 1212.93 45.78
4 6 2 1185.02 31.46
-4 -6 -2 1081.5 58.03
4 6 3 -0.74 4.32
4 6 3 1.86 2.49
-4 -6 -3 0.02 3.89
-4 -6 -3 -1.82 5.73
4 6 3 -2.94 3.19
4 6 4 502.78 25.54
-4 -6 -4 498.42 32.94
4 6 4 497.08 30.86
4 6 4 519.71 20.59
-4 -6 -4 439.61 38.94
4 6 5 18.29 5.58
4 6 5 19.06 4.15
4 -6 5 15.47 5.48
4 6 5 21.18 6.05
-4 -6 -5 23.22 9
-4 -6 -5 9.5 7.94
4 6 6 3.34 4.2
4 -6 6 2.31 3.73
4 6 6 13.7 5.95
-4 -6 -6 1.46 5.08
-4 -6 -6 3.31 7.23
4 6 7 70.26 12.82
4 -6 7 69.74 11.82
4 6 7 68.66 12.21
-4 -6 -7 66.4 13.96
-4 -6 -7 41.04 12.99
4 6 8 557.21 31.13
-4 -6 -8 570.47 39.73
4 6 8 591.28 37.17
-4 -6 -8 528.88 49.32
4 -6 8 483.25 31.76
4 6 9 28.14 11.62
4 -6 9 11.59 7.6
-4 -6 -9 -2.55 5.94
-4 -6 -9 17.65 12.47
4 7 -9 435.63 29.84
4 7 -9 431.66 31.61
4 7 -8 62 11.55
-4 7 8 69.23 11.19
-4 7 7 214.53 18.72
4 7 -7 213.79 19.75
-4 7 6 7.53 5.19
4 7 -6 1.61 3.37
-4 7 5 111.15 11.8
-4 -7 5 118.46 18.11
4 7 -5 136.41 14.3
-4 7 4 78.28 10.17
4 7 -4 81.65 10.77
-4 -7 4 76.69 13.78
-4 -7 3 857.29 43.22
-4 7 3 834.85 30.02
4 7 -3 948.25 36.68
-4 7 2 -1.13 2.33
4 7 -2 -3.46 2.41
-4 -7 2 -1.58 3.88
4 7 -1 75.67 9.52
-4 -7 1 79.54 12.61
-4 7 1 62.37 7.42
4 7 0 58.36 8.28
-4 -7 0 59.49 11.41
-4 -7 0 63.65 13.81
4 7 0 49.21 9.17
-4 7 0 44.38 6.02
4 7 1 381.53 21.75
-4 -7 -1 347.99 26.74
4 7 1 392.11 26.4
4 7 1 375.61 18.54
-4 -7 -1 327.89 31.54
4 7 2 12.79 5.37
-4 -7 -2 13.8 6.73
-4 -7 -2 18.51 10.08
4 7 2 5.93 2.56
4 7 2 5.45 4.45
4 7 3 1647.8 46.56
-4 -7 -3 1619.22 62.09
4 7 3 1696.79 57.33
4 7 3 1705.65 40.55
-4 -7 -3 1537.97 73.04
4 7 4 89.94 13.86
4 7 4 82.76 9.21
4 7 4 87.05 11.85
-4 -7 -4 67.72 12.97
-4 -7 -4 74.28 17.59
4 7 5 41.87 9.88
4 7 5 51.11 7.3
4 7 5 47.21 8.98
-4 -7 -5 54.96 12.5
-4 -7 -5 40.13 15.26
4 7 6 1.17 6.14
4 7 6 -0.17 2.87
-4 -7 -6 10.56 7.7
-4 -7 -6 -1.37 9.27
4 7 7 56.92 11.56
4 -7 7 51.27 11.05
4 7 7 85.99 12.08
-4 -7 -7 83.76 17.21
-4 -7 -7 51.96 15.94
4 7 8 19.13 7.71
4 -7 8 2.36 5.76
4 7 8 9.51 5.82
-4 -7 -8 8.77 5.94
-4 -7 -8 2.34 9.75
4 -7 9 407.78 31.87
4 8 -8 97.03 14.7
-4 -8 7 194.96 26.83
-4 8 7 200.48 18.34
4 8 -7 247.1 22.23
-4 -8 6 312.06 32.4
-4 8 6 341.14 22.61
4 8 -6 343.52 24.11
-4 -8 5 249.01 26.8
-4 8 5 261.81 19.16
4 8 -5 271.85 21.17
-4 -8 4 215.25 23.8
-4 8 4 209.54 16.44
4 8 -3 16.82 5.17
-4 -8 3 7.49 4.37
-4 8 3 24.66 5.33
-4 8 2 107.36 10.67
-4 -8 2 107.41 15.88
4 8 -2 132.89 13.27
-4 8 1 195.97 13.6
-4 -8 1 188.61 20.59
4 8 -1 215.52 16.46
4 8 0 405.66 23.32
-4 8 0 340.66 17.11
-4 -8 0 369.01 29.51
4 8 0 365.2 26.67
4 8 0 369.99 19.91
-4 -8 0 336.49 32.52
4 8 1 264.8 18.71
-4 -8 -1 224.54 22.3
4 8 1 242.58 21.49
4 8 1 271.57 16.73
-4 -8 -1 230.78 26.99
4 8 2 872.34 35.04
-4 -8 -2 879.06 46.93
4 8 2 948.78 43.98
4 8 2 872.94 30.58
-4 -8 -2 796.1 52.76
4 8 3 5.94 5.39
4 8 3 -13.48 6.13
-4 -8 -3 6.31 6.93
-4 -8 -3 0.04 7.3
4 8 3 -3.23 3.59
4 8 4 491.26 27.02
-4 -8 -4 491.48 36.24
4 8 4 512.77 34.24
-4 -8 -4 449.33 42.13
4 8 4 529.18 23.74
4 8 5 141.1 18.62
4 8 5 150.25 15.72
-4 -8 -5 157.25 21.71
4 8 5 160.75 13.84
-4 -8 -5 152.63 26.26
4 8 6 98.09 15.43
4 8 6 112.58 13.92
4 8 6 91.65 10.38
-4 -8 -6 98.27 18.51
-4 -8 -6 75.82 21.96
4 8 7 34.01 9.72
4 8 7 49.28 9.93
-4 -8 -7 41.03 12.06
-4 -8 -7 16.55 9.98
-4 -9 7 277.23 32.85
4 9 -7 316.96 26.27
-4 9 6 -12.75 7.24
4 9 -6 2.09 5.77
-4 -9 6 15.99 11.35
-4 -9 5 216.48 26.21
-4 9 5 212.49 17.62
4 9 -5 283.19 23.07
4 9 -4 141.15 14.28
-4 -9 4 106.92 18.03
-4 9 4 111.13 11.92
4 9 -3 10.87 5.43
-4 -9 3 4.46 5.78
-4 9 3 -2.07 4.02
4 9 -2 89.59 11.03
-4 -9 2 73.28 15.01
-4 9 2 72.71 8.87
-4 9 1 665.74 26.48
-4 -9 1 638.81 40.83
4 9 -1 700.78 29.32
4 9 -1 722.9 31.96
4 9 0 11.55 3.86
-4 -9 0 7.36 4.61
-4 -9 0 18.26 10.58
4 9 0 7.05 3.5
4 9 0 29.59 9.43
4 9 1 656 30.4
-4 -9 -1 617.14 40.36
4 9 1 637.95 37.31
4 9 1 652.71 28.01
-4 -9 -1 587.26 45.52
4 9 2 74.88 10.61
-4 -9 -2 68.54 14.04
-4 -9 -2 79.64 17.95
4 9 2 82.74 10.3
4 9 2 62.23 12.15
4 9 3 82.27 13.79
4 9 3 100.77 12.06
-4 -9 -3 103.5 17.33
4 9 3 120.15 12.34
-4 -9 -3 106.32 20.98
4 9 4 21.79 8.34
4 9 4 29.52 6.72
4 9 4 22.2 6.68
-4 -9 -4 17.02 6.38
-4 -9 -4 22.75 11.36
4 9 5 633.57 31.8
-4 -9 -5 595.88 43.25
4 9 5 592.01 39
-4 -9 -5 531.35 49.12
4 9 5 678.18 29
4 9 6 -5.08 6.36
4 9 6 -1.29 4.33
4 9 6 3.75 6.05
-4 -9 -6 6.92 9.79
-4 -9 -6 -0.56 9.93
4 9 7 94.65 15.64
-4 10 5 9.66 5.33
-4 -10 5 17.31 8.03
-4 -10 4 19.97 8.66
-4 10 4 31.06 6.24
4 10 -3 9.18 5.13
-4 -10 3 9.83 6.35
4 10 -2 27.03 5.64
-4 -10 2 36.31 12.39
4 10 -2 32.74 7.26
-4 10 2 18.64 5.29
4 10 -1 -2.06 5.88
-4 -10 1 -5.02 7.28
4 10 -1 -2.99 3.98
4 10 0 1078.94 40.15
-4 -10 0 1015.42 54.78
4 10 0 1011.24 49.75
4 10 0 1032.26 37.55
4 10 1 157.47 15.28
-4 -10 -1 111.42 17.55
4 10 1 157.21 14.38
-4 -10 -1 110.38 21.36
4 10 1 122.84 18.15
4 10 2 131.57 13.88
-4 -10 -2 142.89 20.81
4 10 2 146.8 14.82
-4 -10 -2 141.17 25.01
4 10 2 153.64 19.4
4 10 3 2.47 6.95
4 10 3 10.6 5.12
4 10 3 7.85 3.8
-4 -10 -3 -1.2 7.68
-4 -10 -3 -1.13 8.58
4 10 4 74.05 14.62
4 10 4 103.2 12.46
4 10 4 98.73 12.95
-4 -10 -4 62.49 14.42
-4 -10 -4 55.36 18.63
4 10 5 83.21 15.94
4 10 5 100.22 12.25
4 10 5 101.21 13.7
-4 -10 -5 98.89 19.73
-4 -10 -5 68.17 18.22
4 10 6 545.05 28.33
-4 11 4 19.86 4.83
-4 -11 3 161.54 24.55
4 11 -3 179.29 17.47
-4 11 3 140.41 14.37
-4 -11 2 23.62 10.62
4 11 -2 33.51 7.97
-4 -11 1 109.87 19.01
4 11 -1 167.16 16.3
-4 -11 0 34.68 10.81
-4 -11 0 69.73 19.01
4 11 0 62.08 10.32
4 11 0 64.1 13.92
-4 -11 -1 168.45 23.97
4 11 1 227.01 18.97
-4 -11 -1 160.11 28.33
4 11 1 153.86 21.14
4 11 2 63.48 9.66
4 11 2 61.9 9.45
-4 -11 -2 31.66 11.14
-4 -11 -2 45.89 16.53
4 11 2 70.58 14.38
4 11 3 111.02 18.02
4 11 3 126.55 14.97
4 11 3 137.84 15.52
-4 -11 -3 112.09 25.15
4 11 4 152.74 21.73
4 11 4 214.44 19.46
-4 -11 -4 145.09 28.96
-5 0 9 869.95 40.56
-5 0 8 -3.29 3.97
-5 0 7 62.67 9.66
-5 0 6 6.18 3.4
-5 0 5 93.94 10.74
-5 0 4 4.5 4.66
-5 0 4 -2.2 2.96
5 0 -4 1.77 3.36
-5 0 3 1398.34 55.78
-5 0 3 1522.93 38.91
5 0 -3 1420.01 39.79
5 0 -2 5.06 2.67
-5 0 2 -3.73 5.36
-5 0 2 -0.51 2.2
5 0 -2 -3.39 4.46
5 0 -1 1259.22 37.17
-5 0 1 1290.83 57.06
5 0 -1 1363.78 37.98
5 0 0 -0.44 3.8
5 0 0 -3.36 2.56
-5 0 0 0.63 3.94
5 0 1 995.72 34.97
-5 0 -1 954.61 52.3
5 0 1 981.23 30.81
5 0 2 -0.49 3
5 0 2 2.33 2.95
-5 0 -2 10.65 8.76
5 0 3 533.29 23.37
5 0 3 521.97 26.66
-5 0 -3 481.87 39.74
5 0 4 1.93 3.93
5 0 4 -1.08 3.45
-5 0 -4 5.89 6.73
5 0 5 17.13 6.74
5 0 5 24.84 6.25
-5 0 -5 8.53 7.4
5 0 6 3.53 5.01
5 0 6 2.52 4.51
-5 0 -6 1.59 7.01
5 0 7 371.27 22.29
5 0 7 400.09 27.22
5 0 8 4.49 6.87
5 0 8 -1.18 4.84
-5 0 -8 -9.85 9.98
5 0 9 285.54 21.62
5 0 9 267.03 24.03
-5 0 -9 250.31 36.27
5 0 10 -8.91 6.56
-5 -1 9 8.8 7.27
-5 1 9 20.14 5.46
-5 1 8 201.42 18.12
-5 -1 8 187.65 18.3
-5 -1 7 4.23 4.96
-5 1 7 1.08 4.06
-5 1 6 139.93 13.66
-5 -1 6 136.77 13.85
-5 -1 5 22.34 6.16
-5 -1 5 18.15 7.3
-5 1 5 23.94 5.56
-5 1 4 869.2 31.03
-5 -1 4 746.16 40.85
-5 -1 4 844.29 30.87
5 -1 -4 813.11 29.75
5 1 -4 810.25 31.28
-5 -1 3 173.25 20.65
-5 1 3 178.53 12.88
-5 1 3 175.41 19.44
5 -1 -3 196.09 14.07
5 1 -3 191.54 14.76
5 1 -2 748.39 29.23
5 -1 -2 740.64 26.25
-5 -1 2 717.77 41.45
-5 1 2 792.84 26.17
-5 1 2 708.37 39.49
5 -1 -2 776.61 27.44
5 1 -2 772.97 29.06
5 -1 -1 15.03 4.2
5 -1 -1 14.37 4.28
5 1 -1 15.58 3.82
-5 1 1 13.93 2.61
-5 -1 1 8.8 5.41
-5 1 1 8.38 5.74
5 1 -1 5.58 4.15
5 1 0 912.7 33.69
5 -1 0 960.98 31.26
-5 -1 0 833.13 48.27
-5 1 0 876.89 47.22
5 -1 0 899.63 28.19
5 1 0 920.87 30.26
-5 -1 -1 229 14.07
5 1 1 221.15 16.58
5 -1 1 247.03 16.47
-5 -1 -1 231.82 26.61
-5 1 -1 225.57 25.31
5 1 1 221.05 14.81
5 -1 1 217.38 13.77
5 1 2 1245.45 36.71
5 -1 2 1250.99 34.23
-5 -1 -2 1269.5 35.71
5 1 2 1220.89 41.83
5 -1 2 1250.73 38.97
-5 -1 -2 1183.05 61.52
-5 1 -2 1168.01 59.17
5 1 3 -0.24 4.18
5 -1 3 4.98 3.13
5 1 3 8.41 4.31
5 -1 3 9.54 4
-5 -1 -3 6.42 4.07
-5 -1 -3 14.45 9.63
-5 1 -3 7.14 6.73
5 1 4 102.54 10.68
5 -1 4 114 10.56
5 1 4 95.98 12.33
5 -1 4 115.67 12.94
-5 -1 -4 103.02 11.62
-5 -1 -4 104.52 18.88
-5 1 -4 99.21 18.14
5 1 5 5.9 3.81
5 -1 5 14.78 7.59
5 1 5 3.18 2.76
5 -1 5 7.68 4.34
-5 -1 -5 20.44 7.17
-5 -1 -5 4.41 6.45
-5 1 -5 16.93 10.32
5 1 6 95.15 11.57
5 -1 6 96.94 10.72
5 1 6 114.37 14.89
5 -1 6 107.83 13.89
-5 -1 -6 96.67 13.64
-5 -1 -6 75.1 17.2
-5 1 -6 76.02 16.62
5 1 7 54.04 10.95
5 -1 7 50.57 10.11
5 1 7 71.35 10.29
5 -1 7 35.13 6.94
-5 -1 -7 54.43 10.85
-5 -1 -7 43.45 13.99
-5 1 -7 27.77 11.38
5 1 8 551.6 28.74
5 -1 8 460.13 27.03
-5 -1 -8 516.69 32.66
5 1 8 551.39 34.47
5 -1 8 509.89 31.47
-5 -1 -8 454.5 45.17
-5 1 -8 514.77 49.24
5 1 9 65.76 12.65
5 -1 9 68.36 12.17
5 1 9 74.21 11.5
5 -1 9 78.51 11.64
-5 -1 -9 72.43 19.44
-5 1 -9 54.91 18.52
-5 2 9 197.04 18.7
-5 2 8 103.74 13.89
-5 2 7 468.84 26.51
-5 2 6 44.45 8.33
-5 2 5 298.63 18.91
5 2 -5 305.14 20.14
5 2 -4 3.27 3.22
-5 -2 4 10.85 4.77
-5 2 4 5.5 3.54
-5 -2 4 8.47 7.27
-5 -2 3 385.25 21.27
-5 2 3 402.07 19.78
-5 -2 3 370.3 30.07
5 -2 -3 390 19.29
5 2 -3 400.61 21.76
-5 -2 2 633.47 26.03
-5 2 2 653.2 23.59
-5 -2 2 599.7 39.05
-5 2 2 573.38 34.22
5 -2 -2 606.21 23.63
5 2 -2 619.1 26.87
-5 -2 1 1039.72 32.22
5 2 -1 995.94 35.9
-5 2 1 1077.34 28.83
-5 -2 1 983.33 50.92
-5 2 1 1016.27 47.7
5 -2 -1 1070.08 31.46
5 2 -1 965.66 32.95
-5 -2 0 140.41 11.41
5 2 0 150.1 13.87
5 -2 0 149.42 11.68
-5 2 0 151.56 9.88
-5 2 0 130.16 17.99
-5 -2 0 129.74 19.33
5 -2 0 135.5 10.01
5 2 0 128.9 11.44
-5 -2 -1 634.12 26.22
5 2 1 617.45 29.55
5 -2 1 660.64 25.47
-5 -2 -1 579.18 42.37
-5 2 -1 566.3 38.4
5 2 1 640.13 26.69
5 -2 1 639.16 23.23
5 2 2 445.71 22.72
5 -2 2 458.17 19.81
-5 -2 -2 456.96 23.45
5 2 2 442.72 25.59
5 -2 2 451.68 22.19
-5 -2 -2 403.32 36.16
-5 2 -2 411.57 35.1
5 2 3 285.62 18.29
5 -2 3 310.47 16.36
-5 -2 -3 313.99 20.64
5 2 3 306.07 22.27
5 -2 3 305.74 19.15
-5 -2 -3 302.68 32.28
-5 2 -3 285.13 30.99
5 2 4 63.31 11.1
5 -2 4 70.52 10.36
5 2 4 49.75 7.21
5 -2 4 53.22 7.3
-5 -2 -4 46.65 8.12
-5 -2 -4 55.05 15.61
-5 2 -4 68.78 15.09
5 2 5 423.48 23.05
5 -2 5 478.81 21.63
-5 -2 -5 434.11 26.27
5 2 5 424.6 27.63
5 -2 5 458.01 25.67
-5 -2 -5 402.8 39.33
-5 2 -5 393.24 37.33
5 2 6 1.41 4.44
5 -2 6 -1.21 3.94
5 2 6 7.86 5.03
5 -2 6 -1.79 3.18
-5 -2 -6 6.53 4.92
-5 -2 -6 -2.12 8.12
-5 2 -6 -3.69 5.12
5 2 7 256.57 19.07
5 -2 7 234.92 16.99
-5 -2 -7 231.36 21.44
5 2 7 259.49 23.53
5 -2 7 242.14 20.39
-5 2 -7 222.41 31.15
-5 -2 -7 198.34 30.53
5 2 8 21.07 9.29
5 -2 8 5.48 4.71
5 2 8 4.72 4.93
-5 -2 -8 23.89 8.55
-5 -2 -8 32.96 11.05
-5 2 -8 3.37 8.26
5 2 9 155.66 16.7
5 2 9 169.39 20.96
5 -2 9 163.66 19.47
-5 -2 -9 153.83 19.61
-5 -2 -9 118.53 23.95
-5 2 -9 129.36 26.43
-5 -2 -10 19.72 9.44
-5 3 9 2.96 5.41
-5 3 8 610.57 31.76
-5 3 7 21.5 7.11
5 3 -7 20.16 6.7
5 3 -6 739.22 28.75
-5 3 6 761.06 32.28
5 3 -6 780.78 34.24
-5 3 5 6.17 3.73
5 3 -5 0.62 3.25
-5 -3 5 12.28 7.63
-5 3 4 13.03 4.1
5 3 -4 11.53 4.69
-5 -3 4 12.61 5.93
-5 -3 4 14.86 7.93
-5 -3 3 292.38 19.7
-5 3 3 313.19 17.41
-5 -3 3 250.16 24.76
5 -3 -3 292.61 16.34
5 3 -3 316.53 19.95
-5 -3 2 694.33 29.18
-5 3 2 700.76 24.55
-5 -3 2 639.41 41.12
-5 3 2 639.37 34.77
5 -3 -2 652.5 24.06
5 3 -2 723.03 30.83
5 -3 -1 7.94 3.24
5 3 -1 8.54 3.95
-5 3 1 5.57 3.07
-5 -3 1 3.23 3.3
-5 -3 1 12.55 8.19
-5 3 1 6.64 6.48
5 3 -1 -3.64 5.3
-5 -3 0 1082.71 36.83
5 3 0 1091.87 40.13
-5 3 0 1134.21 27.49
-5 -3 0 1068.16 55.97
-5 3 0 1085.72 51.31
5 -3 0 1073.01 28.6
5 3 0 1050.77 34.58
-5 -3 -1 308.61 20.19
5 3 1 306.19 21.59
-5 -3 -1 322.69 31.59
-5 3 -1 302.03 29.22
5 3 1 312.23 19.12
5 -3 1 317.61 15.8
5 3 2 16.21 5.42
5 -3 2 22.99 6.32
5 3 2 18.05 4.75
5 -3 2 11.35 3.82
-5 -3 -2 14.82 4.58
-5 -3 -2 15.35 8.42
-5 3 -2 14.07 7.29
5 3 3 9.01 4.68
5 -3 3 9.24 4.85
5 3 3 12.5 5.2
5 -3 3 2.64 2.86
-5 -3 -3 1.66 5.14
5 3 3 2.85 2.47
-5 3 -3 7.33 5.15
5 3 4 523.08 25.47
-5 -3 -4 534.43 30.07
5 3 4 502.26 30.39
-5 -3 -4 502.78 43.95
5 -3 4 493.3 24.66
-5 3 -4 439.71 39.98
5 3 5 1.24 3.76
5 -3 5 -2.08 4.01
5 3 5 -0.54 2.67
-5 -3 -5 -1.12 4.22
-5 -3 -5 3.77 7.86
-5 3 -5 11.28 9.62
5 3 6 892.59 36.19
-5 -3 -6 888.35 42.05
5 3 6 905.44 42.55
-5 -3 -6 837.24 59.44
5 -3 6 854.21 36.86
-5 3 -6 905.22 58.9
5 3 7 4.98 5.46
5 -3 7 0.01 5.05
5 3 7 5.37 4.09
-5 -3 -7 6.17 5.3
-5 -3 -7 7.73 8.03
-5 3 -7 12.43 9.89
5 3 8 81.74 15.12
5 -3 8 69.21 12.47
5 3 8 63.35 10.26
-5 -3 -8 68.98 13.87
-5 -3 -8 64.4 18.99
-5 3 -8 65.94 17.79
5 3 9 22.76 10.02
5 -3 9 -5.73 8.19
5 3 9 5.4 4.29
-5 -3 -9 22.42 11.35
-5 -3 -9 -4.34 13.88
-5 3 -9 -13.98 13.58
-5 4 9 64.43 12.02
-5 4 8 57.68 9.73
5 4 -8 57.61 10.38
5 4 -7 704.65 30.69
-5 4 7 769.46 34.6
5 4 -7 778.46 36.66
5 4 -6 29.87 8.2
-5 4 6 24.24 6.43
-5 -4 5 571.02 32.96
-5 4 5 578.62 27.07
5 4 -5 605.07 30.39
5 4 -4 21.9 6.29
-5 -4 4 23.39 7.79
-5 -4 4 21.52 9.18
-5 4 4 19.14 4.83
5 -4 -3 42.54 6.1
5 4 -3 50.56 8.23
-5 -4 3 47.26 8.87
-5 -4 3 42.52 10.54
-5 4 3 50.03 7.41
5 -4 -2 16.7 4.52
5 4 -2 14.44 4.92
-5 -4 2 20.58 5.84
-5 -4 2 15.51 7.33
-5 4 2 16.65 4.66
-5 -4 1 465.19 25.68
-5 4 1 461.72 19.09
5 4 -1 475.06 27.03
-5 -4 1 420.42 34.68
-5 4 1 404.43 28.88
5 4 -1 423.86 23.07
-5 4 0 34.04 5.38
5 4 0 24.08 6.04
-5 -4 0 15.7 3.87
-5 -4 0 27.4 10.56
-5 4 0 20.68 7.24
5 4 0 23.81 6.02
-5 -4 -1 304.71 21.39
5 4 1 311.83 22.73
-5 -4 -1 304.7 31.36
-5 4 -1 253.65 26.38
5 4 1 302.11 19.61
5 4 2 8.82 3.48
5 4 2 17.58 6.15
-5 -4 -2 7.53 4.26
-5 -4 -2 16.87 8.95
-5 4 -2 15.16 6.71
5 4 3 196.78 16.34
-5 -4 -3 202.21 18.6
5 4 3 194.25 11.95
5 4 3 190.95 18.75
-5 4 -3 167.67 23.75
-5 -4 -3 169.09 25.35
5 4 4 100.09 13.96
5 -4 4 86.23 9.96
5 4 4 101.7 11.4
-5 -4 -4 103.08 14.18
-5 -4 -4 91.43 19.72
-5 4 -4 76.39 17.03
5 4 5 851.09 34.51
-5 -4 -5 876.13 42.28
5 4 5 830 41.52
-5 -4 -5 791.4 58.08
5 -4 5 825.12 34.04
-5 4 -5 779.14 54.33
5 4 6 48.34 10.07
5 -4 6 50.35 9.63
5 4 6 63.59 10.5
-5 -4 -6 44.14 10.51
-5 -4 -6 53.55 15.77
-5 4 -6 64.89 17.68
5 4 7 331.87 23.6
-5 -4 -7 346.39 28.27
5 4 7 333.14 27.77
5 -4 7 324.96 25.15
-5 4 -7 255.34 35.18
-5 -4 -7 244.78 34.89
5 4 8 16.65 7.89
5 -4 8 5.69 7.11
5 4 8 -0.87 4.1
-5 -4 -8 11.43 7.92
-5 -4 -8 3.26 9.9
-5 4 -8 9.01 7.95
5 -4 9 111.31 16.57
-5 -4 -9 131.5 19.92
-5 -4 -9 107.41 27.14
5 5 -9 22.69 8.05
5 5 -8 222.01 19.48
-5 5 8 195.56 18.97
5 5 -8 223.54 21.45
5 5 -7 60.93 10.53
-5 5 7 48.96 8.53
-5 5 6 379.63 23.39
5 5 -6 405.23 26.11
5 5 -5 54.05 9.68
-5 -5 5 35.48 9.91
-5 5 5 47.64 8.56
-5 -5 4 537.58 32.25
-5 5 4 559.08 25.89
5 5 -4 600.38 30.1
5 5 -3 37.33 7.83
-5 -5 3 21.91 6.25
-5 5 3 21.81 5.14
-5 -5 3 24.12 9.15
-5 -5 2 206.82 18.59
-5 5 2 198.16 13.65
-5 -5 2 190.44 23.23
5 5 -2 217.28 17.03
5 5 -1 5.26 3.56
-5 -5 1 6.06 4.35
-5 5 1 1.13 2.53
-5 -5 1 1.1 3.85
5 5 -1 4.51 4.64
5 5 0 52.53 8.52
-5 -5 0 47.21 8.7
-5 -5 0 64.35 14.92
-5 5 0 37.8 10.45
5 5 0 57.09 9.9
5 5 1 54.8 8.77
-5 -5 -1 52.58 9.92
-5 -5 -1 54.54 13.94
-5 5 -1 40.01 10.94
5 5 1 57.88 10.41
5 5 2 386.03 22.89
-5 -5 -2 384.35 27.05
5 5 2 392.92 27
-5 -5 -2 353.48 35.74
-5 5 -2 286.29 30.09
5 5 3 68.99 11.8
5 5 3 80.11 10.95
-5 -5 -3 67.3 11.92
-5 -5 -3 60.86 16.44
5 5 3 62.07 7.49
-5 5 -3 67.91 16.04
5 5 4 756.08 32.86
-5 -5 -4 813.08 41.45
5 5 4 775.38 40.1
-5 -5 -4 752.97 56.54
-5 5 -4 673.81 48.72
5 5 5 3.2 5.31
5 5 5 17.45 4.56
-5 -5 -5 17.64 8.34
-5 -5 -5 8.94 7.58
-5 5 -5 17.34 8.31
5 5 6 262.23 20.96
-5 -5 -6 263.52 25.6
5 5 6 252.58 23.86
-5 5 -6 232.01 30.8
5 -5 6 243.96 20.34
-5 -5 -6 226.58 32.29
5 5 7 93.67 15.03
5 -5 7 101.45 14.77
5 5 7 104.1 14.04
-5 -5 -7 99.53 16.48
-5 -5 -7 73.68 19.46
5 5 8 132.95 18.44
5 -5 8 148.22 18.15
5 5 8 119.16 15.99
-5 -5 -8 142.14 20.38
-5 -5 -8 129.04 26.3
5 -5 9 56.45 12.42
-5 -5 -9 133.77 22.11
5 6 -8 41.63 10.45
-5 6 8 29.36 8.29
5 6 -7 56.36 11.3
-5 6 7 57.35 9.91
5 6 -6 38.16 8.52
-5 -6 6 25.12 8.01
-5 6 6 20.01 5.57
-5 -6 5 505.17 34.71
-5 6 5 538.06 27.83
5 6 -5 587.51 31.05
5 6 -4 2.13 4.44
-5 -6 4 10.04 7.4
-5 6 4 0.52 3.5
-5 -6 3 561.59 33.29
-5 6 3 629.21 27.12
-5 -6 3 605 43.4
5 6 -3 670.03 32.3
5 6 -2 19.04 5.79
-5 -6 2 14.4 4.72
-5 6 2 25.1 5.29
-5 -6 2 22.97 9.93
5 6 -1 16.02 5.26
-5 -6 1 13.49 6.72
-5 6 1 15.06 4.34
-5 -6 1 15.91 7.84
5 6 0 6.83 3.25
-5 -6 0 -4.72 5.11
-5 -6 0 9.68 5.95
5 6 0 -1.43 4.64
5 6 1 438.23 25.48
-5 -6 -1 397.2 28.59
5 6 1 433.44 28.81
5 6 2 30.46 7.93
-5 -6 -2 27.34 7.85
-5 -6 -2 19.66 9.15
5 6 2 22.4 4.75
5 6 2 2.96 5.17
5 6 3 730.58 33.06
-5 -6 -3 715.95 40.18
5 6 3 660.17 37.55
5 6 3 748.47 26.26
5 6 4 0.33 4.89
5 6 4 0.73 3.78
-5 -6 -4 -2.47 5.08
-5 -6 -4 9.25 8.11
5 6 4 -2.74 3.37
5 6 5 99.93 14.79
5 6 5 92.9 12.99
-5 -6 -5 96.85 15.79
-5 -6 -5 74.72 21.1
5 6 6 22.28 9.33
5 6 6 32.07 8.74
-5 -6 -6 38.57 10.43
-5 -6 -6 17.74 11.87
5 6 7 297.46 23.14
-5 -6 -7 256.2 26.53
5 6 7 321.97 28.32
-5 -6 -7 269.4 37.11
-5 -6 -8 -3.88 8.45
-5 -6 -8 3.74 13.43
5 7 -7 9.37 6.22
-5 -7 7 11.57 8.67
-5 7 7 9.68 6.61
5 7 -6 83.49 13.73
-5 -7 6 66.01 14.32
-5 7 6 89.69 12.49
5 7 -5 52.06 9.83
-5 -7 5 35.99 11.35
-5 7 5 51.32 9.68
-5 -7 4 946.18 48.3
-5 7 4 932.78 35.8
5 7 -3 23.92 6.47
-5 7 3 31.16 7.33
-5 -7 3 27.52 7.52
-5 -7 3 39.01 14.41
-5 -7 2 173.36 20.16
-5 7 2 194.77 14.67
-5 -7 2 197.55 26.08
5 7 -2 194.29 17.17
5 7 -1 10.86 3.11
-5 -7 1 2.06 4.61
-5 -7 1 11.32 7.35
5 7 0 58.6 9.04
-5 -7 0 48.61 10.43
-5 -7 0 42.76 12.65
5 7 0 54.2 10.87
5 7 1 12.13 5.58
-5 -7 -1 8.96 6.16
-5 -7 -1 13.96 8.23
5 7 1 15.18 3.05
5 7 1 14.27 6.21
5 7 2 973.3 39.06
-5 -7 -2 905.47 46.73
5 7 2 965.58 45.77
5 7 2 987.65 31.92
-5 -7 -2 888.62 59.85
5 7 3 14.52 6.31
5 7 3 24.91 7.1
-5 -7 -3 12.16 7.45
-5 -7 -3 15.88 12.14
5 7 3 14.39 3.72
5 7 4 253.41 20.96
-5 -7 -4 240.56 24.87
5 7 4 288.96 25.9
5 7 4 291.93 17.33
-5 -7 -4 239.22 33.27
5 7 5 -2.63 7.02
5 7 5 0.63 4.05
-5 -7 -5 6.23 7.21
-5 -7 -5 10.92 12.62
5 7 6 52.23 11.93
5 7 6 42.09 9.47
-5 -7 -6 47.54 13.64
-5 -7 -6 24.24 13.73
5 7 7 0.47 6.04
-5 -7 -7 0.74 6.99
-5 -7 -7 -7.22 10.12
5 8 -7 44.22 11.05
-5 -8 7 52.93 14.73
5 8 -6 51.57 10.88
-5 8 6 49.02 10.07
-5 -8 6 50.9 14.45
-5 -8 5 279.03 28.61
-5 8 5 284.74 21.16
5 8 -5 326.64 26.62
5 8 -4 27.37 6.97
-5 8 4 22.79 6.41
-5 -8 4 21.17 9.75
-5 -8 3 542.93 37.99
-5 8 3 588.34 27.43
5 8 -3 618.29 31.91
-5 8 2 60.72 8.57
5 8 -2 67.31 10.53
-5 -8 2 49.93 11.77
-5 -8 2 62 16.27
-5 -8 1 133.4 18.21
-5 -8 1 126.66 21.11
5 8 -1 147.76 18.64
5 8 -1 151.32 15
5 8 0 37.26 7.68
-5 -8 0 31.2 7.78
-5 -8 0 34.42 12.34
5 8 0 34.02 9.48
5 8 1 255.4 20.2
-5 -8 -1 250.26 25.17
5 8 1 252.98 23.77
5 8 1 258.3 17.73
-5 -8 -1 209.19 30.06
5 8 2 8.26 4.8
-5 -8 -2 11.41 7.8
-5 -8 -2 15.24 10.99
5 8 2 -1.58 4.64
5 8 2 5.61 6.45
5 8 3 577.91 31.47
-5 -8 -3 590.09 40.74
5 8 3 606.98 38.51
5 8 3 627.94 27.22
-5 -8 -3 566.94 49.85
5 8 4 130.45 19.09
5 8 4 119.34 14.48
-5 -8 -4 115.04 18.26
5 8 4 133.74 12.62
-5 -8 -4 131.19 25.62
5 8 5 110.05 17.42
5 8 5 116.07 15
-5 -8 -5 106.4 18.28
-5 -8 -5 108.11 24.19
5 8 6 70.01 14.41
5 8 6 48.4 10.72
-5 -8 -6 47.73 14.82
-5 -8 -6 49.66 20.53
5 9 -6 331.64 28.12
-5 9 5 23.37 6.97
-5 -9 5 21.71 9.78
-5 9 4 100.03 11.91
5 9 -4 93.4 13.4
-5 -9 4 82.87 16.19
-5 9 3 9.59 4.67
5 9 -3 17.65 7.11
-5 -9 3 -2.74 7.43
-5 -9 2 281.32 28.6
-5 -9 2 276.99 34.88
5 9 -2 364.09 24.81
5 9 -1 -14.55 6.48
-5 -9 1 4.02 5.25
-5 -9 1 9.49 8.31
5 9 -1 11.7 7.41
5 9 0 635.31 32.7
-5 -9 0 531.98 38.8
5 9 0 528.24 36.46
5 9 0 583.31 28.06
-5 -9 0 477.12 44.44
5 9 1 29.47 6.6
-5 -9 -1 14.68 7.14
-5 -9 -1 25.06 11.23
5 9 1 33.89 7.16
5 9 1 28.41 9.89
5 9 2 114.07 14.04
-5 -9 -2 103.38 17.57
-5 -9 -2 95.59 22.58
5 9 2 115.78 12.5
5 9 2 96.21 16.18
5 9 3 25.53 6.27
5 9 3 27.04 9.72
5 9 3 20.29 5.61
-5 -9 -3 18.05 5.76
-5 -9 -3 19.79 12.05
5 9 4 137.08 19.73
5 9 4 152.77 16.39
-5 -9 -4 134.05 20.65
5 9 4 163.21 14.66
-5 -9 -4 121.95 26.06
-5 -9 -5 -6.19 8.2
-5 -9 -5 3.95 12.06
-5 10 4 -17.25 8.67
5 10 -4 8.97 7.04
5 10 -3 58.05 11.33
-5 -10 3 47.22 13.91
5 10 -2 2.24 4.75
-5 -10 2 1.23 8.22
-5 -10 2 12.98 9.72
5 10 -2 7 4.84
5 10 -1 818.66 39.43
-5 -10 1 656.74 46.27
5 10 -1 771.8 46.03
5 10 -1 771.12 34.25
-5 -10 1 578.19 51.3
5 10 0 -1.05 5.1
-5 -10 0 6.18 10.94
-5 -10 0 0.06 9
5 10 0 3.13 4.29
5 10 0 -7.02 7.79
5 10 1 114.38 14.1
-5 -10 -1 100 17.12
-5 -10 -1 85.74 20.44
5 10 1 125.41 13.84
5 10 1 120.91 19.64
5 10 2 -19.27 8.77
-5 -10 -2 5.98 7.13
-5 -10 -2 -7.4 11.87
5 10 2 1.49 5.37
5 10 2 -10.42 8.06
5 10 3 31.43 7.5
5 10 3 27.4 6.92
-5 -10 -3 25.58 11.94
-5 -10 -3 29.19 16.6
5 10 4 40.76 8.18
5 11 -1 3.82 5.96
5 11 0 196.3 19.51
5 11 1 44.51 8.75
-6 0 8 118.53 15
-6 0 7 -3.15 4.61
-6 0 6 351.44 23.14
6 0 -6 361.82 23.85
6 0 -5 0.97 4.72
-6 0 5 -8.62 3.74
-6 0 4 1262.72 40.83
6 0 -4 1236.41 42.38
6 0 -3 1.67 3.93
-6 0 3 2.84 5.56
6 0 -2 79.63 10.39
-6 0 2 49.34 13.07
6 0 -1 -6.16 6.12
6 0 -1 -1.66 3.21
-6 0 1 1.73 4.86
6 0 0 436.79 24.1
-6 0 0 414.87 36.38
6 0 0 415.75 22.14
6 0 1 -1.25 5.48
6 0 1 0.55 3.28
-6 0 -1 3.09 7.69
6 0 2 1316.66 40.04
6 0 2 1296.7 45.45
-6 0 -2 1220.04 67.03
6 0 3 -9.13 6.94
6 0 3 5.33 4.27
-6 0 -3 5.31 7.92
6 0 4 33.8 7.97
6 0 4 30.9 6.73
-6 0 -4 36.64 14.15
6 0 5 5.96 4.65
6 0 5 2.89 4.41
-6 0 -5 2.35 7.85
6 0 6 103.12 15.45
6 0 6 83.27 11.28
-6 0 -6 95.55 22.35
6 0 7 16.93 9.79
6 0 7 14.39 6.62
-6 0 -7 -5.24 11.77
6 0 8 915.76 38.54
6 0 8 902.91 45.37
-6 -1 8 138.27 16.94
-6 1 8 137.29 16
-6 1 7 241.7 20.14
-6 -1 7 234 20.69
6 1 -7 224.32 19.8
-6 -1 6 37.26 8.76
6 -1 -6 39.72 8.8
6 1 -6 29.76 8.07
-6 1 6 23.02 4.46
-6 1 5 645 30.24
6 -1 -5 582.19 29.15
6 1 -5 593.83 30.44
-6 1 4 9.9 4.68
6 -1 -4 21.13 7.06
6 1 -4 18.91 6.45
6 1 -3 494.32 26.25
-6 -1 3 450.59 36.52
-6 1 3 522.51 24.53
6 -1 -3 516.37 25.79
6 1 -3 496.9 26.53
6 -1 -2 65.84 9.91
6 1 -2 52 8
-6 1 2 54.84 7.61
-6 -1 2 48.7 13.45
-6 1 2 39.87 10.07
6 1 -2 48.27 7.63
-6 -1 1 137.84 21.7
-6 1 1 146.61 19.7
6 -1 -1 170.5 13.92
6 1 -1 158.86 14.02
6 1 -1 152.71 13.92
6 1 0 107.71 12.25
-6 -1 0 140.28 22.77
-6 1 0 108.44 19.25
6 -1 0 120.63 11.51
6 1 0 126.78 12.35
6 1 1 774.71 34.85
6 -1 1 793.42 32.91
-6 -1 -1 708.38 50.35
-6 1 -1 719.98 48.85
6 1 1 777.62 31.73
6 -1 1 774.23 30.02
6 1 2 -1.76 5.51
6 -1 2 -9.34 5.82
6 1 2 -0.29 4.37
6 -1 2 8.47 4.89
-6 -1 -2 6.11 8.02
-6 1 -2 0.52 8.25
6 1 3 309.54 20.32
6 -1 3 339.21 20.02
6 1 3 312.67 23.95
6 -1 3 310.13 21.14
-6 -1 -3 267.05 32.88
-6 1 -3 298.1 32.85
6 1 4 14.44 6.16
6 -1 4 21.95 7.79
6 1 4 9.91 4.64
6 -1 4 7.93 4.08
-6 -1 -4 21.39 11.81
-6 1 -4 24.44 12.28
6 1 5 9.36 5.82
6 -1 5 13.65 6.06
6 1 5 16.25 5.3
6 -1 5 9.3 5.45
-6 -1 -5 9.91 8.17
-6 1 -5 12.53 8.44
6 1 6 44.47 10.44
6 -1 6 55.39 11.46
6 1 6 39.53 8.48
6 -1 6 38.28 8.4
-6 -1 -6 27.94 12.23
-6 1 -6 15.53 9.47
6 1 7 273.95 21.59
6 1 7 308.54 26.37
6 -1 7 289.91 24.22
-6 -1 -7 270.33 37.86
-6 1 -7 228.56 33.62
6 1 8 99.55 16.75
6 -1 8 71.93 14.81
6 1 8 63.85 11.25
-6 2 8 249.43 22.06
6 2 -8 264.28 23.29
-6 2 7 -4.4 5.93
6 2 -7 9.75 5.81
-6 2 6 526.96 28.73
6 2 -6 537.77 30.54
-6 2 5 209.71 17.06
6 -2 -5 200.5 16.38
6 2 -5 227.19 19.62
-6 2 4 188.47 15.69
-6 -2 4 144.9 21.65
6 -2 -4 187.28 15.51
6 2 -4 176.35 16.42
-6 -2 3 245.53 28.5
-6 2 3 286.69 18.01
6 -2 -3 283.68 18.61
6 2 -3 297.71 21.17
6 2 -2 339.29 22.82
-6 -2 2 330.98 33
-6 2 2 358.29 19.41
6 -2 -2 378.66 21.85
6 2 -2 371.23 22.93
6 -2 -1 29.92 6.16
6 2 -1 30.39 7.07
-6 2 1 24.87 5.3
-6 -2 1 17.56 9.67
-6 2 1 25.25 9.99
6 2 -1 21.04 5.69
6 2 0 540.99 29.8
-6 -2 0 482.9 41.51
-6 2 0 471.45 38.23
6 -2 0 511.66 23.14
6 2 0 504.64 25.84
6 -2 1 440.22 22.08
6 2 1 441.54 27.45
-6 -2 -1 386.33 38.27
-6 2 -1 418.89 36.18
6 2 1 425.31 24.16
6 2 2 286.06 19.66
6 -2 2 277.09 17.27
6 2 2 270.22 22.07
-6 -2 -2 236.24 30.86
-6 2 -2 257.26 30.08
6 2 3 132.46 13.94
6 -2 3 126.23 11.89
6 2 3 135.79 16.4
6 -2 3 138.42 14.83
-6 -2 -3 112.26 21.77
-6 2 -3 148.28 24
6 2 4 357.9 22.93
6 2 4 349.42 26.76
6 -2 4 381.41 24.41
-6 -2 -4 332.68 38.26
-6 2 -4 309.37 35.67
6 2 5 -9.56 6.66
6 -2 5 13.56 6.28
6 2 5 1.08 3.98
-6 -2 -5 -7.39 9.47
-6 2 -5 8.38 9.57
6 2 6 155.12 15.65
6 2 6 155.08 18.12
6 -2 6 140.93 16.2
-6 -2 -6 156.21 27.21
-6 2 -6 92.48 20.31
6 2 7 15.04 9.71
6 -2 7 -6.37 6.22
6 2 7 4.99 5.9
-6 -2 -7 3.91 9.73
-6 2 -7 9.01 10.32
6 -2 8 69.82 13.03
6 2 8 83.61 12.88
-6 3 7 803.97 37.82
6 3 -7 789.68 39.6
6 3 -6 10.04 6.5
-6 3 6 11.91 6.9
6 -3 -5 51.28 8.5
6 3 -5 59.83 10.24
-6 3 5 48.69 8.47
-6 -3 5 41.24 13.18
6 -3 -4 24.34 6.39
6 3 -4 19.19 5.83
-6 -3 4 12.72 9.82
-6 3 4 21.18 6.3
6 -3 -3 45.25 7.84
6 3 -3 51.85 8.88
-6 -3 3 39.65 12.64
-6 3 3 56.24 8.25
6 -3 -2 6.22 4.79
6 3 -2 2.74 3.97
-6 -3 2 19.09 11.13
-6 3 2 8.45 3.9
6 3 -2 2.33 5.93
6 3 -1 1260.48 46.96
-6 3 1 1325.13 35.16
-6 -3 1 1150.13 63.8
6 3 -1 1218.6 41.74
6 3 0 7.48 4.35
-6 -3 0 4.83 8.08
-6 3 0 11.63 10.13
6 3 0 2.5 4.3
6 3 1 146.68 14.65
6 3 1 148.13 16.56
-6 -3 -1 115.18 20.75
-6 3 -1 139.85 22.29
6 3 2 33 8.31
6 3 2 46.08 8.33
-6 -3 -2 36.38 15.02
-6 3 -2 27.41 10.44
6 3 3 175.38 16.89
6 3 3 164.41 18.46
-6 -3 -3 114.38 22.69
-6 3 -3 144.04 23.23
6 3 4 6.61 5.74
6 3 4 0.97 4.01
-6 -3 -4 -5.18 8.81
-6 3 -4 -0.67 8.24
6 3 5 894.65 38.03
6 3 5 915.23 45.34
-6 -3 -5 897.44 65.32
6 -3 5 952.25 38.4
-6 3 -5 869.14 60.58
6 3 6 14.76 5.96
6 -3 6 6.51 5.25
6 3 6 20.24 7.69
-6 -3 -6 7.86 11.76
-6 3 -6 12.38 12.15
6 3 7 61.78 12.2
6 -3 7 59.42 11.8
6 3 7 59.87 11.12
-6 -3 -7 61.67 17.45
-6 3 -7 60.01 19.55
6 -3 8 34.78 10.57
6 4 -7 -3.24 5.38
-6 4 7 7.84 6.78
-6 4 6 205.71 18.36
6 4 -6 221.71 20.69
6 4 -5 23.27 8.03
-6 4 5 12.03 4.95
-6 -4 5 22.8 9.86
6 4 -4 9.03 4.17
-6 4 4 12.81 4.78
-6 -4 4 7.22 7.92
-6 4 3 122.4 12.34
-6 -4 3 96.68 19.15
6 4 -3 138.79 15.69
6 4 -2 649.12 34.57
-6 4 2 671.04 26.53
-6 -4 2 591.14 46.29
6 4 -2 636.63 31.66
6 4 -1 11.64 4.82
-6 -4 1 17.14 10.72
6 4 -1 -4.39 5.08
6 4 0 381.31 26.77
-6 -4 0 326.37 35.55
-6 4 0 344.63 32.55
6 4 0 383.67 23.68
6 4 1 99.08 12.31
-6 -4 -1 81.9 16.99
-6 4 -1 70.96 14.79
6 4 1 96.34 13.81
6 4 2 68.61 12.58
6 4 2 67.42 10.44
-6 -4 -2 55.27 15.8
-6 4 -2 62.24 15.73
6 4 3 194.1 17.7
6 4 3 186.9 20.1
-6 -4 -3 152.67 26.4
-6 4 -3 142.92 24.16
6 4 4 1067.67 41.75
6 4 4 1060.67 48.9
-6 -4 -4 989.94 68.52
-6 4 -4 952.39 61.75
6 4 5 1.08 5.97
6 4 5 -6.18 4.33
-6 -4 -5 -9.24 12.22
-6 4 -5 3.26 9.76
6 4 6 335.48 24.79
6 4 6 339.99 28.68
-6 -4 -6 333.13 42.87
-6 4 -6 231.17 34.76
6 4 7 74.1 13.44
6 4 7 95.5 14.55
-6 -4 -7 76.79 21.13
-6 4 -7 83.28 21.18
-6 5 7 46.56 10.8
-6 5 6 34.48 8.62
6 5 -6 32.74 9.43
-6 -5 6 12.81 11.44
-6 5 5 283.38 20.72
6 5 -5 310.22 23.9
-6 5 4 1.6 3.63
6 5 -4 7.28 4.25
-6 -5 4 -4.62 6.89
-6 5 3 328.5 20.16
-6 -5 3 322.08 33.74
6 5 -3 364.23 24.41
6 5 -2 36.83 8.52
-6 -5 2 36.46 12.17
6 5 -2 33.69 9.03
6 5 -1 75.5 10.62
-6 -5 1 68.5 17.66
6 5 -1 62.97 10.89
6 5 0 256.27 22.65
-6 -5 0 254.89 31.6
6 5 0 251.83 19.84
6 5 1 358 24.37
6 5 1 367.67 28.2
-6 -5 -1 336.83 37.14
-6 5 -1 337.02 32.98
6 5 2 13.88 5.9
6 5 2 13.55 5.5
-6 -5 -2 15.38 10.68
-6 5 -2 10.84 8.44
6 5 3 680.52 33.91
6 5 3 655.47 39.26
-6 -5 -3 640.03 55.08
-6 5 -3 527.22 45.62
6 5 4 87.19 15.37
6 5 4 86.57 12.33
-6 -5 -4 73.54 21.75
-6 5 -4 58.74 17.28
6 5 5 199.71 19.41
6 5 5 243.13 24.7
-6 -5 -5 188.12 31.42
-6 5 -5 170.92 28.25
6 5 6 130.56 16.93
6 5 6 126.95 17.19
-6 -5 -6 84.82 23.36
-6 5 -6 94.41 23.04
6 6 -6 21.08 8.17
-6 -6 6 7.22 7.14
-6 6 6 29.2 7.67
6 6 -5 0.87 4.87
-6 -6 5 8.01 11.61
-6 6 5 2.32 4.98
-6 6 4 632.95 29.82
6 6 -4 735.66 37.94
6 6 -3 21.07 6.98
-6 -6 3 19.07 9.74
-6 6 3 17.35 4.73
-6 -6 2 150.11 23.79
6 6 -2 169.36 20.48
6 6 -2 197.99 18.77
6 6 -1 97.51 12.97
-6 -6 1 70.84 12
6 6 -1 80.09 13.95
6 6 0 93.74 12.16
-6 -6 0 82.25 14.61
-6 -6 0 96.63 20.6
6 6 0 93.81 14.55
6 6 1 33.56 7.76
-6 -6 -1 19.38 6.32
-6 -6 -1 27.47 13.45
6 6 1 19.38 6.03
6 6 2 586.36 31.95
-6 -6 -2 556.2 35.35
6 6 2 575.69 37.39
6 6 2 593.69 25.12
-6 -6 -2 477.33 47.2
6 6 3 54.66 12.17
6 6 3 63.75 11.44
-6 -6 -3 34.59 8.51
-6 -6 -3 45.11 18.5
6 6 4 113.7 17.99
6 6 4 93.62 12.87
-6 -6 -4 90.29 15.67
-6 -6 -4 105.2 25.33
6 6 5 -5.59 9.27
6 6 5 7.38 4.34
-6 -6 -5 18.58 10.95
-6 -6 -5 7.27 10.42
-6 -6 -6 224.61 26.26
-6 -7 6 30.93 15.3
-6 7 5 408.47 25.64
6 7 -5 445.83 31.61
6 7 -4 8.34 5.5
-6 7 4 2.3 4.62
-6 -7 4 9.11 9.18
-6 -7 3 540.46 37.33
-6 -7 3 461.06 42.86
6 7 -3 567.98 32.56
6 7 -2 36.68 8.54
-6 -7 2 51.75 12.98
-6 -7 2 28.97 12.31
6 7 -2 45.37 11.31
6 7 -1 28.4 7.4
-6 -7 1 13.95 5.43
-6 -7 1 36.79 14.22
6 7 -1 25.19 9.31
6 7 0 -0.9 4.04
-6 -7 0 -0.73 5.58
-6 -7 0 3.77 8.76
6 7 0 -7.61 8.46
6 7 1 370.17 25.85
-6 -7 -1 349.95 30.16
6 7 1 341.37 29.78
6 7 1 368.51 20.79
-6 -7 -1 285.49 37.45
6 7 2 20.32 8.19
6 7 2 22.89 6.82
-6 -7 -2 26.75 9.6
-6 -7 -2 26.01 12.78
6 7 2 23.42 4.99
6 7 3 226.64 20.78
-6 -7 -3 178.39 21.2
6 7 3 219.6 24.67
-6 -7 -3 177.45 30.82
6 7 4 22.9 9.49
6 7 4 8.93 5.7
-6 -7 -4 13.91 9.63
-6 -7 -4 11.1 12.32
-6 -7 -5 55.08 14.56
-6 -7 -6 120.81 20.76
-6 -8 5 18.55 9.62
-6 8 5 32.12 8.46
-6 -8 4 456.56 36.66
6 8 -4 465.3 31.58
6 8 -3 111.15 15.31
-6 -8 3 74.67 15.58
-6 -8 3 52.8 17.82
-6 -8 2 177.07 22.4
-6 -8 2 146.11 26.23
6 8 -2 170.96 22.24
6 8 -2 200.66 19.49
6 8 -1 -7.84 7.74
-6 -8 1 -3.81 8
-6 -8 1 4.65 7.97
6 8 -1 -3.93 7.99
6 8 0 140.03 16.64
-6 -8 0 114.28 16.75
-6 -8 0 120.54 25.97
6 8 0 138.67 20.46
6 8 1 38.21 8.63
-6 -8 -1 26.86 8.1
-6 -8 -1 19.96 12.12
6 8 1 28.85 6.2
6 8 1 22.92 9.13
6 8 2 145.04 19.11
6 8 2 128.9 15.92
-6 -8 -2 102.43 17.04
-6 -8 -2 113.35 25.6
6 8 2 127.95 12.28
6 8 3 103.43 14.31
-6 -8 -3 105.22 17.34
-6 -8 -3 119.45 27.49
-6 -8 -4 63.06 15.66
-6 -9 3 143.66 21.82
-6 -9 2 2.59 8.35
6 9 -1 727.61 38.87
-6 -9 1 617.84 43.42
6 9 0 88.49 13.38
-6 -9 0 60.47 14.46
6 9 0 92.17 11.59
-6 -9 -1 -15.55 10.84
6 9 1 2.08 5.33
-6 -9 -2 -12.97 10.53
6 9 2 1.7 6.41
7 0 -6 8.68 8.92
7 0 -5 1037.2 43.27
7 0 -4 0.41 4.61
7 0 -3 10.38 5.16
7 0 -2 2.62 4.68
7 0 -1 65.66 10.09
-7 0 1 35.01 13.52
7 0 0 -4.09 5.13
-7 0 0 6.39 10.53
7 0 1 746.2 34.02
-7 0 -1 623.99 50.71
7 0 2 6.49 5.54
-7 0 -2 -2.01 7.42
7 0 3 3.07 7.44
7 0 3 14.59 6.43
-7 0 -3 8.57 9.22
7 0 4 -4.41 7.77
7 0 4 -3.78 6.03
-7 0 -4 -2.63 7.78
7 0 5 203.09 17.66
7 0 5 200.89 20.66
-7 0 -5 159.96 30.65
7 0 6 21.83 10.84
7 0 6 11.83 7
-7 1 6 644.9 34.44
7 -1 -6 646.33 35.31
7 1 -6 630.84 35.22
-7 1 5 10.97 7.34
7 -1 -5 20.22 8.43
7 1 -5 16.86 8.09
-7 1 4 597.23 30.1
7 -1 -4 570.12 30.75
7 1 -4 567.16 32.2
7 -1 -3 30.83 7.88
7 1 -3 31.44 7.3
7 -1 -2 3.1 4.48
7 1 -2 7.83 6.1
-7 -1 2 7.32 12.34
-7 -1 1 156.73 26.03
-7 1 1 174.02 25.22
7 -1 -1 194.72 16.68
7 1 -1 225.73 18.56
-7 -1 0 218.48 29.55
-7 1 0 244.31 30.95
7 1 0 246.16 19.5
7 -1 0 256.27 18.37
7 1 1 47.96 10.03
7 1 1 35.73 7.4
7 -1 1 39.91 7.33
-7 -1 -1 41.71 15.44
-7 1 -1 16.98 9.96
7 1 2 462.97 27.05
7 -1 2 485.84 26.27
7 1 2 497.81 32
-7 -1 -2 373.75 41.28
-7 1 -2 446.09 42.72
7 1 3 98.66 14.46
7 1 3 133.37 15.26
7 -1 3 137.53 14.21
-7 -1 -3 77.17 20.69
-7 1 -3 91.51 20.42
7 1 4 51.38 10.37
7 1 4 30.93 6.83
-7 -1 -4 42.01 16.69
-7 1 -4 68.77 20.73
7 1 5 148.05 17.97
7 -1 5 146.34 17.49
7 1 5 136.24 15.55
-7 -1 -5 104.36 24.36
-7 1 -5 93.73 23.89
7 1 6 232.39 20.64
7 1 6 258.22 25.18
7 -1 6 277.94 25.22
7 -2 -7 284.97 24.24
-7 2 6 103.31 14.69
7 -2 -6 118.62 15.72
7 2 -6 127.04 16.93
7 -2 -5 129.9 15.31
7 2 -5 141.4 16.92
-7 2 5 138.27 15.16
7 -2 -4 21.08 7.71
7 2 -4 17.26 6.49
-7 2 4 15.02 5.74
-7 2 3 348.3 21.87
-7 -2 3 273.56 32.42
7 -2 -3 340.21 23.17
7 2 -3 332.39 24.19
7 -2 -2 38.29 8.18
7 2 -2 35.24 9
-7 -2 2 30.92 13.06
-7 -2 1 173.03 27.39
7 2 -1 193.21 17.45
7 2 -1 169.95 17.04
7 2 0 29.5 6.78
7 2 0 43.05 8.58
-7 -2 0 50.27 16.1
-7 2 0 39.69 13.05
7 2 1 93.28 13.88
7 2 1 98.55 12.82
-7 -2 -1 55.37 16.89
-7 2 -1 85.65 19.19
7 2 2 242.85 20.19
7 2 2 223.17 21.59
-7 -2 -2 205.99 31.85
-7 2 -2 202.88 30.94
7 2 3 550.37 30.76
7 2 3 532.62 34.15
-7 -2 -3 414.17 44.51
-7 2 -3 476.53 46.96
7 2 4 -7.88 8.87
7 2 4 -3.95 6.27
-7 -2 -4 -2.45 10.01
-7 2 -4 6.19 8.27
7 2 5 193.42 18.47
7 2 5 201.52 21
-7 -2 -5 134.92 28.7
-7 2 -5 165.89 30.19
7 2 6 13.64 7.43
-7 3 6 4.51 5.74
7 3 -5 33.3 8.84
-7 3 5 25.51 7.35
7 3 -4 47.9 10.94
-7 3 4 31.81 6.86
7 3 -3 8.03 6.31
-7 -3 3 -1.24 9.36
7 3 -3 -1.22 7.34
7 3 -2 1224.84 50.1
7 3 -2 1194.88 45.68
7 3 -1 8.73 6.11
-7 -3 1 9.97 11.12
7 3 -1 4.92 6.96
7 3 0 52.02 9.65
7 3 0 76.67 11.44
-7 -3 0 54.11 17.08
7 3 1 -6.99 7.94
7 3 1 7.68 5.26
-7 -3 -1 6.61 8.09
-7 3 -1 0.03 8.84
7 3 2 103.29 15.3
7 3 2 98.4 13.53
-7 -3 -2 67.37 18.47
-7 3 -2 77.16 18.88
7 3 3 24.74 9.03
7 3 3 43.52 10.44
-7 -3 -3 28.32 14.8
-7 3 -3 26.44 11.99
7 3 4 784.89 37.27
7 3 4 834.97 45.1
-7 3 -4 715.64 58.5
7 3 5 -12.16 9.85
7 3 5 -0.12 5.5
-7 3 -5 -1.11 8.18
-7 4 5 8.69 5.45
-7 4 4 243.87 19.19
-7 -4 4 194.15 29.27
7 4 -4 238.39 22.5
7 4 -4 220.17 21.2
7 4 -3 457.38 31.2
-7 -4 3 389.94 41.29
7 4 -3 488.51 31.13
7 4 -2 18.69 8.11
-7 -4 2 8.44 9.93
7 4 -2 7.47 7.18
7 4 -1 439.78 30.88
-7 -4 1 387.01 42.62
7 4 -1 424.45 27.32
-7 -4 0 153.75 27.02
7 4 0 196.45 18.59
7 4 0 194.72 20.67
7 4 1 74.87 12.07
7 4 1 88.95 12.28
-7 -4 -1 80.53 21.88
7 4 2 29.43 9.42
7 4 2 47.3 9.87
-7 -4 -2 29.05 15.29
-7 4 -2 33.01 12.54
7 4 3 564.47 32.78
7 4 3 539.4 36.33
-7 -4 -3 451.14 48.51
-7 4 -3 458.97 44.55
7 4 4 -14.24 12.09
7 4 4 -4.7 6.79
-7 -4 -4 21.98 17.14
-7 4 -4 23.83 14.04
-7 4 -5 112.21 24.33
-7 5 5 10.78 7.3
-7 -5 5 -4.81 10.96
-7 -5 4 136.98 26.72
7 5 -3 138.63 17.02
-7 -5 3 103.45 22.88
7 5 -3 131.61 17.63
-7 -5 2 225.82 32.61
7 5 -2 255.46 24.23
7 5 -2 269.81 22.93
-7 -5 1 198.11 31
7 5 -1 241.16 23.85
7 5 -1 227.79 20.35
7 5 0 373.62 27.12
7 5 0 396.58 30.67
-7 -5 0 329.92 40.46
7 5 1 -16.6 10.52
7 5 1 -6.99 6.88
-7 -5 -1 -12.06 10.96
7 5 2 189.9 20.63
7 5 2 214.5 22.99
-7 -5 -2 158.23 30.24
7 5 3 93.62 15.76
7 5 3 109.87 15.28
-7 -5 -3 84.9 23.88
-7 5 -3 90.12 21.95
-7 5 -4 101.77 23.58
-7 -6 4 3.49 12.68
-7 -6 3 57.88 20.03
7 6 -3 50.73 13.36
7 6 -2 21.19 7.89
-7 -6 2 11.17 10.7
7 6 -2 4.73 8.33
-7 -6 1 144.57 27.45
7 6 -1 203.64 23.22
7 6 -1 191.45 19.4
7 6 0 -3.18 6.47
-7 -6 0 5.89 10.32
7 6 0 -6.86 10.74
7 6 1 689.91 37.42
7 6 1 712.52 43.53
-7 -6 -1 583.2 55.77
7 6 2 4.02 8.85
8 0 -3 2.88 5.97
8 0 -2 25.79 7.83
8 0 -1 -20.25 10.27
8 0 0 366.17 26.43
-8 0 0 269.29 36.1
8 0 1 -10.26 7.62
-8 0 -1 -7.68 11.28
-8 0 -2 52.52 20.12
8 1 -2 81.24 11.35
8 1 -1 134.14 15.73
8 1 0 7.81 6.71
-8 -1 0 33.16 14.63
8 1 1 144.45 16.15
-8 -1 -1 84.85 20.54
-8 1 -1 97.19 22.62
8 1 2 108.42 14.6
-8 -1 -2 70.71 20.55
-8 1 -2 90.09 22.92
8 1 3 118.21 15.47
8 2 -1 48.56 9.25
-8 -2 1 41.59 16.05
8 2 0 16.17 6.53
-8 -2 0 32.61 10.53
8 2 1 89.3 13.96
-8 -2 -1 44.92 16.87
-8 2 -2 228.69 35.28
-8 -3 2 23.98 13.85
-8 -3 1 81.69 23.12
-8 -3 0 16.27 15.26
8 3 1 67.03 13.65
8 3 2 47.81 12.76
8 4 0 39.25 10.83
loop_
_geom_angle_atom_site_label_1
_geom_angle_atom_site_label_2
_geom_angle_atom_site_label_3
_geom_angle
_geom_angle_site_symmetry_1
_geom_angle_site_symmetry_3
_geom_angle_publ_flag
P1 Ge1 P1 180.0 3_666 . ?
F1 Ge1 P1 88.72(4) 3_666 . ?
F1 Ge1 P1 91.28(4) . . ?
F1 Ge1 P1 88.72(4) . 3_666 ?
F1 Ge1 P1 91.28(4) 3_666 3_666 ?
F1 Ge1 F1 180.0 3_666 . ?
F2 Ge1 P1 91.24(4) 3_666 3_666 ?
F2 Ge1 P1 88.76(4) . 3_666 ?
F2 Ge1 P1 88.76(4) 3_666 . ?
F2 Ge1 P1 91.24(4) . . ?
F2 Ge1 F1 90.99(6) . . ?
F2 Ge1 F1 89.01(6) 3_666 . ?
F2 Ge1 F1 89.01(6) . 3_666 ?
F2 Ge1 F1 90.99(6) 3_666 3_666 ?
F2 Ge1 F2 180.0 3_666 . ?
C3 P1 Ge1 111.73(8) . 3_666 ?
C2 P1 Ge1 112.24(9) . 3_666 ?
C2 P1 C3 106.98(12) . . ?
C1 P1 Ge1 112.99(8) . 3_666 ?
C1 P1 C3 106.65(12) . . ?
C1 P1 C2 105.81(13) . . ?
H3a C3 P1 109.5 . . ?
H3b C3 P1 109.5 . . ?
H3b C3 H3a 109.5 . . ?
H3c C3 P1 109.5 . . ?
H3c C3 H3a 109.5 . . ?
H3c C3 H3b 109.5 . . ?
H2a C2 P1 109.5 . . ?
H2b C2 P1 109.5 . . ?
H2b C2 H2a 109.5 . . ?
H2c C2 P1 109.5 . . ?
H2c C2 H2a 109.5 . . ?
H2c C2 H2b 109.5 . . ?
H1a C1 P1 109.5 . . ?
H1b C1 P1 109.5 . . ?
H1b C1 H1a 109.5 . . ?
H1c C1 P1 109.5 . . ?
H1c C1 H1a 109.5 . . ?
H1c C1 H1b 109.5 . . ?
loop_
_geom_bond_atom_site_label_1
_geom_bond_atom_site_label_2
_geom_bond_distance
_geom_bond_site_symmetry_2
_geom_bond_publ_flag
Ge1 P1 2.3717(6) 3_666 ?
Ge1 P1 2.3717(6) . ?
Ge1 F1 1.8240(13) . ?
Ge1 F1 1.8240(13) 3_666 ?
Ge1 F2 1.8158(13) 3_666 ?
Ge1 F2 1.8158(13) . ?
P1 C3 1.806(2) . ?
P1 C2 1.807(2) . ?
P1 C1 1.803(2) . ?
C3 H3a 0.9600 . ?
C3 H3b 0.9600 . ?
C3 H3c 0.9600 . ?
C2 H2a 0.9600 . ?
C2 H2b 0.9600 . ?
C2 H2c 0.9600 . ?
C1 H1a 0.9600 . ?
C1 H1b 0.9600 . ?
C1 H1c 0.9600 . ?
