#------------------------------------------------------------------------------
#$Date: 2021-09-30 02:11:58 +0300 (Thu, 30 Sep 2021) $
#$Revision: 269383 $
#$URL: file:///home/coder/svn-repositories/cod/cif/7/70/84/7708471.cif $
#------------------------------------------------------------------------------
#
# This file is available in the Crystallography Open Database (COD),
# http://www.crystallography.net/
#
# All data on this site have been placed in the public domain by the
# contributors.
#
data_7708471
loop_
_publ_author_name
'Klap\"otke, Thomas M.'
'Kofen, Moritz'
'Stierstorfer, J\"org'
_publ_section_title
;
 &#x000D; N-Functionalisation of 5,5&#x2032;-bistetrazole providing
 2,2&#x2032;-di(azidomethyl)bistetrazole: a melt-castable metal-free green
 primary explosive
;
_journal_name_full               'Dalton Transactions'
_journal_paper_doi               10.1039/D1DT02731J
_journal_year                    2021
_chemical_formula_moiety         'C4 H4 Cl2 N8'
_chemical_formula_sum            'C4 H4 Cl2 N8'
_chemical_formula_weight         235.05
_chemical_name_common            2,2-chloromethyl-5,5-bitetrazole
_chemical_name_systematic        2,2-chloromethyl-5,5-bitetrazole
_space_group_IT_number           14
_space_group_name_Hall           '-P 2ybc'
_space_group_name_H-M_alt        'P 1 21/c 1'
_symmetry_cell_setting           monoclinic
_symmetry_Int_Tables_number      14
_symmetry_space_group_name_Hall  '-P 2ybc'
_symmetry_space_group_name_H-M   'P 1 21/c 1'
_atom_sites_solution_hydrogens   difmap
_atom_sites_solution_primary     difmap
_audit_creation_date             2020-07-10
_audit_creation_method           SHELXL-2018/3
_audit_update_record
;
2021-07-06 deposited with the CCDC.	2021-09-10 downloaded from the CCDC.
;
_cell_angle_alpha                90
_cell_angle_beta                 108.194(2)
_cell_angle_gamma                90
_cell_formula_units_Z            2
_cell_length_a                   8.3693(4)
_cell_length_b                   8.2279(4)
_cell_length_c                   6.7862(3)
_cell_measurement_reflns_used    7117
_cell_measurement_temperature    105(2)
_cell_measurement_theta_max      30.5317
_cell_measurement_theta_min      3.5634
_cell_volume                     443.95(4)
_computing_cell_refinement       'APEX2 v2012.4-3 (Bruker AXS)'
_computing_data_collection       'Bruker Instrument Service v3.0.21'
_computing_data_reduction        'SAINT V8.18C (Bruker AXS Inc., 2011)'
_computing_molecular_graphics    'Diamond 2.1c, Crystal Impact GbR'
_computing_publication_material  'Microsoft Word 2016'
_computing_structure_refinement  'SHELXL-2018/3 (Sheldrick, 2018)'
_computing_structure_solution    'SHELXT 2018/2 (Sheldrick, 2018)'
_diffrn_ambient_temperature      105(2)
_diffrn_detector_area_resol_mean 7.3910
_diffrn_measured_fraction_theta_full 0.992
_diffrn_measured_fraction_theta_max 0.996
_diffrn_measurement_device_type  'D8 Venture'
_diffrn_measurement_method       'mix of omega and phi scans'
_diffrn_radiation_type           MoK\a
_diffrn_radiation_wavelength     0.71073
_diffrn_reflns_av_R_equivalents  0.0328
_diffrn_reflns_av_unetI/netI     0.0186
_diffrn_reflns_Laue_measured_fraction_full 0.992
_diffrn_reflns_Laue_measured_fraction_max 0.996
_diffrn_reflns_limit_h_max       11
_diffrn_reflns_limit_h_min       -11
_diffrn_reflns_limit_k_max       11
_diffrn_reflns_limit_k_min       -11
_diffrn_reflns_limit_l_max       9
_diffrn_reflns_limit_l_min       -9
_diffrn_reflns_number            11605
_diffrn_reflns_point_group_measured_fraction_full 0.992
_diffrn_reflns_point_group_measured_fraction_max 0.996
_diffrn_reflns_theta_full        25.242
_diffrn_reflns_theta_max         30.505
_diffrn_reflns_theta_min         3.563
_diffrn_source                   'rotating anode generator'
_exptl_absorpt_coefficient_mu    0.703
_exptl_absorpt_correction_T_max  0.9705
_exptl_absorpt_correction_T_min  0.9232
_exptl_absorpt_correction_type   multi-scan
_exptl_absorpt_process_details
;
SADABS-2016/2 - Bruker AXS area detector scaling and absorption correction
;
_exptl_crystal_colour            colourless
_exptl_crystal_density_diffrn    1.758
_exptl_crystal_density_method    'not measured'
_exptl_crystal_description       platelet
_exptl_crystal_F_000             236
_exptl_crystal_size_max          0.100
_exptl_crystal_size_mid          0.060
_exptl_crystal_size_min          0.020
_refine_diff_density_max         0.413
_refine_diff_density_min         -0.296
_refine_diff_density_rms         0.062
_refine_ls_extinction_method     none
_refine_ls_goodness_of_fit_ref   1.114
_refine_ls_hydrogen_treatment    refall
_refine_ls_matrix_type           full
_refine_ls_number_parameters     72
_refine_ls_number_reflns         1355
_refine_ls_number_restraints     0
_refine_ls_restrained_S_all      1.114
_refine_ls_R_factor_all          0.0351
_refine_ls_R_factor_gt           0.0273
_refine_ls_shift/su_max          0.000
_refine_ls_shift/su_mean         0.000
_refine_ls_structure_factor_coef Fsqd
_refine_ls_weighting_details
'w=1/[\s^2^(Fo^2^)+(0.0205P)^2^+0.3218P] where P=(Fo^2^+2Fc^2^)/3'
_refine_ls_weighting_scheme      calc
_refine_ls_wR_factor_gt          0.0622
_refine_ls_wR_factor_ref         0.0683
_reflns_Friedel_coverage         0.000
_reflns_number_gt                1190
_reflns_number_total             1355
_reflns_threshold_expression     'I > 2\s(I)'
_cod_data_source_file            d1dt02731j2.cif
_cod_data_source_block           yv377
_cod_depositor_comments
;
The following automatic conversions were performed:

data item '_exptl_absorpt_correction_type' value 'Multi-Scan' was
changed to 'multi-scan' in accordance with the
/home/data/users/saulius/crontab/automatic-downloads/rss-feeds/RSC/lib/dictionaries/cif_core.dic
dictionary named 'cif_core.dic' version 2.4.2 last updated on
2011-04-26.

Automatic conversion script
Id: cif_fix_values 7556 2019-12-06 15:28:31Z antanas 
;
_cod_original_sg_symbol_H-M      'P 21/c'
_cod_database_code               7708471
_shelx_space_group_comment
;
The symmetry employed for this shelxl refinement is uniquely defined
by the following loop, which should always be used as a source of
symmetry information in preference to the above space-group names.
They are only intended as comments.
;
_shelx_estimated_absorpt_t_min   0.933
_shelx_estimated_absorpt_t_max   0.986
_shelx_res_file
;
TITL v1_a.res in P2(1)/c
    shelx.res
    created by SHELXL-2018/3 at 15:17:12 on 10-Jul-2020
CELL  0.71073   8.3693   8.2279   6.7862   90.000  108.194   90.000
ZERR     2.00   0.0004   0.0004   0.0003    0.000    0.002    0.000
LATT   1
SYMM  - X, 1/2 + Y, 1/2 - Z
SFAC  C    H    CL   N
UNIT  8 8 4 16
MERG   2
OMIT     1   0   0
OMIT     4   0   0
OMIT     2   1   0
OMIT    -4   1   3
MORE -1
SHEL 1000 0.7
SIZE 0.1 0.06 0.02
FMAP   2
HTAB
PLAN    5
ACTA
BOND
BOND   $H
CONF
LIST   4
L.S.   4
TEMP  -167.65
WGHT    0.020500    0.321800
FVAR       1.44532
CL1   3    0.148579    0.331909    0.936829    11.00000    0.03018    0.02167 =
         0.02123    0.00292    0.01355   -0.00114
N2    4    0.269217    0.534237    0.710516    11.00000    0.01570    0.01918 =
         0.01471    0.00154    0.00669    0.00125
N4    4    0.280547    0.577765    0.408423    11.00000    0.01904    0.02447 =
         0.01761    0.00345    0.00872    0.00295
N3    4    0.180545    0.587983    0.523886    11.00000    0.01863    0.02333 =
         0.01628    0.00364    0.00764    0.00337
N1    4    0.424435    0.487184    0.725577    11.00000    0.01611    0.02522 =
         0.01556    0.00147    0.00771    0.00091
C1    1    0.427009    0.515780    0.533883    11.00000    0.01686    0.01874 =
         0.01511    0.00130    0.00709   -0.00092
C2    1    0.202093    0.531984    0.883037    11.00000    0.02065    0.01960 =
         0.01691    0.00082    0.01039    0.00117
H2A   2    0.287279    0.571869    1.000281    11.00000    0.02554
H2B   2    0.105117    0.593914    0.846109    11.00000    0.02645
HKLF    4




REM  v1_a.res in P2(1)/c
REM wR2 = 0.0683, GooF = S = 1.114, Restrained GooF = 1.114 for all data
REM R1 = 0.0273 for 1190 Fo > 4sig(Fo) and 0.0351 for all 1355 data
REM 72 parameters refined using 0 restraints

END

WGHT      0.0205      0.3218

REM Instructions for potential hydrogen bonds
EQIV $2 -x+1, -y+1, -z+2
HTAB C2 N1_$2

REM Highest difference peak  0.413,  deepest hole -0.296,  1-sigma level  0.062
Q1    1   0.4307  0.5011  0.6341  11.00000  0.05    0.41
Q2    1   0.5000  0.5000  0.5000  10.50000  0.05    0.39
Q3    1   0.3515  0.5099  0.7266  11.00000  0.05    0.36
Q4    1   0.3613  0.5520  0.4757  11.00000  0.05    0.29
Q5    1   0.2178  0.3373  1.0204  11.00000  0.05    0.25
;
_shelx_res_checksum              60771
_shelx_hkl_file
;
   0   0  -1   -0.60    0.70
   0   0   1    0.50    0.80
   0   0   1    0.40    1.00
   0   0  -1   -0.50    0.90
   0   0   1    0.40    1.00
   0   0  -1    1.60    1.30
   0   0   1   -1.30    0.90
   0   0  -1    0.60    1.00
   0   0  -2 4026.10   83.29
   0   0  -3   -0.40    1.70
   0   0  -3    0.60    2.60
   0   0  -3    0.80    2.80
   0   0   3   -0.60    1.90
   0   0   3    1.00    2.70
   0   0   3    0.50    2.50
   0   0  -3   -2.30    3.10
   0   0   3    4.30    3.20
   0   0   4  477.65   18.80
   0   0   4  471.15   19.00
   0   0  -4  468.15   16.00
   0   0  -4  488.35   19.30
   0   0  -4  476.75   21.30
   0   0   4  455.95   20.20
   0   0   4  487.35   17.50
   0   0  -4  490.35   19.10
   0   0  -5    5.40    3.40
   0   0   5   13.60    5.30
   0   0  -5    5.80    3.60
   0   0  -5    4.00    2.50
   0   0  -5    9.70    5.10
   0   0   5   12.00    4.30
   0   0   6  932.71   31.40
   0   0   6  933.51   39.20
   0   0   6  972.30   35.10
   0   0  -6  963.80   35.20
   0   0   7    7.80    4.10
   0   0  -7   -0.70    3.60
   0   0   7   -1.10    2.90
   0   0   7    1.40    4.30
   0   0   7    5.60    4.90
   0   0   8  233.38   19.20
   0   0   8  215.98   16.10
   0   0   8  216.08   15.70
   0   0   8  167.48   19.50
   0   0   9    3.30    8.10
   0   0  -9   -3.10    6.00
   0   0   9   -2.00    5.20
   0   0   9  -11.30    5.00
   0   1   0    0.30    0.50
   0   1   0   -0.10    0.40
   0   1   0    0.30    0.50
   0   1   0   -0.30    0.40
   0  -1   0   -0.20    0.50
   0  -1   0    0.20    0.30
   0  -1   0   -0.40    0.40
   0  -1   0    0.10    0.50
   0  -1   0   -0.10    0.20
   0   1   1  932.71   23.30
   0   1  -1  948.41   21.20
   0   1   1  963.80   22.30
   0   1  -1  962.80   20.10
   0   1   1  928.11   23.00
   0   1  -1  931.11   20.00
   0   1  -1  977.60   23.10
   0   1   1 1002.00   23.50
   0   1   1 1004.40   23.30
   0   1  -1  933.71   23.30
   0  -1   1  956.40   22.80
   0  -1  -1  975.20   23.40
   0  -1   1  959.30   23.40
   0  -1   1  931.71   21.20
   0  -1  -1  966.70   23.50
   0  -1  -1  969.20   23.20
   0  -1  -1  928.01   22.20
   0   1   2 1157.08   30.50
   0   1   2 1145.99   28.60
   0   1   2 1173.88   29.60
   0   1   2 1170.58   30.80
   0   1  -2 1173.88   25.40
   0   1  -2 1144.39   30.50
   0   1  -2 1162.38   30.00
   0   1   2 1136.39   29.80
   0  -1  -2 1173.68   28.80
   0  -1   2 1150.58   30.10
   0  -1   2 1211.68   30.40
   0  -1   2 1197.78   30.30
   0  -1  -2 1154.48   30.20
   0  -1   2 1150.28   29.80
   0  -1   2 1158.28   26.00
   0   1   3    7.40    3.00
   0   1   3   13.10    3.50
   0   1  -3    7.80    1.70
   0   1   3    3.80    3.20
   0   1  -3    5.20    3.00
   0   1   3    9.80    3.80
   0   1  -3    7.60    3.90
   0   1  -3    5.20    3.10
   0   1   3    6.20    2.70
   0  -1   3    4.60    2.10
   0  -1  -3    3.70    2.80
   0  -1   3    7.30    2.80
   0  -1  -3    7.20    2.90
   0  -1  -3    4.20    2.70
   0  -1   3    7.50    3.10
   0  -1   3    7.50    3.60
   0   1   4 1446.06   40.80
   0   1   4 1490.95   39.90
   0   1  -4 1435.86   33.20
   0   1   4 1470.05   44.00
   0   1   4 1492.45   40.00
   0   1   4 1424.26   42.40
   0   1  -4 1494.75   44.50
   0   1  -4 1483.95   39.50
   0   1  -4 1398.06   42.90
   0  -1  -4 1418.56   41.50
   0  -1   4 1406.36   40.90
   0  -1  -4 1447.26   39.80
   0  -1   4 1424.06   38.90
   0  -1   4 1435.56   35.90
   0  -1   4 1407.16   41.90
   0  -1  -4 1383.76   38.20
   0   1   5 1293.27   44.00
   0   1   5 1335.27   39.40
   0   1   5 1284.67   38.80
   0   1  -5 1254.57   43.00
   0   1  -5 1330.67   32.20
   0   1  -5 1305.77   38.90
   0  -1  -5 1332.27   37.10
   0  -1   5 1278.17   34.90
   0  -1   5 1295.67   40.50
   0  -1  -5 1240.68   38.80
   0  -1   5 1216.68   37.70
   0  -1  -5 1249.07   40.70
   0   1   6  676.93   28.00
   0   1   6  692.03   27.80
   0   1   6  696.63   27.60
   0   1  -6  726.23   28.40
   0   1  -6  668.53   31.90
   0   1   6  710.13   33.20
   0  -1   6  707.33   29.50
   0  -1  -6  682.23   24.50
   0  -1   6  706.93   24.60
   0  -1  -6  710.03   30.10
   0   1   7   18.20    5.90
   0   1   7   19.60    6.60
   0   1   7   15.30    7.00
   0   1   7   18.80    7.20
   0   1  -7   26.90    7.10
   0  -1   7   27.20    7.60
   0  -1  -7   23.30    7.60
   0  -1  -7   25.40    5.30
   0  -1   7   17.80    5.00
   0   1   8   24.20    8.30
   0   1  -8   10.80    7.20
   0   1   8   20.50    6.90
   0   1   8   28.60    9.80
   0   1   8   10.20    5.60
   0  -1   8   13.40    7.80
   0  -1  -8   16.40    7.80
   0  -1   8   18.90    5.70
   0  -1   8   17.00    5.40
   0   1   9  166.68   17.20
   0   1  -9  141.19   16.10
   0   1   9  195.18   21.80
   0   1   9  169.28   18.90
   0  -1   9  142.49   18.00
   0  -1   9  169.88   21.20
   0  -1   9  181.58   15.10
   0   2  -1  301.57    8.90
   0   2   1  311.47   11.00
   0   2   1  328.17   10.80
   0   2   1  289.77   11.60
   0   2  -1  317.47   11.90
   0   2   1  321.27   11.90
   0   2  -1  312.57    8.90
   0   2   1  317.67   10.70
   0   2  -1  303.67    9.20
   0  -2   1  338.47    9.90
   0  -2   1  305.87    9.40
   0  -2  -1  322.87   12.20
   0  -2   1  311.67   11.20
   0  -2   1  324.97    9.00
   0  -2  -1  310.17   12.00
   0  -2  -1  308.27   11.70
   0  -2  -1  307.17   11.30
   0  -2  -1  317.97   10.80
   0  -2   1  305.67   11.70
   0   2   2  915.81   26.70
   0   2   2  950.30   27.00
   0   2  -2  912.21   20.10
   0   2  -2  933.91   20.10
   0   2   2  931.61   24.90
   0   2  -2  922.31   22.90
   0   2  -2  959.30   26.60
   0   2   2  932.41   26.30
   0   2   2  942.21   26.50
   0  -2   2  930.81   27.00
   0  -2   2  908.51   21.60
   0  -2   2  918.11   26.80
   0  -2   2  958.00   25.90
   0  -2  -2  913.61   26.30
   0  -2  -2  900.91   26.70
   0  -2  -2  944.21   27.00
   0  -2  -2  907.01   24.70
   0  -2   2  978.50   24.90
   0   2  -3 2298.47   51.79
   0   2   3 2219.38   56.29
   0   2   3 2260.07   53.69
   0   2  -3 2263.77   56.79
   0   2   3 2269.67   56.99
   0   2   3 2208.78   55.49
   0   2   3 2285.97   56.09
   0   2   3 2190.08   55.49
   0  -2   3 2280.27   56.39
   0  -2  -3 2246.18   56.69
   0  -2   3 2160.98   55.29
   0  -2   3 2255.47   49.00
   0  -2  -3 2185.28   53.39
   0  -2   3 2296.87   52.09
   0  -2   3 2402.26   57.29
   0   2   4  342.77   17.90
   0   2  -4  328.97   14.10
   0   2   4  340.87   16.70
   0   2   4  363.36   16.90
   0   2   4  367.16   15.90
   0   2  -4  328.27   17.70
   0   2   4  326.27   16.20
   0   2   4  331.87   17.10
   0  -2  -4  338.07   15.20
   0  -2  -4  371.06   17.90
   0  -2   4  327.17   16.50
   0  -2  -4  324.57   16.40
   0  -2   4  329.57   14.20
   0  -2   4  330.17   16.50
   0  -2   4  343.27   17.30
   0  -2   4  343.77   12.20
   0   2   5  632.14   28.10
   0   2  -5  603.34   22.90
   0   2   5  627.34   25.60
   0   2  -5  601.14   27.50
   0   2   5  597.54   23.90
   0   2   5  640.84   25.60
   0  -2  -5  576.14   23.50
   0  -2  -5  656.43   27.50
   0  -2   5  602.94   22.70
   0  -2   5  622.94   26.50
   0  -2  -5  596.24   23.90
   0  -2   5  623.34   19.90
   0   2   6   22.30    7.50
   0   2  -6   18.20    7.90
   0   2  -6   22.70    5.60
   0   2   6   21.40    6.30
   0   2   6   21.00    6.50
   0   2   6   14.00    5.60
   0  -2  -6   16.10    6.50
   0  -2   6   21.90    6.80
   0  -2   6   18.00    4.30
   0  -2  -6   18.20    5.10
   0   2  -7   -1.30    6.40
   0   2   7   -0.80    3.70
   0   2  -7   13.00    5.90
   0   2   7   -3.00    5.30
   0  -2   7    4.40    3.20
   0  -2  -7    2.20    4.00
   0  -2   7   -1.60    4.40
   0  -2   7    6.40    5.60
   0  -2  -7    2.50    5.20
   0   2  -8  247.38   17.90
   0   2   8  214.88   21.70
   0   2   8  229.88   18.30
   0   2   8  191.98   19.90
   0   2   8  209.58   18.10
   0  -2  -8  191.58   18.50
   0  -2   8  253.77   20.30
   0  -2   8  207.78   21.20
   0  -2   8  222.58   14.10
   0   2   9  178.18   21.80
   0   2   9  163.78   17.30
   0   2  -9  206.28   17.90
   0   2   9  149.19   17.90
   0  -2   9  167.88   13.50
   0  -2   9  162.08   19.70
   0  -2   9  162.08   18.20
   0  -2   9  160.78   13.00
   0  -2  -9  192.58   19.70
   0   3   0    1.70    1.70
   0   3   0    6.20    1.90
   0   3   0    1.80    2.30
   0   3   0    0.50    1.60
   0   3   0   -0.30    0.60
   0  -3   0    2.40    2.10
   0  -3   0    1.70    1.90
   0  -3   0    1.20    2.20
   0  -3   0    2.60    1.80
   0  -3   0    2.10    1.70
   0   3   1 6071.29  156.88
   0   3  -1 5806.02  141.29
   0  -3   1 5882.51  141.29
   0  -3  -1 5645.54  153.78
   0   3  -2  373.36   14.90
   0   3  -2  376.86   16.30
   0   3  -2  357.96   10.20
   0   3   2  368.66   14.70
   0   3   2  353.16   14.10
   0   3   2  386.36   15.30
   0   3   2  360.96   16.00
   0   3   2  377.26   16.20
   0   3  -2  364.06   10.60
   0  -3   2  360.06   11.50
   0  -3  -2  372.86   15.90
   0  -3   2  359.86   13.10
   0  -3   2  366.46   14.00
   0  -3  -2  380.76   15.20
   0  -3  -2  392.96   14.50
   0  -3   2  373.86   11.90
   0  -3   2  369.86   15.90
   0   3   3  257.07   12.50
   0   3   3  269.77   13.70
   0   3   3  262.37   13.60
   0   3   3  249.97   14.00
   0   3   3  258.27   16.50
   0   3   3  285.87   14.40
   0   3  -3  271.47   14.30
   0  -3   3  263.67   14.60
   0  -3   3  267.57   10.60
   0  -3   3  264.07   13.10
   0  -3  -3  268.67   14.50
   0  -3  -3  268.07   14.40
   0  -3  -3  260.77   12.50
   0  -3   3  271.47    9.70
   0  -3   3  266.17   14.30
   0  -3   3  248.58   10.50
   0   3  -4   38.30    7.90
   0   3   4   33.10    6.90
   0   3   4   40.20    7.10
   0   3   4   41.20    7.30
   0   3   4   50.59    8.60
   0   3   4   40.90    6.40
   0   3  -4   37.20    4.70
   0  -3  -4   30.00    6.10
   0  -3   4   31.00    6.60
   0  -3  -4   39.00    6.60
   0  -3  -4   31.30    7.20
   0  -3   4   34.10    3.70
   0  -3   4   40.00    5.60
   0   3  -5   89.39    7.80
   0   3   5   92.09   10.40
   0   3  -5   81.19   12.20
   0   3   5   82.49    9.90
   0   3   5   71.79   11.70
   0   3   5   97.59    9.60
   0  -3   5   97.59   11.10
   0  -3   5   87.09    6.30
   0  -3  -5   77.19    8.10
   0  -3  -5   81.39   12.00
   0   3  -6  299.57   16.50
   0   3   6  301.17   19.60
   0   3  -6  302.97   21.40
   0   3   6  327.17   18.40
   0   3   6  308.17   21.00
   0   3   6  317.87   20.10
   0  -3   6  312.67   13.50
   0  -3   6  327.77   21.00
   0  -3  -6  325.47   21.30
   0  -3  -6  294.67   18.20
   0   3   7 1219.28   42.90
   0   3  -7 1232.28   49.99
   0   3   7 1143.69   44.50
   0   3   7 1210.98   52.19
   0   3  -7 1299.37   40.60
   0   3   7 1224.48   50.39
   0  -3  -7 1234.68   48.10
   0  -3   7 1374.46   46.40
   0  -3  -7 1156.18   42.00
   0  -3   7 1195.08   46.50
   0   3   8  158.98   15.40
   0   3   8  148.09   18.20
   0   3   8  164.28   16.20
   0   3  -8  164.38   14.20
   0  -3  -8  134.49   16.10
   0  -3   8  118.49   15.10
   0  -3   8  153.88   18.60
   0  -3   8  142.39   10.80
   0   4   0  106.09    8.50
   0   4   0   94.99    6.20
   0   4   0  108.59    8.00
   0   4   0  108.39    6.50
   0  -4   0  109.99    7.00
   0  -4   0  107.29    8.10
   0  -4   0  100.39    6.30
   0  -4   0  124.19    8.80
   0  -4   0  101.59    7.90
   0   4  -1  900.41   25.30
   0   4   1  924.71   24.70
   0   4   1  907.91   26.20
   0   4   1  926.61   27.50
   0   4   1  915.01   28.70
   0   4  -1  915.61   23.60
   0   4  -1  894.71   25.00
   0   4   1  907.71   28.30
   0   4  -1  881.61   28.60
   0   4  -1  930.71   24.90
   0  -4   1  853.61   24.30
   0  -4  -1  963.50   27.50
   0  -4   1  898.01   28.30
   0  -4  -1  895.41   25.40
   0  -4   1  903.81   23.60
   0  -4   1  921.81   26.60
   0  -4  -1  895.41   29.10
   0  -4   1  866.31   25.70
   0  -4  -1  906.31   26.90
   0   4  -2 1798.12   46.00
   0   4   2 1796.72   48.80
   0   4   2 1820.32   46.20
   0   4  -2 1754.22   49.00
   0   4  -2 1801.32   41.50
   0   4   2 1899.71   45.70
   0   4   2 1796.72   49.10
   0  -4  -2 1817.22   48.10
   0  -4   2 1808.22   41.60
   0  -4   2 1743.73   48.30
   0  -4  -2 1821.12   46.30
   0  -4   2 1791.62   43.50
   0  -4  -2 1846.12   49.90
   0  -4   2 1838.92   41.20
   0  -4   2 1773.82   44.50
   0  -4  -2 1807.42   46.10
   0   4   3 1030.50   32.30
   0   4  -3 1077.19   33.30
   0   4   3 1012.20   34.30
   0   4   3 1050.69   34.90
   0   4   3 1058.89   31.40
   0  -4  -3 1049.00   34.90
   0  -4   3 1035.30   27.20
   0  -4  -3  971.70   33.80
   0  -4   3  991.80   27.10
   0  -4   3 1036.90   35.00
   0  -4   3 1033.00   26.70
   0  -4   3 1040.30   37.60
   0  -4  -3  995.10   30.90
   0  -4   3 1012.50   31.00
   0   4   4   78.39   11.90
   0   4  -4   75.89    8.70
   0   4   4   65.09    9.60
   0   4   4   86.79    9.90
   0   4   4   66.29    7.70
   0  -4  -4   59.59    6.90
   0  -4   4   77.99    5.70
   0  -4   4   60.99    5.60
   0  -4  -4   80.89   11.40
   0  -4   4   80.49    9.70
   0  -4   4   72.19    6.00
   0  -4  -4   69.49    9.90
   0   4   5  791.02   32.70
   0   4  -5  786.92   33.20
   0   4   5  801.72   32.80
   0   4   5  792.92   32.60
   0   4   5  773.72   32.70
   0  -4   5  759.12   25.40
   0  -4  -5  749.23   31.30
   0  -4   5  816.52   25.60
   0  -4   5  766.02   22.90
   0  -4   5  759.42   32.90
   0  -4  -5  804.52   33.70
   0   4   6   20.70    6.30
   0   4   6   18.30    6.40
   0   4  -6    6.10    6.10
   0   4   6   17.90    7.00
   0   4   6   23.00    8.50
   0  -4   6   19.10    7.10
   0  -4   6   15.60    4.40
   0  -4   6   13.90    3.60
   0  -4  -6   16.10    6.80
   0   4  -7  219.68   19.60
   0   4  -7  202.78   13.40
   0   4   7  234.78   20.30
   0   4   7  203.78   18.20
   0   4   7  233.98   17.00
   0   4   7  176.38   20.70
   0  -4   7  237.98   19.60
   0  -4   7  211.98   11.50
   0  -4  -7  213.58   17.80
   0  -4  -7  223.68   19.80
   0   4   8  144.09   17.10
   0   4   8  117.09   14.00
   0   4   8  126.09   15.00
   0   4  -8  157.28   18.30
   0  -4   8  102.09   11.20
   0  -4   8  103.79   16.10
   0  -4   8  117.59    9.10
   0  -4  -8   81.79   14.00
   0  -4   8  106.69   18.10
   0   5   0    9.80    2.70
   0   5   0    9.60    2.80
   0   5   0   24.50    5.40
   0   5   0   16.50    4.10
   0  -5   0   14.60    4.00
   0  -5   0   18.00    4.30
   0  -5   0   13.90    3.30
   0  -5   0   23.00    5.20
   0  -5   0   24.70    4.10
   0   5   1 1166.48   36.00
   0   5   1 1186.18   33.50
   0   5  -1 1172.18   30.70
   0   5  -1 1207.38   32.60
   0   5   1 1182.68   31.40
   0   5  -1 1193.18   33.10
   0   5  -1 1218.08   32.40
   0   5   1 1201.38   36.60
   0   5  -1 1199.08   37.40
   0   5   1 1180.78   35.80
   0  -5  -1 1219.88   37.80
   0  -5  -1 1174.88   32.50
   0  -5   1 1212.28   31.10
   0  -5  -1 1211.08   34.80
   0  -5   1 1192.78   34.10
   0  -5   1 1173.08   31.60
   0  -5  -1 1181.18   36.70
   0  -5   1 1184.38   36.40
   0  -5  -1 1189.08   35.20
   0   5   2 1183.68   38.40
   0   5   2 1182.18   36.00
   0   5  -2 1215.98   35.00
   0   5  -2 1223.38   39.30
   0   5   2 1225.68   38.70
   0   5   2 1192.58   35.70
   0   5   2 1227.78   33.80
   0   5  -2 1192.58   30.40
   0  -5  -2 1191.88   34.90
   0  -5   2 1226.38   33.80
   0  -5   2 1193.38   33.30
   0  -5  -2 1170.48   35.50
   0  -5  -2 1238.78   39.80
   0  -5   2 1215.78   30.80
   0  -5  -2 1237.28   37.60
   0  -5   2 1210.68   30.50
   0   5   3  174.98   13.70
   0   5   3  216.88   14.90
   0   5  -3  224.38   13.90
   0   5  -3  213.18   15.30
   0   5   3  213.68   13.00
   0   5   3  213.88   13.00
   0  -5  -3  199.48   12.70
   0  -5  -3  209.78   14.70
   0  -5  -3  211.98   15.20
   0  -5   3  211.78   10.60
   0  -5   3  204.38    9.80
   0  -5   3  194.08   11.60
   0  -5  -3  205.98   12.60
   0  -5   3  228.78    9.60
   0   5  -4 1160.48   40.00
   0   5   4 1225.98   38.50
   0   5   4 1191.58   41.80
   0   5   4 1138.69   38.40
   0   5   4 1174.68   41.90
   0  -5   4 1178.88   42.10
   0  -5   4 1204.58   32.20
   0  -5   4 1173.68   32.10
   0  -5  -4 1143.29   41.20
   0  -5   4 1193.68   31.20
   0  -5  -4 1166.18   41.60
   0   5   5  491.65   26.60
   0   5   5  525.85   23.70
   0   5   5  503.75   25.40
   0   5  -5  487.85   26.00
   0   5   5  521.15   26.40
   0  -5   5  573.24   28.80
   0  -5   5  516.75   18.20
   0  -5   5  541.55   19.00
   0  -5  -5  537.55   26.90
   0  -5  -5  568.24   28.70
   0  -5   5  509.95   19.30
   0   5   6    2.90    5.00
   0   5  -6   -1.10    4.70
   0   5   6    4.70    4.30
   0   5   6   -1.90    3.60
   0   5   6   -0.60    3.90
   0  -5  -6    2.20    3.80
   0  -5   6   -3.60    4.40
   0  -5   6   -6.30    2.30
   0  -5  -6   -4.90    3.60
   0  -5   6   -5.60    2.40
   0  -5   6    0.60    2.20
   0   5   7    6.70    6.40
   0   5  -7   10.00    8.00
   0   5   7    6.40    5.60
   0   5   7    4.20    6.20
   0  -5   7   -2.40    3.50
   0  -5  -7   26.50   10.30
   0  -5   7   10.30    3.30
   0  -5   7    2.40    6.20
   0   5   8   10.20    6.80
   0   5   8   31.00   11.30
   0   5   8   21.80    8.00
   0   5  -8   33.60   10.40
   0  -5   8   21.30    9.50
   0   6   0 1655.53   42.70
   0   6   0 1622.44   41.70
   0  -6   0 1644.94   47.20
   0  -6   0 1694.33   48.50
   0  -6   0 1589.54   42.00
   0  -6   0 1703.93   44.10
   0   6  -1  102.19    8.20
   0   6   1  113.39    8.50
   0   6  -1  101.79   10.70
   0   6   1   94.39    9.60
   0   6   1  100.09    7.60
   0   6   1  112.49    9.90
   0   6  -1  101.29    8.00
   0   6  -1  107.49    7.40
   0   6   1  118.49   10.40
   0  -6   1   89.59    7.30
   0  -6   1  103.99    9.40
   0  -6  -1   97.59    7.90
   0  -6  -1  102.39   10.20
   0  -6  -1  103.39   10.80
   0  -6   1   95.19    8.80
   0  -6  -1   99.89    9.00
   0  -6   1  101.89    7.50
   0   6  -2   43.70    8.80
   0   6  -2   43.10    5.00
   0   6   2   56.89    9.80
   0   6   2   60.19    7.10
   0   6   2   48.50    8.20
   0   6  -2   48.80    5.20
   0   6  -2   51.79    6.70
   0   6   2   43.70    7.30
   0  -6  -2   57.19    8.70
   0  -6   2   51.09    6.30
   0  -6  -2   46.40    8.60
   0  -6   2   49.70    5.70
   0  -6   2   57.19    5.40
   0   6   3    4.50    4.00
   0   6   3    6.90    3.60
   0   6  -3    0.30    1.30
   0   6  -3    3.60    4.80
   0   6   3    1.10    3.40
   0   6   3    3.30    3.60
   0  -6  -3    2.00    3.80
   0  -6   3    1.20    2.50
   0  -6   3   -1.40    1.90
   0  -6  -3    2.30    4.10
   0  -6  -3    1.70    2.40
   0   6   4   31.50    8.00
   0   6   4   44.20    8.70
   0   6   4   53.79    9.10
   0   6  -4   52.09    9.80
   0   6   4   31.90    6.80
   0  -6   4   49.20    5.20
   0  -6  -4   48.40   10.00
   0  -6   4   40.00    5.70
   0  -6  -4   33.30    8.90
   0  -6   4   45.00    9.40
   0  -6   4   47.00    5.10
   0   6   5    1.90    4.10
   0   6   5   -0.70    4.10
   0   6   5    4.40    5.20
   0   6  -5    0.50    4.40
   0   6   5    9.10    4.20
   0  -6  -5   -1.10    2.80
   0  -6  -5    0.70    4.50
   0  -6   5    1.10    4.60
   0  -6   5    0.30    2.30
   0  -6   5   -0.50    2.60
   0  -6   5    3.00    2.00
   0   6   6  279.67   21.80
   0   6   6  281.97   20.50
   0   6   6  286.47   20.60
   0   6   6  293.67   18.60
   0  -6   6  271.17   13.20
   0  -6   6  272.07   22.60
   0  -6   6  279.47   13.40
   0  -6  -6  267.97   20.70
   0  -6   6  217.78   14.10
   0  -6  -6  293.37   23.00
   0   6   7    4.00    7.20
   0   6   7   -0.30    4.80
   0   6   7    0.70    5.20
   0   6  -7   -2.50    5.30
   0  -6  -7   11.20    7.20
   0  -6   7    3.50    2.60
   0  -6   7    1.70    4.40
   0   7   0   16.70    5.40
   0  -7   0   15.80    5.60
   0  -7   0   14.20    5.10
   0  -7   0   19.30    4.80
   0   7  -1  426.66   18.90
   0   7  -1  432.56   18.10
   0   7   1  416.56   17.00
   0   7   1  427.16   22.10
   0   7   1  442.76   21.80
   0   7  -1  419.96   23.00
   0  -7  -1  431.96   22.30
   0  -7   1  376.76   16.90
   0  -7  -1  414.96   22.70
   0  -7   1  455.15   21.10
   0  -7  -1  448.46   20.70
   0  -7   1  457.95   21.80
   0  -7   1  421.66   17.50
   0   7  -2  321.77   14.30
   0   7   2  336.97   19.30
   0   7  -2  319.77   20.80
   0   7  -2  355.46   17.50
   0   7   2  380.86   16.60
   0   7   2  352.36   20.60
   0   7  -2  334.97   14.50
   0  -7   2  305.57   15.30
   0  -7  -2  337.57   19.50
   0  -7  -2  349.07   21.70
   0  -7  -2  353.16   17.30
   0  -7   2  335.77   17.50
   0  -7   2  340.37   14.50
   0   7  -3   66.19   11.90
   0   7   3   76.29   11.90
   0   7   3   81.69    9.20
   0   7   3   60.69    9.70
   0   7  -3   82.39    9.50
   0  -7  -3   62.39   11.00
   0  -7   3   63.69    7.90
   0  -7  -3   80.09   12.20
   0  -7   3   77.89    6.60
   0  -7   3   63.89    6.20
   0   7  -4  423.06   22.90
   0   7   4  439.16   26.70
   0   7   4  436.36   22.50
   0   7   4  404.16   21.00
   0  -7   4  391.76   15.60
   0  -7   4  412.86   18.50
   0  -7  -4  424.66   25.00
   0  -7   4  374.46   24.80
   0  -7  -4  424.96   25.70
   0  -7   4  411.36   15.30
   0   7   5  129.39   13.30
   0   7   5  148.29   14.20
   0   7  -5  156.38   15.70
   0   7   5  125.49   15.60
   0  -7   5  129.59   15.60
   0  -7  -5  145.89   16.30
   0  -7   5  137.59    8.70
   0  -7   5  131.29    8.40
   0  -7  -5  120.89   14.10
   0   7   6  370.96   27.40
   0   7  -6  382.16   25.70
   0   7   6  367.16   22.00
   0   7   6  394.86   27.30
   0  -7   6  385.56   14.80
   0  -7   6  374.06   27.30
   0  -7   6  395.96   17.10
   0  -7  -6  400.16   27.60
   0  -7  -6  368.16   27.40
   0   7  -7   -0.30    6.90
   0   7   7   -2.80    7.00
   0   7   7    6.00    8.70
   0   7   7   -7.00    5.50
   0  -7   7    6.20    7.90
   0  -7   7    7.60    4.60
   0   8   0  247.58   16.20
   0   8   0  244.68   17.90
   0   8   0  239.08   13.10
   0  -8   0  211.78   12.90
   0  -8   0  248.08   15.00
   0  -8   0  222.08   17.10
   0  -8   0  212.48   16.10
   0   8  -1    1.40    2.80
   0   8   1    0.80    3.40
   0   8   1    1.10    3.10
   0   8  -1   -0.10    2.40
   0   8  -1    3.80    4.90
   0   8  -1    1.60    3.50
   0   8   1    4.40    4.70
   0  -8  -1    5.60    5.00
   0  -8  -1    0.20    4.20
   0  -8   1    2.60    3.60
   0  -8   1   -6.60    2.80
   0  -8  -1    0.40    4.00
   0  -8   1    5.60    4.10
   0   8  -2  212.68   17.50
   0   8   2  207.18   16.40
   0   8  -2  195.68   11.50
   0   8   2  212.58   16.40
   0   8  -2  235.28   14.60
   0  -8  -2  213.78   16.30
   0  -8   2  197.48   11.50
   0  -8   2  192.98   14.30
   0  -8  -2  191.68   17.50
   0   8   3  147.99   13.70
   0   8  -3  139.19   15.10
   0   8  -3  149.19   13.20
   0   8   3  163.98   12.60
   0   8   3  159.48   15.70
   0  -8  -3  176.98   17.30
   0  -8   3  132.39    8.90
   0  -8   3  131.09   11.60
   0  -8   3  134.29    9.00
   0  -8  -3  153.98   14.60
   0   8  -4   68.79   11.40
   0   8   4   68.49   11.10
   0   8   4   75.69   13.40
   0   8   4   75.99    9.90
   0  -8   4   74.89    8.70
   0  -8  -4   67.29   12.80
   0  -8   4   84.79    7.10
   0  -8   4   58.59    6.20
   0  -8  -4   61.79   12.20
   0  -8   4   77.89   14.20
   0   8   5  293.97   19.50
   0   8  -5  343.47   23.00
   0   8   5  275.07   23.10
   0   8   5  331.17   20.90
   0  -8  -5  325.47   24.00
   0  -8   5  284.07   11.90
   0  -8   5  298.27   23.60
   0  -8  -5  287.17   24.40
   0  -8   5  306.07   16.60
   0   8  -6   87.69   15.30
   0   8   6   67.19   13.30
   0   8   6   90.39   13.80
   0  -8   6   75.99   15.00
   0  -8  -6   83.69   16.20
   0  -8   6   87.29    8.80
   0   9   0   -0.80    4.30
   0   9   0   -3.20    4.10
   0   9   0   -1.70    3.80
   0  -9   0   -2.50    4.40
   0  -9   0   -3.00    3.80
   0   9  -1  736.63   35.80
   0   9   1  751.82   32.90
   0   9   1  735.83   26.40
   0   9  -1  774.72   28.10
   0   9   1  759.02   34.80
   0  -9   1  706.53   32.20
   0  -9  -1  694.83   33.10
   0  -9  -1  728.13   35.30
   0  -9   1  760.42   28.10
   0  -9  -1  760.92   31.50
   0   9  -2    3.80    4.00
   0   9  -2    0.20    3.70
   0   9   2    3.70    4.00
   0   9   2    2.90    4.40
   0   9   2   -1.20    4.30
   0   9  -2   -5.60    4.60
   0  -9  -2   -3.90    5.00
   0  -9   2    5.00    4.30
   0  -9   2   -2.30    3.30
   0  -9  -2   -1.30    4.60
   0   9  -3  163.88   14.10
   0   9   3  157.78   16.50
   0   9   3  129.89   11.80
   0   9   3  163.88   15.50
   0   9  -3  146.39   17.00
   0  -9   3  151.58   11.40
   0  -9  -3  162.38   18.10
   0  -9   3  146.19   13.40
   0  -9  -3  182.98   17.10
   0  -9   3  161.58   10.60
   0   9   4    0.00    5.40
   0   9  -4    0.20    5.70
   0   9   4    4.90    6.40
   0  -9   4    2.70    3.10
   0  -9  -4   -0.80    5.40
   0  -9   4    7.50    4.70
   0  -9  -4    8.80    7.00
   0  -9   4    2.70    5.80
   0   9   5   14.00    6.60
   0   9  -5   19.40    7.30
   0   9   5   -4.70    7.50
   0   9   5    3.40    7.30
   0  -9  -5   10.60    9.10
   0  -9   5    3.60    7.30
   0  -9  -5    8.90    4.90
   0  -9   5   16.40    5.10
   0  10   0   -2.40    8.00
   0  10   0   12.80    8.40
   0  10   0   10.80    4.40
   0 -10   0   19.00    6.10
   0  10  -1  231.78   20.70
   0  10   1  235.78   19.40
   0  10   1  214.28   19.10
   0  10  -1  214.88   14.30
   0  10   1  212.28   13.70
   0 -10   1  176.08   16.90
   0 -10  -1  227.38   17.50
   0 -10  -1  179.08   21.90
   0 -10   1  196.98   14.50
   0  10   2   -1.20    3.10
   0  10   2   -1.70    5.10
   0  10  -2    3.10    4.60
   0  10   2  -14.60    5.50
   0  10  -2    8.90    6.10
   0 -10  -2   -6.40    5.60
   0 -10   2   -2.10    4.20
   0 -10   2    2.90    5.00
   0 -10  -2    2.60    6.90
   0  10   3  569.44   30.80
   0  10  -3  583.14   34.80
   0  10  -3  610.84   28.30
   0  10   3  539.05   32.70
   0 -10   3  523.65   29.50
   0 -10  -3  586.04   35.80
   0 -10  -3  568.14   31.40
   0  10   4   20.80    7.30
   0  10   4    7.90   11.10
   0  10   4    9.00    6.80
   0 -10   4    6.80    6.70
   0 -10  -4   25.40    8.90
   0 -10  -4   10.10    9.90
   0  11   0    4.40    6.20
   0  11   0    0.30    4.80
   0 -11   0    4.30    4.70
   0  11   1   -5.50    4.10
   0  11  -1    3.40    5.60
   0  11   1    3.70    6.10
   0  11  -1   -7.10    4.80
   0 -11   1    4.70    4.80
   0 -11  -1   11.80    6.60
   0  11  -2   67.79   10.60
   0  11   2   44.90   10.80
   0  11  -2   37.20   11.90
   0  11   2   42.90    8.00
   0 -11  -2   53.49   11.90
   0 -11   2   49.90    8.10
   0  11  -3   -4.30    7.10
   0  11   3    4.40    6.20
   0  11   3    6.10    6.40
   0  11  -3   -6.20    6.00
   0 -11  -3    1.70    5.50
  -1   0   9   -0.40    3.50
  -1   0   9   -5.60    6.30
   1   0  -9   -4.60    5.40
  -1   0   8   13.40    6.10
  -1   0   8   11.90    4.90
  -1   0   8   14.40    4.60
  -1   0   8   26.30   10.40
  -1   0   7    0.80    3.30
  -1   0   7   -0.80    2.40
   1   0  -7   -1.10    3.20
  -1   0   7    0.50    4.30
  -1   0   7    2.60    4.40
  -1   0   6   61.39    7.20
  -1   0   6   69.19    8.70
  -1   0   6   58.49   11.20
   1   0  -6   56.59    9.40
  -1   0   6   60.69    7.40
   1   0  -5   -2.90    1.70
  -1   0   5   -0.50    1.80
   1   0  -5    1.30    2.10
  -1   0   5    1.20    3.10
  -1   0   5    0.70    2.40
  -1   0   5    1.40    2.20
  -1   0   4 6340.87  139.39
  -1   0   4 6229.68  130.89
   1   0  -4 6332.97  136.19
   1   0  -4 6103.49  132.59
  -1   0   4 6149.78  137.79
  -1   0   4 6296.57  136.29
  -1   0   3    0.70    2.40
  -1   0   3    1.80    1.60
  -1   0   3    1.00    1.70
   1   0  -3    1.60    1.90
  -1   0   3    1.00    2.40
  -1   0   3   -1.10    1.70
  -1   0   3   -1.90    2.20
   1   0  -3   -0.60    2.80
  -1   0   2  243.28    7.90
  -1   0   2  237.48    7.80
   1   0  -2  237.88    8.10
  -1   0   2  222.28    9.90
   1   0  -2  228.98    9.70
  -1   0   2  243.98    9.80
  -1   0   2  230.08    8.10
  -1   0   2  250.37   10.60
  -1   0   1    0.20    0.60
   1   0  -1   -0.30    0.60
   1   0  -1    0.10    1.00
  -1   0   1   -0.70    0.70
   1   0  -1    0.70    0.70
   1   0  -1    0.80    1.40
  -1   0   1    1.40    1.50
  -1   0   1   -0.50    1.30
  -1   0   0   -0.20    0.40
  -1   0   0   -0.70    0.40
  -1   0   0    0.30    0.40
   1   0   0   -0.20    0.50
  -1   0   0    0.70    0.50
   1   0   0    0.40    0.50
   1   0   0   -0.20    0.50
   1   0   0   -0.60    0.30
  -1   0  -1    0.60    1.30
   1   0   1   -1.20    1.20
   1   0   1   -1.10    1.10
  -1   0  -1   -0.90    1.30
  -1   0  -1    0.90    1.40
   1   0   1    0.60    2.10
  -1   0  -1    0.00    0.50
   1   0   1   -1.10    1.80
   1   0   2 9999.00  224.88
  -1   0  -2 9906.61  225.08
  -1   0  -3   -1.20    2.40
  -1   0  -3   -3.30    2.00
   1   0   3    0.60    3.10
   1   0   3   -0.80    1.50
   1   0   3    1.30    2.10
  -1   0  -3   -2.20    2.90
   1   0   3    0.60    2.20
  -1   0  -4 1207.98   35.40
  -1   0  -4 1120.29   36.10
  -1   0  -4 1187.28   38.60
   1   0   4 1192.88   34.00
   1   0   4 1209.78   34.30
   1   0   4 1191.08   40.80
  -1   0  -4 1208.18   33.60
   1   0   4 1180.88   36.90
  -1   0  -5    0.00    3.50
  -1   0  -5    2.40    2.70
   1   0   5    1.60    3.50
   1   0   5    0.30    2.50
  -1   0  -5    3.00    3.70
  -1   0  -6  364.46   16.80
  -1   0  -6  434.86   25.00
   1   0   6  413.06   24.90
   1   0   6  390.46   22.10
   1   0   6  368.66   19.30
  -1   0  -6  400.16   21.00
   1   0   7   -7.60    3.70
  -1   0  -7   -0.40    4.40
   1   0   7    0.20    5.70
   1   0   7    0.70    3.60
   1   0   8  275.17   24.70
   1   0   8  224.58   17.30
   1   0   8  298.07   20.00
  -1   0  -8  268.67   21.00
   1   0   8  256.67   21.00
  -1   1   9   22.50    9.40
   1   1  -9   22.00    8.20
  -1   1   9   17.60    5.90
  -1  -1   9   21.20   10.10
  -1  -1   9   44.10   11.90
  -1  -1   9   23.80    5.80
   1  -1  -9   33.50   10.40
  -1  -1   9   23.00    5.90
   1   1  -8  260.07   19.70
  -1   1   8  285.67   18.60
  -1   1   8  287.37   18.70
  -1   1   8  289.47   19.30
  -1   1   8  314.17   25.00
  -1  -1   8  275.97   20.10
  -1  -1   8  292.77   24.50
  -1  -1   8  272.27   18.30
   1  -1  -8  271.87   21.00
  -1  -1   8  274.57   16.10
   1   1  -7  603.04   28.10
  -1   1   7  646.74   27.10
  -1   1   7  648.24   33.80
  -1   1   7  657.73   27.40
  -1   1   7  654.03   27.30
  -1  -1   7  635.24   23.30
  -1  -1   7  618.04   33.10
  -1  -1   7  645.84   24.20
   1  -1  -7  627.74   30.40
  -1  -1   7  662.73   29.10
  -1   1   6    5.80    4.40
  -1   1   6   13.40    7.20
   1   1  -6    3.50    4.50
  -1   1   6    5.50    3.60
   1  -1  -6    4.80    3.80
  -1  -1   6    9.40    3.30
  -1  -1   6    3.80    2.80
   1  -1  -6    9.50    5.10
  -1  -1   6    4.90    4.50
  -1  -1   6    3.00    4.90
  -1   1   5  547.85   25.40
  -1   1   5  506.75   20.70
   1   1  -5  571.34   22.90
  -1   1   5  528.75   20.40
  -1   1   5  576.64   21.80
  -1  -1   5  560.54   22.30
  -1  -1   5  519.95   21.80
   1  -1  -5  567.54   19.60
  -1  -1   5  559.54   18.10
   1  -1  -5  540.25   23.70
  -1  -1   5  549.85   22.00
  -1  -1   5  568.44   25.90
   1  -1  -5  487.75   19.80
   1   1  -4  597.84   24.00
  -1   1   4  637.24   21.50
  -1   1   4  623.44   24.80
  -1   1   4  635.74   24.50
  -1   1   4  628.04   21.50
   1   1  -4  627.64   22.30
  -1   1   4  638.44   20.40
  -1   1   4  625.44   23.30
   1  -1  -4  614.34   23.60
  -1  -1   4  618.34   22.20
  -1  -1   4  633.94   17.90
  -1  -1   4  634.34   21.80
  -1  -1   4  644.24   22.30
   1  -1  -4  593.54   19.90
   1  -1  -4  624.74   20.40
  -1  -1   4  617.94   23.70
  -1   1   3   38.30    6.80
  -1   1   3   54.29    5.70
  -1   1   3   54.19    6.00
  -1   1   3   55.89    4.90
   1   1  -3   63.29    6.40
  -1   1   3   55.29    6.20
   1   1  -3   48.30    6.10
  -1   1   3   53.09    5.50
   1  -1  -3   46.90    5.10
  -1  -1   3   51.39    5.30
   1  -1  -3   50.59    4.70
  -1  -1   3   57.19    5.60
  -1  -1   3   56.09    5.70
  -1  -1   3   48.10    5.90
   1  -1  -3   57.39    6.80
  -1  -1   3   49.70    3.40
  -1   1   2 2235.88   53.09
   1   1  -2 2289.87   52.29
   1   1  -2 2317.27   51.49
   1   1  -2 2318.27   51.29
  -1   1   2 2394.46   51.99
  -1   1   2 2299.17   52.79
  -1   1   2 2336.87   51.39
   1  -1  -2 2317.87   50.99
   1  -1  -2 2273.47   52.79
   1  -1  -2 2295.57   53.49
   1  -1  -2 2196.98   48.40
  -1  -1   2 2300.07   52.09
  -1  -1   2 2338.57   51.19
  -1  -1   2 2292.57   51.49
  -1   1   1  297.57   10.10
  -1   1   1  322.47   10.20
  -1   1   1  312.17    7.70
  -1   1   1  321.97   10.40
   1   1  -1  310.67    6.90
   1   1  -1  311.77    9.80
  -1   1   1  307.17   10.10
   1   1  -1  316.57    6.90
   1   1  -1  318.57    9.10
  -1  -1   1  317.77    9.80
  -1  -1   1  320.87    9.90
   1  -1  -1  314.57   10.20
  -1  -1   1  302.27    9.60
  -1  -1   1  319.17    9.10
  -1  -1   1  310.77    7.50
   1  -1  -1  317.27   10.20
   1  -1  -1  321.07   10.60
   1  -1  -1  300.47    7.60
  -1   1   0  136.09    5.50
   1   1   0  141.59    5.60
  -1   1   0  135.39    5.60
   1   1   0  133.59    5.40
  -1   1   0  127.49    4.00
   1   1   0  135.89    5.70
  -1  -1   0  135.49    5.90
   1  -1   0  133.59    5.50
  -1  -1   0  144.49    5.50
   1  -1   0  137.59    5.70
  -1  -1   0  136.29    3.50
   1  -1   0  129.89    5.50
   1  -1   0  133.79    4.00
   1  -1   0  135.59    5.50
  -1  -1   0  137.99    5.80
   1   1   2   60.09    5.20
  -1   1  -2   58.99    4.50
   1   1   2   66.59    5.70
  -1   1  -2   67.69    5.90
   1   1   2   71.49    5.90
   1   1   2   60.49    5.80
  -1   1  -2   66.19    6.20
  -1   1  -2   57.29    4.20
  -1  -1  -2   58.59    5.60
  -1  -1  -2   60.59    5.20
   1  -1   2   56.59    5.60
   1  -1   2   65.69    5.90
  -1  -1  -2   59.29    5.30
   1  -1   2   70.19    5.00
  -1  -1  -2   67.39    5.90
   1  -1   2   55.19    4.00
  -1   1  -3    3.60    3.10
  -1   1  -3    4.50    2.90
  -1   1  -3    2.30    2.00
   1   1   3    0.50    2.50
   1   1   3    2.40    3.00
   1   1   3    2.70    1.90
  -1   1  -3    6.30    2.60
   1   1   3   13.50    3.90
  -1  -1  -3    0.90    3.20
  -1  -1  -3    2.80    2.00
   1  -1   3    2.40    2.50
   1  -1   3    3.90    3.00
   1  -1   3    0.70    1.70
  -1  -1  -3    5.10    3.40
   1  -1   3    3.50    2.10
  -1   1  -4  643.34   26.50
   1   1   4  676.43   24.00
  -1   1  -4  667.33   22.40
   1   1   4  639.54   23.40
   1   1   4  601.94   24.50
  -1   1  -4  656.63   20.30
  -1   1  -4  626.94   24.70
   1   1   4  669.53   24.80
  -1  -1  -4  648.24   23.20
   1  -1   4  662.33   25.40
  -1  -1  -4  638.44   26.00
  -1  -1  -4  628.44   24.20
  -1  -1  -4  694.33   25.20
   1  -1   4  657.23   21.80
   1  -1   4  665.93   21.70
  -1   1  -5  478.85   20.50
   1   1   5  521.45   22.10
  -1   1  -5  500.75   17.70
  -1   1  -5  487.55   25.20
   1   1   5  502.15   25.20
   1   1   5  527.15   23.50
  -1  -1  -5  461.65   22.50
   1  -1   5  508.75   19.90
   1  -1   5  469.45   19.60
  -1  -1  -5  514.55   23.30
  -1  -1  -5  514.55   25.00
   1  -1   5  530.55   24.20
   1   1   6  591.34   30.60
  -1   1  -6  619.44   25.50
   1   1   6  564.64   25.10
   1   1   6  567.84   26.80
  -1   1  -6  526.95   18.90
  -1   1  -6  583.94   29.90
   1  -1   6  635.74   29.00
   1  -1   6  549.74   22.90
  -1  -1  -6  559.04   23.50
  -1  -1  -6  604.84   27.60
   1   1   7   15.90    5.70
   1   1   7    8.10    6.10
  -1   1  -7    8.50    6.40
   1   1   7    4.10    5.10
   1   1   7   17.90    8.40
  -1   1  -7    3.00    4.60
   1  -1   7    0.90    3.50
   1  -1   7   14.20    6.70
  -1  -1  -7   18.50    7.20
  -1  -1  -7    2.50    7.20
   1  -1   7   16.10    7.00
   1   1   8  213.38   21.70
   1   1   8  171.98   16.40
  -1   1  -8  174.68   15.60
   1   1   8  175.88   17.80
   1  -1   8  177.88   19.50
   1  -1   8  131.99   13.00
  -1  -1  -8  147.39   16.00
   1  -1   8  162.08   18.00
  -1   2   9  188.58   24.40
   1   2  -9  162.28   15.70
  -1   2   9  156.98   25.10
  -1  -2   9  151.78   11.70
   1  -2  -9  158.88   17.60
  -1  -2   9  154.18   11.70
  -1  -2   9  161.38   17.10
  -1  -2   9  170.48   20.20
  -1   2   8   46.70    8.70
   1   2  -8   65.99   10.60
  -1   2   8   48.70    9.70
  -1   2   8   45.30    9.20
  -1   2   8   53.19   12.60
  -1  -2   8   64.29    7.30
  -1  -2   8   66.99    7.50
  -1  -2   8   77.69   12.60
  -1  -2   8   66.49   14.30
   1  -2  -8   63.69   11.90
  -1   2   7  263.37   18.00
  -1   2   7  248.38   16.20
  -1   2   7  247.78   17.40
   1   2  -7  257.97   16.70
  -1   2   7  227.58   19.50
  -1  -2   7  266.97   18.70
   1  -2  -7  241.28   19.00
  -1  -2   7  273.77   13.50
  -1  -2   7  254.07   12.80
  -1  -2   7  264.87   21.00
   1   2  -6 2135.99   57.99
  -1   2   6 2132.29   55.99
   1   2  -6 2120.49   64.39
  -1   2   6 2162.48   59.59
  -1   2   6 2080.89   58.79
  -1   2   6 2107.09   64.89
  -1  -2   6 2155.88   60.59
  -1  -2   6 2049.49   49.60
   1  -2  -6 2061.39   62.19
   1  -2  -6 2042.90   55.39
   1  -2  -6 1928.01   54.99
  -1  -2   6 2169.68   65.69
  -1   2   5  114.99    9.90
   1   2  -5  133.99   12.30
  -1   2   5  121.49   10.30
  -1   2   5  122.29    9.30
   1   2  -5  111.59    9.30
  -1   2   5  125.69   12.50
   1  -2  -5  107.19    8.60
  -1  -2   5   92.69    9.70
   1  -2  -5  111.09   11.30
  -1  -2   5  108.19    9.60
  -1  -2   5  100.99    8.70
   1  -2  -5  105.79    9.20
  -1  -2   5  110.79    6.30
  -1   2   4  308.57   16.80
   1   2  -4  301.77   16.10
  -1   2   4  270.67   15.40
  -1   2   4  301.87   14.90
  -1   2   4  284.17   12.40
  -1   2   4  297.47   14.90
   1   2  -4  286.07   13.60
  -1   2   4  266.17   14.80
  -1  -2   4  297.97   14.00
  -1  -2   4  298.97   15.30
   1  -2  -4  286.37   13.90
   1  -2  -4  286.37   12.40
  -1  -2   4  297.27   14.90
  -1  -2   4  298.07    9.30
   1  -2  -4  289.97   15.70
  -1  -2   4  309.27   15.30
   1   2  -3 2282.37   56.29
  -1   2   3 2351.86   57.69
  -1   2   3 2307.07   51.69
  -1   2   3 2283.77   56.59
  -1   2   3 2231.48   55.49
   1   2  -3 2278.67   53.49
  -1   2   3 2213.28   55.89
  -1  -2   3 2324.37   55.69
  -1  -2   3 2327.47   46.70
  -1  -2   3 2435.76   56.49
   1  -2  -3 2292.47   57.49
   1  -2  -3 2233.98   51.69
  -1  -2   3 2247.08   55.29
   1  -2  -3 2267.37   57.09
  -1  -2   3 2281.27   53.79
  -1   2   2   52.19    5.10
  -1   2   2   61.89    4.20
  -1   2   2   53.99    5.60
   1   2  -2   58.29    5.60
  -1   2   2   58.89    5.70
   1   2  -2   52.29    4.90
  -1   2   2   59.39    5.30
   1  -2  -2   56.49    5.40
  -1  -2   2   59.79    2.50
  -1  -2   2   52.29    4.50
  -1  -2   2   58.69    4.60
  -1  -2   2   57.79    2.30
   1  -2  -2   59.99    4.10
  -1  -2   2   52.19    4.80
  -1  -2   2   63.89    5.50
   1  -2  -2   55.79    5.40
   1  -2  -2   59.49    5.70
   1  -2  -2   59.19    5.80
  -1   2   1 8671.63  206.78
   1   2  -1 9227.38  192.68
  -1  -2   1 8971.50  191.98
   1   2   0 3626.74  108.99
  -1   2   0 4465.95  110.69
   1  -2   0 4581.44  110.79
  -1  -2   0 4638.54  110.99
   1   2   1 6205.78  154.18
  -1   2  -1 6131.09  143.09
  -1   2  -1 5860.51  142.39
  -1  -2  -1 5970.60  152.48
  -1   2  -2  142.89    5.60
  -1   2  -2  148.09    6.90
   1   2   2  148.09    9.40
   1   2   2  147.59    8.70
   1   2   2  130.79    8.70
  -1   2  -2  138.49    8.90
   1   2   2  130.99    8.50
   1   2   2  127.69    8.20
   1  -2   2  136.69    9.60
   1  -2   2  134.29    8.50
  -1  -2  -2  136.69    9.20
   1  -2   2  136.79    5.60
   1  -2   2  138.59    9.30
   1  -2   2  130.39    6.90
  -1  -2  -2  128.49    8.40
  -1  -2  -2  137.59    8.30
   1   2   3   15.30    4.90
  -1   2  -3    9.30    4.40
  -1   2  -3   23.30    3.60
   1   2   3   13.80    4.20
   1   2   3   14.50    4.50
   1   2   3   16.00    4.10
  -1   2  -3   17.80    3.00
  -1   2  -3   18.30    5.30
   1  -2   3   19.30    3.50
   1  -2   3   18.50    3.30
  -1  -2  -3   14.70    4.30
   1  -2   3   15.90    4.50
   1  -2   3   12.20    4.40
  -1  -2  -3   17.90    4.60
   1  -2   3   23.90    5.00
  -1  -2  -3   22.10    4.70
  -1   2  -4  328.47   13.80
  -1   2  -4  321.37   11.80
   1   2   4  345.47   18.50
   1   2   4  334.47   16.80
   1   2   4  332.57   17.10
   1   2   4  333.07   17.00
  -1   2  -4  345.77   19.10
   1  -2   4  354.06   18.90
   1  -2   4  334.67   13.50
  -1  -2  -4  350.06   18.00
   1  -2   4  349.87   13.90
  -1  -2  -4  294.67   15.60
  -1   2  -5  346.27   21.20
  -1   2  -5  332.77   15.80
  -1   2  -5  346.37   15.10
   1   2   5  359.46   19.20
   1   2   5  323.97   18.30
   1   2   5  358.56   21.30
  -1  -2  -5  326.47   19.30
   1  -2   5  334.17   19.80
  -1  -2  -5  337.07   18.00
   1  -2   5  349.67   15.30
   1   2   6  404.86   22.70
   1   2   6  366.96   21.10
   1   2   6  398.76   22.00
   1   2   6  386.16   24.20
  -1   2  -6  388.96   24.60
   1  -2   6  397.06   23.20
   1  -2   6  403.66   18.00
  -1  -2  -6  362.96   22.80
  -1  -2  -6  416.06   23.40
  -1   2  -7  522.05   24.40
   1   2   7  544.85   32.30
   1   2   7  564.14   28.90
   1   2   7  543.35   28.20
  -1   2  -7  520.55   30.90
   1   2   7  490.95   26.40
   1  -2   7  533.35   29.40
  -1  -2  -7  598.34   30.40
   1  -2   7  514.15   22.60
  -1  -2  -7  503.15   25.10
   1   2   8   15.40    7.90
  -1   2  -8   15.40    6.70
   1   2   8   23.60    7.40
   1   2   8   26.80    9.50
   1  -2   8   19.30    7.40
  -1  -2  -8   28.90    9.10
   1  -2   8   12.60    6.50
   1  -2   8   32.70   10.50
   1   3  -9   40.90    9.60
  -1   3   9   37.90    9.30
  -1   3   9   63.69   17.40
  -1   3   9   52.29   12.30
  -1  -3   9   35.30    7.80
  -1  -3   9   38.90   14.10
  -1  -3   9   41.50   11.00
   1  -3  -9   35.60   13.40
  -1   3   8    0.00    4.30
  -1   3   8    5.60    7.00
   1   3  -8   11.70    6.10
  -1   3   8   -5.90    4.70
  -1  -3   8    5.40    2.50
   1  -3  -8   22.40    9.40
  -1  -3   8    2.80    2.60
  -1  -3   8    7.40    6.90
  -1  -3   8   -1.90    6.30
  -1   3   7  367.06   22.60
  -1   3   7  377.36   19.80
   1   3  -7  373.86   19.80
  -1   3   7  336.77   21.30
  -1  -3   7  390.26   23.30
  -1  -3   7  352.26   13.80
  -1  -3   7  320.67   24.60
  -1   3   6   43.20    7.80
  -1   3   6   51.69   10.70
   1   3  -6   50.19   10.70
  -1   3   6   53.99    9.60
  -1   3   6   51.79    8.90
   1   3  -6   50.69    8.00
   1  -3  -6   28.00    6.60
  -1  -3   6   49.90    4.60
  -1  -3   6   43.20    8.90
   1  -3  -6   59.19   10.50
   1  -3  -6   36.60    7.30
   1   3  -5 1529.85   49.00
  -1   3   5 1594.74   42.90
  -1   3   5 1577.44   47.70
  -1   3   5 1610.14   50.29
   1   3  -5 1579.64   43.30
  -1   3   5 1518.45   47.30
  -1  -3   5 1577.54   35.70
   1  -3  -5 1667.23   50.49
   1  -3  -5 1495.95   45.70
   1  -3  -5 1540.55   43.00
  -1  -3   5 1498.95   43.60
  -1  -3   5 1592.44   48.40
  -1   3   4    0.80    2.80
  -1   3   4    4.60    3.30
   1   3  -4    5.50    2.60
   1   3  -4    2.60    3.90
  -1   3   4    5.90    4.50
  -1   3   4    2.10    3.00
  -1   3   4    7.30    3.10
  -1  -3   4    2.90    1.10
  -1  -3   4    6.20    3.70
  -1  -3   4    4.40    3.00
   1  -3  -4    2.20    2.30
  -1  -3   4    0.40    2.20
   1  -3  -4    2.80    2.20
  -1  -3   4   -1.00    1.70
  -1   3   3 1280.17   37.20
   1   3  -3 1208.48   36.60
   1   3  -3 1280.87   35.90
  -1   3   3 1297.27   37.20
  -1   3   3 1280.37   37.70
  -1   3   3 1243.78   36.40
  -1   3   3 1261.77   32.50
   1  -3  -3 1285.77   37.60
   1  -3  -3 1279.17   37.50
  -1  -3   3 1200.38   34.30
  -1  -3   3 1258.77   33.00
  -1  -3   3 1266.47   27.90
   1  -3  -3 1227.68   32.30
  -1  -3   3 1247.48   33.40
  -1  -3   3 1243.58   36.50
   1  -3  -3 1311.17   37.30
  -1   3   2  556.84   17.20
  -1   3   2  551.34   20.60
   1   3  -2  555.64   20.40
  -1   3   2  551.84   19.10
  -1   3   2  564.84   20.40
   1   3  -2  551.54   17.80
  -1   3   2  546.05   19.20
  -1  -3   2  566.14   15.00
   1  -3  -2  568.44   20.70
   1  -3  -2  572.74   20.10
  -1  -3   2  557.94   17.40
  -1  -3   2  529.95   16.90
  -1  -3   2  555.24   15.30
   1  -3  -2  571.24   17.20
   1  -3  -2  533.25   19.40
   1  -3  -2  573.34   20.30
  -1  -3   2  568.24   17.20
  -1  -3   2  553.34   19.60
   1   3  -1  967.80   27.90
  -1   3   1  965.90   25.70
  -1   3   1  985.20   26.00
  -1   3   1  972.50   27.70
   1   3  -1  997.50   23.50
   1   3  -1  966.50   25.20
  -1   3   1  937.01   25.40
   1   3  -1 1003.10   24.30
   1   3  -1  926.61   23.80
  -1   3   1  952.30   28.10
   1  -3  -1  987.10   28.50
  -1  -3   1  940.41   27.30
  -1  -3   1  939.81   25.10
   1  -3  -1  946.51   25.30
  -1  -3   1  931.51   24.70
   1  -3  -1  985.50   30.90
   1  -3  -1  969.60   26.10
  -1  -3   1  990.40   25.10
   1  -3  -1 1010.70   26.70
  -1  -3   1  961.20   22.80
  -1   3   0 6748.52  167.38
   1   3   0 6563.24  166.38
  -1  -3   0 6838.42  167.78
   1  -3   0 6682.33  167.08
   1   3   1   68.59    6.70
  -1   3  -1   69.09    5.70
  -1   3  -1   62.99    3.10
  -1   3  -1   66.29    6.80
   1   3   1   71.09    6.10
  -1   3  -1   67.79    5.30
   1   3   1   72.89    6.00
  -1   3  -1   57.29    5.20
   1   3   1   60.79    6.50
   1  -3   1   69.49    5.70
  -1  -3  -1   70.69    6.40
   1  -3   1   60.99    6.30
   1  -3   1   65.99    3.10
  -1  -3  -1   67.79    6.40
  -1  -3  -1   62.59    6.80
   1  -3   1   59.59    5.50
   1   3   2  408.96   16.50
   1   3   2  422.96   17.80
   1   3   2  406.76   15.60
  -1   3  -2  429.86   17.30
   1   3   2  391.36   16.20
  -1   3  -2  419.36   13.80
   1   3   2  405.46   15.30
   1   3   2  407.96   17.70
  -1  -3  -2  406.96   17.90
   1  -3   2  408.76   17.70
  -1  -3  -2  395.76   17.10
   1  -3   2  420.26   16.10
   1  -3   2  433.46   14.60
   1  -3   2  427.66   11.10
  -1  -3  -2  418.56   16.70
   1  -3   2  397.56   17.70
   1  -3   2  414.36   10.70
  -1   3  -3 2470.95   54.09
  -1   3  -3 2431.36   63.79
   1   3   3 2546.95   64.59
  -1   3  -3 2484.05   54.69
   1   3   3 2445.46   61.49
   1   3   3 2483.35   63.99
   1   3   3 2604.64   62.99
   1   3   3 2454.65   62.19
   1   3   3 2529.85   62.19
   1  -3   3 2516.55   64.99
   1  -3   3 2463.35   56.99
   1  -3   3 2449.85   61.89
   1  -3   3 2467.45   64.39
  -1  -3  -3 2528.85   64.09
  -1  -3  -3 2579.84   64.59
   1  -3   3 2523.85   54.69
   1   3   4    4.30    3.70
  -1   3  -4    4.40    2.40
  -1   3  -4    2.20    1.40
  -1   3  -4    2.80    4.70
   1   3   4    0.20    3.10
   1   3   4    9.40    4.70
   1   3   4    3.30    3.60
  -1  -3  -4    3.60    3.70
  -1  -3  -4    8.80    5.00
   1  -3   4    4.30    2.10
   1  -3   4    1.50    4.20
  -1  -3  -4   -3.10    2.40
   1  -3   4    5.30    2.50
  -1   3  -5    8.40    3.50
   1   3   5    4.50    5.40
   1   3   5    9.10    5.20
   1   3   5    2.20    4.50
   1   3   5    0.40    4.00
  -1   3  -5    8.00    5.60
   1  -3   5    3.40    2.90
   1  -3   5    9.50    5.60
   1  -3   5   11.80    3.40
  -1  -3  -5    9.10    5.00
  -1   3  -6   -2.80    4.00
  -1   3  -6    3.50    3.70
   1   3   6    4.50    5.10
   1   3   6    5.40    4.80
   1   3   6   -3.40    5.00
   1   3   6    1.70    4.50
   1  -3   6    5.70    5.40
  -1  -3  -6    2.40    4.30
   1  -3   6    2.30    2.60
   1  -3   6   -0.10    2.80
  -1  -3  -6    3.40    5.20
   1   3   7    6.60    5.30
   1   3   7    6.60    5.20
  -1   3  -7   -4.90    3.10
   1   3   7   -2.80    5.40
  -1   3  -7    4.90    5.40
   1   3   7   -5.40    4.80
  -1  -3  -7   -0.10    5.50
  -1  -3  -7   -4.30    2.90
   1  -3   7    1.10    3.10
   1  -3   7    1.70    5.30
   1   3   8   -2.30    4.20
  -1   3  -8   -6.60    4.30
  -1   3  -8    2.50    7.60
   1   3   8    5.10    5.20
   1   3   8   -7.40    4.80
  -1  -3  -8    7.70    6.80
   1  -3   8   -4.70    3.40
   1  -3   8    0.40    5.90
  -1   4   8   -2.80    5.10
  -1   4   8    3.90    6.90
  -1   4   8    0.30    4.50
  -1  -4   8    9.70    5.30
   1  -4  -8    1.40    5.20
  -1  -4   8   -3.30    5.70
  -1  -4   8   -2.20    1.90
  -1  -4   8    2.10    5.60
  -1  -4   8    0.40    2.00
  -1   4   7   67.39   13.40
  -1   4   7   49.00   10.30
  -1   4   7   47.10   13.40
  -1   4   7   54.79    8.80
   1   4  -7   61.29   14.80
   1  -4  -7   73.99   15.10
  -1  -4   7   47.20    4.60
  -1  -4   7   62.29   11.80
  -1  -4   7   72.29   10.60
   1  -4  -7   69.79   12.50
  -1   4   6  584.54   28.70
  -1   4   6  614.04   29.20
   1   4  -6  565.34   29.10
  -1   4   6  560.04   29.40
  -1  -4   6  588.64   29.10
   1  -4  -6  573.04   29.50
  -1  -4   6  619.74   24.40
  -1  -4   6  586.64   17.20
   1  -4  -6  715.63   29.70
  -1   4   5    4.90    5.50
  -1   4   5    0.20    3.90
  -1   4   5    4.00    3.90
   1   4  -5    8.40    5.30
  -1   4   5    7.50    3.60
  -1  -4   5    1.40    3.00
  -1  -4   5    5.90    3.40
   1  -4  -5   -3.90    2.80
   1  -4  -5    4.10    3.30
  -1  -4   5    0.10    4.40
  -1  -4   5    2.20    1.50
   1  -4  -5    7.30    4.70
  -1   4   4  181.38   15.20
  -1   4   4  197.08   14.00
  -1   4   4  174.98   13.40
   1   4  -4  174.18   12.60
  -1   4   4  164.48   10.20
  -1  -4   4  176.58    7.20
   1  -4  -4  169.58   13.00
  -1  -4   4  169.78   10.10
   1  -4  -4  178.88   13.10
  -1  -4   4  163.98   13.10
  -1  -4   4  139.79    9.40
  -1  -4   4  149.19   10.60
   1  -4  -4  170.58   10.20
  -1   4   3  855.21   28.10
   1   4  -3  803.12   29.10
   1   4  -3  828.12   26.90
  -1   4   3  782.52   28.70
  -1   4   3  786.22   27.50
  -1   4   3  795.32   29.30
  -1   4   3  797.82   24.70
  -1  -4   3  834.12   21.30
  -1  -4   3  796.92   25.20
  -1  -4   3  783.42   28.00
   1  -4  -3  770.62   27.80
   1  -4  -3  830.22   29.40
  -1  -4   3  814.62   23.90
  -1  -4   3  804.62   24.40
   1  -4  -3  782.32   28.40
   1  -4  -3  830.22   29.00
   1  -4  -3  796.92   24.70
   1   4  -2   80.29    7.80
  -1   4   2   80.49    6.80
   1   4  -2   68.49    6.10
  -1   4   2   78.79    7.30
  -1   4   2   84.39    8.50
   1   4  -2   79.39    6.20
   1   4  -2   81.39    4.30
  -1   4   2   75.09    8.00
   1   4  -2   71.49    4.00
  -1   4   2   80.79    6.70
  -1  -4   2   81.49    6.00
  -1  -4   2   79.59    5.60
  -1  -4   2   69.39    8.30
   1  -4  -2   83.69    7.90
  -1  -4   2   73.49    5.70
  -1  -4   2   70.79    5.40
   1  -4  -2   80.99    6.50
   1  -4  -2   78.29    7.80
   1  -4  -2   67.99    7.90
   1  -4  -2   78.19    7.20
   1   4  -1  933.11   29.80
   1   4  -1  981.60   24.50
  -1   4   1  981.90   30.30
  -1   4   1  922.51   26.50
  -1   4   1  987.30   28.30
   1   4  -1  948.11   26.00
   1   4  -1  986.70   26.10
  -1   4   1  992.90   29.80
   1   4  -1  949.90   26.40
  -1   4   1  973.40   27.20
   1  -4  -1  979.10   27.70
  -1  -4   1  995.60   29.90
   1  -4  -1  995.20   28.00
  -1  -4   1 1012.30   26.80
  -1  -4   1  953.00   27.00
  -1  -4   1  973.10   27.70
   1  -4  -1 1005.30   30.20
  -1  -4   1  944.71   23.80
   1  -4  -1  940.31   27.40
   1  -4  -1  894.61   29.80
  -1   4   0 2451.35   58.89
   1   4   0 2512.65   58.09
   1   4   0 2459.05   59.59
  -1   4   0 2378.66   53.19
   1   4   0 2489.95   51.99
  -1   4   0 2424.26   56.19
   1   4   0 2431.46   56.19
  -1   4   0 2443.46   58.69
  -1   4   0 2331.47   57.19
  -1  -4   0 2362.86   58.49
  -1  -4   0 2460.95   56.99
  -1  -4   0 2522.85   52.69
   1  -4   0 2414.46   58.29
   1  -4   0 2319.37   57.79
   1  -4   0 2420.36   53.99
  -1  -4   0 2421.56   58.29
  -1  -4   0 2397.16   58.89
   1  -4   0 2369.06   55.89
   1   4   1   49.70    4.50
   1   4   1   51.79    5.20
   1   4   1   56.89    6.80
   1   4   1   50.99    7.00
  -1   4  -1   59.69    7.40
  -1   4  -1   49.00    3.50
  -1   4  -1   45.30    5.60
  -1   4  -1   49.99    5.20
  -1   4  -1   45.80    5.20
   1   4   1   46.00    6.70
   1  -4   1   45.60    3.50
  -1  -4  -1   50.89    7.40
   1  -4   1   42.50    5.40
  -1  -4  -1   55.69    6.50
   1  -4   1   47.20    5.40
  -1  -4  -1   55.19    5.80
  -1  -4  -1   41.10    4.60
   1  -4   1   50.59    5.40
  -1   4  -2  572.04   18.20
   1   4   2  618.04   24.00
   1   4   2  654.73   24.60
   1   4   2  650.03   20.80
   1   4   2  608.94   22.60
  -1   4  -2  602.44   19.20
   1   4   2  622.04   22.40
  -1   4  -2  587.14   23.90
  -1   4  -2  655.23   23.10
   1   4   2  616.34   20.60
   1  -4   2  632.84   24.10
   1  -4   2  632.54   24.70
  -1  -4  -2  670.43   25.30
  -1  -4  -2  615.44   23.40
   1  -4   2  632.94   15.30
   1  -4   2  594.84   20.10
   1  -4   2  614.34   15.60
   1  -4   2  649.24   24.30
  -1   4  -3  284.57   16.10
   1   4   3  285.67   16.60
   1   4   3  273.47   14.60
  -1   4  -3  276.57   10.30
   1   4   3  269.97   14.90
   1   4   3  283.57   16.50
   1   4   3  288.17   14.50
   1  -4   3  278.87   16.50
   1  -4   3  268.87   14.40
  -1  -4  -3  315.47   17.50
   1  -4   3  278.47   12.40
  -1  -4  -3  294.37   15.20
  -1  -4  -3  271.57   15.80
  -1   4  -4  483.15   13.10
   1   4   4  536.25   23.20
  -1   4  -4  494.45   24.30
   1   4   4  502.45   24.10
   1   4   4  460.65   25.10
   1   4   4  494.45   24.20
   1  -4   4  496.25   18.20
   1  -4   4  511.45   25.10
  -1  -4  -4  482.15   23.80
   1  -4   4  486.35   15.90
  -1  -4  -4  478.75   23.80
   1  -4   4  515.95   15.70
   1   4   5  905.51   36.50
  -1   4  -5  900.41   37.10
   1   4   5  934.31   36.10
   1   4   5  924.51   34.00
   1   4   5  880.91   36.00
   1  -4   5  864.81   27.40
   1  -4   5  900.91   26.10
  -1  -4  -5  912.71   36.10
   1  -4   5  823.62   25.60
   1  -4   5  907.51   37.40
  -1  -4  -5  879.51   36.50
  -1   4  -6  160.78   16.60
   1   4   6  122.29   14.30
   1   4   6  151.38   13.90
   1   4   6  158.38   15.60
  -1   4  -6  144.29    9.70
   1   4   6  145.39   15.20
   1  -4   6  160.48   10.60
   1  -4   6  135.49    9.30
   1  -4   6  157.28   16.30
  -1  -4  -6  128.79   14.70
   1   4   7   65.49   13.50
   1   4   7   52.19   10.80
   1   4   7   59.89   11.80
  -1   4  -7   69.19   14.40
  -1  -4  -7   64.59   12.70
   1  -4   7   54.89    7.90
   1  -4   7   55.19   12.00
  -1   4  -8   86.49   16.90
   1   4   8   95.59   16.80
   1   4   8   69.49   12.40
   1   4   8   70.99   13.40
  -1  -4  -8   78.09   14.00
   1  -4   8   89.59   15.00
   1  -4   8   93.19    9.40
  -1   5   8   21.20    7.70
  -1   5   8   29.20   10.30
  -1   5   8   19.50    7.00
  -1  -5   8   40.00    3.10
  -1  -5   8   43.20    3.10
   1  -5  -8   31.40   10.10
  -1  -5   8   36.60    7.60
  -1  -5   8   40.70    9.90
  -1  -5   8   26.60   10.60
   1   5  -7    7.20    6.70
  -1   5   7    5.60    6.60
  -1   5   7    2.40    4.50
  -1   5   7    5.00    5.60
  -1  -5   7    6.10    4.50
   1  -5  -7   13.60    6.10
  -1  -5   7    6.50    2.00
  -1  -5   7   10.10    6.60
   1  -5  -7   -2.50    6.80
  -1   5   6   42.80    7.60
  -1   5   6   29.20    9.40
  -1   5   6   32.30    8.60
  -1   5   6   32.80    8.50
   1   5  -6   36.50    9.40
   1  -5  -6   35.70    8.70
  -1  -5   6   32.80    9.20
   1  -5  -6   34.30    9.40
  -1  -5   6   38.00    6.80
  -1  -5   6   48.60    4.30
   1   5  -5   59.99   10.40
  -1   5   5   38.10    8.50
  -1   5   5   53.29   10.10
  -1   5   5   50.09    7.30
  -1   5   5   32.80    8.30
  -1  -5   5   51.69    7.30
   1  -5  -5   46.40    9.00
  -1  -5   5   50.69    4.50
  -1  -5   5   38.60    8.60
   1  -5  -5   39.00    7.60
   1  -5  -5   55.29   10.60
  -1  -5   5   58.49    6.30
  -1   5   4  324.57   15.80
  -1   5   4  325.37   19.30
   1   5  -4  351.96   21.20
  -1   5   4  354.96   18.90
   1   5  -4  307.57   19.40
  -1   5   4  310.37   19.20
   1  -5  -4  311.07   18.80
   1  -5  -4  319.27   19.30
  -1  -5   4  309.07   12.00
  -1  -5   4  327.37   14.80
   1  -5  -4  327.87   16.00
  -1  -5   4  320.27   19.80
  -1  -5   4  319.77   14.30
   1   5  -3   56.79    9.10
  -1   5   3   54.99    6.50
  -1   5   3   51.59    8.80
  -1   5   3   66.69    9.50
  -1   5   3   59.19    7.50
   1   5  -3   61.09    7.00
   1  -5  -3   54.99    9.00
   1  -5  -3   63.59    7.90
  -1  -5   3   60.09    5.80
   1  -5  -3   54.99    6.50
   1  -5  -3   56.09    8.30
  -1  -5   3   52.99    5.70
  -1  -5   3   60.89    5.50
   1  -5  -3   68.99    9.40
  -1  -5   3   54.79    6.50
  -1   5   2 1749.82   49.20
  -1   5   2 1788.32   45.70
   1   5  -2 1700.23   39.90
  -1   5   2 1697.63   49.60
   1   5  -2 1700.23   49.60
  -1   5   2 1749.22   46.00
   1   5  -2 1638.34   40.30
   1   5  -2 1735.73   43.60
  -1   5   2 1643.64   45.50
   1   5  -2 1735.73   43.40
   1  -5  -2 1742.23   47.60
   1  -5  -2 1736.13   50.19
  -1  -5   2 1712.33   42.10
   1  -5  -2 1686.13   44.90
   1  -5  -2 1684.33   50.29
  -1  -5   2 1808.02   43.10
   1  -5  -2 1701.33   49.10
  -1  -5   2 1719.53   43.80
  -1  -5   2 1739.93   43.50
  -1   5   1    2.40    2.30
  -1   5   1   -3.30    1.80
   1   5  -1   -1.20    1.70
  -1   5   1    0.70    2.90
   1   5  -1   -1.40    1.90
  -1   5   1    2.10    2.40
  -1   5   1    0.90    2.50
   1   5  -1   -1.60    2.50
   1   5  -1   -1.80    1.40
   1   5  -1    0.20    1.70
  -1  -5   1    0.50    2.40
   1  -5  -1    2.30    2.30
  -1  -5   1   -1.50    1.50
   1  -5  -1    3.10    2.70
   1  -5  -1    1.60    2.10
  -1  -5   1    1.40    1.80
  -1  -5   1    1.30    2.00
  -1  -5   1    2.30    2.40
   1  -5  -1    0.60    2.40
   1  -5  -1    1.50    2.70
   1   5   0 4894.01  112.99
  -1   5   0 4954.50  111.69
  -1   5   0 5000.80  112.49
   1   5   0 4917.51  108.29
  -1   5   0 4948.90  105.19
   1   5   0 5064.39  110.99
   1  -5   0 5034.10  111.89
  -1  -5   0 5135.69  109.89
  -1  -5   0 4903.11  111.49
  -1  -5   0 5051.89  104.29
   1  -5   0 4940.31  108.29
  -1  -5   0 5095.49  112.99
  -1  -5   0 4857.61  111.69
   1  -5   0 4962.60  111.29
  -1   5  -1 3213.18   78.89
  -1   5  -1 3236.98   73.49
  -1   5  -1 3144.99   74.49
   1   5   1 3239.78   69.69
   1   5   1 3027.10   74.39
  -1   5  -1 3232.68   74.49
  -1   5  -1 3220.78   68.39
   1   5   1 3227.78   77.79
   1   5   1 3217.68   77.69
  -1  -5  -1 3166.18   78.99
  -1  -5  -1 3238.08   71.19
   1  -5   1 3215.88   68.79
  -1  -5  -1 3267.57   76.59
   1  -5   1 3170.48   73.69
   1  -5   1 3178.58   75.19
   1  -5   1 3108.39   77.39
  -1  -5  -1 3177.68   76.79
  -1   5  -2   34.70    7.00
   1   5   2   34.60    6.70
  -1   5  -2   38.60    4.60
  -1   5  -2   33.60    6.40
   1   5   2   31.70    6.50
   1   5   2   37.30    5.50
   1   5   2   26.20    5.90
  -1  -5  -2   28.50    4.80
   1  -5   2   29.30    4.90
  -1  -5  -2   28.20    6.30
   1  -5   2   38.50    6.00
  -1  -5  -2   36.80    6.40
   1   5   3  527.65   22.00
  -1   5  -3  620.04   25.90
   1   5   3  621.34   23.60
   1   5   3  608.84   28.70
   1   5   3  626.34   27.40
  -1   5  -3  627.54   18.60
   1   5   3  641.84   27.50
  -1  -5  -3  658.33   27.30
  -1  -5  -3  684.63   28.80
   1  -5   3  612.24   21.80
   1  -5   3  623.14   27.80
   1   5   4  377.26   19.80
   1   5   4  386.56   22.20
   1   5   4  382.16   20.20
  -1   5  -4  392.56   21.90
   1   5   4  409.86   22.60
  -1  -5  -4  407.66   23.10
   1  -5   4  409.36   13.20
   1  -5   4  396.36   12.40
   1  -5   4  405.76   16.90
   1  -5   4  417.16   23.70
  -1  -5  -4  388.26   22.80
  -1   5  -5  290.87   20.50
   1   5   5  299.67   19.20
   1   5   5  315.57   21.20
   1   5   5  289.47   18.50
   1   5   5  259.67   19.20
   1  -5   5  293.07   11.80
   1  -5   5  275.47   14.00
   1  -5   5  300.17   11.60
  -1  -5  -5  316.17   21.60
  -1  -5  -5  285.77   20.00
   1  -5   5  284.07   21.10
   1   5   6  422.36   26.00
  -1   5  -6  440.76   28.00
   1   5   6  446.86   26.30
   1   5   6  494.75   28.40
   1   5   6  492.55   25.30
  -1  -5  -6  388.06   25.40
   1  -5   6  416.96   16.10
   1  -5   6  451.95   19.20
  -1  -5  -6  468.85   28.20
   1  -5   6  451.45   16.50
   1  -5   6  491.05   28.90
  -1   5  -7  177.68   19.10
   1   5   7  208.38   19.60
   1   5   7  182.08   18.50
   1  -5   7  169.98   18.80
   1  -5   7  137.39   10.10
  -1  -5  -7  186.18   18.70
   1  -5   7  170.48   12.00
   1   5   8   99.39   17.30
  -1   5  -8  114.19   19.20
   1   5   8   65.09   11.70
   1   5   8   81.19   15.80
  -1  -5  -8   76.59   15.50
  -1   6   8  368.16   27.30
  -1   6   8  320.87   20.20
  -1   6   8  364.26   26.50
  -1  -6   8  346.77   26.80
   1  -6  -8  367.76   27.80
  -1  -6   8  348.27   27.60
  -1   6   7   16.40    5.60
  -1   6   7    0.60    6.00
  -1   6   7    0.50    6.20
   1   6  -7    4.70    6.70
  -1  -6   7    5.70    4.90
   1  -6  -7   16.00    7.30
  -1  -6   7    8.90    5.10
  -1   6   6  532.45   29.80
  -1   6   6  484.35   27.40
  -1   6   6  512.15   23.60
  -1   6   6  514.55   28.40
   1   6  -6  529.85   28.80
  -1  -6   6  527.55   30.10
  -1  -6   6  527.05   21.60
  -1  -6   6  536.15   16.90
   1  -6  -6  543.65   31.00
   1  -6  -6  553.34   36.90
  -1   6   5   90.99   11.80
  -1   6   5  101.79   14.20
   1   6  -5  101.69   12.40
  -1   6   5  101.59    9.70
  -1   6   5   91.69   11.20
   1  -6  -5  107.59   13.50
   1  -6  -5   90.89   13.50
  -1  -6   5   96.79   14.30
  -1  -6   5  104.29    8.50
  -1  -6   5  104.59    8.60
  -1  -6   5   97.89    7.70
   1   6  -4 1568.54   52.59
   1   6  -4 1578.84   48.00
  -1   6   4 1554.94   50.49
  -1   6   4 1586.44   53.59
  -1   6   4 1560.14   48.00
   1  -6  -4 1651.23   52.39
  -1  -6   4 1580.94   41.60
  -1  -6   4 1514.85   40.30
   1  -6  -4 1608.54   52.79
  -1  -6   4 1554.74   43.40
  -1   6   3   10.90    5.10
  -1   6   3    6.20    4.00
  -1   6   3   11.00    6.00
   1   6  -3    4.00    5.00
  -1   6   3    6.00    4.30
   1   6  -3   20.60    5.30
  -1  -6   3    5.70    2.80
  -1  -6   3    6.20    2.70
   1  -6  -3    8.70    4.40
  -1  -6   3    6.80    2.70
   1  -6  -3    3.20    4.40
   1  -6  -3   -1.10    2.70
   1  -6  -3    4.30    4.00
  -1  -6   3    3.70    2.70
  -1   6   2   -1.20    2.40
   1   6  -2    4.00    2.10
  -1   6   2    1.30    3.10
  -1   6   2    7.40    4.00
   1   6  -2    5.00    3.00
   1   6  -2    2.30    2.40
  -1   6   2    3.40    3.20
   1   6  -2    2.60    3.80
   1  -6  -2    8.60    3.60
  -1  -6   2    8.80    3.30
   1  -6  -2    4.50    4.10
   1  -6  -2   -0.50    2.30
  -1  -6   2    6.20    2.40
   1  -6  -2    0.20    2.90
  -1  -6   2    2.00    2.20
   1  -6  -2    5.30    3.80
  -1   6   1   12.50    4.60
  -1   6   1   14.10    4.10
   1   6  -1    5.00    4.20
   1   6  -1   14.60    3.90
  -1   6   1   10.60    3.50
  -1   6   1    7.00    3.70
  -1   6   1    7.60    3.80
   1   6  -1    5.70    2.80
   1   6  -1   12.30    4.30
   1  -6  -1    6.80    3.30
  -1  -6   1    6.70    3.70
  -1  -6   1    9.00    3.70
   1  -6  -1   11.00    4.20
   1  -6  -1    9.20    4.50
   1  -6  -1    8.10    4.10
  -1  -6   1    5.20    3.00
  -1  -6   1    3.80    2.50
   1  -6  -1   10.10    3.80
   1   6   0   20.40    5.90
   1   6   0   16.50    4.20
  -1   6   0   16.40    3.50
  -1   6   0   21.80    5.00
   1   6   0   18.30    3.50
  -1   6   0   17.40    5.50
  -1  -6   0   14.40    4.70
   1  -6   0   22.40    5.00
   1  -6   0   15.40    4.40
  -1  -6   0   15.70    3.50
  -1  -6   0   12.00    4.80
  -1  -6   0   15.30    4.80
   1  -6   0   21.90    4.50
   1   6   1    3.70    3.70
  -1   6  -1    3.00    4.30
   1   6   1    4.70    3.50
  -1   6  -1    6.00    3.10
  -1   6  -1    6.50    3.50
  -1   6  -1    7.30    2.60
   1   6   1    9.20    3.10
   1  -6   1    7.10    2.40
   1  -6   1    3.30    3.10
  -1  -6  -1    7.20    4.50
  -1  -6  -1    7.30    3.10
   1  -6   1    4.20    3.20
  -1   6  -2  710.03   26.20
   1   6   2  665.23   27.10
   1   6   2  679.03   22.10
  -1   6  -2  624.44   21.50
   1   6   2  615.14   27.30
  -1   6  -2  635.14   28.30
   1   6   2  671.43   28.20
  -1  -6  -2  625.64   28.60
   1  -6   2  640.84   24.40
   1  -6   2  657.83   18.40
  -1  -6  -2  688.33   27.70
  -1  -6  -2  627.44   22.70
   1  -6   2  664.73   18.30
   1   6   3   33.40    7.50
  -1   6  -3   30.60    4.60
   1   6   3   33.90    7.40
   1   6   3   46.30    7.70
  -1   6  -3   36.60    7.80
   1   6   3   36.20    7.80
   1   6   3   36.60    6.70
  -1  -6  -3   58.49   10.30
   1  -6   3   43.30    6.90
  -1  -6  -3   35.50    8.30
   1  -6   3   50.69    9.50
   1   6   4  111.69   11.70
   1   6   4  116.29   11.70
  -1   6  -4  118.19   12.70
   1   6   4  105.09   11.00
  -1  -6  -4  130.99   13.80
   1  -6   4  107.39   12.30
   1  -6   4  107.09    9.10
  -1  -6  -4   78.09   12.20
  -1   6  -5   16.30    6.60
   1   6   5   10.40    6.40
   1   6   5   17.20    6.60
   1   6   5    6.20    5.30
   1  -6   5   13.90    4.00
   1  -6   5   13.70    2.80
  -1  -6  -5    8.80    5.90
   1  -6   5   11.80    2.50
   1   6   6    2.60    5.30
   1   6   6    0.70    5.70
  -1   6  -6   -2.10    5.20
   1   6   6    2.40    5.00
   1  -6   6   -0.90    1.90
   1  -6   6    1.40    3.10
   1  -6   6   -1.70    6.10
  -1  -6  -6    1.80    5.40
  -1  -6  -6   -3.10    6.00
   1   6   7   87.19   13.80
   1   6   7  121.29   15.70
   1   6   7  102.09   16.90
  -1   6  -7  118.69   18.00
   1  -6   7  104.89   16.30
  -1  -6  -7  124.39   18.80
   1  -6   7  101.69    9.60
   1   7  -7   -5.50    6.20
  -1   7   7    5.30    5.70
  -1   7   7   11.30    7.80
  -1   7   7   -4.20    6.60
  -1  -7   7    2.60    5.20
   1  -7  -7    5.00    6.60
  -1  -7   7   12.00    2.20
  -1  -7   7   -5.30    4.10
  -1   7   6   25.30    8.90
   1   7  -6   25.10    8.40
  -1   7   6   10.50    6.80
  -1   7   6   15.30    5.80
  -1  -7   6   13.10    8.00
   1  -7  -6    9.20    7.10
   1  -7  -6   35.00   10.90
  -1  -7   6   17.50    3.60
  -1  -7   6   12.30    5.20
   1   7  -5   16.80    6.60
  -1   7   5   26.30    8.60
  -1   7   5   15.60    5.80
  -1   7   5   13.90    6.70
  -1  -7   5   11.70    3.50
  -1  -7   5   26.30    7.80
  -1  -7   5   19.10    4.20
   1  -7  -5   26.50    8.40
  -1  -7   5   21.30    4.70
   1  -7  -5   13.80    6.50
  -1   7   4  147.99   12.40
  -1   7   4  161.38   13.30
   1   7  -4  151.98   15.80
   1   7  -4  139.79   12.30
  -1   7   4  158.78   16.10
   1  -7  -4  181.18   16.90
  -1  -7   4  138.49   10.00
  -1  -7   4  129.79    9.70
  -1  -7   4  153.08   10.40
   1  -7  -4  174.38   15.70
  -1   7   3   28.50    7.60
   1   7  -3   30.30    8.60
   1   7  -3   39.90    7.40
  -1   7   3   29.30    6.80
  -1   7   3   37.30    7.20
  -1  -7   3   28.90    5.50
   1  -7  -3   39.60    8.10
  -1  -7   3   32.00    5.40
  -1  -7   3   45.00    6.80
  -1  -7   3   36.20    6.20
   1  -7  -3   26.90    7.50
   1  -7  -3   47.00    9.30
  -1   7   2 1153.98   41.00
   1   7  -2 1067.19   33.80
  -1   7   2 1169.58   39.00
   1   7  -2 1142.09   42.40
   1   7  -2 1207.78   34.70
   1  -7  -2 1081.19   40.60
   1  -7  -2 1163.38   42.60
  -1  -7   2 1149.98   37.50
  -1  -7   2 1194.98   34.70
   1  -7  -2 1190.18   39.40
  -1  -7   2 1183.98   41.50
  -1   7   1   13.10    5.00
  -1   7   1   11.00    4.70
  -1   7   1   17.00    6.10
   1   7  -1   18.90    6.70
   1   7  -1   11.90    3.90
  -1   7   1    8.80    3.60
   1   7  -1    8.20    3.80
  -1  -7   1    6.00    4.10
   1  -7  -1   18.20    5.70
   1  -7  -1   17.50    5.20
   1  -7  -1   15.00    5.70
   1  -7  -1   12.30    5.10
  -1  -7   1   10.30    3.80
  -1  -7   1   12.30    4.90
  -1  -7   1   11.90    3.70
  -1   7   0  236.88   16.60
   1   7   0  246.78   11.10
  -1   7   0  210.48   12.70
   1   7   0  247.48   16.60
  -1  -7   0  245.08   14.70
  -1  -7   0  235.28   16.30
   1  -7   0  254.07   16.20
  -1  -7   0  203.68   15.00
   1  -7   0  234.78   13.50
  -1  -7   0  241.38   11.60
   1  -7   0  215.18   12.40
  -1   7  -1  897.21   32.90
   1   7   1  890.11   33.10
   1   7   1  864.01   25.10
  -1   7  -1  809.92   28.60
  -1   7  -1  823.32   34.10
  -1   7  -1  816.12   24.50
   1   7   1  845.92   33.30
   1  -7   1  837.82   25.40
  -1  -7  -1  792.72   26.10
  -1  -7  -1  866.31   31.90
  -1  -7  -1  875.71   34.90
   1  -7   1  833.42   31.40
   1   7   2  290.87   19.00
   1   7   2  288.87   13.70
  -1   7  -2  273.67   13.80
  -1   7  -2  330.87   21.00
   1   7   2  316.27   19.00
  -1   7  -2  281.17   16.80
  -1  -7  -2  279.17   16.30
  -1  -7  -2  306.07   20.70
   1  -7   2  294.47   11.50
   1  -7   2  283.37   11.40
  -1  -7  -2  273.27   18.00
   1  -7   2  287.57   16.50
   1   7   3  397.86   23.70
   1   7   3  389.26   22.00
   1   7   3  376.06   18.80
   1   7   3  425.56   18.70
  -1   7  -3  398.16   21.60
  -1  -7  -3  422.16   23.60
   1  -7   3  393.06   14.10
  -1  -7  -3  413.86   25.00
   1  -7   3  403.86   19.60
   1  -7   3  394.06   24.40
   1   7   4   12.10    5.60
  -1   7  -4   10.70    5.80
   1   7   4   19.50    7.60
   1   7   4   14.70    5.60
   1  -7   4   14.00    6.80
  -1  -7  -4   18.10    8.00
   1  -7   4   14.00    1.80
   1  -7   4   11.50    4.20
  -1  -7  -4   19.30    7.40
   1  -7   4   16.40    2.20
   1   7   5  164.28   15.40
  -1   7  -5  203.38   20.80
   1   7   5  225.28   17.70
   1   7   5  206.28   19.40
   1  -7   5  226.88   19.90
   1  -7   5  216.58   13.90
  -1  -7  -5  187.18   18.70
  -1  -7  -5  225.68   20.20
   1   7   6  183.58   20.20
  -1   7  -6  200.58   19.40
   1   7   6  188.68   16.50
  -1  -7  -6  176.78   20.60
   1  -7   6  168.18   12.50
  -1  -7  -6  180.88   18.60
   1  -7   6  209.08   21.20
   1   7   7   44.00   11.20
  -1   7  -7   39.00   10.50
   1   7   7   38.40    9.40
   1   7   7   45.50   11.70
   1  -7   7   36.40   11.30
   1  -7   7   42.40    7.10
  -1  -7  -7   55.19   12.80
   1   8  -6   88.79   14.10
  -1   8   6  112.49   12.70
  -1   8   6   73.39   13.90
  -1   8   6  124.79   23.90
   1  -8  -6  102.59   15.90
  -1  -8   6  107.19    8.40
  -1  -8   6  102.49   17.40
   1   8  -5  337.57   21.40
  -1   8   5  379.06   26.10
  -1   8   5  348.77   20.90
  -1   8   5  346.67   21.60
  -1  -8   5  316.07   18.00
   1  -8  -5  320.37   24.20
   1  -8  -5  305.47   24.30
  -1  -8   5  332.97   25.30
  -1  -8   5  361.46   17.00
   1   8  -4   72.79   10.80
   1   8  -4   60.69   12.10
  -1   8   4   59.89    9.60
  -1   8   4   54.79    9.80
  -1   8   4   86.69   13.70
   1  -8  -4   71.29   12.80
  -1  -8   4   53.39    7.90
  -1  -8   4   51.39    7.40
   1   8  -3  431.16   26.70
   1   8  -3  468.15   21.50
  -1   8   3  388.46   20.20
  -1   8   3  414.06   25.10
  -1   8   3  421.16   22.60
   1  -8  -3  470.65   27.70
   1  -8  -3  445.06   24.80
  -1  -8   3  445.26   21.00
  -1  -8   3  452.95   19.10
   1   8  -2   90.19    8.70
  -1   8   2   87.39   11.00
   1   8  -2   76.29   11.90
  -1   8   2   89.99    9.50
  -1   8   2   66.89   10.70
   1  -8  -2   73.69   12.20
  -1  -8   2   75.69    9.20
  -1  -8   2   88.79   10.60
   1  -8  -2   91.59   11.00
  -1  -8   2   68.89    9.80
  -1  -8   2   64.89    7.60
  -1   8   1   85.69   10.80
   1   8  -1  102.39    8.30
  -1   8   1   80.09    8.80
   1   8  -1   98.59   11.90
   1   8  -1   82.79    9.10
  -1   8   1   84.99   10.50
  -1  -8   1   71.39    7.20
  -1  -8   1  102.79   11.70
   1  -8  -1   89.09   12.60
  -1  -8   1   87.49   10.40
   1  -8  -1  104.39   10.70
  -1  -8   1   94.99    9.50
  -1   8   0  410.46   23.20
  -1   8   0  376.56   18.20
   1   8   0  361.46   14.90
   1   8   0  350.46   21.80
  -1  -8   0  377.26   19.70
   1  -8   0  323.07   23.50
   1  -8   0  363.56   17.60
  -1  -8   0  361.86   21.80
  -1  -8   0  337.87   15.30
   1   8   1    0.10    3.90
   1   8   1    3.50    3.90
  -1   8  -1    9.40    5.60
   1   8   1    9.70    3.40
  -1   8  -1    9.10    4.70
  -1   8  -1    2.60    3.00
   1  -8   1    6.90    3.50
  -1  -8  -1    7.40    5.50
   1  -8   1    8.20    4.20
  -1  -8  -1    4.60    3.30
  -1  -8  -1   10.00    6.00
  -1   8  -2  437.56   26.10
  -1   8  -2  459.05   22.60
  -1   8  -2  401.86   18.10
   1   8   2  426.86   24.20
   1   8   2  433.46   17.50
   1   8   2  424.16   24.30
   1  -8   2  398.96   15.20
  -1  -8  -2  401.66   23.30
   1  -8   2  442.96   22.50
   1  -8   2  404.86   14.90
  -1  -8  -2  369.26   17.90
  -1  -8  -2  462.95   26.90
   1   8   3  170.98   16.00
   1   8   3  163.98   12.10
   1   8   3  168.28   15.40
  -1   8  -3  173.28   14.80
   1  -8   3  148.39   12.80
   1  -8   3  155.28    7.30
  -1  -8  -3  150.38   15.10
  -1  -8  -3  178.58   17.60
   1  -8   3  159.98    7.90
  -1   8  -4  335.37   22.10
   1   8   4  335.37   23.70
   1   8   4  355.76   22.50
   1   8   4  334.77   18.90
   1  -8   4  334.67   19.10
  -1  -8  -4  339.17   24.60
   1  -8   4  325.27   24.50
  -1  -8  -4  339.07   24.20
   1   8   5   56.79   12.50
  -1   8  -5   67.39   12.50
   1   8   5   61.29   11.10
   1   8   5   64.39   11.90
  -1  -8  -5   47.30   11.50
   1  -8   5   52.99   12.70
  -1  -8  -5   38.50   12.80
   1   8   6    3.90    6.30
  -1   8  -6   -2.30    5.40
   1   8   6  -12.30    5.10
   1   8   6  -10.40    5.80
   1  -8   6   -1.10    3.80
   1  -8   6    6.10    7.80
   1   9  -6  -13.10    6.60
  -1   9   6   -9.00    6.50
  -1   9   6   -2.40    5.10
  -1   9   6    2.20    7.90
   1  -9  -6  -14.80    5.70
  -1  -9   6    4.90    5.60
  -1   9   5  383.46   27.90
  -1   9   5  360.86   22.30
  -1   9   5  309.37   21.00
   1   9  -5  332.97   21.70
  -1  -9   5  337.57   26.70
   1  -9  -5  313.87   24.00
  -1  -9   5  295.67   17.30
  -1   9   4   13.50    6.70
   1   9  -4    5.00    5.30
  -1   9   4   -5.40    5.00
   1   9  -4    5.70    5.30
  -1   9   4   -3.30    7.10
  -1  -9   4   12.90    4.60
   1  -9  -4   20.20    8.30
  -1  -9   4   -1.70    3.40
   1  -9  -4   13.90    6.30
  -1   9   3   94.19   14.60
  -1   9   3  107.29   11.30
   1   9  -3   99.29   15.70
   1   9  -3  101.89   11.00
  -1   9   3  111.19   12.80
   1  -9  -3  105.69   13.30
  -1  -9   3   94.49    9.50
  -1  -9   3  101.89   11.00
  -1   9   2   10.10    4.70
   1   9  -2    2.70    3.10
  -1   9   2   -0.40    4.50
   1   9  -2    1.00    3.30
  -1   9   2    3.00    4.80
   1   9  -2   10.40    7.00
  -1  -9   2    6.20    4.30
  -1  -9   2    4.40    4.80
   1  -9  -2    7.20    4.80
   1  -9  -2   20.20    6.00
   1   9  -1   13.50    4.40
  -1   9   1   12.40    6.10
  -1   9   1   16.00    5.10
  -1   9   1   12.30    5.80
   1   9  -1    1.80    4.90
  -1  -9   1    5.60    4.00
  -1  -9   1   10.50    5.30
   1  -9  -1   10.80    4.70
  -1  -9   1   11.90    6.20
   1  -9  -1   19.20    6.30
  -1  -9   1   19.60    6.30
  -1   9   0   10.20    4.70
  -1   9   0   18.20    7.20
   1   9   0    6.90    3.00
   1   9   0    5.30    4.40
   1   9   0    0.60    5.10
  -1   9   0    0.40    4.50
  -1  -9   0    5.90    5.70
   1  -9   0    2.80    4.50
  -1  -9   0   15.00    5.70
   1  -9   0    5.10    4.40
   1   9   1  297.27   20.00
   1   9   1  296.17   13.80
  -1   9  -1  284.47   17.40
  -1   9  -1  266.17   13.80
  -1   9  -1  267.57   17.10
  -1   9  -1  337.57   23.00
   1   9   1  292.17   21.10
  -1  -9  -1  293.07   21.70
   1  -9   1  269.17   19.40
  -1  -9  -1  288.67   19.30
  -1  -9  -1  272.57   14.60
   1  -9   1  297.17   15.30
  -1   9  -2  142.19   15.50
   1   9   2  169.38   10.90
   1   9   2  154.38   16.30
  -1   9  -2  151.98   13.40
  -1   9  -2  137.79   14.50
   1   9   2  163.78   16.40
   1  -9   2  147.39    8.70
   1  -9   2  152.28    9.70
  -1  -9  -2  174.98   12.80
   1  -9   2  160.28   14.90
  -1  -9  -2  135.39   16.40
  -1  -9  -2  190.08   16.90
  -1   9  -3  303.07   20.60
   1   9   3  265.67   21.80
   1   9   3  280.07   15.40
   1   9   3  284.77   21.00
   1  -9   3  236.78   12.40
   1  -9   3  278.27   18.40
   1  -9   3  280.17   22.60
  -1  -9  -3  324.97   23.10
  -1  -9  -3  297.07   23.70
  -1   9  -4  113.39   13.80
   1   9   4   81.19   13.90
   1   9   4  122.99   13.50
   1   9   4   91.59   11.30
  -1  -9  -4   80.39   15.30
  -1  -9  -4   90.29   14.80
   1  -9   4   91.69   11.10
   1  -9   4  111.89   17.00
   1   9   5   13.40    6.60
  -1   9  -5    9.00    8.10
   1   9   5   -5.70    6.50
   1   9   5    4.20    8.30
   1  -9   5    5.10    6.30
   1  -9   5    0.90    4.90
  -1  -9  -5    7.00    8.40
  -1  -9  -5   -1.40    5.70
  -1  10   5   66.69   15.60
  -1  10   5   53.79   10.20
   1  10  -5   51.89   10.70
  -1  10   5   36.60   10.20
  -1 -10   5   43.20   12.20
  -1  10   4   37.00    9.40
  -1  10   4   62.39   13.10
   1  10  -4   30.20    8.80
   1  10  -4   18.70    9.00
  -1 -10   4   32.20    6.40
   1 -10  -4   31.60    9.10
   1  10  -3  105.59   11.70
  -1  10   3  101.19   11.00
  -1  10   3   99.69   15.40
  -1  10   3   92.49   13.40
   1  10  -3   78.69   14.60
   1 -10  -3   91.19   14.40
  -1 -10   3   83.89   11.80
  -1 -10   3   99.89   10.00
  -1  10   2   17.40    6.10
   1  10  -2   12.80    5.60
  -1  10   2   16.70    8.60
   1  10  -2   19.60    8.10
  -1  10   2   -1.40    4.80
   1 -10  -2   20.90    8.20
  -1 -10   2   17.10    6.50
   1  10  -1  728.33   37.70
  -1  10   1  699.63   34.00
  -1  10   1  760.52   29.50
  -1  10   1  782.02   36.80
   1 -10  -1  726.33   31.20
  -1 -10   1  695.63   29.90
  -1  10   0   90.69   15.30
   1  10   0  116.79   14.50
   1  10   0   95.59    8.60
  -1  10   0   97.39   10.60
  -1  10   0   92.59   15.10
  -1 -10   0   97.69   12.00
  -1 -10   0   65.49   12.30
   1 -10   0   99.29   11.20
   1  10   1  208.68   12.00
  -1  10  -1  238.68   16.50
  -1  10  -1  213.18   20.10
   1  10   1  226.88   20.00
   1 -10   1  214.28   13.90
  -1 -10  -1  230.98   21.30
   1  10   2   89.89   14.60
   1  10   2   64.49   13.00
  -1  10  -2   83.09   10.90
  -1  10  -2   75.49   14.30
  -1 -10  -2   80.19   13.60
   1 -10   2   73.79    7.60
   1  10   3    1.90    3.60
   1  10   3   -8.00    8.60
   1  10   3   -5.10    5.80
  -1 -10  -3   -2.40    6.00
  -1 -10  -3  -11.30    4.60
   1 -10   3   -4.40    6.50
   1  10   4   98.59   17.80
   1  10   4  144.39   16.50
  -1  10  -4   98.39   14.20
  -1 -10  -4   87.99   15.10
  -1 -10  -4  107.49   18.90
   1  11  -3   14.60    8.50
  -1  11   3   29.00    8.90
   1  11  -3   12.70    9.00
  -1 -11   3    8.10    5.00
   1 -11  -3   13.10    7.20
   1  11  -2  176.18   19.00
   1  11  -2  192.48   15.60
  -1  11   2  190.18   15.20
  -1  11   2  191.28   19.00
  -1 -11   2  202.88   15.00
   1 -11  -2  196.88   18.40
  -1  11   1   41.40   10.10
  -1  11   1   29.40    7.20
   1  11  -1   37.30   10.50
  -1 -11   1   29.00    7.70
   1 -11  -1   41.60    9.20
   1  11   0  179.18   19.60
  -1  11   0  197.58   15.60
  -1  11   0  226.38   21.10
  -1 -11   0  209.38   17.60
   1 -11   0  209.48   15.70
  -1  11  -1   12.10    6.60
   1  11   1    8.20    7.80
  -1  11  -1   31.30    9.30
  -1 -11  -1   11.50    7.60
   1 -11   1    6.40    5.30
  -1 -11  -1   25.60    9.00
  -1  11  -2    7.00    6.70
   1  11   2   -3.20    6.50
  -1 -11  -2   -7.80    5.10
  -1 -11  -2    6.30    8.10
  -2   0   9  -14.20    5.60
  -2   0   9  -11.60    5.90
  -2   0   9    0.20    3.50
  -2   0   9   -2.20    4.00
   2   0  -9    0.90    6.60
   2   0  -8  149.49   17.80
  -2   0   8  128.09   12.80
  -2   0   8  150.98   12.00
  -2   0   8  133.49   11.60
  -2   0   8  135.59   17.00
  -2   0   7   -2.40    2.50
   2   0  -7    4.10    5.40
  -2   0   7    1.70    3.70
  -2   0   7    1.30    2.90
  -2   0   7    0.00    5.20
  -2   0   6  234.18   12.80
   2   0  -6  252.67   16.90
  -2   0   6  245.28   13.80
  -2   0   6  240.48   13.40
  -2   0   6  218.28   12.30
  -2   0   6  235.08   17.90
  -2   0   5    1.90    1.90
  -2   0   5   -2.70    1.60
  -2   0   5   -0.60    2.40
  -2   0   5   -1.50    2.00
  -2   0   5   -1.40    1.60
  -2   0   4  269.77   11.40
  -2   0   4  260.57   15.10
  -2   0   4  279.27   14.90
  -2   0   4  282.57   14.50
  -2   0   4  294.17   11.70
  -2   0   4  282.57   11.40
   2   0  -4  283.67   14.80
  -2   0   4  286.77   11.60
  -2   0   3    0.60    1.50
   2   0  -3    0.80    2.70
  -2   0   3    0.20    1.60
   2   0  -3    1.50    3.20
  -2   0   3   -0.20    1.50
  -2   0   3    0.70    1.70
  -2   0   3    2.10    3.10
  -2   0   3   -0.30    1.90
  -2   0   2 9362.26  203.88
   2   0  -2 9340.57  203.58
  -2   0   1   -0.10    1.40
   2   0  -1    0.40    1.10
  -2   0   1    1.30    1.20
   2   0  -1    2.70    1.90
   2   0  -1   -0.80    1.00
  -2   0   1    0.00    1.60
  -2   0   1    1.90    1.50
   2   0  -1    1.00    1.70
  -2   0   0 8596.24  193.78
  -2   0  -1    0.80    1.90
   2   0   1   -3.10    1.70
   2   0   1    1.80    1.90
  -2   0  -1   -0.50    1.60
   2   0   1    0.20    1.40
  -2   0  -1    0.90    1.40
   2   0   1    0.20    1.30
  -2   0  -1    0.00    1.90
   2   0   2  989.60   28.40
  -2   0  -2 1018.30   27.00
  -2   0  -2 1029.40   30.00
   2   0   2 1075.99   30.80
  -2   0  -2 1011.60   29.70
   2   0   2  997.50   26.20
   2   0   2 1001.30   28.50
   2   0   3    0.30    2.00
   2   0   3   -0.10    3.10
  -2   0  -3    3.90    3.90
  -2   0  -3   -1.30    1.70
   2   0   3    0.80    2.40
   2   0   3    1.60    1.90
  -2   0  -3    1.10    2.20
  -2   0  -3   -0.50    2.10
   2   0   4 1328.67   41.80
  -2   0  -4 1269.57   37.40
   2   0   4 1237.18   37.30
  -2   0  -4 1311.77   42.10
  -2   0  -4 1242.68   37.00
   2   0   4 1254.77   36.10
  -2   0  -5    0.80    4.60
   2   0   5   -1.10    3.60
  -2   0  -5   -1.10    2.90
   2   0   5    2.20    3.10
   2   0   6  972.30   38.80
  -2   0  -6  961.20   40.90
  -2   0  -6  958.40   35.40
  -2   0  -6  892.91   31.80
   2   0   6  937.21   34.50
   2   0   7   -2.70    4.40
   2   0   7   -0.50    4.80
   2   0   7    2.20    6.70
  -2   0  -7   -0.80    5.60
  -2   0  -7   -2.50    4.20
  -2   0  -8    6.00    5.70
   2   0   8    1.90    7.30
   2   0   8   -1.40    6.20
  -2   1   9   40.90   10.80
  -2   1   9   86.29   16.40
  -2   1   9   31.70    8.40
   2   1  -9   51.59   12.10
  -2   1   9   65.09   10.30
  -2  -1   9   56.39    8.00
   2  -1  -9   67.29   12.40
  -2  -1   9   59.89   14.80
  -2  -1   9   41.20   11.30
  -2  -1   9   72.49    8.40
  -2   1   8  611.84   34.60
   2   1  -8  579.44   29.80
  -2   1   8  617.04   27.20
  -2   1   8  596.64   27.30
  -2  -1   8  626.64   23.80
  -2  -1   8  652.13   29.20
  -2  -1   8  634.14   35.50
   2  -1  -8  653.43   33.00
  -2  -1   8  572.24   22.70
  -2   1   7   26.60    6.30
  -2   1   7   39.40    9.80
   2   1  -7   49.20    9.20
  -2   1   7   34.10    6.60
  -2   1   7   35.30    7.10
  -2  -1   7   26.60    4.80
  -2  -1   7   30.10    5.40
  -2  -1   7   52.09    8.80
  -2  -1   7   42.20   10.90
   2  -1  -7   23.90    6.90
  -2   1   6 1441.86   41.80
  -2   1   6 1376.36   39.30
  -2   1   6 1408.26   48.80
  -2   1   6 1416.26   39.20
  -2   1   6 1415.26   41.20
   2   1  -6 1404.66   44.60
  -2  -1   6 1339.47   41.20
  -2  -1   6 1215.88   46.50
  -2  -1   6 1493.95   42.50
   2  -1  -6 1342.87   45.80
  -2  -1   6 1392.46   36.50
  -2  -1   6 1401.56   36.70
  -2   1   5    4.60    4.00
  -2   1   5    2.90    2.70
  -2   1   5    5.50    2.70
  -2   1   5    2.30    2.40
   2   1  -5    4.00    3.60
  -2  -1   5    3.40    3.20
  -2  -1   5    5.00    2.70
  -2  -1   5    6.80    2.20
   2  -1  -5    6.00    3.80
  -2  -1   5    4.00    1.90
   2  -1  -5    4.90    2.60
  -2  -1   5   -0.20    3.70
  -2   1   4  128.89    7.00
  -2   1   4  136.59   10.50
  -2   1   4  129.99    8.80
  -2   1   4  120.79    9.70
  -2   1   4  126.89   10.80
   2   1  -4  144.09   10.10
  -2   1   4  146.09    9.00
  -2  -1   4  139.49    8.40
  -2  -1   4  131.69   10.60
  -2  -1   4  145.99   10.50
   2  -1  -4  125.29   10.20
  -2  -1   4  144.99    6.60
   2  -1  -4  130.69    7.00
  -2  -1   4  137.19    6.20
  -2  -1   4  150.68    9.00
  -2   1   3 4700.93  103.19
  -2   1   3 4649.63  102.49
  -2   1   3 4799.92   99.89
  -2   1   3 4647.83   99.19
   2  -1  -3 4629.14   98.19
  -2  -1   3 4643.24   97.99
   2  -1  -3 4708.03  102.59
  -2  -1   3 4696.33   98.49
  -2  -1   3 4702.13   93.79
   2  -1  -3 4672.03  103.49
  -2  -1   3 4701.13  101.69
  -2  -1   3 4564.34  101.19
   2  -1  -3 4513.45   94.09
  -2  -1   3 4144.89  100.99
   2   1  -2  941.01   20.50
   2   1  -2  989.70   26.40
  -2   1   2  961.30   26.80
  -2   1   2  985.30   25.70
  -2   1   2 1055.69   27.60
  -2  -1   2  958.90   26.50
   2  -1  -2  966.50   25.40
  -2  -1   2  986.50   25.90
  -2  -1   2  996.50   22.20
  -2  -1   2  992.50   25.90
   2  -1  -2  963.10   27.30
  -2  -1   2  996.60   25.80
   2  -1  -2  982.70   27.00
   2   1  -1    3.30    1.70
   2   1  -1    1.70    1.40
   2   1  -1    4.50    1.80
   2   1  -1    3.70    1.40
  -2   1   1    6.40    2.50
  -2   1   1    4.00    2.20
  -2   1   1    2.80    1.80
  -2   1   1    4.50    1.20
  -2  -1   1    3.30    1.40
   2  -1  -1    2.50    2.10
   2  -1  -1    3.90    1.80
  -2  -1   1    4.00    1.50
   2  -1  -1    5.70    2.10
   2  -1  -1    4.00    1.20
  -2  -1   1    2.90    2.10
  -2  -1   1    5.30    2.00
   2   1   0 2810.82   57.69
  -2   1  -1    3.80    2.60
   2   1   1    1.50    2.00
  -2   1  -1    4.30    2.20
   2   1   1    7.70    2.30
  -2   1  -1    1.40    2.20
   2   1   1    5.50    2.10
   2   1   1   -0.20    2.30
  -2   1  -1    2.90    1.30
   2  -1   1    5.30    2.40
  -2  -1  -1    3.20    2.00
   2  -1   1    3.10    1.90
  -2  -1  -1    6.80    2.60
   2  -1   1    6.30    2.40
   2  -1   1    3.10    1.10
  -2  -1  -1    4.90    2.30
  -2  -1  -1    4.70    2.00
  -2   1  -2 1015.90   25.20
   2   1   2  969.60   28.70
   2   1   2  949.60   27.60
   2   1   2  962.00   27.10
  -2   1  -2 1048.80   30.50
  -2   1  -2  979.50   29.70
   2   1   2 1054.49   30.30
   2  -1   2 1012.90   30.10
   2  -1   2  996.90   27.60
  -2  -1  -2  998.50   28.70
  -2  -1  -2  999.60   28.10
   2  -1   2  979.90   24.10
  -2  -1  -2  991.30   29.40
  -2  -1  -2  947.21   29.00
   2  -1   2  989.10   28.80
   2   1   3 1531.95   42.00
  -2   1  -3 1541.65   44.30
   2   1   3 1525.55   43.30
  -2   1  -3 1614.54   40.30
   2   1   3 1534.15   40.40
  -2   1  -3 1531.95   38.30
  -2   1  -3 1503.35   43.60
   2   1   3 1538.75   45.50
  -2  -1  -3 1580.34   43.60
   2  -1   3 1535.25   44.10
  -2  -1  -3 1583.84   42.00
  -2  -1  -3 1453.45   42.50
   2  -1   3 1494.35   37.20
   2  -1   3 1485.75   40.00
   2  -1   3 1503.45   42.30
  -2   1  -4   -1.00    3.30
   2   1   4    2.80    3.00
  -2   1  -4   -0.10    2.20
  -2   1  -4    1.60    2.40
   2   1   4   -1.80    1.80
   2   1   4    5.30    4.50
   2  -1   4    1.50    1.90
   2  -1   4    3.00    2.40
  -2  -1  -4    1.10    3.10
  -2  -1  -4    1.60    2.80
   2  -1   4    2.70    3.00
  -2  -1  -4   -1.00    2.60
  -2   1  -5   79.29    8.40
   2   1   5   58.89   10.10
  -2   1  -5   75.79   11.90
   2   1   5   67.49    8.50
  -2   1  -5   82.19    8.00
   2  -1   5   76.99    8.50
  -2  -1  -5   78.89    9.70
   2  -1   5   74.69    7.00
   2  -1   5   93.49   11.40
  -2  -1  -5   77.89    9.20
  -2  -1  -5  109.09   12.20
  -2   1  -6  102.79   15.30
   2   1   6   76.59   11.80
   2   1   6   52.39    9.00
  -2   1  -6   75.39    9.30
   2   1   6   81.99   14.20
  -2   1  -6   61.99   10.60
  -2  -1  -6   72.29   12.40
   2  -1   6   60.89   10.70
  -2  -1  -6   60.49    8.80
   2  -1   6   64.19   10.50
  -2  -1  -6   48.50    9.50
  -2   1  -7    7.10    7.00
   2   1   7   12.30    5.50
  -2   1  -7   11.20    5.90
   2   1   7    5.70    7.00
  -2  -1  -7   12.10    6.40
   2  -1   7    8.30    7.20
   2  -1   7    0.20    4.10
   2   1   8  146.69   18.70
  -2   1  -8  154.08   15.60
   2   1   8  149.88   16.10
   2   1   8  155.98   18.10
  -2  -1  -8  168.58   16.70
   2  -1   8  146.79   19.10
   2  -1   8  154.78   17.40
   2   2  -9   38.10   10.50
  -2   2   9   31.10   11.80
  -2   2   9   26.00    7.80
  -2   2   9   34.40    8.30
   2  -2  -9   40.20    9.80
  -2  -2   9   41.00    5.90
  -2  -2   9   37.40    5.60
  -2  -2   9   40.30    9.50
  -2  -2   9   48.50   13.60
  -2   2   8   12.00    7.90
  -2   2   8   -1.90    4.60
  -2   2   8    4.00    3.80
  -2   2   8    0.10    4.00
   2   2  -8    1.40    4.60
   2  -2  -8   -9.00    4.50
  -2  -2   8   10.40    8.30
  -2  -2   8    4.70    2.90
  -2  -2   8    8.70    3.30
  -2  -2   8    2.30    5.20
  -2   2   7  262.27   17.30
   2   2  -7  237.48   16.70
  -2   2   7  233.78   14.20
  -2   2   7  236.58   19.90
  -2   2   7  242.28   16.40
  -2  -2   7  251.37   11.40
   2  -2  -7  239.08   18.80
  -2  -2   7  221.18   19.20
  -2  -2   7  236.28   16.40
   2  -2  -7  201.48   13.20
  -2  -2   7  233.08   10.80
   2   2  -6    6.30    4.50
  -2   2   6    6.20    3.60
  -2   2   6    2.80    3.10
  -2   2   6    3.80    4.00
  -2   2   6    1.70    3.00
   2  -2  -6    0.60    2.80
  -2  -2   6    1.80    4.30
  -2  -2   6    7.60    5.50
  -2  -2   6    4.90    1.90
   2  -2  -6    1.10    2.80
  -2  -2   6    1.50    1.60
  -2   2   5   62.19    7.90
   2   2  -5   91.29    8.90
  -2   2   5   90.19   10.10
  -2   2   5   93.39    8.90
  -2   2   5   87.59    6.80
  -2  -2   5   89.99    4.70
  -2  -2   5   68.89    8.10
  -2  -2   5   84.29    4.60
   2  -2  -5   90.49   10.10
  -2  -2   5   75.09    9.40
  -2  -2   5   69.29    8.80
  -2  -2   5   83.59    8.00
   2  -2  -5   84.79    6.80
  -2   2   4 1952.40   54.19
  -2   2   4 2004.60   51.99
  -2   2   4 1989.10   51.29
   2   2  -4 1981.50   50.79
  -2   2   4 1963.20   45.00
  -2   2   4 1979.00   53.49
   2  -2  -4 1943.21   54.39
  -2  -2   4 1980.80   50.79
  -2  -2   4 1961.10   50.19
  -2  -2   4 1967.10   52.49
  -2  -2   4 1965.00   41.00
  -2  -2   4 1972.90   53.19
   2  -2  -4 1991.50   53.79
  -2  -2   4 1989.10   40.90
   2  -2  -4 1961.20   45.30
  -2   2   3   36.30    3.10
  -2   2   3   35.30    6.10
   2   2  -3   35.40    5.50
  -2   2   3   29.70    6.00
  -2   2   3   30.70    5.30
  -2   2   3   29.90    5.10
   2   2  -3   44.60    6.00
  -2  -2   3   33.70    1.60
   2  -2  -3   30.60    5.80
   2  -2  -3   35.10    6.40
  -2  -2   3   33.70    5.20
   2  -2  -3   29.10    3.00
  -2  -2   3   34.60    5.40
  -2  -2   3   27.10    4.60
   2  -2  -3   35.10    5.30
  -2  -2   3   31.80    5.80
   2   2  -2  154.48    8.60
  -2   2   2  164.48    9.50
  -2   2   2  153.18    9.00
  -2   2   2  148.39    5.40
  -2   2   2  162.48    9.40
  -2   2   2  158.38    8.80
   2  -2  -2  148.19    8.70
   2  -2  -2  160.98    9.10
  -2  -2   2  149.79    5.60
  -2  -2   2  165.68    7.90
  -2  -2   2  146.39    8.10
  -2  -2   2  164.68    8.70
  -2  -2   2  159.98    7.50
   2  -2  -2  152.08    5.50
  -2  -2   2  157.58    8.60
   2  -2  -2  155.68    9.40
  -2   2   1 3413.16   71.49
  -2   2   1 3392.76   78.39
   2   2  -1 3393.46   74.59
  -2   2   1 3452.05   73.09
   2   2  -1 3378.86   74.19
  -2  -2   1 3413.36   74.29
  -2  -2   1 3445.76   69.09
   2  -2  -1 3367.76   71.19
   2  -2  -1 3488.25   75.29
  -2   2   0  560.04   17.60
   2   2   0  559.84   12.40
   2   2   0  591.14   17.40
   2   2   0  560.84   18.20
  -2   2   0  572.84   14.10
   2   2   0  606.34   17.80
  -2   2   0  568.24   17.60
   2  -2   0  556.74   17.40
  -2  -2   0  557.24   17.50
  -2  -2   0  560.54   18.00
   2  -2   0  568.64   13.90
  -2  -2   0  587.34   18.20
   2  -2   0  604.14   17.70
   2  -2   0  563.54   17.80
   2  -2   0  572.54   17.40
  -2   2  -1 2483.65   59.29
   2   2   1 2514.75   59.39
   2   2   1 2540.85   59.39
  -2   2  -1 2481.15   58.69
   2   2   1 2514.35   57.79
  -2  -2  -1 2569.24   58.59
  -2  -2  -1 2505.55   59.79
   2  -2   1 2562.34   58.39
  -2  -2  -1 2507.75   59.19
   2  -2   1 2544.65   57.59
   2  -2   1 2610.64   60.19
   2   2   2   26.30    4.50
  -2   2  -2   26.10    4.10
  -2   2  -2   26.70    2.50
   2   2   2   25.50    5.50
   2   2   2   24.10    4.30
   2   2   2   21.20    4.60
  -2   2  -2   22.20    4.90
  -2   2  -2   32.50    6.10
  -2  -2  -2   22.60    4.50
   2  -2   2   26.50    2.30
  -2  -2  -2   38.30    6.30
   2  -2   2   28.00    4.30
  -2  -2  -2   29.20    5.10
   2  -2   2   24.60    5.50
  -2  -2  -2   20.30    4.80
   2  -2   2   26.10    4.90
  -2   2  -3 2020.50   56.79
  -2   2  -3 2221.68   58.39
   2   2   3 2131.79   56.49
  -2   2  -3 2117.69   51.49
   2   2   3 2158.58   54.69
   2   2   3 2152.88   54.49
  -2   2  -3 2113.69   48.50
   2  -2   3 2143.29   55.79
   2  -2   3 2138.29   57.99
   2  -2   3 2150.58   52.59
  -2  -2  -3 2185.18   55.89
  -2  -2  -3 2120.19   56.19
  -2  -2  -3 2210.18   56.39
   2  -2   3 2177.98   48.00
  -2  -2  -3 2261.47   57.29
   2   2   4  153.28   11.90
   2   2   4  159.98   12.60
  -2   2  -4  136.39   12.90
  -2   2  -4  142.59    8.60
  -2   2  -4  155.48    9.50
   2  -2   4  150.98   12.90
   2  -2   4  143.49    8.10
   2  -2   4  148.39   10.00
  -2  -2  -4  152.38   12.40
  -2  -2  -4  133.89   11.40
   2   2   5   20.60    6.40
   2   2   5   11.70    6.50
  -2   2  -5   15.50    4.30
  -2   2  -5    8.20    3.00
   2   2   5   20.00    6.10
  -2   2  -5   16.10    7.20
   2  -2   5   16.50    7.10
   2  -2   5   10.10    4.00
  -2  -2  -5   13.90    6.20
  -2  -2  -5    4.70    4.80
   2  -2   5   19.80    4.90
   2   2   6   -7.30    4.80
   2   2   6   -1.90    3.20
  -2   2  -6    1.20    5.90
  -2   2  -6    5.20    6.10
   2   2   6    1.30    5.10
   2  -2   6    4.50    4.90
  -2  -2  -6    0.60    4.10
   2  -2   6   -1.30    2.80
  -2  -2  -6   -0.40    4.00
   2   2   7  199.68   17.60
  -2   2  -7  221.88   15.20
  -2   2  -7  201.48   20.60
   2   2   7  230.08   19.60
   2   2   7  244.18   20.10
   2   2   7  223.38   21.00
   2  -2   7  253.27   21.10
  -2  -2  -7  211.68   18.50
   2  -2   7  192.98   14.80
  -2   2  -8   36.80   11.00
  -2   2  -8   23.00    7.40
   2   2   8   17.50    9.90
   2   2   8   21.30    9.30
   2   2   8   12.30    6.80
   2  -2   8   19.70    9.00
  -2  -2  -8   27.80    9.20
  -2   3   9   68.69   10.30
   2   3  -9   67.99   11.50
  -2   3   9   79.59   17.60
  -2  -3   9   80.39    5.80
  -2  -3   9   79.49    5.90
  -2  -3   9   83.59   13.80
  -2  -3   9   76.79   14.50
   2  -3  -9   90.49   15.80
  -2   3   8   70.89   11.80
  -2   3   8   50.89    8.70
  -2   3   8   55.09   12.70
   2   3  -8   64.09   10.40
  -2   3   8   70.59   11.20
  -2  -3   8   88.59   16.00
  -2  -3   8   71.39    5.40
   2  -3  -8   92.79   15.30
  -2  -3   8   76.09    5.40
  -2  -3   8   57.69   11.30
  -2   3   7    0.70    3.50
   2   3  -7    5.60    3.80
  -2   3   7    5.40    4.50
  -2   3   7   13.00    5.70
  -2   3   7    6.40    7.70
  -2  -3   7    3.10    6.10
  -2  -3   7    9.40    2.20
  -2  -3   7   11.20    5.50
  -2  -3   7    9.50    2.10
   2  -3  -7    9.50    4.50
   2  -3  -7   11.50    6.40
  -2   3   6  344.57   15.30
  -2   3   6  303.97   21.00
   2   3  -6  352.16   18.30
  -2   3   6  353.36   20.20
  -2   3   6  348.87   19.90
  -2  -3   6  367.66   10.20
   2  -3  -6  326.07   15.40
  -2  -3   6  328.77   21.30
  -2  -3   6  344.87   10.30
   2  -3  -6  350.56   21.50
  -2  -3   6  371.46   20.50
  -2   3   5 2365.86   64.29
  -2   3   5 2345.17   55.49
  -2   3   5 2385.66   63.79
   2   3  -5 2363.16   64.79
   2   3  -5 2362.26   60.69
  -2   3   5 2403.26   66.89
  -2  -3   5 2298.97   47.80
   2  -3  -5 2364.46   66.19
  -2  -3   5 2386.86   47.70
  -2  -3   5 2278.37   64.99
  -2  -3   5 2352.06   68.59
   2  -3  -5 2366.16   56.09
  -2  -3   5 2387.26   65.59
  -2   3   4  117.69   10.30
   2   3  -4  111.59    9.50
   2   3  -4  111.69    9.30
  -2   3   4  116.59   10.20
  -2   3   4  108.09    6.60
  -2   3   4  122.09   10.40
   2  -3  -4  105.49    6.60
  -2  -3   4  108.29    9.50
  -2  -3   4   95.89    8.30
  -2  -3   4  107.19    8.50
  -2  -3   4  110.09    8.60
  -2  -3   4  101.69    8.50
  -2   3   3  822.92   28.40
  -2   3   3  810.32   27.80
   2   3  -3  873.41   28.00
  -2   3   3  783.72   27.30
  -2   3   3  814.72   30.50
   2   3  -3  859.01   26.00
  -2   3   3  839.52   22.00
  -2  -3   3  853.31   25.80
  -2  -3   3  846.52   26.10
   2  -3  -3  867.41   28.50
  -2  -3   3  814.52   24.90
   2  -3  -3  855.71   29.10
  -2  -3   3  816.82   19.30
   2  -3  -3  864.71   27.70
  -2  -3   3  881.71   27.30
   2  -3  -3  854.61   22.10
  -2   3   2  100.79    7.60
   2   3  -2   96.99    8.10
  -2   3   2  111.69    8.70
   2   3  -2   97.99    6.30
   2   3  -2  102.49    3.60
  -2   3   2   90.39    8.10
  -2   3   2   95.59    5.70
  -2   3   2  117.99    8.20
   2   3  -2   97.29    3.70
  -2  -3   2  101.49    5.90
   2  -3  -2   90.49    5.50
   2  -3  -2  100.49    7.60
  -2  -3   2   98.29    5.60
  -2  -3   2  102.89    7.40
   2  -3  -2   97.39    8.10
  -2  -3   2  103.49    7.20
   2  -3  -2  101.69    7.90
  -2  -3   2   96.39    7.40
   2   3  -1 1773.02   41.30
  -2   3   1 1805.72   42.50
  -2   3   1 1813.52   45.90
   2   3  -1 1740.23   45.10
  -2   3   1 1843.82   42.30
  -2   3   1 1791.72   44.10
  -2   3   1 1830.12   46.30
   2   3  -1 1794.82   43.80
   2   3  -1 1784.02   41.70
   2  -3  -1 1764.92   41.90
   2  -3  -1 1843.32   44.80
  -2  -3   1 1826.32   43.00
   2  -3  -1 1865.91   42.80
  -2  -3   1 1761.32   44.80
   2  -3  -1 1801.32   45.60
  -2  -3   1 1794.02   43.60
  -2  -3   1 1799.82   37.10
   2   3   0  179.88   10.50
  -2   3   0  159.88    9.10
   2   3   0  180.38    9.50
  -2   3   0  172.88    6.40
  -2   3   0  169.68    9.20
  -2   3   0  170.58    9.50
   2   3   0  177.38    9.20
   2  -3   0  161.48    9.20
  -2  -3   0  176.98    9.70
   2  -3   0  175.98    6.70
   2  -3   0  195.08   10.10
   2  -3   0  172.18    9.40
  -2  -3   0  170.48   10.00
   2  -3   0  174.48   10.00
  -2  -3   0  178.28   10.20
   2   3   1 1522.95   40.40
   2   3   1 1434.86   35.90
   2   3   1 1488.85   40.30
   2   3   1 1493.25   34.90
   2   3   1 1517.65   39.00
  -2   3  -1 1480.55   39.30
   2  -3   1 1485.35   38.90
  -2  -3  -1 1496.15   41.00
   2  -3   1 1539.65   40.90
   2  -3   1 1508.45   38.60
   2  -3   1 1461.15   40.30
  -2  -3  -1 1494.85   40.10
  -2  -3  -1 1499.95   39.60
  -2   3  -2  341.87   13.40
   2   3   2  337.77   13.60
   2   3   2  321.67   16.10
   2   3   2  321.37   14.70
   2   3   2  365.06   16.50
  -2   3  -2  347.07   16.10
   2   3   2  340.47   14.20
  -2  -3  -2  314.27   16.40
   2  -3   2  351.56   16.90
   2  -3   2  328.57   14.90
  -2  -3  -2  323.07   15.70
  -2  -3  -2  326.57   17.70
   2  -3   2  340.47   14.20
   2  -3   2  361.66   17.10
   2   3   3  748.83   28.30
  -2   3  -3  730.63   22.60
  -2   3  -3  730.63   18.10
  -2   3  -3  753.12   32.30
   2   3   3  770.82   26.90
   2   3   3  760.22   25.60
   2   3   3  755.42   27.60
  -2  -3  -3  711.33   26.70
  -2  -3  -3  777.32   28.90
  -2  -3  -3  748.83   27.80
   2  -3   3  727.93   23.80
   2  -3   3  741.63   18.00
   2   3   4  258.17   16.50
   2   3   4  271.77   16.80
  -2   3  -4  256.57   10.40
  -2   3  -4  253.67   11.90
  -2   3  -4  234.48   16.50
   2  -3   4  261.17   10.20
  -2  -3  -4  261.57   16.90
  -2  -3  -4  254.37   16.40
   2  -3   4  258.07   19.30
   2  -3   4  282.97   18.40
  -2   3  -5 1294.47   34.10
   2   3   5 1272.87   44.40
  -2   3  -5 1293.47   47.20
   2   3   5 1216.08   44.80
   2   3   5 1348.37   45.00
   2  -3   5 1292.77   38.50
   2  -3   5 1323.27   34.40
  -2  -3  -5 1249.88   44.00
  -2  -3  -5 1340.77   46.00
   2  -3   5 1310.67   46.90
   2   3   6   63.49   11.40
   2   3   6   52.39   11.50
   2   3   6   64.19   10.60
  -2   3  -6   50.49    7.20
   2   3   6   69.69   11.80
   2  -3   6   52.99    8.00
  -2  -3  -6   49.10    9.60
   2  -3   6   57.99    6.20
   2  -3   6   74.99   12.30
  -2  -3  -6   58.99   11.50
   2   3   7  409.96   27.80
  -2   3  -7  391.26   28.00
   2   3   7  414.06   26.40
   2   3   7  374.46   24.80
  -2   3  -7  392.36   18.80
   2  -3   7  371.96   20.00
  -2  -3  -7  444.86   27.60
   2  -3   7  442.26   28.10
   2   3   8   -2.70    4.90
  -2   3  -8  -14.30    5.60
   2   3   8   12.70    8.50
   2   3   8   -7.80    6.80
   2  -3   8  -11.40    6.60
  -2  -3  -8   -2.10    5.40
  -2   4   9  168.18   20.70
  -2   4   9  165.58   18.70
   2  -4  -9  220.68   22.30
  -2  -4   9  201.38   17.80
  -2  -4   9  148.89   17.50
  -2   4   8    1.20    4.60
  -2   4   8    9.40    6.90
  -2   4   8   -8.80    3.90
  -2  -4   8   -1.90    4.80
  -2  -4   8    0.40    5.80
   2  -4  -8   -6.50    6.20
  -2  -4   8   -6.00    4.80
  -2   4   7  641.94   32.30
  -2   4   7  720.83   26.20
  -2   4   7  717.13   35.70
  -2  -4   7  730.13   35.80
  -2  -4   7  737.33   33.60
   2  -4  -7  726.03   35.20
  -2  -4   7  724.43   29.90
  -2   4   6   20.20    6.10
  -2   4   6   24.70    6.90
  -2   4   6   20.80    7.80
  -2   4   6   22.20    4.90
   2   4  -6   18.30    7.10
  -2  -4   6   23.40    5.90
  -2  -4   6   23.50    7.90
   2  -4  -6   27.20    8.40
  -2  -4   6   21.00    7.10
  -2   4   5  911.01   35.30
   2   4  -5  923.01   33.90
  -2   4   5  867.41   38.70
  -2   4   5  910.11   27.20
  -2   4   5  883.21   34.10
   2  -4  -5  873.31   27.10
   2  -4  -5  859.11   35.00
  -2  -4   5  915.31   34.50
  -2  -4   5  912.31   30.50
  -2   4   4  671.03   21.10
  -2   4   4  682.93   28.10
  -2   4   4  669.63   27.20
   2   4  -4  673.73   25.50
  -2   4   4  718.63   27.80
  -2  -4   4  626.04   23.70
  -2  -4   4  674.23   16.40
   2  -4  -4  643.34   27.10
  -2  -4   4  698.73   24.00
   2  -4  -4  654.53   21.00
  -2  -4   4  665.33   23.90
  -2   4   3   75.49    6.10
  -2   4   3   57.89    8.20
  -2   4   3   79.89    8.70
   2   4  -3   57.09    8.40
  -2   4   3   71.29    8.00
  -2   4   3   60.59    6.90
   2   4  -3   72.79    6.70
  -2  -4   3   61.19    5.60
   2  -4  -3   61.99    7.30
   2  -4  -3   60.39    8.60
  -2  -4   3   61.69    6.00
  -2  -4   3   65.79    4.50
   2  -4  -3   66.99    5.50
   2  -4  -3   54.29   11.60
  -2  -4   3   70.09    4.80
  -2  -4   3   62.89    6.70
  -2  -4   3   65.69    6.40
   2   4  -2  349.67   10.70
   2   4  -2  332.17   16.50
  -2   4   2  385.86   17.40
  -2   4   2  342.47   15.50
   2   4  -2  333.87   14.40
   2   4  -2  340.77   11.60
  -2   4   2  355.16   13.70
  -2   4   2  334.77   14.70
   2   4  -2  338.77   12.40
  -2   4   2  361.26   17.50
  -2  -4   2  353.56   11.70
   2  -4  -2  336.47   16.20
   2  -4  -2  349.67   13.20
   2  -4  -2  357.76   15.70
  -2  -4   2  334.97   15.90
  -2  -4   2  347.47   14.30
  -2  -4   2  345.77   13.10
   2  -4  -2  354.16   16.20
  -2   4   1  532.55   19.00
   2   4  -1  560.84   21.40
  -2   4   1  544.95   17.70
  -2   4   1  578.24   21.30
  -2   4   1  540.85   19.40
   2   4  -1  556.74   19.30
   2   4  -1  564.24   18.20
  -2   4   1  509.55   20.80
   2   4  -1  540.45   17.90
   2   4  -1  560.14   14.00
   2  -4  -1  567.04   18.50
   2  -4  -1  589.14   21.60
   2  -4  -1  553.24   20.00
  -2  -4   1  556.04   20.90
  -2  -4   1  567.24   13.50
  -2  -4   1  562.34   19.20
  -2  -4   1  579.34   19.60
   2  -4  -1  562.34   18.80
   2   4   0  349.07   16.10
   2   4   0  346.77    8.60
  -2   4   0  337.07   15.40
  -2   4   0  365.56   15.00
  -2   4   0  352.96   15.10
   2   4   0  334.07   14.70
   2   4   0  352.86   14.50
  -2   4   0  383.86   12.40
  -2   4   0  337.77   15.40
   2  -4   0  344.17   15.00
   2  -4   0  324.07   15.10
  -2  -4   0  337.07   17.50
  -2  -4   0  356.06   15.10
   2  -4   0  357.46   14.90
  -2  -4   0  331.57   15.50
  -2   4  -1 3096.29   72.29
   2   4   1 3226.68   76.29
   2   4   1 3078.09   75.29
   2   4   1 3210.68   75.99
  -2   4  -1 3238.68   74.49
   2   4   1 3120.99   73.69
  -2   4  -1 3112.09   73.39
  -2  -4  -1 3191.38   75.19
   2  -4   1 3224.78   76.49
   2  -4   1 3198.48   73.89
  -2  -4  -1 3104.59   75.39
  -2  -4  -1 3094.89   76.39
  -2   4  -2  427.86   19.20
   2   4   2  427.96   16.00
   2   4   2  432.86   19.90
   2   4   2  407.86   19.00
  -2   4  -2  419.56   16.00
   2   4   2  453.05   20.70
   2   4   2  432.26   20.70
   2   4   2  417.36   15.70
  -2  -4  -2  439.86   19.80
   2  -4   2  452.45   20.80
  -2  -4  -2  429.06   20.50
  -2  -4  -2  424.76   19.20
   2  -4   2  428.36   18.20
   2  -4   2  391.46   19.40
   2  -4   2  425.16   17.20
   2   4   3   -0.90    2.40
  -2   4  -3    2.60    3.00
   2   4   3    2.60    3.80
  -2   4  -3    3.30    2.40
   2   4   3   -1.40    3.00
   2   4   3    4.40    3.00
   2   4   3    0.10    3.20
   2  -4   3    1.90    2.20
   2  -4   3    3.10    3.90
  -2  -4  -3   -0.60    3.40
  -2  -4  -3   -0.40    3.30
   2   4   4    0.30    4.60
   2   4   4   -2.20    3.00
   2   4   4   -2.80    3.80
  -2   4  -4    1.00    2.10
  -2   4  -4   -1.10    4.20
  -2  -4  -4    2.70    4.70
  -2  -4  -4   -2.00    3.70
   2  -4   4   -1.70    4.10
   2  -4   4   -0.40    1.20
   2  -4   4    4.30    2.70
   2   4   5   86.99   12.50
  -2   4  -5   82.99   13.50
   2   4   5  110.99   12.40
   2   4   5  122.49   12.90
   2   4   5   95.79   11.20
  -2  -4  -5  106.09   12.20
   2  -4   5  104.79    6.50
   2  -4   5  108.89   13.50
  -2  -4  -5  105.19   12.40
   2  -4   5   90.99    6.00
   2  -4   5   97.19    9.00
   2   4   6   -1.90    4.50
   2   4   6    1.10    4.40
   2   4   6   -7.50    4.30
  -2   4  -6   -0.80    3.60
   2   4   6   -2.80    3.90
  -2  -4  -6    1.20    5.30
   2  -4   6   -5.10    2.30
  -2  -4  -6   -7.80    3.60
   2  -4   6    4.60    5.90
   2  -4   6    0.00    2.50
   2   4   7  158.48   17.80
   2   4   7  147.79   16.10
  -2   4  -7  157.38   17.70
   2   4   7  141.69   17.40
  -2  -4  -7  174.48   18.10
   2  -4   7  157.18   13.30
   2  -4   7  161.48   17.20
   2   4   8    1.80    6.40
   2   4   8    3.70    6.00
  -2   4  -8    4.70    7.30
   2   4   8  -10.70    8.70
  -2   5   8  167.48   17.30
  -2   5   8  141.99   17.70
   2  -5  -8  151.08   17.70
  -2  -5   8  174.68   18.80
  -2  -5   8  152.68   17.60
  -2  -5   8  156.48   14.10
  -2   5   7   31.20    9.30
  -2   5   7   31.80    8.90
  -2   5   7   34.10    8.80
  -2   5   7   28.40    7.30
   2  -5  -7   40.50   10.90
  -2  -5   7   34.30    7.50
  -2   5   6   37.40    9.00
  -2   5   6   29.20    8.50
   2   5  -6   46.90    9.80
  -2   5   6   41.50    6.50
  -2   5   6   38.70    9.60
   2  -5  -6   34.40    6.20
   2  -5  -6   59.79   11.30
  -2  -5   6   36.20    7.40
  -2  -5   6   41.60    9.70
   2   5  -5   50.89    9.00
  -2   5   5   43.40    9.80
  -2   5   5   48.70    9.20
  -2   5   5   54.79    6.90
  -2   5   5   57.19   10.40
   2  -5  -5   58.59   11.00
  -2  -5   5   65.99   11.00
  -2  -5   5   40.60    8.30
  -2   5   4  584.54   21.00
  -2   5   4  576.44   27.10
   2   5  -4  577.04   23.70
   2   5  -4  554.24   26.20
  -2   5   4  610.84   26.00
  -2   5   4  690.93   28.50
  -2  -5   4  536.15   21.30
  -2  -5   4  572.04   22.50
   2  -5  -4  575.54   20.80
  -2  -5   4  609.74   17.40
  -2  -5   4  594.04   22.30
   2  -5  -4  613.04   27.20
   2   5  -3  756.32   30.30
   2   5  -3  781.22   25.60
  -2   5   3  807.22   30.80
  -2   5   3  810.32   32.30
  -2   5   3  824.32   25.70
  -2   5   3  834.82   31.90
  -2  -5   3  774.52   24.00
   2  -5  -3  771.22   30.10
  -2  -5   3  804.62   26.50
   2  -5  -3  803.92   25.20
  -2  -5   3  810.52   23.30
  -2  -5   3  794.42   23.60
  -2  -5   3  832.62   26.10
  -2   5   2   28.80    5.30
  -2   5   2   34.00    6.50
  -2   5   2   40.10    6.60
  -2   5   2   25.50    5.80
   2   5  -2   24.90    3.40
   2   5  -2   27.20    6.00
  -2   5   2   34.40    5.70
   2   5  -2   34.40    4.70
  -2  -5   2   33.00    3.60
  -2  -5   2   33.20    5.60
   2  -5  -2   32.90    5.20
   2  -5  -2   43.70    7.40
   2  -5  -2   25.90    5.60
   2  -5  -2   30.60    6.10
  -2   5   1  667.43   22.90
   2   5  -1  607.64   20.90
   2   5  -1  630.44   16.70
  -2   5   1  641.24   20.50
  -2   5   1  633.24   23.00
  -2   5   1  638.84   24.30
  -2   5   1  627.04   25.10
   2   5  -1  614.84   22.00
   2   5  -1  637.04   25.20
   2   5  -1  590.64   20.70
   2  -5  -1  629.44   24.70
   2  -5  -1  662.53   21.70
  -2  -5   1  686.63   22.90
   2  -5  -1  655.63   22.60
  -2  -5   1  632.74   24.30
  -2  -5   1  667.23   23.60
   2  -5  -1  650.73   23.30
  -2  -5   1  656.53   16.40
  -2   5   0 1471.45   42.00
  -2   5   0 1385.16   33.90
   2   5   0 1433.56   40.40
   2   5   0 1418.06   39.50
  -2   5   0 1415.66   41.60
   2   5   0 1466.95   43.00
  -2   5   0 1417.36   39.80
   2   5   0 1449.95   31.30
  -2   5   0 1475.75   40.70
  -2  -5   0 1403.36   32.00
   2  -5   0 1456.65   41.00
  -2  -5   0 1491.85   40.90
  -2  -5   0 1408.76   41.80
   2  -5   0 1422.46   35.10
   2  -5   0 1393.76   39.50
  -2  -5   0 1463.75   42.50
   2  -5   0 1436.16   41.60
  -2   5  -1 1349.96   29.40
   2   5   1 1368.86   31.80
  -2   5  -1 1335.17   37.30
   2   5   1 1405.46   41.50
   2   5   1 1340.87   32.60
  -2   5  -1 1334.97   41.40
  -2   5  -1 1391.66   39.50
   2   5   1 1297.17   40.70
   2   5   1 1309.07   40.50
   2  -5   1 1323.57   29.70
   2  -5   1 1291.67   40.40
  -2  -5  -1 1336.97   42.00
  -2  -5  -1 1333.67   40.10
   2  -5   1 1343.17   41.50
   2  -5   1 1360.46   39.20
   2  -5   1 1333.97   38.30
   2   5   2 1166.78   31.40
   2   5   2 1149.58   37.60
  -2   5  -2 1152.18   41.90
   2   5   2 1106.39   31.20
   2   5   2 1181.18   39.20
   2   5   2 1095.09   37.80
  -2  -5  -2 1114.99   37.50
  -2  -5  -2 1128.69   39.20
   2  -5   2 1113.09   34.50
   2  -5   2 1148.19   39.00
   2   5   3   42.10    8.70
   2   5   3   49.10    7.40
  -2   5  -3   45.10    5.60
   2   5   3   62.09   11.20
   2   5   3   60.39    9.90
  -2   5  -3   62.79   10.10
   2  -5   3   52.39    7.30
  -2  -5  -3   46.40    8.70
  -2  -5  -3   48.00    8.90
   2  -5   3   45.20    9.40
   2   5   4  371.66   22.90
   2   5   4  336.07   20.20
  -2   5  -4  313.57   13.00
  -2   5  -4  328.87   21.00
   2   5   4  356.86   18.90
  -2  -5  -4  326.87   21.10
   2  -5   4  347.17   17.00
  -2  -5  -4  359.66   22.40
   2  -5   4  302.97   20.70
   2   5   5   11.20    5.90
  -2   5  -5   15.70    7.00
   2   5   5   14.50    5.80
   2   5   5   24.40    7.10
   2   5   5   23.20    7.80
  -2  -5  -5    1.80    5.20
   2  -5   5    6.20    1.20
   2  -5   5    8.00    1.20
   2  -5   5    5.10    4.30
  -2  -5  -5    6.20    5.20
   2  -5   5    6.80    3.80
   2   5   6  295.17   21.70
   2   5   6  311.57   23.20
   2   5   6  302.87   21.90
  -2   5  -6  305.87   23.90
   2  -5   6  299.07   23.00
  -2  -5  -6  303.57   23.30
   2  -5   6  279.87   16.50
  -2   5  -7    1.00    6.70
   2   5   7   -2.60    6.60
   2   5   7    2.90    7.40
   2   5   7   -3.00    5.80
   2  -5   7   -6.90    3.90
  -2  -5  -7   -6.00    5.60
  -2   6   8   46.90   11.40
  -2   6   8   26.70    6.80
  -2   6   8   18.90   10.50
  -2  -6   8   17.60    9.60
  -2  -6   8   20.60    7.00
   2  -6  -8   34.80   13.30
  -2  -6   8   30.00   11.00
  -2   6   7   40.10    7.70
  -2   6   7   65.69   13.60
  -2   6   7   65.09   12.60
  -2  -6   7   59.29   12.60
   2  -6  -7   59.89   12.40
  -2  -6   7   44.70   11.70
  -2  -6   7   54.49    8.90
   2   6  -6  582.84   29.10
  -2   6   6  596.14   31.20
  -2   6   6  548.25   30.20
  -2   6   6  565.84   29.70
  -2  -6   6  599.44   31.40
   2  -6  -6  606.04   32.10
  -2  -6   6  580.64   24.30
  -2   6   5   -2.00    4.10
   2   6  -5    6.10    5.20
  -2   6   5    3.30    4.50
  -2   6   5    7.40    4.10
  -2   6   5    2.60    5.30
  -2  -6   5    2.70    3.70
  -2  -6   5    3.40    4.50
   2  -6  -5    4.10    3.90
   2   6  -4  872.01   30.50
  -2   6   4  876.11   32.90
   2   6  -4  853.61   35.20
  -2   6   4  770.72   34.90
  -2   6   4  885.21   29.10
  -2  -6   4  805.22   27.50
  -2  -6   4  841.12   24.80
  -2  -6   4  839.32   28.10
   2  -6  -4  853.91   34.50
   2  -6  -4  805.02   28.10
  -2   6   3  116.89   12.00
  -2   6   3  151.68   12.00
  -2   6   3  149.49   10.90
  -2   6   3  116.79   11.90
   2   6  -3  127.69    9.10
   2   6  -3  109.39   12.50
  -2  -6   3  122.49    9.50
   2  -6  -3  121.49    9.70
   2  -6  -3  136.09   12.10
  -2  -6   3  120.29    8.70
  -2  -6   3  135.99    9.20
  -2  -6   3  115.29    9.00
  -2  -6   3  119.99    8.00
   2  -6  -3  124.39   11.80
   2   6  -2 1013.40   27.70
   2   6  -2  979.20   36.40
  -2   6   2 1018.90   35.60
  -2   6   2 1000.60   31.60
  -2   6   2 1057.59   33.00
   2   6  -2  949.60   31.00
  -2   6   2  963.40   36.10
   2   6  -2 1016.60   27.60
   2  -6  -2 1020.10   33.30
   2  -6  -2  950.90   35.30
  -2  -6   2 1003.80   26.40
   2  -6  -2  980.40   31.30
  -2  -6   2 1009.20   31.30
  -2  -6   2  960.90   31.60
  -2   6   1   67.99    8.00
  -2   6   1   48.70    5.20
   2   6  -1   65.59    9.90
   2   6  -1   61.29    5.00
  -2   6   1   59.39    7.30
   2   6  -1   59.89    6.80
   2   6  -1   65.29    7.10
  -2   6   1   58.59    9.70
  -2   6   1   67.29    8.30
  -2  -6   1   63.29    7.90
  -2  -6   1   57.89    4.40
  -2  -6   1   65.99    7.50
   2  -6  -1   55.69    6.90
   2  -6  -1   56.79    7.00
   2  -6  -1   54.89    8.40
   2  -6  -1   56.49    7.20
   2   6   0  118.19   11.40
  -2   6   0  144.39   13.80
  -2   6   0  135.69   10.60
  -2   6   0  140.59    7.70
  -2   6   0  156.38   11.00
   2  -6   0  132.99    8.20
   2  -6   0  128.79   11.10
  -2  -6   0  143.39   13.30
   2  -6   0  127.39   11.60
  -2  -6   0  150.68   12.40
  -2   6  -1  449.66   19.40
   2   6   1  486.25   14.70
   2   6   1  474.85   15.60
  -2   6  -1  468.15   21.10
   2   6   1  486.65   22.60
  -2   6  -1  502.85   23.80
   2   6   1  489.65   23.00
  -2  -6  -1  474.55   22.10
  -2  -6  -1  496.15   24.10
   2  -6   1  434.26   20.60
   2   6   2 1333.17   45.40
   2   6   2 1385.56   37.30
   2   6   2 1428.86   36.40
  -2   6  -2 1389.16   43.80
  -2   6  -2 1377.46   38.80
   2   6   2 1446.46   45.80
  -2  -6  -2 1446.66   45.80
  -2  -6  -2 1368.76   47.00
   2  -6   2 1338.17   41.70
   2  -6   2 1403.96   47.10
  -2   6  -3   48.60    5.90
   2   6   3   35.40    6.60
   2   6   3   54.79    9.80
   2   6   3   42.00    6.90
  -2   6  -3   43.70    8.70
   2   6   3   36.20    8.20
  -2  -6  -3   41.00    9.20
   2  -6   3   41.60    9.00
  -2  -6  -3   30.90    8.30
   2  -6   3   28.00    6.90
   2   6   4 1273.67   41.00
  -2   6  -4 1199.48   45.70
   2   6   4 1318.07   48.30
   2   6   4 1303.87   45.10
   2  -6   4 1213.88   39.30
  -2  -6  -4 1268.77   47.30
  -2  -6  -4 1282.87   48.30
   2  -6   4 1305.07   48.90
   2   6   5    0.00    4.90
   2   6   5    3.30    5.10
   2   6   5    2.20    5.50
   2  -6   5    2.30    4.10
   2  -6   5    5.50    3.60
  -2  -6  -5   -4.90    5.80
  -2  -6  -5   -0.10    4.40
   2   6   6  470.55   26.90
   2   6   6  417.76   26.00
  -2   6  -6  433.46   28.80
   2   6   6  470.85   30.00
  -2  -6  -6  476.05   30.90
  -2  -6  -6  428.96   28.60
   2  -6   6  391.36   27.90
   2   6   7   -3.30    6.60
  -2   6  -7   -2.30    5.90
   2   6   7   -2.60    5.90
   2   6   7  -11.50    5.20
   2  -6   7    3.60    4.50
  -2   7   7   14.60    8.20
  -2   7   7    5.70    5.00
  -2   7   7    9.20    6.70
  -2  -7   7    4.20    6.10
   2  -7  -7   28.10    9.60
  -2  -7   7    2.50    5.30
  -2  -7   7   -3.50    6.10
  -2   7   6  440.96   27.90
  -2   7   6  417.56   20.60
   2   7  -6  436.96   25.10
  -2   7   6  397.56   25.20
  -2  -7   6  389.76   26.80
   2  -7  -6  385.06   26.50
  -2  -7   6  409.76   19.60
   2   7  -5    3.40    5.00
  -2   7   5   -1.00    3.20
  -2   7   5   -4.50    3.90
  -2   7   5   -0.50    4.00
   2  -7  -5    1.10    6.80
  -2  -7   5   -0.40    3.30
   2   7  -4   83.89   12.90
  -2   7   4   91.19   10.90
  -2   7   4   84.99   13.10
  -2   7   4   96.39    9.80
   2  -7  -4   87.09   13.10
  -2  -7   4   99.79    9.40
  -2   7   3  188.88   14.10
  -2   7   3  202.08   16.40
   2   7  -3  199.48   12.00
   2   7  -3  229.88   18.20
  -2   7   3  209.98   14.30
   2  -7  -3  182.18   14.80
  -2  -7   3  198.38   12.60
  -2  -7   3  192.48   12.70
  -2  -7   3  199.08   12.90
   2   7  -2  535.85   18.70
  -2   7   2  523.55   23.50
  -2   7   2  560.04   26.60
  -2   7   2  540.25   23.00
   2   7  -2  522.95   26.80
  -2  -7   2  553.74   23.70
   2  -7  -2  500.85   25.60
  -2  -7   2  585.64   23.00
   2  -7  -2  540.65   23.60
  -2  -7   2  531.85   17.60
   2   7  -1  179.18   14.90
   2   7  -1  204.18    9.10
   2   7  -1  199.18   13.20
  -2   7   1  190.98   14.50
  -2   7   1  198.28   13.30
  -2   7   1  209.28   11.50
  -2   7   1  246.78   19.10
  -2  -7   1  216.98   15.20
   2  -7  -1  201.38   15.40
  -2  -7   1  205.68    9.10
  -2  -7   1  223.08   14.00
   2  -7  -1  225.58   13.20
   2   7   0  903.11   35.60
  -2   7   0  940.71   26.20
  -2   7   0  926.61   31.60
  -2   7   0  881.31   34.20
   2   7   0  901.31   23.00
  -2  -7   0  905.31   32.70
  -2  -7   0  864.71   34.40
  -2  -7   0  856.51   23.70
   2  -7   0  898.41   27.40
  -2   7  -1  503.95   22.60
  -2   7  -1  462.15   14.80
   2   7   1  481.65   15.30
  -2   7  -1  511.05   25.60
   2   7   1  504.55   16.60
   2   7   1  454.85   23.10
  -2   7  -1  492.05   21.30
   2   7   1  471.65   24.30
  -2  -7  -1  459.15   24.90
  -2  -7  -1  490.95   23.70
   2  -7   1  437.76   22.40
   2  -7   1  482.65   15.60
   2   7   2  787.52   23.90
   2   7   2  791.42   33.20
  -2   7  -2  806.22   31.60
   2   7   2  763.52   24.80
   2   7   2  798.52   33.40
   2  -7   2  745.53   33.90
  -2  -7  -2  791.62   35.10
   2  -7   2  744.13   30.00
  -2  -7  -2  826.62   33.50
  -2   7  -3   20.70    6.70
   2   7   3   18.60    7.10
   2   7   3   19.00    5.00
   2   7   3   15.00    6.60
   2   7   3   11.60    4.60
  -2  -7  -3    6.40    5.90
  -2  -7  -3   14.80    6.90
   2  -7   3   21.40    7.80
   2   7   4    7.90    4.60
   2   7   4    7.00    5.80
  -2   7  -4    2.30    5.00
   2   7   4    6.60    5.90
  -2  -7  -4    3.60    5.00
  -2  -7  -4   10.20    6.60
   2  -7   4    2.00    6.20
   2  -7   4   -4.30    3.10
   2   7   5    3.80    4.30
  -2   7  -5   -0.50    4.70
   2   7   5   -1.10    5.00
   2   7   5    1.00    5.50
   2  -7   5   -1.00    5.80
  -2  -7  -5   -4.00    5.20
   2  -7   5    5.00    4.40
  -2  -7  -5    6.30    6.50
  -2   7  -6   -3.70    4.80
   2   7   6   12.20    8.30
   2   7   6    1.00    7.00
   2   7   6    6.70    6.60
   2  -7   6   -3.50    3.80
   2  -7   6   -7.50    6.40
  -2  -7  -6   -7.10    5.50
  -2   8   7  661.23   35.30
  -2   8   7  741.83   39.70
   2  -8  -7  737.33   40.20
  -2  -8   7  615.94   34.20
  -2   8   6   22.90   10.30
  -2   8   6   18.60    5.70
  -2   8   6   13.60    8.10
   2   8  -6   17.50    6.30
   2  -8  -6   14.00    8.20
  -2  -8   6   22.20    6.50
  -2  -8   6   11.10    8.20
   2   8  -5  266.67   22.20
  -2   8   5  271.17   22.10
  -2   8   5  259.57   16.80
  -2   8   5  262.07   22.20
   2   8  -5  242.38   17.40
   2  -8  -5  244.28   20.80
  -2  -8   5  254.37   22.10
  -2  -8   5  248.98   15.20
   2   8  -4  184.08   17.60
  -2   8   4  194.68   18.20
  -2   8   4  189.48   15.40
  -2   8   4  177.98   14.30
   2   8  -4  184.78   13.70
   2  -8  -4  192.28   17.00
  -2  -8   4  171.28   12.70
  -2   8   3   24.60    7.10
  -2   8   3   21.70    7.40
   2   8  -3   16.50    7.10
  -2   8   3   31.50    7.20
   2   8  -3   25.50    5.70
  -2  -8   3   20.50    5.60
  -2  -8   3   22.70    5.70
   2  -8  -3   11.90    5.90
  -2  -8   3   15.10    4.10
   2   8  -2  152.28    9.30
  -2   8   2  138.29   13.80
  -2   8   2  149.49   12.10
  -2   8   2  135.29   13.10
   2   8  -2  140.49   14.40
  -2  -8   2  142.59   12.70
  -2  -8   2  127.49    8.40
   2  -8  -2  130.99   13.30
   2  -8  -2  149.49   13.30
  -2  -8   2  147.69   11.90
   2   8  -1  536.35   17.00
  -2   8   1  531.95   23.40
   2   8  -1  542.65   28.40
   2   8  -1  479.25   21.70
  -2   8   1  519.45   26.20
  -2  -8   1  532.65   26.20
  -2  -8   1  542.15   24.20
  -2  -8   1  494.05   16.70
   2  -8  -1  473.65   25.90
   2   8   0  329.97   19.20
   2   8   0  355.96   22.50
   2   8   0  356.06   12.30
  -2   8   0  333.87   18.30
  -2   8   0  352.86   21.60
  -2  -8   0  328.37   12.80
   2  -8   0  321.17   20.40
   2  -8   0  356.16   16.20
  -2  -8   0  371.06   20.50
  -2  -8   0  360.16   22.20
   2   8   1    2.20    2.00
   2   8   1   -0.30    3.50
  -2   8  -1   -1.00    3.20
  -2   8  -1   10.80    5.90
  -2   8  -1   -1.90    2.00
   2   8   1   -1.10    2.60
   2   8   1   -1.20    3.30
  -2   8  -1   -0.80    3.50
  -2  -8  -1   -2.70    4.40
  -2  -8  -1   -3.20    4.00
   2  -8   1    1.00    3.20
   2  -8   1    3.80    2.30
  -2   8  -2   -3.10    2.90
   2   8   2    2.90    4.00
  -2   8  -2    1.70    3.90
   2   8   2   -1.90    3.00
   2   8   2    6.50    5.00
   2   8   2    0.50    2.50
   2  -8   2    2.80    3.00
  -2  -8  -2    0.70    4.70
   2  -8   2   -2.00    4.90
  -2  -8  -2    3.60    4.80
   2   8   3   60.49    7.80
  -2   8  -3   75.59   11.00
   2   8   3   51.29   10.80
  -2   8  -3   86.09   13.20
   2   8   3   86.59    8.80
   2   8   3   75.89   12.50
  -2  -8  -3   67.69   12.90
   2  -8   3   93.39   10.50
  -2  -8  -3   99.99   15.10
   2  -8   3   80.89   13.40
   2   8   4   59.19   11.60
   2   8   4   48.30   11.10
   2   8   4   39.20    7.60
  -2   8  -4   45.80   10.50
  -2  -8  -4   42.20   11.20
   2  -8   4   51.49   11.50
  -2  -8  -4   49.70   11.80
   2  -8   4   46.90    8.10
   2   8   5   -2.00    7.00
   2   8   5    1.50    5.40
  -2   8  -5   -0.30    5.80
   2   8   5  -14.80    5.30
   2  -8   5    0.70    3.90
   2  -8   5  -10.00    4.90
  -2  -8  -5    1.20    3.80
  -2  -8  -5    9.10    8.40
   2   8   6   10.20    8.80
  -2   8  -6   23.50    9.90
   2   8   6   21.80    8.80
   2   8   6   26.60    9.20
   2  -8   6    7.90    8.60
  -2  -8  -6   13.30    9.80
  -2   9   6    6.40    5.50
  -2   9   6    9.30    8.60
  -2   9   6   -8.80    7.20
   2   9  -6   25.50    9.20
   2  -9  -6    8.70    7.90
  -2  -9   6    0.80    5.10
   2   9  -5  243.08   22.40
  -2   9   5  219.88   16.50
   2   9  -5  200.58   16.40
  -2   9   5  188.48   17.90
  -2   9   5  209.68   21.30
  -2  -9   5  164.08   19.00
   2  -9  -5  215.58   19.90
  -2  -9   5  207.98   14.30
   2   9  -4  279.17   17.00
   2   9  -4  260.27   22.10
  -2   9   4  250.07   18.10
  -2   9   4  247.08   18.20
  -2   9   4  291.57   23.20
  -2  -9   4  264.07   16.10
   2  -9  -4  286.07   21.20
  -2   9   3  509.55   24.90
   2   9  -3  513.35   30.90
  -2   9   3  552.04   30.40
  -2   9   3  545.95   27.40
   2  -9  -3  545.15   28.20
  -2   9   2   35.20    8.20
   2   9  -2   45.80    6.40
  -2   9   2   29.10    7.30
   2   9  -2   45.40   10.30
  -2   9   2   45.10    9.80
  -2  -9   2   42.80    8.80
  -2  -9   2   29.20    5.30
   2  -9  -2   38.20    8.10
   2  -9  -2   49.50    9.30
  -2  -9   2   39.70    8.00
   2   9  -1  269.87   11.60
  -2   9   1  306.07   17.80
  -2   9   1  298.77   20.40
   2   9  -1  286.97   21.90
   2   9  -1  253.57   16.70
  -2   9   1  292.67   20.30
  -2  -9   1  248.98   11.60
   2  -9  -1  288.57   20.50
   2  -9  -1  288.07   17.10
  -2  -9   1  309.87   18.70
  -2   9   0    7.70    4.90
  -2   9   0    1.60    3.50
   2   9   0    4.80    4.60
   2   9   0   -0.90    2.00
  -2   9   0    4.00    5.10
   2   9   0   -6.10    3.70
  -2  -9   0    3.00    4.60
  -2  -9   0   -6.30    4.30
  -2  -9   0   -3.10    2.30
   2  -9   0   -3.50    2.90
   2  -9   0   -2.90    4.40
  -2   9  -1   34.60    8.30
   2   9   1   76.09    5.60
  -2   9  -1   70.89   10.90
  -2   9  -1   57.19    6.10
   2   9   1   59.29    6.30
   2   9   1   46.60   10.70
   2   9   1   45.20    9.30
   2  -9   1   65.39    6.60
  -2  -9  -1   55.79   10.80
  -2  -9  -1   72.49   13.30
   2  -9   1   48.20    9.00
   2   9   2   51.49    6.00
   2   9   2   49.30   10.60
  -2   9  -2   35.60    7.00
   2   9   2   42.20    7.00
  -2   9  -2   47.30    9.30
   2   9   2   42.20   10.60
   2  -9   2   46.30   11.90
  -2  -9  -2   34.10   10.30
  -2  -9  -2   51.89   11.00
   2  -9   2   56.09    9.90
   2   9   3  152.38   17.80
   2   9   3  204.98   18.50
   2   9   3  154.68   10.60
  -2  -9  -3  170.78   17.80
   2  -9   3  173.68   18.00
   2  -9   3  153.38   15.10
  -2  -9  -3  171.98   19.50
   2   9   4    5.50    5.80
   2   9   4   -7.50    5.80
  -2   9  -4    5.00    6.80
   2   9   4   -4.90    4.50
  -2  -9  -4   -9.90    7.50
  -2  -9  -4   -6.50    4.80
   2  -9   4    0.30    5.60
   2   9   5  320.17   28.80
   2   9   5  390.56   26.60
  -2   9  -5  371.56   26.80
   2   9   5  324.07   20.50
  -2  -9  -5  323.07   31.80
  -2  -9  -5  388.26   28.70
   2  -9   5  348.77   28.70
   2  10  -5   55.59   12.90
  -2  10   5   34.40   12.90
  -2  10   5   42.70    9.00
   2  10  -5   30.80    9.80
  -2  10   5   33.80    9.60
  -2 -10   5   23.30    8.00
   2 -10  -5   41.50   10.90
  -2 -10   5   23.10    7.30
   2  10  -4  112.09   12.40
  -2  10   4  105.09   12.50
  -2  10   4  112.99   18.60
   2  10  -4   79.99   14.80
  -2  10   4   93.99   16.20
  -2 -10   4  103.79   11.10
   2 -10  -4   94.59   16.00
  -2  10   3   24.30    7.40
   2  10  -3   15.20    5.70
  -2  10   3   13.50    8.10
   2  10  -3   16.90    8.10
   2 -10  -3   19.90    7.40
  -2 -10   3   14.30    5.40
  -2  10   2   14.80    6.50
  -2  10   2    6.60    7.00
  -2  10   2   -8.80    6.20
   2  10  -2   34.20    9.60
   2  10  -2    2.60    4.00
  -2 -10   2    9.30    6.00
  -2 -10   2    7.20    5.60
   2 -10  -2    8.60    5.60
  -2  10   1   91.89   11.00
   2  10  -1   93.99   15.90
   2  10  -1   88.19    6.90
  -2  10   1   67.29   12.50
  -2  10   1  108.99   13.20
  -2 -10   1   85.49   13.60
   2 -10  -1  101.99   10.90
  -2 -10   1  110.89   12.60
   2  10   0   51.79    5.00
  -2  10   0   52.29    9.60
   2  10   0   37.20   10.60
  -2  10   0   48.50   10.30
  -2 -10   0   31.70   10.10
   2 -10   0   50.99    8.00
   2  10   1 1094.19   46.90
  -2  10  -1 1136.79   48.30
  -2 -10  -1 1031.10   46.60
  -2 -10  -1 1185.18   45.40
   2 -10   1 1053.39   31.40
   2  10   2   65.59   12.80
  -2  10  -2   70.19   11.90
   2  10   2   72.19    7.10
  -2 -10  -2   59.29   12.60
   2 -10   2   64.29   12.60
  -2 -10  -2   75.99   14.70
  -2  10  -3  166.28   16.60
   2  10   3  157.38   17.20
  -2 -10  -3  191.58   18.60
   2 -10   3  154.08   18.80
  -2 -10  -3  136.29   19.90
  -2  10  -4   29.40    9.70
   2  10   4   41.30   11.60
   2 -10   4   23.10   10.50
  -2 -10  -4   18.20   10.60
  -2  11   3   55.99   10.40
   2  11  -3   69.39   14.10
   2 -11  -3   60.49   10.80
  -2 -11   3   55.99    9.60
  -2  11   2   14.90    7.30
   2  11  -2    6.40    5.40
  -2  11   2    9.70    6.30
  -2 -11   2    8.60    7.60
   2 -11  -2   14.20    6.60
   2  11  -1   -6.10    6.50
  -2  11   1    6.10    4.90
  -2  11   1   -7.00    5.30
   2 -11  -1    1.50    5.00
  -2 -11   1   -2.50    5.60
  -2 -11   1   -8.20    4.50
   2  11   0  207.58   20.30
  -2  11   0  172.08   17.80
  -2 -11   0  199.98   21.00
   2 -11   0  177.58   13.80
  -2 -11   0  195.98   18.00
  -2  11  -1   13.80    6.80
  -2  11  -1    1.90    6.70
   2  11   1   10.00    7.30
   2 -11   1   13.00    9.00
  -2 -11  -1   16.70    8.10
  -2 -11  -1   11.10    6.80
  -2  11  -2   14.10    7.10
   2  11   2   21.80    9.10
  -2 -11  -2   21.00   10.60
  -2 -11  -2   32.60    9.60
  -3   0   9    7.30    6.90
   3   0  -9   -2.10    3.60
  -3   0   9   -1.20    2.60
  -3   0   9    1.10    4.40
  -3   0   8  156.68   17.20
   3   0  -8  123.49   13.70
  -3   0   8  141.59   12.00
  -3   0   8  140.19   11.50
  -3   0   8  145.69   11.30
  -3   0   7    6.50    5.20
   3   0  -7   -3.30    4.60
  -3   0   7   -2.50    2.20
  -3   0   7   -3.90    3.00
  -3   0   7   -0.80    2.40
  -3   0   7    2.00    2.50
  -3   0   6   23.50    4.80
  -3   0   6   24.10    7.50
  -3   0   6   22.70    4.90
  -3   0   6   21.70    4.30
  -3   0   6   21.50    4.20
   3   0  -6   22.70    7.00
  -3   0   5    3.60    1.90
  -3   0   5    0.40    4.00
  -3   0   5   -0.20    1.80
   3   0  -5    2.90    3.50
  -3   0   5   -1.80    1.30
  -3   0   5   -0.80    1.60
   3   0  -4    6.00    3.50
   3   0  -4    5.80    3.20
  -3   0   4    0.50    2.20
  -3   0   4    2.10    1.90
  -3   0   4    6.30    2.40
  -3   0   4    1.40    1.80
  -3   0   4    4.20    3.70
  -3   0   4    4.00    2.40
  -3   0   4    2.80    1.70
  -3   0   3   -0.10    2.90
  -3   0   3    0.90    1.30
  -3   0   3    1.60    1.60
   3   0  -3    0.70    1.40
   3   0  -3   -1.50    2.90
   3   0  -3    2.90    3.00
  -3   0   3    4.10    2.10
  -3   0   3    0.90    2.20
  -3   0   2 2572.04   60.49
   3   0  -2 2632.84   59.89
   3   0  -2 2605.64   54.49
  -3   0   2 2670.33   58.09
  -3   0   2 2644.04   54.39
  -3   0   2 2492.25   58.99
   3   0  -2 2614.14   57.49
   3   0  -2 2658.23   60.29
  -3   0   1    3.50    1.90
   3   0  -1    0.60    1.60
  -3   0   1    1.20    1.50
   3   0  -1   -0.40    1.70
  -3   0   1   -0.70    1.10
  -3   0   1    0.60    1.70
   3   0  -1   -0.10    1.80
   3   0   0 7516.35  185.68
  -3   0   0 7570.64  185.38
   3   0   1   -2.50    2.00
  -3   0  -1    0.30    2.60
   3   0   1   -2.00    2.50
  -3   0  -1    0.90    2.00
  -3   0  -1    1.20    2.20
   3   0   1    2.80    2.30
  -3   0  -1    0.60    2.70
   3   0   1   -2.80    1.90
   3   0   2 3688.73   86.49
  -3   0  -2 3620.94   84.79
  -3   0  -2 3648.33   84.59
  -3   0  -2 3675.43   81.09
   3   0   2 3672.03   83.29
   3   0   2 3743.73   80.19
   3   0   2 3767.62   84.69
  -3   0  -3    2.10    2.80
   3   0   3    0.00    3.70
   3   0   3   -0.80    2.10
  -3   0  -3   -1.80    2.00
  -3   0  -3   -1.30    1.10
   3   0   3    0.10    2.10
   3   0   3    1.70    1.60
   3   0   4   85.19    8.90
  -3   0  -4   84.59    9.20
   3   0   4   81.19   11.60
  -3   0  -4   81.29    8.20
  -3   0  -4   73.69    9.30
   3   0   4   74.49    6.90
  -3   0  -5    2.10    5.50
  -3   0  -5   -4.20    3.30
   3   0   5   -3.00    2.70
  -3   0  -5    1.70    3.50
   3   0   5   -3.50    4.30
   3   0   6  254.97   20.20
  -3   0  -6  247.98   16.90
  -3   0  -6  267.87   17.30
   3   0   6  200.98   16.10
  -3   0  -6  272.57   21.00
  -3   0  -7   -0.30    5.10
   3   0   7   -7.20    5.90
   3   0   7    3.30    7.40
  -3   0  -7    3.00    6.00
  -3   0  -8   61.59   12.10
   3   0   8   52.39   12.90
  -3   1   9   -6.40    4.80
  -3   1   9    1.20    3.40
  -3   1   9   -0.30    5.00
   3   1  -9   -6.90    5.90
  -3  -1   9   -3.20    2.80
  -3  -1   9   -5.90    2.90
   3  -1  -9   -0.60    5.90
  -3  -1   9   -3.10    2.00
  -3   1   8   58.09    8.50
  -3   1   8   72.29   10.00
  -3   1   8   57.99    9.30
  -3   1   8   65.29   13.40
   3   1  -8   63.69   13.60
  -3  -1   8   62.19    7.40
  -3  -1   8   66.89    7.20
   3  -1  -8   64.39   12.30
  -3  -1   8   64.89   10.30
  -3  -1   8   67.89   13.40
  -3   1   7  297.07   15.80
   3   1  -7  267.27   18.90
  -3   1   7  298.77   14.50
  -3   1   7  265.27   20.80
  -3   1   7  290.47   16.20
  -3   1   7  284.47   16.60
   3  -1  -7  276.37   20.00
  -3  -1   7  283.17   20.90
  -3  -1   7  272.77   13.30
  -3  -1   7  260.57   17.70
  -3  -1   7  286.77   13.30
  -3   1   6 1266.57   44.70
  -3   1   6 1204.08   36.80
  -3   1   6 1231.48   37.90
   3   1  -6 1201.38   41.10
  -3   1   6 1202.78   32.90
  -3  -1   6 1223.08   36.40
  -3  -1   6 1181.58   39.20
   3  -1  -6 1165.18   42.20
  -3  -1   6 1228.28   43.80
  -3  -1   6 1247.28   32.40
  -3  -1   6 1222.48   32.70
  -3   1   5   10.50    5.30
  -3   1   5   10.40    3.30
  -3   1   5    8.00    2.50
   3   1  -5    8.80    4.20
  -3   1   5   11.90    4.00
  -3   1   5    6.50    2.20
  -3  -1   5    8.50    4.40
   3  -1  -5    6.00    4.50
  -3  -1   5   12.50    3.20
  -3  -1   5    6.50    2.10
  -3  -1   5    6.20    3.10
  -3  -1   5    7.90    2.40
  -3   1   4 2477.05   63.29
  -3   1   4 2478.05   58.79
  -3   1   4 2465.85   62.79
  -3   1   4 2462.65   50.99
   3   1  -4 2496.15   61.69
  -3   1   4 2460.15   50.89
  -3   1   4 2429.46   58.09
  -3  -1   4 2264.67   65.69
   3  -1  -4 2442.96   62.79
   3  -1  -4 2284.67   62.69
  -3  -1   4 2471.45   55.89
   3  -1  -4 2442.16   56.39
  -3  -1   4 2436.26   62.09
  -3  -1   4 2329.67   52.99
  -3  -1   4 2460.75   56.39
  -3  -1   4 2381.16   61.59
  -3   1   3    9.20    3.10
   3   1  -3    9.90    3.80
  -3   1   3   12.30    4.60
   3   1  -3    8.30    1.30
   3   1  -3    6.60    3.10
  -3   1   3   13.10    3.90
   3   1  -3   10.60    3.00
  -3  -1   3   16.20    4.30
   3  -1  -3    6.70    3.90
  -3  -1   3    7.10    3.60
   3  -1  -3    8.40    2.80
  -3  -1   3   10.80    2.10
  -3  -1   3   10.30    3.50
   3  -1  -3   10.40    3.60
  -3  -1   3    9.90    2.60
  -3   1   2  848.52   24.70
  -3   1   2  878.61   25.70
  -3   1   2  861.41   25.70
   3   1  -2  872.31   24.30
   3   1  -2  982.20   22.30
   3   1  -2  869.71   23.00
  -3  -1   2  894.81   23.90
   3  -1  -2  901.71   26.40
  -3  -1   2  887.21   22.90
   3  -1  -2  893.91   25.80
  -3  -1   2  829.12   22.50
  -3  -1   2  906.11   26.20
   3  -1  -2  855.91   24.50
  -3  -1   2  872.91   25.90
  -3   1   1 1847.12   42.50
  -3   1   1 1808.62   39.70
  -3   1   1 1742.73   41.50
   3   1  -1 1779.22   41.20
   3   1  -1 1769.82   42.90
   3   1  -1 1759.02   39.70
  -3   1   1 1753.22   42.80
   3   1  -1 1744.13   41.30
   3  -1  -1 1768.62   42.50
  -3  -1   1 1770.52   41.40
  -3  -1   1 1686.93   38.90
   3  -1  -1 1790.22   39.50
  -3  -1   1 1750.52   42.40
   3  -1  -1 1814.52   41.40
   3  -1  -1 1798.82   42.90
  -3  -1   1 1793.02   41.90
  -3   1   0 1489.75   34.80
   3   1   0 1506.05   37.10
   3   1   0 1485.65   35.70
  -3   1   0 1545.85   38.90
  -3   1   0 1469.65   34.50
  -3   1   0 1524.85   37.50
   3   1   0 1512.25   37.90
   3   1   0 1514.15   38.20
  -3   1   0 1547.95   37.60
  -3  -1   0 1546.95   37.10
   3  -1   0 1533.25   37.50
  -3  -1   0 1516.65   38.40
  -3  -1   0 1529.65   38.10
   3  -1   0 1512.05   38.10
   3  -1   0 1518.65   37.30
   3   1   1   86.99    5.90
  -3   1  -1   92.39    7.60
   3   1   1   81.39    7.40
  -3   1  -1   91.49    7.60
   3   1   1   98.79    8.50
  -3   1  -1   81.59    5.80
   3   1   1   81.49    6.20
  -3   1  -1   92.59    7.40
   3  -1   1   97.99    5.80
  -3  -1  -1   98.79    7.10
   3  -1   1   74.49    7.60
  -3  -1  -1   83.49    6.30
   3  -1   1   89.59    6.90
   3  -1   1   87.99    7.20
  -3  -1  -1   91.09    8.00
  -3  -1  -1   85.79    7.10
  -3   1  -2 1634.44   46.10
   3   1   2 1662.13   42.70
   3   1   2 1643.64   42.00
   3   1   2 1723.23   45.30
   3   1   2 1664.13   46.20
  -3   1  -2 1691.13   39.50
  -3   1  -2 1699.53   45.90
  -3  -1  -2 1711.03   43.30
   3  -1   2 1626.54   38.40
  -3  -1  -2 1721.63   46.00
  -3  -1  -2 1701.33   44.30
   3  -1   2 1679.13   44.00
   3  -1   2 1728.03   46.60
  -3  -1  -2 1613.94   45.30
   3   1   3  796.62   25.70
   3   1   3  840.72   29.10
  -3   1  -3  816.22   24.20
  -3   1  -3  830.32   30.30
  -3   1  -3  820.02   27.20
   3   1   3  757.82   26.70
   3   1   3  771.02   33.00
  -3  -1  -3  802.12   28.80
   3  -1   3  789.82   27.00
   3  -1   3  807.42   22.90
  -3  -1  -3  797.72   28.70
  -3  -1  -3  820.22   27.30
  -3   1  -4 1024.50   37.60
  -3   1  -4  960.80   30.00
   3   1   4  982.90   36.30
   3   1   4  981.30   34.10
  -3   1  -4  981.00   32.40
   3  -1   4 1027.70   37.30
  -3  -1  -4  975.60   35.90
   3  -1   4  938.91   28.20
  -3  -1  -4  967.60   36.90
   3  -1   4  947.11   32.30
   3   1   5 1087.49   40.70
  -3   1  -5  976.10   34.10
   3   1   5 1015.70   37.30
  -3   1  -5 1024.70   41.00
  -3   1  -5 1057.69   33.90
  -3  -1  -5 1046.20   37.20
  -3  -1  -5 1025.30   37.00
   3  -1   5 1042.60   40.90
  -3  -1  -5 1102.39   41.30
   3  -1   5 1045.60   36.10
   3  -1   5 1007.40   31.50
   3   1   6   46.30   10.80
   3   1   6   40.70    9.00
  -3   1  -6   36.20    6.50
  -3   1  -6   47.60    7.50
  -3   1  -6   45.60   12.80
  -3  -1  -6   43.60    8.40
   3  -1   6   39.70    7.80
  -3  -1  -6   39.20   10.00
   3  -1   6   43.80   10.80
  -3  -1  -6   44.60    9.30
  -3   1  -7  161.58   14.10
   3   1   7  157.58   18.20
  -3   1  -7  177.78   19.10
   3   1   7  142.89   17.20
   3  -1   7   97.99   18.40
   3  -1   7  165.98   18.10
  -3  -1  -7  150.88   17.40
   3   1   8   -5.90    7.30
  -3   1  -8   17.30    8.20
   3  -1   8   -1.80    7.80
  -3  -1  -8    1.40    6.60
   3  -1   8    4.10    8.50
  -3   2   9    0.80    7.40
   3   2  -9    0.00    5.90
  -3   2   9   -2.10    4.20
  -3  -2   9   -1.50    1.90
   3  -2  -9    0.20    4.50
  -3  -2   9   -2.10    5.20
  -3  -2   9   -5.80    6.80
  -3   2   8  359.46   21.30
  -3   2   8  353.66   16.60
  -3   2   8  322.97   20.10
  -3   2   8  374.16   26.30
   3   2  -8  383.96   27.20
  -3  -2   8  344.27   13.60
  -3  -2   8  345.57   13.80
  -3  -2   8  369.26   26.20
  -3  -2   8  328.37   20.50
   3  -2  -8  346.17   24.60
  -3   2   7   51.99    6.50
   3   2  -7   55.49    9.40
  -3   2   7   51.89    5.60
  -3   2   7   53.29    8.90
  -3   2   7   46.90    8.10
  -3   2   7   55.79   11.60
  -3  -2   7   53.49    4.90
  -3  -2   7   44.40    8.20
   3  -2  -7   64.69   11.70
  -3  -2   7   59.29   11.60
  -3  -2   7   62.99    5.10
  -3   2   6  129.59   11.70
  -3   2   6  146.19    8.40
  -3   2   6  140.79   11.70
  -3   2   6  142.69    8.20
  -3   2   6  142.79   14.60
   3   2  -6  131.59   12.10
  -3  -2   6  153.68   12.00
  -3  -2   6  143.59    6.70
   3  -2  -6  139.09   13.10
  -3  -2   6  134.49   10.60
  -3  -2   6  137.29   13.50
  -3  -2   6  135.89    6.80
  -3   2   5  795.42   28.10
  -3   2   5  791.02   28.60
  -3   2   5  740.43   30.70
  -3   2   5  802.82   22.50
   3   2  -5  803.82   29.00
  -3  -2   5  789.42   19.80
   3  -2  -5  796.82   31.00
  -3  -2   5  776.52   27.00
  -3  -2   5  792.12   19.40
  -3   2   4  563.94   13.40
  -3   2   4  559.24   21.50
  -3   2   4  534.65   22.90
   3   2  -4  587.44   22.10
  -3   2   4  569.24   23.60
  -3   2   4  579.34   22.30
   3   2  -4  596.04   20.90
  -3  -2   4  580.64   20.20
   3  -2  -4  576.34   23.50
   3  -2  -4  568.44   24.30
   3  -2  -4  562.14   20.50
  -3  -2   4  585.64   14.50
  -3  -2   4  531.55   23.70
  -3  -2   4  568.64   22.30
  -3  -2   4  588.14   22.60
  -3   2   3    9.30    3.10
  -3   2   3   11.60    3.60
   3   2  -3   13.20    3.60
  -3   2   3    9.30    3.70
  -3   2   3   18.10    5.20
  -3  -2   3   11.20    3.30
  -3  -2   3   12.60    4.00
   3  -2  -3    9.00    3.20
  -3  -2   3   14.10    4.10
   3  -2  -3    6.50    3.80
  -3  -2   3   11.20    2.00
  -3  -2   3   10.60    3.50
  -3  -2   3    9.80    3.30
   3   2  -2 1295.17   29.60
  -3   2   2 1273.77   34.60
  -3   2   2 1318.17   35.60
  -3   2   2 1247.18   34.90
   3   2  -2 1312.47   34.10
   3  -2  -2 1275.57   27.80
   3  -2  -2 1348.67   28.10
  -3  -2   2 1279.37   31.30
   3  -2  -2 1326.37   35.00
  -3  -2   2 1275.67   31.50
  -3  -2   2 1302.57   33.50
  -3  -2   2 1270.37   34.90
  -3  -2   2 1301.37   31.30
   3  -2  -2 1344.67   36.40
   3  -2  -2 1281.97   35.00
  -3  -2   2 1317.37   35.10
  -3   2   1   61.79    6.20
   3   2  -1   67.49    5.20
  -3   2   1   58.59    6.30
   3   2  -1   63.79    6.00
   3   2  -1   54.49    5.30
  -3   2   1   60.29    5.00
   3   2  -1   64.29    3.60
   3  -2  -1   65.09    4.90
  -3  -2   1   63.39    6.20
   3  -2  -1   62.29    5.00
   3  -2  -1   61.59    4.70
   3  -2  -1   56.59    6.10
   3  -2  -1   54.69    6.10
  -3  -2   1   64.79    6.00
  -3  -2   1   60.09    3.20
  -3  -2   1   64.69    5.70
  -3   2   0  195.08    7.40
  -3   2   0  193.88   10.40
  -3   2   0  190.68    7.00
  -3   2   0  200.18   10.00
   3   2   0  185.18    9.60
   3   2   0  200.18   10.30
   3   2   0  206.08   11.10
   3   2   0  204.88    6.70
  -3   2   0  186.78    9.90
   3  -2   0  197.28   10.30
  -3  -2   0  189.38   10.20
   3  -2   0  201.38   10.20
  -3  -2   0  195.78    6.90
  -3  -2   0  210.68   11.10
  -3  -2   0  188.18   10.10
   3  -2   0  174.18   11.70
  -3   2  -1   95.59    4.10
  -3   2  -1   93.89    8.00
  -3   2  -1   91.39    7.50
   3   2   1  101.29    7.20
   3   2   1  114.89    9.30
  -3   2  -1   95.39    4.00
   3   2   1  103.29    8.30
   3   2   1   99.99    5.90
  -3   2  -1   98.99    7.80
  -3  -2  -1   95.29    7.80
   3  -2   1   94.99    7.90
  -3  -2  -1  102.19    6.50
   3  -2   1   97.79    7.70
  -3  -2  -1  100.39    8.90
   3  -2   1  106.79    8.00
  -3  -2  -1   93.49    8.20
   3   2   2  289.57   14.90
  -3   2  -2  280.77   14.80
  -3   2  -2  262.47   14.50
   3   2   2  260.57   11.90
   3   2   2  289.77   13.40
  -3   2  -2  273.67    9.00
   3   2   2  278.67   15.30
   3  -2   2  277.07    8.50
  -3  -2  -2  269.47   14.60
  -3  -2  -2  294.57   15.50
   3  -2   2  256.77   13.40
  -3  -2  -2  273.37   13.10
   3  -2   2  272.67   15.20
   3  -2   2  274.97   13.30
  -3  -2  -2  272.87   13.90
   3   2   3  484.15   21.90
  -3   2  -3  464.95   14.90
   3   2   3  490.95   21.40
   3   2   3  422.56   18.50
  -3   2  -3  474.45   18.90
  -3   2  -3  452.05   21.90
   3   2   3  465.65   19.20
   3  -2   3  454.55   13.90
  -3  -2  -3  476.65   20.80
   3  -2   3  473.25   19.30
   3  -2   3  489.95   22.60
  -3  -2  -3  459.15   20.30
  -3  -2  -3  436.76   24.30
  -3   2  -4  291.87   19.30
  -3   2  -4  294.27   15.20
   3   2   4  296.77   17.70
  -3   2  -4  295.77   12.90
   3   2   4  311.47   18.80
  -3  -2  -4  305.17   17.80
  -3  -2  -4  311.17   18.30
  -3  -2  -4  304.57   18.20
   3  -2   4  286.97   11.70
   3  -2   4  307.87   19.40
   3  -2   4  302.57   16.10
   3   2   5  131.69   13.90
  -3   2  -5  135.79   14.50
   3   2   5  126.79   13.90
   3   2   5  143.39   13.30
  -3   2  -5  117.99    9.80
  -3   2  -5  133.49    9.80
   3  -2   5  101.69   12.10
  -3  -2  -5  121.09   12.50
  -3  -2  -5  130.49   13.50
   3  -2   5  128.19   11.10
  -3   2  -6  209.18   20.40
  -3   2  -6  151.48   11.50
   3   2   6  202.48   18.70
   3   2   6  166.48   16.90
  -3   2  -6  182.38   17.40
  -3  -2  -6  191.58   15.70
  -3  -2  -6  180.58   16.30
   3  -2   6  192.08   18.50
   3  -2   6  140.59   16.20
  -3   2  -7   23.50    8.40
   3   2   7   12.40    7.90
  -3   2  -7   12.60    5.50
   3   2   7   15.70    8.30
   3  -2   7    3.70    4.80
   3  -2   7   14.10    8.30
  -3  -2  -7   15.90    6.40
  -3   2  -8   96.19   13.60
   3   2   8   87.89   15.70
  -3   2  -8   98.39   17.90
  -3  -2  -8  104.69   16.40
  -3   3   9  839.82   45.30
  -3   3   9  883.41   38.70
   3   3  -9  870.01   38.30
   3  -3  -9  897.61   44.10
  -3  -3   9  962.60   46.70
  -3   3   8   18.60    6.50
  -3   3   8   11.40    7.40
  -3   3   8   15.80    4.50
   3   3  -8   16.30    8.00
  -3   3   8    8.40    5.80
   3  -3  -8   19.10    6.80
  -3  -3   8   15.60    6.10
  -3  -3   8   26.20    9.70
   3   3  -7  678.53   29.10
  -3   3   7  641.44   29.10
  -3   3   7  637.74   21.20
  -3   3   7  700.83   40.10
  -3   3   7  634.44   29.80
  -3  -3   7  626.84   28.70
   3  -3  -7  614.24   36.50
  -3  -3   7  645.04   32.60
  -3   3   6  250.87   16.60
  -3   3   6  238.38   16.50
  -3   3   6  235.58   10.40
   3   3  -6  236.58   15.50
  -3   3   6  230.68   17.90
   3  -3  -6  244.88   18.20
  -3  -3   6  222.88   17.10
   3  -3  -6  215.58   10.30
  -3  -3   6  257.67   16.50
  -3   3   5  200.88   14.30
  -3   3   5  183.08    7.90
  -3   3   5  171.18   14.40
  -3   3   5  194.18   13.90
   3  -3  -5  178.68    8.00
  -3  -3   5  185.88   11.90
  -3  -3   5  193.78   13.20
   3  -3  -5  174.88   13.90
  -3  -3   5  188.38   13.20
  -3   3   4  257.67   15.10
   3   3  -4  262.67   14.40
  -3   3   4  259.87    8.50
  -3   3   4  277.77   15.70
  -3   3   4  279.07   16.00
  -3  -3   4  247.68   14.20
   3  -3  -4  253.97    8.50
  -3  -3   4  252.07   13.40
  -3  -3   4  259.67    7.60
  -3  -3   4  249.38   13.40
   3  -3  -4  243.08   18.10
  -3  -3   4  290.77   15.00
  -3  -3   4  271.77   14.60
  -3   3   3 1717.63   36.70
  -3   3   3 1610.84   45.30
  -3   3   3 1701.93   46.10
   3   3  -3 1623.14   44.60
  -3   3   3 1698.43   46.50
  -3   3   3 1749.43   47.30
   3  -3  -3 1672.83   36.40
   3  -3  -3 1679.13   46.00
  -3  -3   3 1667.73   44.10
  -3  -3   3 1677.73   45.30
   3  -3  -3 1624.24   46.90
  -3  -3   3 1678.13   44.60
  -3  -3   3 1648.73   41.60
  -3  -3   3 1681.73   42.50
  -3  -3   3 1651.03   37.80
   3   3  -2   68.19    4.50
  -3   3   2   65.99    7.20
  -3   3   2   66.59    6.30
   3   3  -2   69.19    4.20
   3   3  -2   74.59    6.80
   3   3  -2   79.79    7.50
  -3   3   2   71.09    7.40
  -3   3   2   60.19    7.20
  -3  -3   2   66.99    5.20
  -3  -3   2   74.19    5.60
   3  -3  -2   76.89    6.80
   3  -3  -2   63.69    7.00
   3  -3  -2   59.99    6.60
  -3  -3   2   65.49    6.40
  -3  -3   2   76.39    4.90
  -3  -3   2   76.29    6.70
   3   3  -1 1895.11   48.80
   3   3  -1 1858.81   45.40
  -3   3   1 1917.71   49.00
  -3   3   1 1943.41   48.40
   3   3  -1 1896.61   47.90
  -3   3   1 1903.41   45.00
  -3  -3   1 1876.41   48.30
  -3  -3   1 1927.41   47.80
   3  -3  -1 1938.41   48.70
   3  -3  -1 1932.21   45.50
   3  -3  -1 1892.91   45.20
   3  -3  -1 2008.30   49.70
  -3  -3   1 1961.80   47.40
   3  -3  -1 1944.11   45.20
  -3   3   0 1436.56   32.10
  -3   3   0 1401.16   38.40
   3   3   0 1430.76   38.10
  -3   3   0 1420.16   38.40
   3   3   0 1427.06   38.00
   3   3   0 1384.96   39.20
   3  -3   0 1367.56   38.10
   3  -3   0 1433.26   38.10
   3  -3   0 1437.36   39.50
   3  -3   0 1414.06   31.70
  -3  -3   0 1484.15   40.00
  -3  -3   0 1444.96   38.60
   3  -3   0 1527.05   38.80
  -3  -3   0 1409.96   39.30
   3   3   1 1009.60   31.70
  -3   3  -1  979.70   29.40
  -3   3  -1 1009.90   30.90
   3   3   1  982.70   29.70
   3   3   1 1004.60   31.00
   3   3   1  992.00   24.60
   3   3   1 1002.50   25.70
   3  -3   1 1023.60   31.90
   3  -3   1  969.70   30.00
  -3  -3  -1 1007.60   32.30
   3  -3   1 1016.90   31.50
  -3  -3  -1  991.70   31.40
   3  -3   1  958.80   29.90
  -3  -3  -1  968.20   30.30
   3   3   2    2.00    1.80
   3   3   2   -0.50    3.50
  -3   3  -2   -1.50    1.90
   3   3   2   -2.40    1.60
   3   3   2    0.90    2.20
  -3   3  -2   13.50    3.80
   3   3   2   -3.30    2.00
   3  -3   2    0.80    2.10
  -3  -3  -2    0.40    3.20
   3  -3   2    0.90    2.30
  -3  -3  -2   -4.00    2.10
   3  -3   2   -2.30    1.90
  -3  -3  -2    2.60    3.00
   3  -3   2   -1.70    2.00
  -3   3  -3  100.29    4.10
   3   3   3  102.09    8.00
   3   3   3   99.69    9.90
   3   3   3  130.79   10.20
   3   3   3  106.09   11.10
  -3   3  -3   98.79   10.80
  -3   3  -3   95.59    8.20
   3  -3   3   83.99    8.10
   3  -3   3   85.69    3.60
  -3  -3  -3  101.59   10.30
  -3  -3  -3  104.29   10.60
   3  -3   3  124.59   11.40
  -3   3  -4   60.49    4.80
   3   3   4   77.59   11.30
  -3   3  -4   70.69    7.60
   3   3   4   71.29   10.70
   3   3   4   62.19   10.40
  -3   3  -4   47.10    9.80
  -3  -3  -4   68.39   10.80
   3  -3   4   61.29    7.70
   3  -3   4   54.29   10.20
  -3  -3  -4   68.89   10.50
   3  -3   4   64.19    4.40
  -3   3  -5   21.90    7.40
  -3   3  -5   11.40    3.40
  -3   3  -5    5.90    3.50
   3   3   5   16.90    7.40
   3   3   5    6.30    5.10
   3   3   5   18.10    7.20
   3  -3   5   10.90    2.60
   3  -3   5   10.90    4.80
  -3  -3  -5   10.90    5.90
  -3  -3  -5    8.50    5.50
   3  -3   5    6.80    5.90
  -3   3  -6    0.10    3.00
  -3   3  -6    0.00    4.30
   3   3   6   -2.00    4.70
   3   3   6    3.40    4.00
  -3  -3  -6   -1.40    7.40
   3  -3   6   -5.90    5.10
   3  -3   6   -3.60    2.10
   3   3   7  179.88   19.80
   3   3   7  185.68   19.60
  -3   3  -7  178.88   19.40
   3   3   7  157.38   17.80
   3  -3   7  183.68   19.60
  -3  -3  -7  169.78   17.60
   3  -3   7  162.18   14.40
  -3   4   9   14.90   10.10
  -3   4   9   16.60    9.00
   3  -4  -9   27.90    8.90
  -3  -4   9    4.90    7.30
  -3  -4   9   19.20    7.50
  -3  -4   9   -1.20    7.00
  -3   4   8   30.90   11.00
  -3   4   8   48.10   10.20
  -3   4   8   27.70    5.00
   3  -4  -8   44.60   11.40
  -3  -4   8   31.90   11.10
  -3  -4   8   38.70   10.10
  -3   4   7  532.85   18.80
  -3   4   7  569.04   30.70
  -3   4   7  517.25   28.20
  -3  -4   7  550.24   30.00
   3  -4  -7  536.35   29.80
  -3  -4   7  571.74   28.20
   3  -4  -7  492.15   18.90
  -3  -4   7  577.64   26.80
  -3   4   6   27.10    4.50
  -3   4   6   39.10    9.70
  -3   4   6   31.90    8.10
  -3   4   6   33.60    7.80
  -3  -4   6   35.20    8.20
   3  -4  -6   30.70    8.50
  -3  -4   6   41.00    9.00
  -3  -4   6   49.30    9.10
   3  -4  -6   29.60    4.90
   3   4  -5  837.12   32.20
  -3   4   5  818.62   33.50
  -3   4   5  854.51   33.00
  -3   4   5  856.91   23.20
  -3   4   5  813.92   33.30
   3  -4  -5  853.91   34.20
  -3  -4   5  864.01   30.50
   3  -4  -5  808.02   23.10
  -3  -4   5  831.92   32.10
  -3  -4   5  853.21   32.50
  -3   4   4  529.15   16.00
  -3   4   4  559.24   24.40
   3   4  -4  523.85   23.50
  -3   4   4  507.15   23.50
  -3   4   4  543.55   24.70
   3  -4  -4  490.15   23.20
  -3  -4   4  522.15   21.40
  -3  -4   4  517.25   20.10
  -3  -4   4  529.15   14.40
  -3  -4   4  519.05   21.20
   3  -4  -4  504.45   15.80
  -3   4   3 3359.06   82.09
  -3   4   3 3418.76   74.59
  -3   4   3 3546.15   83.59
   3   4  -3 3497.25   83.89
  -3   4   3 3389.36   85.29
  -3   4   3 3454.05   84.19
  -3  -4   3 3415.46   82.29
  -3  -4   3 3374.56   81.39
  -3  -4   3 3441.26   76.19
   3  -4  -3 3500.15   83.19
  -3  -4   3 3531.05   77.79
  -3  -4   3 3480.55   81.09
   3  -4  -3 3410.46   83.69
  -3  -4   3 3464.75   74.99
   3   4  -2  938.21   24.20
  -3   4   2  927.41   29.80
  -3   4   2  964.60   31.30
   3   4  -2  896.71   30.50
  -3   4   2  897.31   27.90
   3   4  -2  893.51   29.00
  -3   4   2  925.11   31.80
  -3   4   2  932.81   25.90
   3   4  -2  896.61   23.50
  -3  -4   2  914.61   22.80
   3  -4  -2  962.00   28.80
  -3  -4   2  927.31   22.10
   3  -4  -2  925.01   25.30
  -3  -4   2  964.00   29.00
  -3  -4   2  919.61   26.70
  -3  -4   2  923.41   29.90
   3  -4  -2  917.31   30.80
   3  -4  -2  906.31   30.40
  -3   4   1    2.20    2.90
   3   4  -1    4.10    2.20
   3   4  -1   -0.20    2.60
   3   4  -1    4.90    2.20
  -3   4   1   -1.70    1.80
  -3   4   1    1.90    1.80
  -3   4   1    0.90    2.00
   3   4  -1    5.50    2.90
  -3   4   1    4.80    3.40
   3  -4  -1    2.00    2.80
  -3  -4   1    3.90    2.90
   3  -4  -1    2.40    2.60
  -3  -4   1    5.10    2.80
   3  -4  -1    6.70    2.70
   3  -4  -1    1.70    2.10
   3  -4  -1    1.90    1.90
  -3  -4   1    2.90    2.40
   3   4   0  336.67   16.60
  -3   4   0  341.07   15.70
   3   4   0  335.77   15.20
  -3   4   0  337.57   10.30
  -3   4   0  308.27   15.30
   3   4   0  350.26   15.40
   3  -4   0  337.27   10.60
   3  -4   0  335.37   15.60
  -3  -4   0  359.26   16.90
  -3  -4   0  334.87   15.60
  -3  -4   0  363.36   17.20
   3  -4   0  329.47   15.40
   3  -4   0  347.27   15.50
   3   4   1 1383.06   37.20
  -3   4  -1 1386.46   39.90
   3   4   1 1292.17   40.10
   3   4   1 1315.67   38.70
  -3  -4  -1 1316.07   40.40
  -3  -4  -1 1348.77   39.80
  -3  -4  -1 1367.06   41.60
   3  -4   1 1320.27   38.70
   3  -4   1 1372.96   39.10
   3  -4   1 1319.57   40.00
   3  -4   1 1316.47   40.30
  -3   4  -2    7.30    3.30
   3   4   2   23.90    4.70
   3   4   2   14.50    4.40
  -3   4  -2   18.90    5.70
   3   4   2   17.20    3.70
   3   4   2   20.40    5.80
   3  -4   2    8.60    3.70
   3  -4   2   16.50    5.20
  -3  -4  -2   11.80    4.70
  -3  -4  -2   19.30    5.40
   3   4   3 1345.17   40.70
   3   4   3 1267.67   42.80
  -3   4  -3 1247.18   43.30
  -3   4  -3 1269.57   37.10
   3   4   3 1318.67   43.40
   3   4   3 1309.17   39.20
   3  -4   3 1343.97   39.80
  -3  -4  -3 1299.87   43.10
   3  -4   3 1280.37   44.60
  -3  -4  -3 1336.47   44.80
   3   4   4   -2.40    3.40
   3   4   4   -0.40    3.10
  -3   4  -4    0.00    2.20
   3   4   4   -4.10    3.20
  -3   4  -4   -2.40    4.20
   3  -4   4   -4.30    2.60
   3  -4   4    0.20    2.40
  -3  -4  -4   -1.70    3.00
   3   4   5  378.16   23.60
  -3   4  -5  395.76   25.20
   3   4   5  419.96   23.50
   3   4   5  372.86   22.40
  -3   4  -5  352.16   20.90
   3   4   5  406.26   25.40
   3  -4   5  362.26   19.10
  -3  -4  -5  353.66   23.20
  -3  -4  -5  354.46   23.00
   3  -4   5  378.46   24.80
   3   4   6   70.19   13.20
   3   4   6   66.19   12.70
   3   4   6   58.49   11.90
  -3   4  -6   63.59   14.00
  -3  -4  -6   45.20   11.00
  -3  -4  -6   65.49   13.10
   3  -4   6   53.99    8.90
   3  -4   6   54.39    4.90
   3  -4   6   68.79   13.60
   3   4   7   86.09   16.30
   3   4   7   55.49   12.60
   3   4   7   80.79   14.10
  -3   4  -7   68.69   14.80
   3  -4   7   68.39   14.50
  -3  -4  -7   73.09   14.20
  -3   5   8   19.60    9.20
  -3   5   8   40.30    9.40
  -3  -5   8    6.60    6.70
  -3  -5   8   23.00    8.40
   3  -5  -8   16.40    7.50
  -3   5   7   -3.10    2.50
  -3   5   7   -0.50    5.30
  -3   5   7   -0.60    4.50
  -3   5   7   -0.40    5.90
  -3  -5   7    0.00    3.90
  -3  -5   7    1.20    3.90
   3  -5  -7   -4.50    5.40
  -3  -5   7   -6.40    3.90
  -3   5   6  126.39    8.40
  -3   5   6  123.59   13.50
  -3   5   6  108.29   13.40
  -3   5   6  115.79   13.80
  -3  -5   6  111.99   12.70
  -3  -5   6  140.69   12.20
   3  -5  -6  122.99   13.90
   3  -5  -6  125.09    8.90
  -3  -5   6  133.89   13.20
  -3   5   5  215.88   16.60
  -3   5   5  225.38   10.70
  -3   5   5  217.88   17.10
  -3   5   5  196.48   15.90
   3   5  -5  191.18   15.40
   3  -5  -5  198.28   16.20
  -3  -5   5  213.28   14.10
   3  -5  -5  216.88   10.70
  -3  -5   5  215.18   15.10
  -3   5   4  355.36   19.90
  -3   5   4  375.96   21.30
  -3   5   4  365.96   14.40
   3   5  -4  346.17   20.10
   3  -5  -4  344.27   14.00
  -3  -5   4  370.16   13.10
  -3  -5   4  374.26   18.00
  -3  -5   4  353.26   17.00
   3  -5  -4  367.76   20.30
  -3   5   3   93.59    7.10
  -3   5   3   88.89    9.90
  -3   5   3   77.69    9.50
   3   5  -3   77.89    9.50
  -3   5   3   78.99    9.80
   3  -5  -3   77.39    8.50
  -3  -5   3   80.99    5.90
   3  -5  -3  106.09   10.10
   3  -5  -3   82.99    6.60
  -3  -5   3   93.79    7.10
  -3  -5   3   89.69    7.10
  -3  -5   3   82.29    8.20
   3   5  -2   12.20    2.80
   3   5  -2   11.10    4.10
  -3   5   2   16.50    4.00
   3   5  -2   18.50    5.40
  -3   5   2   16.60    5.10
  -3   5   2   17.10    5.30
   3  -5  -2   12.00    3.50
   3  -5  -2   13.60    4.40
  -3  -5   2   12.90    3.80
   3  -5  -2   16.00    4.40
  -3  -5   2   17.10    2.30
  -3  -5   2   16.20    2.60
  -3  -5   2   19.40    5.10
  -3   5   1 1010.90   31.60
   3   5  -1  962.80   29.20
  -3   5   1  946.41   26.60
   3   5  -1  934.01   30.70
  -3   5   1  952.30   30.10
  -3   5   1  908.41   32.70
  -3   5   1  917.71   31.70
  -3  -5   1  966.00   35.10
   3  -5  -1  914.31   32.30
   3  -5  -1  902.71   29.00
   3  -5  -1  907.61   34.20
   3  -5  -1  968.10   27.50
  -3  -5   1  971.20   31.00
  -3   5   0  179.48   12.00
   3   5   0  185.18   13.00
  -3   5   0  181.98   12.00
  -3   5   0  175.88   12.50
  -3   5   0  169.58    7.20
   3  -5   0  204.88   13.00
   3  -5   0  167.98   11.40
   3  -5   0  175.08    7.70
   3  -5   0  176.78   12.40
  -3  -5   0  182.58   13.00
   3   5   1  461.85   27.60
  -3   5  -1  477.35   21.20
   3   5   1  456.45   21.20
   3   5   1  489.65   13.20
   3   5   1  448.86   13.10
   3   5   1  453.05   21.80
   3  -5   1  471.25   21.00
  -3  -5  -1  495.65   21.80
  -3  -5  -1  463.75   22.60
  -3   5  -2 1552.04   43.30
   3   5   2 1559.94   48.40
   3   5   2 1521.95   39.10
  -3   5  -2 1628.64   48.50
   3   5   2 1553.54   49.20
   3   5   2 1531.95   39.50
   3   5   2 1522.95   48.20
   3  -5   2 1586.94   49.70
  -3  -5  -2 1564.44   48.10
   3  -5   2 1594.24   45.90
  -3  -5  -2 1554.74   49.90
   3   5   3  100.59    9.50
   3   5   3  117.79   12.80
   3   5   3  123.69   10.10
   3   5   3   86.49   10.50
   3   5   3  115.09   12.50
  -3   5  -3  114.29   11.80
  -3   5  -3  126.29    9.90
   3  -5   3  117.29   13.30
  -3  -5  -3  104.29   12.30
  -3  -5  -3  113.69   12.30
   3  -5   3  103.59   10.20
  -3   5  -4  272.87   20.00
   3   5   4  312.77   21.60
   3   5   4  274.07   19.20
  -3   5  -4  274.27   15.30
   3   5   4  305.97   20.10
   3   5   4  276.57   16.80
  -3  -5  -4  260.17   20.10
  -3  -5  -4  303.77   20.70
   3  -5   4  268.87   20.70
   3   5   5  154.48   15.00
   3   5   5  197.48   18.20
   3   5   5  122.49   13.50
   3   5   5  156.18   15.80
  -3   5  -5  143.69   15.60
  -3  -5  -5  156.48   16.60
   3  -5   5  156.48   16.80
   3  -5   5  158.38   12.90
  -3  -5  -5  147.29   16.20
  -3   5  -6   95.29   15.80
   3   5   6   85.69   14.40
   3   5   6   70.09   13.00
  -3  -5  -6   98.89   15.80
   3  -5   6   85.99   10.70
   3  -5   6   93.19   16.10
  -3  -5  -6   58.49   14.20
   3   5   7   83.59   15.40
   3   5   7   83.69   14.80
   3   5   7   78.29   15.00
  -3  -5  -7   63.19   13.60
  -3   6   8  520.05   32.70
  -3   6   8  516.85   31.30
  -3  -6   8  557.94   32.20
  -3  -6   8  547.45   32.70
  -3   6   7   25.30    9.70
  -3   6   7   27.00    5.30
  -3   6   7   22.60    7.80
  -3  -6   7   25.10    6.80
  -3  -6   7   34.60    9.70
   3  -6  -7   19.70    8.20
  -3  -6   7   30.60    9.40
  -3   6   6  737.33   35.50
  -3   6   6  640.14   34.30
  -3   6   6  733.03   24.70
  -3  -6   6  773.72   33.20
  -3  -6   6  789.22   36.30
  -3  -6   6  765.82   30.20
   3  -6  -6  786.62   36.70
  -3   6   5  196.68   17.20
   3   6  -5  199.48   17.10
  -3   6   5  211.68   11.70
  -3   6   5  215.68   17.70
  -3   6   5  198.98   16.30
   3  -6  -5  209.48   17.00
  -3  -6   5  213.98   14.30
   3  -6  -5  191.38   11.40
  -3  -6   5  196.88   14.50
   3   6  -4   14.70    6.20
  -3   6   4    5.10    5.30
  -3   6   4    7.60    3.20
  -3   6   4    3.80    3.70
  -3   6   4    0.30    3.80
  -3  -6   4    3.70    2.20
  -3  -6   4    8.70    4.20
  -3  -6   4    4.70    2.60
   3  -6  -4   -4.50    3.00
   3  -6  -4    0.70    4.20
  -3   6   3  203.28   16.20
  -3   6   3  261.77   16.20
   3   6  -3  257.17   17.90
  -3   6   3  270.47   18.10
  -3   6   3  283.97   14.10
  -3  -6   3  270.37   13.60
   3  -6  -3  262.87   16.30
  -3  -6   3  232.68   10.50
   3  -6  -3  225.48   17.00
   3  -6  -3  220.38   12.30
  -3  -6   3  260.67   14.90
  -3   6   2  661.63   24.10
  -3   6   2  698.73   27.10
  -3   6   2  727.53   30.70
   3   6  -2  689.03   29.40
  -3   6   2  685.43   28.90
  -3   6   2  682.13   25.30
   3   6  -2  699.63   22.00
  -3  -6   2  690.13   17.50
  -3  -6   2  718.33   26.20
  -3  -6   2  729.03   26.60
  -3  -6   2  715.93   18.30
   3  -6  -2  665.43   28.60
   3  -6  -2  709.33   25.90
   3  -6  -2  685.33   24.40
  -3   6   1   14.90    3.80
  -3   6   1   15.00    5.10
   3   6  -1   17.10    4.50
   3   6  -1   17.00    5.90
  -3   6   1   18.20    5.50
  -3   6   1   22.10    6.20
  -3  -6   1   23.60    6.00
   3  -6  -1   18.70    5.70
  -3  -6   1   20.80    5.20
   3  -6  -1   19.50    5.10
   3  -6  -1   18.60    4.20
   3   6   0 1069.19   38.20
  -3   6   0 1039.30   35.50
  -3   6   0 1061.79   27.10
  -3   6   0 1097.59   37.20
  -3   6   0 1096.09   35.90
   3  -6   0 1101.09   28.30
  -3  -6   0 1143.79   38.70
   3  -6   0 1046.50   36.90
   3  -6   0 1135.69   37.60
  -3  -6   0 1080.79   36.40
   3   6   1   31.30    7.50
   3   6   1   28.60    7.00
   3   6   1   35.20    2.90
  -3   6  -1   28.30    6.00
   3   6   1   37.50    3.00
  -3   6  -1   36.60    7.40
  -3  -6  -1   20.80    6.40
  -3  -6  -1   36.70    7.60
   3  -6   1   30.30    7.20
   3  -6   1   30.90    6.60
   3   6   2   65.29   10.60
   3   6   2   52.39    9.90
  -3   6  -2   57.79   12.20
  -3   6  -2   53.89    9.70
   3   6   2   64.09    5.70
   3   6   2   70.39    6.20
   3  -6   2   56.99   10.40
  -3  -6  -2   68.99   11.30
   3  -6   2   74.89    9.20
  -3  -6  -2   70.49   11.00
   3   6   3   26.70    7.40
   3   6   3   20.30    6.70
  -3   6  -3   16.00    6.90
  -3   6  -3    8.80    3.70
   3   6   3   20.20    5.10
   3   6   3   19.00    6.50
   3  -6   3   28.60    8.20
  -3  -6  -3   31.20    8.00
   3  -6   3   15.20    4.90
  -3  -6  -3   24.40    8.00
  -3   6  -4  274.77   21.00
   3   6   4  290.37   22.00
   3   6   4  284.67   20.10
   3   6   4  284.37   17.00
  -3  -6  -4  251.37   20.90
   3  -6   4  268.07   17.30
   3   6   5    1.10    5.30
   3   6   5    4.00    4.90
  -3   6  -5    9.20    6.60
   3   6   5    6.60    6.00
   3  -6   5   11.40    5.20
  -3  -6  -5    1.10    5.70
  -3  -6  -5    6.40    7.60
   3  -6   5    8.00    7.50
   3   6   6  188.68   20.60
   3   6   6  186.78   18.60
  -3   6  -6  197.08   19.80
   3  -6   6  240.28   22.20
  -3  -6  -6  208.28   20.90
  -3   7   7   17.90    8.00
  -3   7   7   21.30    9.20
  -3  -7   7    7.80    7.30
   3  -7  -7   20.40    8.40
  -3  -7   7    7.00    5.80
  -3  -7   7   12.60    7.40
  -3   7   6  351.96   23.80
  -3   7   6  422.56   27.10
  -3  -7   6  388.26   20.20
  -3  -7   6  380.26   22.70
   3  -7  -6  394.96   26.50
  -3  -7   6  387.86   26.30
  -3   7   5  184.18   17.40
  -3   7   5  194.28   12.40
  -3   7   5  204.08   17.10
   3   7  -5  197.78   20.40
  -3  -7   5  209.38   15.00
   3  -7  -5  146.09   11.80
   3  -7  -5  218.38   18.50
  -3  -7   5  185.78   13.50
   3   7  -4  486.25   27.80
  -3   7   4  524.35   21.70
  -3   7   4  485.95   24.90
  -3   7   4  511.25   27.60
  -3  -7   4  540.55   23.10
   3  -7  -4  475.75   20.60
  -3  -7   4  474.35   18.70
  -3  -7   4  513.55   20.20
   3  -7  -4  532.85   26.80
   3   7  -3   37.10    8.60
  -3   7   3   46.20    9.00
  -3   7   3   45.80    9.70
  -3   7   3   41.10    7.60
  -3  -7   3   35.10    6.40
  -3  -7   3   47.90    8.30
  -3  -7   3   40.50    4.50
   3  -7  -3   49.99    9.60
  -3   7   2  441.46   23.40
  -3   7   2  438.06   24.30
  -3   7   2  422.76   20.90
   3   7  -2  399.06   23.40
   3   7  -2  384.86   16.10
  -3  -7   2  395.56   19.80
   3  -7  -2  394.06   24.70
  -3  -7   2  390.56   20.00
  -3   7   1  360.06   19.20
   3   7  -1  354.16   21.70
   3   7  -1  350.26   17.50
  -3   7   1  372.76   19.80
  -3   7   1  369.66   20.60
  -3  -7   1  357.06   19.40
   3  -7  -1  357.36   16.50
   3  -7  -1  359.86   21.10
  -3  -7   1  376.36   20.60
   3   7   0  295.77   19.90
  -3   7   0  341.67   18.70
  -3   7   0  299.27   11.80
  -3   7   0  356.86   20.30
  -3   7   0  302.57   17.90
   3  -7   0  331.97   19.80
  -3  -7   0  312.67   20.00
   3  -7   0  336.47   13.30
  -3  -7   0  349.57   19.30
   3   7   1   55.59   10.50
  -3   7  -1   67.69    8.80
   3   7   1   65.59    3.50
   3   7   1   73.49   10.90
  -3   7  -1   66.69    8.90
   3   7   1   67.79    3.30
   3  -7   1   57.49   10.40
  -3  -7  -1   71.49   10.80
   3  -7   1   62.09    9.90
  -3  -7  -1   69.19   11.50
  -3   7  -2    7.10    3.70
  -3   7  -2    0.40    4.10
   3   7   2    3.40    2.70
   3   7   2    3.80    2.60
   3   7   2    8.30    5.00
   3   7   2   14.50    6.60
  -3  -7  -2    2.60    5.40
  -3  -7  -2    3.50    4.70
   3  -7   2    3.50    4.50
   3  -7   2    7.90    4.30
  -3   7  -3  128.89   14.00
  -3   7  -3  101.39   10.10
   3   7   3  137.89   14.70
   3   7   3  141.29   10.00
   3   7   3  149.39   15.00
   3   7   3  140.59   15.20
   3  -7   3  128.39   12.30
   3  -7   3  126.99   15.00
  -3  -7  -3  121.49   16.80
  -3  -7  -3  126.39   19.10
   3   7   4  241.48   20.90
   3   7   4  213.08   14.50
  -3   7  -4  255.67   20.50
   3   7   4  271.97   20.40
   3  -7   4  240.98   21.40
   3  -7   4  211.18   16.00
  -3  -7  -4  223.08   20.10
  -3  -7  -4  238.38   20.80
  -3   7  -5   39.90   11.20
   3   7   5   33.90    9.40
   3   7   5   42.40   11.50
   3   7   5   23.00    7.50
  -3  -7  -5   34.60   11.70
  -3  -7  -5   21.90    9.60
   3  -7   5   36.20    7.90
   3  -7   5   36.20   11.70
  -3   7  -6    1.00    5.90
   3   7   6    2.90    6.90
   3   7   6   -1.00    7.10
   3   7   6   -2.10    5.90
   3  -7   6   -5.90    7.80
  -3   8   7   61.19   13.40
  -3   8   7   49.40   12.80
   3  -8  -7   59.09   12.60
  -3  -8   7   40.90   10.60
  -3  -8   7   69.89   13.50
  -3  -8   7   45.10    8.40
  -3   8   6   32.50   10.30
  -3   8   6   19.10    5.60
  -3  -8   6    8.20    6.10
  -3  -8   6   17.10    6.20
   3  -8  -6   13.50    7.70
  -3  -8   6   21.50    8.40
   3   8  -5 1217.88   50.39
  -3   8   5 1228.18   49.80
  -3   8   5 1189.48   39.20
  -3   8   5 1214.38   45.70
   3  -8  -5 1238.88   48.80
  -3  -8   5 1251.67   40.90
  -3   8   4    5.60    4.40
   3   8  -4    5.20    4.80
  -3   8   4   11.30    6.00
  -3   8   4    7.40    6.20
  -3  -8   4   -2.00    2.50
  -3  -8   4   -0.10    3.00
  -3  -8   4   -0.60    4.40
   3  -8  -4    7.40    5.30
  -3   8   3   40.20    9.20
  -3   8   3   35.60    7.70
   3   8  -3   29.60    9.10
  -3   8   3   29.90    6.90
  -3  -8   3   16.90    4.00
  -3  -8   3   29.40    7.00
   3  -8  -3   38.20    9.10
  -3  -8   3   27.00    9.80
  -3   8   2  195.38   14.70
   3   8  -2  184.38   17.20
  -3   8   2  185.08   14.60
  -3   8   2  193.08   16.50
  -3  -8   2  192.08   14.40
  -3  -8   2  184.08   14.80
   3  -8  -2  197.18   14.10
  -3  -8   2  195.08    9.80
   3  -8  -2  142.19   14.60
   3   8  -1   42.40    9.60
  -3   8   1   54.89    9.70
  -3   8   1   46.70    6.60
  -3   8   1   59.19    9.40
   3   8  -1   65.69    8.10
  -3   8   1   59.39   10.10
   3  -8  -1   50.99    9.70
  -3  -8   1   60.49    9.50
  -3  -8   1   56.69   10.30
   3  -8  -1   64.69    8.70
   3   8   0  133.29   12.70
  -3   8   0  121.49   12.00
  -3   8   0  122.29    7.50
  -3   8   0  129.99   12.10
   3   8   0  110.59   13.20
  -3   8   0  123.99   13.20
   3  -8   0  125.49    8.50
  -3  -8   0  126.99   14.30
  -3  -8   0  152.88   13.90
   3  -8   0  122.19   13.20
  -3   8  -1  607.64   28.00
   3   8   1  629.04   31.50
  -3   8  -1  603.74   26.20
   3   8   1  606.04   29.40
  -3  -8  -1  589.34   31.10
   3  -8   1  636.44   31.30
  -3  -8  -1  631.44   29.90
   3  -8   1  571.24   28.60
   3   8   2   41.30    4.30
   3   8   2   53.59   10.60
  -3   8  -2   45.00   10.10
   3   8   2   49.30    5.10
  -3   8  -2   46.80    8.00
   3  -8   2   52.69   11.20
   3  -8   2   31.70    7.60
  -3  -8  -2   32.80    9.00
   3   8   3  458.95   28.20
   3   8   3  498.45   18.90
   3   8   3  531.35   29.80
  -3   8  -3  479.55   23.60
  -3   8  -3  523.35   29.20
  -3  -8  -3  547.05   32.40
  -3  -8  -3  515.95   29.80
   3  -8   3  530.85   31.20
   3  -8   3  480.05   25.60
   3   8   4   -2.80    5.10
   3   8   4   -5.40    6.80
  -3   8  -4    7.90    6.30
   3   8   4   -4.90    4.60
  -3  -8  -4    4.10    6.30
  -3  -8  -4   -6.80    7.20
   3  -8   4    2.20    6.50
   3  -8   4   -4.30    3.90
   3   8   5   17.90    8.00
   3   8   5   17.60    8.40
  -3   8  -5   48.10   12.80
   3   8   5   47.50   12.80
   3  -8   5   30.30   11.50
  -3  -8  -5   15.50   10.90
  -3  -8  -5   36.10   10.40
  -3   9   6   -7.10    4.50
  -3   9   6   -6.80    7.60
  -3   9   6    2.00    6.60
  -3  -9   6   -0.70    5.40
   3  -9  -6   -2.20    4.90
  -3   9   5   35.00    7.10
  -3   9   5   36.70    9.60
  -3   9   5   13.70    8.00
   3   9  -5   20.20    9.30
  -3  -9   5   28.80    7.30
   3  -9  -5   33.50    8.80
  -3  -9   5   26.00    7.30
  -3   9   4   28.20    8.30
  -3   9   4   24.30    6.90
  -3   9   4   13.50    7.60
   3   9  -4   33.40   10.30
  -3  -9   4   26.10    5.80
   3  -9  -4   39.20    9.60
  -3  -9   4   38.40    8.30
   3   9  -3  395.36   27.10
  -3   9   3  350.66   24.70
  -3   9   3  332.97   20.90
  -3   9   3  358.36   21.40
  -3  -9   3  360.76   20.80
   3  -9  -3  363.36   21.90
  -3  -9   3  340.97   20.40
  -3   9   2   13.90    6.40
   3   9  -2   14.40    6.80
  -3   9   2   10.10    6.40
  -3   9   2   14.70    6.20
   3  -9  -2   13.80    6.30
  -3  -9   2   22.40    7.00
  -3  -9   2    4.20    5.00
  -3   9   1  417.66   22.70
  -3   9   1  398.26   24.60
  -3   9   1  395.76   23.60
   3   9  -1  414.16   26.60
  -3  -9   1  431.46   24.00
   3  -9  -1  370.26   23.80
  -3  -9   1  378.56   24.30
   3  -9  -1  389.96   19.00
  -3   9   0   14.80    7.70
  -3   9   0    8.10    3.40
   3   9   0   16.30    6.70
  -3   9   0   20.70    7.10
   3   9   0    8.40    5.80
  -3  -9   0   18.30    7.70
   3  -9   0   10.30    4.00
  -3  -9   0   19.50    7.00
   3  -9   0   14.10    6.50
   3  -9   0   17.40    6.70
   3   9   1  652.23   31.40
   3   9   1  679.13   34.40
  -3   9  -1  633.84   30.10
  -3  -9  -1  631.44   31.70
  -3  -9  -1  638.04   34.00
   3  -9   1  628.54   32.90
   3  -9   1  543.05   29.70
   3   9   2  538.25   30.90
   3   9   2  536.75   29.90
  -3   9  -2  560.34   29.10
   3  -9   2  466.35   29.50
  -3  -9  -2  517.45   29.60
  -3  -9  -2  528.65   32.10
   3  -9   2  502.75   27.60
  -3   9  -3   14.80    8.10
   3   9   3    5.60    6.30
   3   9   3    1.70    8.00
   3   9   3   -0.60    3.70
   3  -9   3    4.10    5.80
  -3  -9  -3    3.00    7.60
  -3  -9  -3    0.60    3.70
  -3   9  -4    8.10    7.40
   3   9   4   11.30   10.20
   3   9   4    2.80    7.00
   3   9   4  -12.60    8.50
   3  -9   4    6.10    7.30
  -3  -9  -4    4.00    7.00
  -3  -9  -4   -1.20    7.90
   3  10  -5   12.10    8.00
  -3  10   5   11.50   10.70
  -3  10   5   -5.20    5.80
   3 -10  -5   10.10    7.70
  -3  10   4   16.00    6.40
  -3  10   4   16.90    6.60
  -3  10   4   -4.60    8.90
   3  10  -4    9.80    7.50
   3 -10  -4   15.30    7.70
  -3 -10   4    0.70    6.20
  -3  10   3  392.46   23.30
   3  10  -3  354.96   27.40
  -3  10   3  422.56   29.30
  -3  10   3  417.96   24.80
  -3 -10   3  388.66   23.50
  -3 -10   3  368.56   22.60
   3  10  -2   65.49   13.10
  -3  10   2   55.79   12.90
  -3  10   2   64.39   10.90
  -3 -10   2   52.99    9.90
   3 -10  -2   65.39   10.00
   3  10  -1   66.39   13.30
  -3  10   1   61.49   16.30
  -3  10   1   81.69   13.40
  -3 -10   1   72.09   12.50
   3 -10  -1   65.99    9.60
  -3 -10   1   57.09   11.00
  -3  10   0   17.80    7.80
   3  10   0   16.90    7.30
  -3  10   0   23.40    7.50
   3 -10   0   16.90    4.80
  -3 -10   0    5.20    6.60
   3 -10   0    6.20    6.20
  -3 -10   0   21.50    8.10
  -3  10  -1   12.70    6.80
   3  10   1    3.00    5.30
  -3 -10  -1   -2.40    6.70
  -3 -10  -1   10.50    6.00
   3 -10   1   -8.90    5.10
  -3  10  -2    1.00    6.00
   3  10   2   -2.80    4.40
  -3 -10  -2   -0.60    5.90
  -3 -10  -2   -1.60    7.40
   3 -10   2   -4.20    5.90
  -3  10  -3   79.49   14.60
   3  10   3   54.79   11.70
  -3 -10  -3   61.89   15.40
   3 -10   3   94.19   17.40
  -3 -10  -3   83.49   14.80
  -3  11   3    0.80    6.60
  -3  11   3    6.50    5.80
   3  11  -3    6.50    7.60
  -3 -11   3   21.90    6.90
   3 -11  -3    4.80    6.60
   3  11  -2    0.50    5.50
  -3  11   2    6.40    6.30
  -3  11   2    6.20    6.10
   3 -11  -2   -4.60    5.30
  -3 -11   2    0.70    6.00
   3  11  -1  118.49   21.20
  -3  11   1  140.29   14.80
  -3  11   1  133.09   16.80
  -3 -11   1  139.79   15.60
   3 -11  -1  145.69   12.50
  -3 -11   1  140.49   16.60
   3  11   0    3.40    6.90
  -3  11   0    0.60    6.00
   3 -11   0    5.30    6.70
  -3 -11   0   18.80    7.40
  -3 -11   0   -1.70    5.60
  -3  11  -1   29.60    8.70
  -3 -11  -1    2.70    8.20
  -3 -11  -1   33.30    9.60
   3 -11   1   19.70    9.80
  -4   0   9    3.30    3.90
  -4   0   9   -1.00    2.70
   4   0  -9   -3.30    4.80
  -4   0   9   -6.50    4.80
  -4   0   8  117.09    9.80
   4   0  -8  131.69   14.90
  -4   0   8  119.09   10.70
  -4   0   8  129.59   15.90
  -4   0   8  105.49    9.80
  -4   0   8  107.79    8.60
  -4   0   7    0.30    2.50
  -4   0   7    0.70    5.50
   4   0  -7    5.50    4.20
  -4   0   7    1.50    2.30
  -4   0   7   -1.00    2.00
  -4   0   6   10.20    3.80
  -4   0   6   16.80    7.10
  -4   0   6   13.80    3.90
   4   0  -6    6.80    4.30
  -4   0   6    6.90    3.00
  -4   0   6   14.30    3.20
  -4   0   5   -0.40    1.90
   4   0  -5    0.80    3.60
  -4   0   5    0.40    1.60
  -4   0   5    1.70    1.60
  -4   0   5   -1.40    3.50
  -4   0   5   -0.30    2.00
  -4   0   4   26.20    2.80
   4   0  -4   23.50    5.20
  -4   0   4   20.60    5.60
  -4   0   4   24.70    5.90
   4   0  -4   17.90    4.70
   4   0  -4   19.30    3.00
  -4   0   4   21.60    2.40
  -4   0   4   18.60    3.70
   4   0  -3   -0.10    2.40
  -4   0   3    0.90    1.40
  -4   0   3    1.00    2.70
  -4   0   3    1.20    1.90
   4   0  -3    0.50    1.40
   4   0  -3   -2.10    2.00
   4   0  -3    0.00    1.10
  -4   0   3    0.80    2.00
  -4   0   2 1078.29   29.40
   4   0  -2 1035.40   28.80
  -4   0   2 1048.40   29.40
  -4   0   2 1065.79   30.90
  -4   0   2 1089.39   30.90
   4   0  -2 1094.99   30.30
   4   0  -1   -0.70    2.10
  -4   0   1    1.20    2.20
  -4   0   1    0.90    2.60
  -4   0   1    4.70    3.00
  -4   0   1    0.80    2.10
   4   0  -1    0.20    2.60
   4   0  -1    6.00    3.00
  -4   0   1   -4.60    1.70
  -4   0   0  375.56   16.10
  -4   0   0  364.36   14.00
  -4   0   0  362.66   14.90
   4   0   0  366.36   15.60
   4   0   0  369.66   13.80
   4   0   0  376.26   15.50
   4   0   0  370.36   13.90
  -4   0   0  364.86   13.50
   4   0   1    1.70    3.50
   4   0   1   -1.00    1.80
  -4   0  -1    1.00    2.70
  -4   0  -1    0.10    2.70
   4   0   1    0.00    1.70
  -4   0  -1    1.50    2.70
   4   0   1    0.00    1.80
  -4   0  -1    2.10    2.40
  -4   0  -2 1275.27   38.00
  -4   0  -2 1290.87   43.40
  -4   0  -2 1256.87   38.20
   4   0   2 1269.07   37.90
  -4   0  -2 1241.28   34.20
   4   0   2 1209.28   35.70
   4   0   2 1240.08   39.30
   4   0   2 1287.37   33.40
  -4   0  -3   -5.20    2.20
  -4   0  -3   -0.50    2.80
   4   0   3    4.50    3.00
   4   0   3    3.10    4.20
  -4   0  -3   -1.10    2.30
   4   0   4   65.49   11.30
   4   0   4   69.49    7.00
   4   0   4   58.29    9.00
  -4   0  -4   85.79    8.80
  -4   0  -4   88.09   11.30
   4   0   5    4.80    5.20
  -4   0  -5    1.40    4.80
  -4   0  -5   -4.60    3.20
   4   0   5   -4.80    3.50
  -4   0  -6  221.68   16.40
   4   0   6  195.38   16.40
   4   0   6  241.98   20.80
  -4   0  -6  219.08   18.30
  -4   0  -6  182.98   18.60
  -4   0  -7  -10.10    5.90
   4   0   7   -9.40    5.70
  -4   0  -7   -6.90    5.20
  -4   1   9  207.48   20.70
   4   1  -9  211.28   18.80
  -4   1   9  194.08   14.80
  -4  -1   9  177.18   14.60
  -4  -1   9  239.98   22.20
  -4  -1   9  219.48   12.40
   4  -1  -9  222.68   19.70
  -4  -1   9  190.48   12.40
  -4   1   8  223.98   12.50
  -4   1   8  220.68   12.00
  -4   1   8  246.38   21.30
  -4   1   8  251.07   16.10
   4   1  -8  275.67   20.40
  -4   1   8  247.78   16.60
  -4  -1   8  249.38   18.10
  -4  -1   8  280.57   22.40
  -4  -1   8  269.97   13.80
  -4  -1   8  274.47   13.50
   4  -1  -8  240.28   20.40
  -4   1   7  468.45   27.10
  -4   1   7  451.85   21.60
  -4   1   7  478.45   21.30
   4   1  -7  439.86   24.50
  -4   1   7  443.26   15.50
  -4   1   7  442.36   15.50
   4  -1  -7  466.65   26.00
  -4  -1   7  452.75   18.80
  -4  -1   7  479.25   17.50
  -4  -1   7  485.15   26.70
  -4  -1   7  458.85   19.60
  -4  -1   7  443.56   17.70
  -4   1   6   28.00    6.10
  -4   1   6   24.30    8.10
   4   1  -6   20.90    6.70
  -4   1   6   15.00    4.40
  -4  -1   6   16.90    4.40
   4  -1  -6   11.60    5.90
  -4  -1   6   16.30    3.30
  -4  -1   6   15.60    3.70
  -4  -1   6    9.80    6.00
  -4  -1   6   10.80    3.20
  -4   1   5 1263.07   36.80
  -4   1   5 1218.28   26.00
  -4   1   5 1265.37   37.40
   4   1  -5 1270.57   40.80
  -4   1   5 1274.67   26.20
  -4   1   5 1218.28   41.50
   4  -1  -5 1212.88   41.10
  -4  -1   5 1321.27   34.20
  -4  -1   5 1268.87   41.10
  -4  -1   5 1227.68   33.00
  -4  -1   5 1308.77   33.50
  -4  -1   5 1248.98   32.30
  -4   1   4 1069.69   32.30
   4   1  -4 1120.09   35.30
   4   1  -4 1153.08   29.70
  -4   1   4 1156.88   36.40
  -4  -1   4 1126.89   34.90
  -4  -1   4 1117.59   29.10
   4  -1  -4 1087.69   35.60
  -4  -1   4 1140.39   29.00
  -4  -1   4 1157.18   35.10
   4  -1  -4 1066.09   36.30
   4   1  -3 2265.67   50.09
   4   1  -3 2244.78   55.49
  -4   1   3 2224.38   60.39
  -4   1   3 2200.58   55.29
   4   1  -3 1933.31   52.89
  -4   1   3 2204.88   53.39
   4   1  -3 2147.59   48.50
  -4  -1   3 2083.59   54.99
   4  -1  -3 2162.68   52.49
  -4  -1   3 2189.88   55.99
  -4  -1   3 2168.58   50.19
  -4  -1   3 2250.47   53.39
   4  -1  -3 2185.78   55.49
  -4  -1   3 2152.08   49.20
  -4   1   2 1604.14   34.80
  -4   1   2 1571.54   40.70
   4   1  -2 1584.54   38.30
  -4   1   2 1610.04   41.00
   4   1  -2 1568.94   39.00
  -4   1   2 1553.24   41.10
   4   1  -2 1594.34   38.10
   4  -1  -2 1520.95   40.30
  -4  -1   2 1550.14   39.00
  -4  -1   2 1561.74   41.30
  -4  -1   2 1515.25   41.40
   4  -1  -2 1586.64   34.60
  -4  -1   2 1602.84   38.10
   4  -1  -2 1496.25   41.00
  -4  -1   2 1517.45   37.80
   4  -1  -2 1592.94   40.70
  -4   1   1  229.88   10.80
   4   1  -1  238.78   11.20
  -4   1   1  239.68   10.40
  -4   1   1  245.28   10.90
  -4   1   1  257.27   12.50
  -4   1   1  243.38   11.70
   4   1  -1  231.98    9.70
   4   1  -1  255.87   12.00
   4   1  -1  258.37   11.60
   4  -1  -1  230.58   11.90
  -4  -1   1  252.87   12.20
  -4  -1   1  244.28   11.40
  -4  -1   1  248.28    9.70
   4  -1  -1  259.47   12.10
  -4  -1   1  245.58   11.90
   4  -1  -1  242.18   10.40
   4   1   0  531.45   19.60
   4   1   0  555.54   18.60
  -4   1   0  520.95   16.20
   4   1   0  527.25   16.30
  -4   1   0  548.95   19.00
  -4   1   0  513.25   18.80
  -4   1   0  515.75   16.40
  -4   1   0  537.25   19.90
   4   1   0  541.35   19.50
  -4  -1   0  515.15   19.00
   4  -1   0  551.24   19.20
   4  -1   0  501.45   18.30
  -4  -1   0  532.95   16.70
   4  -1   0  521.45   19.50
  -4  -1   0  521.65   18.10
  -4  -1   0  528.65   19.90
   4   1   1 2714.93   66.39
   4   1   1 2646.04   61.99
  -4   1  -1 2699.33   58.99
   4   1   1 2656.63   60.89
  -4   1  -1 2754.72   70.59
   4   1   1 2703.83   65.39
  -4   1  -1 2696.33   73.49
  -4   1  -1 2542.45   64.09
  -4  -1  -1 2632.44   62.59
   4  -1   1 2566.44   63.49
   4  -1   1 2646.44   65.79
   4  -1   1 2629.54   64.69
   4  -1   1 2713.63   59.09
  -4  -1  -1 2682.83   62.39
  -4  -1  -1 2738.13   66.39
  -4  -1  -1 2610.34   65.59
  -4   1  -2  345.27   17.20
  -4   1  -2  328.07   16.30
   4   1   2  341.27   17.60
  -4   1  -2  337.27   12.80
   4   1   2  315.17   16.40
   4   1   2  327.07   14.60
   4  -1   2  314.47   15.30
  -4  -1  -2  335.77   15.30
   4  -1   2  330.07   12.20
   4  -1   2  296.87   17.80
  -4  -1  -2  327.37   17.30
  -4  -1  -2  338.97   16.00
   4  -1   2  311.57   17.10
  -4   1  -3  491.65   23.50
   4   1   3  450.25   18.70
  -4   1  -3  478.65   17.90
   4   1   3  468.95   22.00
   4   1   3  445.36   22.70
   4  -1   3  495.45   21.70
  -4  -1  -3  518.65   23.40
   4  -1   3  520.85   24.70
  -4  -1  -3  492.95   20.70
  -4  -1  -3  507.25   23.30
   4  -1   3  475.05   16.50
  -4   1  -4  786.72   33.70
   4   1   4  785.52   31.70
   4   1   4  822.92   34.50
  -4   1  -4  790.42   30.70
  -4   1  -4  829.92   27.20
   4  -1   4  790.82   30.70
   4  -1   4  778.92   33.60
  -4  -1  -4  812.32   30.50
  -4  -1  -4  837.92   32.70
  -4  -1  -4  803.72   33.10
  -4   1  -5  177.98   12.70
  -4   1  -5  205.28   17.90
   4   1   5  149.49   14.70
  -4   1  -5  179.18   15.70
   4   1   5  171.78   17.10
   4  -1   5  179.78   14.40
  -4  -1  -5  197.58   14.90
  -4  -1  -5  173.58   16.40
   4  -1   5  203.68   17.80
  -4   1  -6  358.96   31.30
   4   1   6  334.17   24.70
  -4   1  -6  329.77   24.30
  -4   1  -6  343.47   18.60
   4   1   6  275.17   24.00
   4  -1   6  328.37   20.80
  -4  -1  -6  303.57   22.80
   4  -1   6  289.27   22.90
  -4  -1  -6  334.87   24.40
  -4  -1  -6  341.67   21.50
   4   1   7   71.69   14.40
   4   1   7  112.59   18.90
  -4   1  -7  127.99   12.90
  -4   1  -7  115.99   14.50
  -4  -1  -7  135.59   14.20
   4  -1   7   85.99   14.20
   4   2  -9  313.67   22.40
  -4   2   9  346.27   27.00
  -4   2   9  319.67   20.60
  -4  -2   9  316.97   12.10
  -4  -2   9  302.97   24.90
   4  -2  -9  326.57   25.10
  -4   2   8  226.38   17.40
  -4   2   8  224.08   10.00
  -4   2   8  257.47   21.40
   4   2  -8  268.67   19.60
  -4   2   8  266.37   18.00
  -4  -2   8  240.78   16.10
  -4  -2   8  247.08   10.40
   4  -2  -8  283.87   21.30
  -4  -2   8  243.88   10.60
  -4  -2   8  260.97   21.50
  -4   2   7   14.80    8.00
   4   2  -7   17.20    6.00
  -4   2   7   18.60    6.20
  -4   2   7   13.60    5.00
  -4  -2   7   15.10    2.90
  -4  -2   7   11.10    6.00
   4  -2  -7   14.90    6.90
  -4  -2   7   13.50    6.60
  -4  -2   7   14.90    2.90
  -4   2   6 1499.45   51.49
   4   2  -6 1487.35   48.20
  -4   2   6 1551.94   47.60
  -4   2   6 1571.54   46.50
  -4  -2   6 1504.15   43.00
  -4  -2   6 1561.84   36.40
   4  -2  -6 1558.14   51.49
  -4  -2   6 1536.85   50.29
  -4  -2   6 1575.64   44.60
  -4  -2   6 1595.84   37.40
   4   2  -5  928.51   33.00
  -4   2   5  925.91   31.40
  -4   2   5  911.91   34.50
  -4   2   5  906.21   32.10
  -4  -2   5  895.21   28.20
   4  -2  -5  962.40   35.10
  -4  -2   5  939.91   23.60
  -4  -2   5  914.21   29.30
  -4   2   4  913.91   36.80
  -4   2   4 1017.60   31.70
  -4   2   4  961.40   31.90
   4   2  -4  950.90   28.90
  -4  -2   4  984.00   31.20
  -4  -2   4  977.30   31.30
  -4  -2   4  962.90   26.90
  -4  -2   4  934.81   27.90
  -4  -2   4  983.10   36.60
   4   2  -3 2177.78   47.50
  -4   2   3 2251.07   57.29
   4   2  -3 2291.57   53.89
  -4   2   3 2256.67   56.09
  -4   2   3 2160.18   56.79
   4  -2  -3 2185.38   56.69
  -4  -2   3 2284.07   57.09
  -4  -2   3 2205.58   50.79
   4  -2  -3 2223.08   55.59
  -4  -2   3 2176.38   57.09
  -4  -2   3 2201.58   53.49
   4  -2  -3 2183.68   58.09
  -4  -2   3 2260.07   52.99
  -4  -2   3 2207.28   53.09
  -4   2   2   67.89    6.40
  -4   2   2   80.39    7.70
  -4   2   2   85.09    7.80
   4   2  -2   76.09    6.70
   4   2  -2   82.49    5.80
  -4  -2   2   77.59    6.50
  -4  -2   2   67.59    6.20
   4  -2  -2   82.59    6.90
   4  -2  -2   71.89    6.90
   4  -2  -2   82.29    4.50
  -4  -2   2   73.59    5.20
   4  -2  -2   80.69    8.40
  -4  -2   2   95.09    8.10
   4  -2  -2   76.69    4.40
   4   2  -1 1951.70   43.30
  -4   2   1 1859.71   46.20
  -4   2   1 1878.81   45.70
  -4   2   1 1995.80   49.30
   4   2  -1 1967.40   49.00
  -4   2   1 1966.60   49.90
   4   2  -1 1933.51   49.30
   4   2  -1 1951.50   47.50
  -4  -2   1 1967.80   42.70
  -4  -2   1 1975.00   48.80
   4  -2  -1 2011.30   50.39
   4  -2  -1 1979.20   46.10
   4  -2  -1 1949.80   45.90
  -4  -2   1 1965.10   49.00
  -4  -2   1 1978.50   48.90
   4  -2  -1 1879.61   49.10
  -4   2   0 1351.76   32.60
  -4   2   0 1340.87   31.90
   4   2   0 1355.26   31.60
  -4   2   0 1352.36   37.90
   4   2   0 1336.37   36.90
  -4   2   0 1323.67   36.60
   4   2   0 1379.46   37.70
  -4   2   0 1370.46   37.70
   4   2   0 1334.67   38.20
   4  -2   0 1323.07   38.10
   4  -2   0 1342.27   40.30
  -4  -2   0 1327.57   37.90
   4  -2   0 1403.96   37.20
  -4  -2   0 1384.56   37.20
  -4  -2   0 1329.57   38.30
  -4  -2   0 1360.96   32.10
  -4   2  -1  122.69    9.40
   4   2   1  122.09    9.60
  -4   2  -1  125.79    9.50
   4   2   1  132.79    8.80
   4   2   1  120.49    6.90
   4   2   1  128.49   10.00
  -4   2  -1  121.99    9.60
   4  -2   1  123.89    9.50
  -4  -2  -1  135.79    9.60
  -4  -2  -1  130.99    8.00
  -4  -2  -1  113.29    9.40
   4  -2   1  127.29    9.70
  -4  -2  -1  109.29    9.90
   4  -2   1  122.89    9.00
   4   2   2  270.37   15.20
  -4   2  -2  255.27   14.10
   4   2   2  249.38   12.00
   4   2   2  238.48   12.90
   4   2   2  242.28   15.50
  -4   2  -2  256.67    9.50
  -4  -2  -2  230.98   13.80
   4  -2   2  253.37    9.10
  -4  -2  -2  270.77   16.30
   4  -2   2  267.07   14.50
  -4  -2  -2  268.07   13.60
   4   2   3   84.79    7.90
  -4   2  -3   83.19    6.10
  -4   2  -3   76.19    8.80
  -4   2  -3   69.09   10.70
   4   2   3   63.49   10.20
   4   2   3   88.59    9.70
  -4  -2  -3   73.99    8.70
  -4  -2  -3   64.99    9.20
   4  -2   3   70.29    8.20
  -4  -2  -3   84.39   10.00
   4  -2   3   70.29    5.10
   4  -2   3   78.29    9.70
  -4   2  -4   99.59    7.60
  -4   2  -4   95.79   12.10
   4   2   4   81.39   11.70
  -4   2  -4   89.89    9.70
   4   2   4  111.79   12.30
  -4  -2  -4  114.19   12.50
   4  -2   4  104.49   10.40
   4  -2   4  100.99   12.80
  -4  -2  -4   93.09   10.60
  -4  -2  -4  106.89   11.60
   4  -2   4   89.49    6.50
   4   2   5   66.29   12.40
  -4   2  -5   68.99   12.50
   4   2   5   78.49   12.00
  -4   2  -5   81.79    7.80
  -4   2  -5   54.49    8.70
  -4  -2  -5   77.89   11.80
  -4  -2  -5   64.19   11.10
  -4  -2  -5   73.09   12.30
   4  -2   5   68.09   10.00
   4  -2   5   56.19   11.20
  -4   2  -6   46.50   12.10
   4   2   6   47.10   11.80
   4   2   6   39.40   10.90
   4  -2   6   31.10   10.10
  -4  -2  -6   22.50    8.70
  -4  -2  -6   51.89   10.20
   4  -2   6   30.40    8.30
  -4   2  -7   19.30    7.10
   4   2   7   13.60    9.50
  -4   2  -7   21.00    8.30
   4   2   7   32.40   11.30
   4  -2   7   32.90    9.80
  -4  -2  -7   30.30    9.40
   4   3  -9   18.00    6.50
  -4   3   9    7.60    9.70
  -4   3   9    1.00    5.00
  -4  -3   9    2.30    6.50
  -4  -3   9   -5.00    5.30
   4  -3  -9    4.80    6.70
  -4  -3   9   15.50    7.30
  -4   3   8    7.90    5.80
  -4   3   8   12.30    5.80
  -4   3   8    3.20    6.60
   4   3  -8   23.00    7.50
  -4  -3   8   13.90    5.80
  -4  -3   8    2.60    6.80
  -4  -3   8   16.60    6.30
   4  -3  -8   17.20    7.40
  -4   3   7  699.33   31.30
  -4   3   7  677.93   32.20
   4   3  -7  676.73   30.20
  -4   3   7  768.72   41.80
  -4  -3   7  647.84   30.40
   4  -3  -7  657.43   39.50
  -4  -3   7  642.34   32.10
  -4  -3   7  688.33   29.10
  -4   3   6  246.68   16.50
  -4   3   6  245.18   17.30
  -4   3   6  291.77   20.10
  -4  -3   6  259.87   16.10
  -4  -3   6  271.77    7.30
   4  -3  -6  255.27   18.60
  -4  -3   6  257.17    7.30
  -4  -3   6  275.17   18.20
  -4  -3   6  280.47   17.90
  -4   3   5  713.93   28.50
  -4   3   5  686.33   30.20
  -4   3   5  736.03   29.70
   4   3  -5  747.33   27.40
  -4  -3   5  688.33   27.80
  -4  -3   5  759.32   29.20
  -4  -3   5  744.73   26.40
  -4  -3   5  753.12   18.50
   4  -3  -5  742.53   30.70
  -4   3   4   47.40    7.50
   4   3  -4   74.29    8.00
  -4   3   4   68.19   10.00
  -4   3   4   62.09   10.50
  -4  -3   4   71.69    7.30
  -4  -3   4   68.69    8.10
  -4  -3   4   72.49    4.90
  -4  -3   4   61.59    6.70
  -4  -3   4   78.49    7.30
   4  -3  -4   69.79    9.70
   4   3  -3    3.90    1.00
  -4   3   3    5.30    3.60
  -4   3   3    7.30    3.10
   4   3  -3    1.80    2.80
  -4   3   3    3.10    3.10
   4   3  -3    3.40    0.90
  -4  -3   3    4.80    2.70
  -4  -3   3    1.70    2.20
  -4  -3   3    4.10    2.00
  -4  -3   3    4.40    3.70
  -4  -3   3   -0.40    2.70
   4  -3  -3    4.00    3.10
   4  -3  -3    3.30    0.90
  -4  -3   3    2.50    2.40
   4  -3  -3    2.80    0.90
   4  -3  -3    7.70    3.20
  -4   3   2  169.98   11.00
   4   3  -2  185.68   11.40
   4   3  -2  173.48    8.40
  -4   3   2  169.68   11.50
   4   3  -2  167.88   10.80
  -4   3   2  204.88   11.00
  -4  -3   2  178.08    9.90
  -4  -3   2  160.08   10.50
   4  -3  -2  169.98   11.30
   4  -3  -2  186.68   10.60
   4  -3  -2  191.98   11.80
  -4  -3   2  183.68    7.00
  -4  -3   2  192.38    7.70
   4  -3  -2  190.08    8.20
   4  -3  -2  189.78    7.90
  -4  -3   2  185.58   10.80
  -4   3   1 2311.17   57.69
   4   3  -1 2256.77   57.19
  -4   3   1 2225.88   52.59
   4   3  -1 2220.88   54.19
  -4   3   1 2315.07   57.19
   4   3  -1 2228.78   56.79
   4  -3  -1 2354.06   58.59
   4  -3  -1 2152.58   56.79
  -4  -3   1 2228.58   45.80
  -4  -3   1 2245.08   56.39
   4  -3  -1 2268.57   52.19
   4  -3  -1 2288.77   53.69
   4  -3  -1 2268.97   53.69
  -4  -3   1 2270.87   56.29
   4   3   0   21.10    5.20
  -4   3   0   23.40    4.80
   4   3   0   28.70    5.50
   4   3   0   22.30    2.30
   4   3   0   19.30    5.20
  -4   3   0   24.60    5.30
   4  -3   0   24.30    5.10
  -4  -3   0   24.80    5.30
   4  -3   0   26.00    5.20
  -4  -3   0   16.30    4.80
   4  -3   0   21.70    4.70
  -4  -3   0   26.70    2.60
   4  -3   0   22.60    5.00
  -4  -3   0   21.70    5.30
  -4   3  -1  667.13   24.30
  -4   3  -1  651.53   25.00
  -4   3  -1  646.34   15.00
  -4   3  -1  646.64   14.80
   4   3   1  657.83   25.90
   4   3   1  672.73   18.70
   4   3   1  648.74   23.80
  -4   3  -1  621.84   24.60
   4   3   1  686.93   25.40
  -4  -3  -1  694.13   20.20
   4  -3   1  668.33   25.40
  -4  -3  -1  680.53   25.00
   4  -3   1  670.43   25.70
  -4  -3  -1  711.63   27.30
   4  -3   1  670.03   28.30
   4   3   2  475.35   17.10
   4   3   2  460.05   22.40
  -4   3  -2  459.25   21.90
   4   3   2  475.55   21.60
   4  -3   2  485.45   20.80
  -4  -3  -2  469.75   21.40
  -4  -3  -2  464.85   22.90
  -4  -3  -2  469.45   18.40
   4  -3   2  455.05   22.30
   4   3   3  553.24   26.80
  -4   3  -3  595.54   23.70
  -4   3  -3  566.14   13.70
   4   3   3  566.54   25.80
  -4   3  -3  590.54   27.40
   4   3   3  551.44   21.60
   4  -3   3  594.04   27.80
  -4  -3  -3  597.34   26.00
  -4  -3  -3  607.34   24.10
  -4  -3  -3  572.34   27.10
   4  -3   3  561.94   13.40
   4  -3   3  575.34   24.10
   4   3   4  174.98   14.50
   4   3   4  158.78   15.70
   4   3   4  207.88   15.50
  -4   3  -4  183.68   16.40
  -4   3  -4  189.18   13.30
  -4  -3  -4  207.88   16.80
  -4  -3  -4  178.88   14.50
   4  -3   4  177.38   13.60
   4  -3   4  176.38    8.10
   4  -3   4  177.98   15.70
  -4  -3  -4  196.48   14.90
  -4   3  -5   15.40    9.20
   4   3   5   27.30    8.80
  -4   3  -5   20.40    3.70
  -4   3  -5   31.20    6.40
   4   3   5   24.60    8.90
   4   3   5   10.00    5.20
   4  -3   5   24.80    9.20
   4  -3   5   16.40    3.20
   4  -3   5   20.50    5.90
  -4  -3  -5   34.80    8.50
  -4   3  -6   -1.60    3.10
  -4   3  -6   -2.30    5.50
   4   3   6    1.90    6.40
   4   3   6    3.60    6.90
   4  -3   6    7.90    7.40
  -4  -3  -6   -6.30    6.60
  -4  -3  -6    7.30    6.70
   4   3   7    1.80    7.20
   4   3   7    7.90    7.70
  -4  -3  -7   12.60    7.10
   4  -3   7    2.80    5.40
  -4   4   9   31.00   11.60
  -4   4   9   28.50    9.20
  -4  -4   9   29.10   10.90
  -4  -4   9   41.10   10.60
  -4  -4   9   34.40   10.10
   4  -4  -9   47.60   11.70
  -4   4   8  110.49   17.30
  -4   4   8  121.19   14.70
   4  -4  -8  115.19   14.40
  -4  -4   8  105.19   16.90
  -4  -4   8  110.19   15.50
  -4  -4   8  128.89   13.90
  -4   4   7  268.67   21.00
  -4   4   7  241.18   18.80
  -4   4   7  225.88   18.50
  -4  -4   7  226.08   17.10
   4  -4  -7  216.78   19.10
  -4  -4   7  215.98   18.40
  -4  -4   7  259.47   18.30
  -4   4   6  433.96   24.80
  -4   4   6  448.86   24.10
  -4   4   6  402.76   24.20
  -4  -4   6  432.56   23.10
  -4  -4   6  437.66   23.00
  -4  -4   6  464.85   23.10
   4  -4  -6  467.25   26.20
  -4   4   5   14.30    6.60
   4   4  -5   26.40    6.80
  -4   4   5   21.40    6.20
  -4   4   5   22.10    7.20
  -4  -4   5   15.00    2.10
   4  -4  -5   16.80    6.60
  -4  -4   5   14.50    5.70
  -4  -4   5   14.10    5.30
  -4   4   4   22.60    6.40
   4   4  -4   37.10    8.00
  -4   4   4   46.10    8.70
  -4   4   4   35.90    7.50
   4  -4  -4   41.40    2.70
  -4  -4   4   35.50    5.30
   4  -4  -4   34.20    2.60
   4  -4  -4   35.00    7.60
  -4  -4   4   37.10    6.30
  -4  -4   4   40.00    4.40
  -4  -4   4   44.90    7.50
  -4   4   3  654.33   27.70
  -4   4   3  681.63   27.40
  -4   4   3  699.23   27.00
  -4   4   3  674.73   25.60
   4   4  -3  714.13   27.00
   4  -4  -3  753.52   20.30
   4  -4  -3  715.63   27.70
   4  -4  -3  725.43   26.60
  -4  -4   3  701.33   26.30
  -4  -4   3  694.83   22.20
  -4  -4   3  724.33   20.80
   4  -4  -3  740.73   20.90
  -4  -4   3  716.43   21.00
  -4  -4   3  712.23   26.00
  -4   4   2   37.80    6.70
  -4   4   2   41.90    6.10
   4   4  -2   37.30    6.80
  -4   4   2   25.10    5.40
   4   4  -2   41.50    4.60
   4  -4  -2   46.70    7.50
   4  -4  -2   39.60    4.50
   4  -4  -2   37.20    4.60
  -4  -4   2   41.50    6.50
  -4  -4   2   43.30    2.40
  -4  -4   2   38.50    6.50
   4  -4  -2   41.20    6.10
  -4  -4   2   36.00    2.20
  -4   4   1  533.55   21.70
   4   4  -1  557.94   22.90
  -4   4   1  547.95   22.40
  -4   4   1  543.65   17.90
   4  -4  -1  542.05   17.70
  -4  -4   1  491.85   20.90
   4  -4  -1  512.25   19.40
   4  -4  -1  518.65   19.10
  -4  -4   1  544.05   22.20
  -4  -4   1  556.74   21.60
   4  -4  -1  547.75   22.60
   4   4   0  310.97   15.60
  -4   4   0  325.57   10.50
  -4   4   0  314.57   10.70
   4  -4   0  340.07   16.60
  -4  -4   0  340.97   17.70
   4  -4   0  348.57   17.50
   4  -4   0  333.27   16.10
   4   4   1  112.49   10.10
   4   4   1  118.89    5.80
   4   4   1  116.19   10.70
  -4   4  -1  127.39   10.60
  -4   4  -1  135.99   10.50
   4   4   1  130.59    7.70
   4  -4   1  126.19   10.50
  -4  -4  -1  127.89   11.90
   4  -4   1  132.89   11.60
  -4  -4  -1  132.49   11.00
   4   4   2   27.30    4.40
   4   4   2   32.40    8.00
  -4   4  -2   25.00    6.10
   4   4   2   17.60    5.10
  -4   4  -2   23.60    7.00
   4   4   2   25.00    4.90
  -4  -4  -2   31.00    7.20
   4  -4   2   18.10    6.50
   4  -4   2   25.90    5.90
  -4  -4  -2   34.00    7.70
  -4   4  -3 1539.25   51.59
  -4   4  -3 1561.54   45.60
   4   4   3 1567.34   51.59
   4   4   3 1635.84   46.40
   4   4   3 1614.34   43.60
   4   4   3 1590.24   50.89
   4  -4   3 1554.84   52.09
  -4  -4  -3 1673.03   53.39
  -4  -4  -3 1599.34   50.69
   4  -4   3 1518.15   47.20
   4   4   4   16.20    6.70
  -4   4  -4    5.60    4.90
   4   4   4    6.00    5.30
  -4   4  -4    4.60    4.10
   4   4   4    5.90    5.30
  -4  -4  -4    8.50    5.70
  -4  -4  -4   12.80    6.60
   4  -4   4   13.70    6.20
   4  -4   4    3.70    3.90
  -4   4  -5  655.03   26.50
   4   4   5  631.94   32.80
   4   4   5  617.94   30.90
  -4   4  -5  662.63   35.30
   4   4   5  746.63   33.10
   4  -4   5  670.83   34.90
  -4  -4  -5  686.83   34.60
  -4  -4  -5  646.94   39.90
   4  -4   5  638.14   28.70
   4   4   6   68.99   13.60
   4   4   6   46.30   11.60
   4   4   6   70.99   13.80
  -4   4  -6   54.79   12.80
   4  -4   6   41.30    9.00
   4  -4   6   37.90   11.50
  -4  -4  -6   36.70   11.20
   4   4   7  189.68   21.00
   4   4   7  190.78   20.90
  -4   4  -7  261.07   24.70
   4   4   7  209.18   20.50
  -4  -4  -7  211.78   19.50
   4  -4   7  234.38   23.50
  -4   5   8   48.60   12.00
  -4   5   8   28.50    7.90
   4  -5  -8   39.80   10.40
  -4  -5   8   50.99   10.20
  -4  -5   8   39.50    9.70
  -4  -5   8   47.50   11.90
  -4   5   7   36.50   10.90
  -4   5   7   58.99   12.80
  -4   5   7   51.19   10.60
  -4  -5   7   52.79   10.60
  -4  -5   7   65.99   11.90
  -4  -5   7   50.89    9.80
   4  -5  -7   69.49   13.20
  -4   5   6  379.46   23.10
  -4   5   6  353.66   23.30
  -4   5   6  333.07   10.60
  -4   5   6  347.37   23.40
  -4  -5   6  370.76   21.00
  -4  -5   6  358.16   20.40
   4  -5  -6  418.56   25.30
  -4  -5   6  364.86   22.00
  -4   5   5   75.59   11.80
   4   5  -5   84.49   10.60
  -4   5   5   81.99   12.10
  -4   5   5   69.19   11.10
  -4  -5   5   75.69    9.60
  -4  -5   5   81.49    9.30
   4  -5  -5   75.19   12.20
  -4  -5   5   83.39    5.00
  -4   5   4   74.09    5.60
  -4   5   4   90.49   10.90
  -4   5   4   70.49    9.20
  -4   5   4   69.89   10.90
   4   5  -4   75.59   11.10
  -4  -5   4   81.69    9.30
  -4  -5   4   73.29    6.20
   4  -5  -4   89.09   10.50
   4  -5  -4   68.49    5.60
  -4  -5   4   77.39    6.60
  -4  -5   4   81.09    7.80
   4   5  -3   18.30    6.10
  -4   5   3   15.00    5.20
  -4   5   3    8.80    4.70
  -4   5   3   24.90    6.50
   4   5  -3   17.90    2.10
   4  -5  -3   13.80    3.40
   4  -5  -3   20.60    6.90
   4  -5  -3    6.20    4.00
  -4  -5   3   17.60    5.30
  -4  -5   3   14.50    2.70
  -4  -5   3   10.30    3.50
  -4  -5   3   11.70    3.10
  -4   5   2 1649.44   48.20
  -4   5   2 1676.43   49.70
   4   5  -2 1694.23   42.40
   4   5  -2 1663.73   49.80
  -4   5   2 1642.54   51.49
  -4  -5   2 1628.34   45.70
   4  -5  -2 1650.23   42.70
   4  -5  -2 1673.63   50.29
   4  -5  -2 1703.03   43.70
  -4  -5   2 1644.24   47.30
   4  -5  -2 1644.94   45.00
  -4   5   1   15.60    3.20
   4   5  -1   17.40    5.60
   4   5  -1   16.10    4.30
  -4   5   1   19.30    5.50
  -4   5   1   10.60    4.90
  -4   5   1    7.60    3.70
  -4  -5   1   22.20    6.00
   4  -5  -1   17.70    5.00
  -4  -5   1   12.40    4.50
   4  -5  -1   12.10    3.30
   4  -5  -1   12.60    4.40
   4   5   0  313.17   18.00
   4   5   0  268.07   15.90
  -4   5   0  305.17   16.70
  -4   5   0  310.67   17.20
   4  -5   0  317.67   16.50
   4  -5   0  310.87   17.50
  -4  -5   0  287.07   16.50
  -4  -5   0  333.57   18.90
   4  -5   0  307.27   10.10
   4  -5   0  303.57   16.80
   4   5   1  336.37    9.40
   4   5   1  365.46   20.00
   4   5   1  333.87   19.40
   4   5   1  356.36    9.90
  -4   5  -1  336.97   18.50
  -4   5  -1  298.57   16.50
  -4  -5  -1  325.17   19.60
   4  -5   1  371.16   20.20
  -4  -5  -1  328.17   18.80
   4  -5   1  351.16   18.90
  -4   5  -2   90.19   10.50
   4   5   2   92.79   11.60
   4   5   2   72.79   11.10
   4   5   2   95.89    6.70
   4   5   2   87.69    7.30
  -4   5  -2   97.09    9.80
   4  -5   2   95.69   10.20
  -4  -5  -2  116.09   12.20
  -4  -5  -2  100.49   12.10
   4  -5   2   76.49   11.70
   4   5   3   37.80    9.40
   4   5   3   34.10    5.40
   4   5   3   32.90    8.50
   4   5   3   33.30    6.80
  -4   5  -3   28.40    6.50
  -4   5  -3   33.30    8.70
   4  -5   3   23.80    6.50
  -4  -5  -3   41.60    9.60
  -4  -5  -3   29.20    7.40
   4  -5   3   31.70    8.80
   4   5   4   88.59   10.70
   4   5   4   87.09   13.80
  -4   5  -4   71.29    9.00
   4   5   4   89.89   13.20
  -4   5  -4   66.49   14.20
  -4  -5  -4   74.99   11.50
  -4  -5  -4   88.59   14.00
   4  -5   4   69.89   10.20
  -4   5  -5   51.39   12.70
   4   5   5   45.00   10.90
   4   5   5   28.80    9.40
   4   5   5   29.80    8.40
  -4  -5  -5   57.49   12.40
   4  -5   5   46.80    9.00
  -4  -5  -5   27.40   10.00
   4  -5   5   38.80   11.20
   4   5   6  184.58   18.10
   4   5   6  196.98   18.90
   4   5   6  210.98   21.20
  -4   5  -6  233.78   22.10
   4  -5   6  154.18   18.90
  -4  -5  -6  205.58   19.40
  -4   6   8  211.38   19.90
  -4   6   8  252.47   23.10
  -4  -6   8  239.58   20.80
  -4  -6   8  191.18   17.40
  -4   6   7    2.90    5.90
  -4   6   7  -11.50    4.90
  -4  -6   7    0.30    4.60
   4  -6  -7   -1.40    4.30
  -4  -6   7   -4.80    4.50
  -4  -6   7   -2.30    5.60
  -4   6   6  568.34   30.40
  -4   6   6  526.65   16.60
   4   6  -6  632.74   31.20
  -4   6   6  550.04   29.70
  -4   6   6  524.75   29.80
  -4  -6   6  543.05   29.40
  -4  -6   6  532.35   26.20
   4  -6  -6  556.34   30.60
   4  -6  -6  550.74   17.20
  -4  -6   6  571.24   26.40
  -4   6   5   -0.60    5.20
  -4   6   5    2.80    2.30
  -4   6   5    1.20    4.60
  -4   6   5   -0.20    3.40
   4   6  -5    1.60    4.80
   4  -6  -5    3.70    4.90
  -4  -6   5   -2.50    3.40
  -4  -6   5    1.80    1.90
   4  -6  -5    0.00    2.70
  -4  -6   5    1.10    3.80
  -4   6   4  669.43   46.30
  -4   6   4  675.13   22.00
   4   6  -4  680.73   30.90
  -4   6   4  668.33   29.60
  -4   6   4  700.93   31.60
   4  -6  -4  708.33   30.00
  -4  -6   4  628.14   22.50
  -4  -6   4  656.53   22.70
  -4  -6   4  654.83   21.20
  -4  -6   4  655.63   27.00
   4  -6  -4  645.24   21.30
  -4   6   3   32.50    8.10
  -4   6   3   39.60    8.00
  -4   6   3   36.10    5.60
  -4   6   3   35.70    7.90
   4   6  -3   36.40    8.30
  -4  -6   3   30.60    5.80
  -4  -6   3   37.10    4.50
  -4  -6   3   36.30    7.60
   4  -6  -3   29.30    5.10
   4  -6  -3   31.50    6.80
  -4   6   2    5.50    3.30
   4   6  -2    4.10    2.30
   4   6  -2    9.90    5.40
  -4   6   2    9.30    4.40
  -4   6   2   -2.40    4.10
   4  -6  -2    9.80    3.90
   4  -6  -2    2.20    3.40
   4  -6  -2    3.70    3.50
  -4  -6   2    5.70    3.70
   4  -6  -2    8.80    4.30
  -4  -6   2    5.90    3.60
  -4   6   1   50.79    5.20
   4   6  -1   41.40    6.70
  -4   6   1   60.59    9.40
   4   6  -1   70.59   11.00
  -4   6   1   58.09    9.60
   4  -6  -1   55.99    7.10
   4  -6  -1   63.99    6.40
   4  -6  -1   63.69    8.00
  -4  -6   1   38.80    7.60
   4  -6  -1   59.09    9.40
  -4  -6   1   59.59    9.40
  -4   6   0  999.10   34.70
   4   6   0  957.20   36.80
  -4   6   0  981.50   35.10
   4  -6   0  981.00   35.20
  -4  -6   0 1001.00   35.60
  -4  -6   0  958.30   36.40
   4  -6   0  918.91   35.50
   4   6   1  196.88   16.00
  -4   6  -1  189.48   14.60
   4  -6   1  166.98   14.60
  -4  -6  -1  172.38   14.30
   4  -6   1  155.18   15.80
  -4  -6  -1  187.68   15.80
  -4   6  -2 1054.29   40.10
   4   6   2 1066.99   28.30
   4   6   2 1080.19   41.30
   4   6   2 1108.19   28.10
   4   6   2 1110.59   42.00
  -4   6  -2 1136.99   37.00
   4  -6   2 1039.70   41.40
  -4  -6  -2 1094.79   43.30
  -4  -6  -2 1108.49   41.20
   4  -6   2 1060.69   38.70
  -4   6  -3  159.18   15.70
  -4   6  -3  138.69   12.00
   4   6   3  162.48   16.40
   4   6   3  176.28   16.30
   4   6   3  157.98   11.00
  -4  -6  -3  141.19   14.30
   4  -6   3  178.18   17.30
  -4  -6  -3  194.38   19.50
   4  -6   3  163.18   13.90
   4   6   4  205.48   19.40
  -4   6  -4  196.28   14.30
   4   6   4  225.18   19.20
  -4   6  -4  225.78   19.90
  -4  -6  -4  189.38   17.00
   4  -6   4  182.38   15.40
  -4  -6  -4  239.28   19.80
   4  -6   4  207.18   19.80
  -4   6  -5   -0.90    4.40
   4   6   5   -8.20    3.90
   4   6   5    0.30    6.40
   4   6   5   -1.80    6.00
   4  -6   5   -2.90    5.10
  -4  -6  -5   -4.00    5.20
  -4  -6  -5    2.70    7.00
   4   6   6  149.49   18.70
   4   6   6   99.89   16.10
   4   6   6  129.19   15.00
   4  -6   6  182.28   22.30
  -4  -6  -6  139.79   17.40
  -4   7   7   30.70   10.70
  -4   7   7   35.10   10.40
  -4  -7   7   34.50    8.80
  -4  -7   7   31.90    9.30
   4  -7  -7   27.00   10.50
  -4  -7   7   28.60    7.50
  -4   7   6    8.60    3.40
  -4   7   6    9.30    7.90
  -4   7   6    2.10    5.70
   4   7  -6    2.90    6.40
   4  -7  -6   14.70    7.30
  -4  -7   6   11.60    6.10
  -4  -7   6   10.30    5.80
  -4   7   5   37.00   11.00
  -4   7   5   61.89   11.80
  -4   7   5   48.00    6.60
   4  -7  -5   44.70   10.50
  -4  -7   5   28.80    4.60
   4  -7  -5   44.00    6.70
  -4  -7   5   44.80    8.20
  -4  -7   5   53.29    8.90
  -4   7   4 1326.57   46.30
  -4   7   4 1373.66   39.10
   4   7  -4 1365.46   49.99
  -4   7   4 1361.46   49.70
  -4  -7   4 1320.67   43.50
   4  -7  -4 1381.76   46.90
  -4  -7   4 1336.07   36.70
  -4  -7   4 1290.17   34.50
  -4  -7   4 1322.97   39.30
   4  -7  -4 1334.27   40.00
  -4   7   3   86.29   12.70
  -4   7   3   98.39   11.40
   4   7  -3   75.69   12.40
  -4   7   3   85.89    8.70
  -4  -7   3   73.59    5.30
  -4  -7   3   81.49    9.20
   4  -7  -3   62.99    7.90
  -4  -7   3   82.09    4.30
   4  -7  -3   76.89    9.60
  -4  -7   3   82.19    9.80
  -4   7   2  263.77   18.30
   4   7  -2  256.77   18.80
  -4   7   2  243.38   16.20
   4  -7  -2  221.98   17.20
  -4  -7   2  285.17   17.40
  -4  -7   2  254.97   16.60
   4  -7  -2  289.87   15.90
  -4   7   1    2.30    2.20
   4   7  -1    3.40    5.70
  -4   7   1    2.80    4.60
  -4   7   1    3.60    4.30
   4   7  -1    7.20    3.90
   4  -7  -1    4.10    2.80
  -4  -7   1    1.00    3.90
   4  -7  -1    3.00    4.20
  -4  -7   1    4.30    4.70
   4  -7  -1   -3.90    3.10
  -4   7   0  205.98   15.30
  -4   7   0  198.08   14.80
   4   7   0  178.38   16.10
  -4   7   0  196.28    7.60
   4  -7   0  166.58   15.10
  -4  -7   0  186.18   16.10
   4  -7   0  193.58    8.70
  -4  -7   0  198.88   15.80
   4  -7   0  208.88   15.80
   4   7   1  107.69   11.90
   4   7   1  133.99   14.60
  -4   7  -1  106.69   12.40
  -4  -7  -1  131.39   14.40
  -4  -7  -1  114.59   13.00
   4  -7   1  105.99   12.80
   4  -7   1   91.19   13.80
   4   7   2   94.69   14.40
   4   7   2   83.89   12.90
  -4   7  -2   74.49   12.20
  -4  -7  -2   85.59   13.30
   4  -7   2   70.09   10.50
   4  -7   2   89.79   13.60
  -4  -7  -2   76.69   13.00
   4   7   3    2.80    5.10
   4   7   3    6.60    3.80
   4   7   3    6.70    4.70
   4   7   3   -4.40    3.30
  -4   7  -3    9.60    6.60
  -4   7  -3    1.20    5.20
   4  -7   3   -0.40    5.30
  -4  -7  -3    0.50    5.60
   4  -7   3    6.80    4.60
  -4  -7  -3    7.00    5.70
   4   7   4   98.39   15.50
  -4   7  -4  101.59   16.00
   4   7   4   77.89   14.20
   4   7   4   66.19    9.60
   4  -7   4   64.09   13.40
   4  -7   4   67.59   11.20
  -4  -7  -4   83.69   14.50
  -4  -7  -4   79.39   14.20
   4   7   5   45.30   13.10
   4   7   5   42.30   11.40
   4   7   5   41.10    8.80
  -4   7  -5   50.39   12.40
   4  -7   5   43.20   12.20
  -4  -7  -5   49.00   14.30
  -4  -7  -5   43.50   11.00
  -4   8   7   48.60   12.10
   4  -8  -7    5.90    7.40
  -4  -8   7   26.20    8.10
  -4  -8   7   12.50    8.80
  -4   8   6  210.18   20.80
  -4   8   6  164.08   17.30
   4   8  -6  167.98   18.00
  -4  -8   6  184.38   17.00
  -4  -8   6  183.18   15.00
   4  -8  -6  191.78   18.70
  -4   8   5   53.99   11.90
  -4   8   5   53.59    7.50
  -4   8   5   52.79   11.70
   4   8  -5   76.49   14.00
   4  -8  -5   65.29   11.70
  -4  -8   5   61.79   10.10
  -4  -8   5   43.20    8.10
  -4   8   4   47.60   10.70
  -4   8   4   28.80    9.60
   4   8  -4   48.30   11.10
  -4   8   4   32.50    6.50
   4  -8  -4   29.00    8.60
  -4  -8   4   26.70    4.80
  -4  -8   4   25.20    4.00
  -4  -8   4   30.50    7.40
  -4  -8   4   25.20    5.30
  -4   8   3  543.65   24.50
  -4   8   3  633.84   31.40
  -4   8   3  588.84   28.00
   4   8  -3  525.05   30.70
  -4  -8   3  553.74   26.20
  -4  -8   3  552.04   25.50
   4  -8  -3  557.54   26.20
   4   8  -2   -6.60    2.80
  -4   8   2    2.00    3.90
  -4   8   2    1.40    4.60
   4   8  -2    3.00    5.40
  -4   8   2   -6.10    3.90
   4  -8  -2   -1.50    3.40
  -4  -8   2   -4.00    2.80
  -4  -8   2    0.40    3.60
   4   8  -1  476.95   27.50
   4   8  -1  469.25   22.40
  -4   8   1  477.15   24.60
  -4   8   1  472.55   25.30
  -4  -8   1  493.75   26.50
  -4  -8   1  476.75   25.10
   4  -8  -1  466.25   26.60
   4  -8  -1  520.15   19.90
   4  -8  -1  486.75   24.70
   4   8   0   15.20    5.90
  -4   8   0   10.30    5.50
  -4   8   0   16.80    3.00
  -4   8   0   22.10    6.90
  -4  -8   0   14.40    6.50
   4  -8   0   24.90    7.60
   4  -8   0   15.30    6.00
   4  -8   0   19.60    3.20
  -4  -8   0   13.60    7.10
  -4   8  -1   93.89   13.70
   4   8   1   96.09   13.10
  -4   8  -1  106.49   11.50
   4   8   1  107.19   13.20
  -4  -8  -1   89.69   17.00
   4  -8   1  103.19   13.00
   4  -8   1  115.69   13.40
  -4  -8  -1   89.69   14.20
  -4   8  -2  148.39   15.00
  -4   8  -2  143.59   14.30
   4   8   2  144.59   15.40
   4   8   2  136.79   16.30
  -4  -8  -2  165.48   16.10
  -4  -8  -2  142.59   17.00
   4  -8   2  135.99   14.00
   4  -8   2  135.39   15.80
   4   8   3   14.90    6.50
  -4   8  -3    6.20    6.60
   4   8   3   15.10    7.80
   4   8   3    1.50    3.60
   4  -8   3   11.30    9.70
  -4  -8  -3    1.80    6.90
   4  -8   3    5.30    6.60
  -4  -8  -3    9.00    5.90
   4   8   4   14.10    6.30
  -4   8  -4    7.60    7.40
   4   8   4   -1.90    4.60
  -4  -8  -4    8.30    9.30
  -4  -8  -4    4.60    6.40
   4  -8   4   15.10    8.70
   4  -8   5  337.27   28.00
  -4   9   6    3.80    6.90
  -4   9   6   -6.00    6.60
  -4  -9   6   -1.30    5.90
   4  -9  -6  -10.70    5.40
  -4   9   5   46.40    8.40
   4   9  -5   37.70   10.00
  -4   9   5   33.20    9.80
  -4   9   5   74.49   15.00
  -4  -9   5   52.49    9.90
   4  -9  -5   45.50   11.30
  -4   9   4  202.78   20.20
   4   9  -4  179.38   19.10
  -4   9   4  188.08   14.10
  -4   9   4  197.88   17.50
  -4  -9   4  171.38   13.70
   4  -9  -4  169.98   16.20
   4   9  -3   67.59   13.70
  -4   9   3   62.69   11.40
  -4   9   3   94.69   12.20
  -4   9   3   72.49   10.50
  -4  -9   3   62.99   10.10
   4  -9  -3   73.69   11.70
  -4  -9   3   77.99   12.20
   4   9  -2  137.49   16.50
  -4   9   2  135.49   16.50
  -4   9   2  123.19   13.40
  -4   9   2  130.49   16.10
  -4  -9   2  127.19   13.80
   4  -9  -2  148.29   12.50
  -4  -9   2  140.69   16.50
   4   9  -1  342.97   24.50
   4   9  -1  336.67   22.70
  -4   9   1  323.37   22.00
   4  -9  -1  317.97   21.40
  -4  -9   1  321.97   21.40
   4  -9  -1  235.58   26.60
   4  -9  -1  327.47   16.00
  -4  -9   1  305.87   22.10
   4   9   0   -2.30    5.10
  -4   9   0    2.20    4.80
  -4   9   0    7.90    3.40
   4   9   0    2.40    6.40
  -4   9   0    0.50    4.50
   4  -9   0    6.20    5.50
  -4  -9   0   15.50    6.90
   4  -9   0    6.00    2.50
  -4  -9   0   -1.40    5.20
  -4   9  -1  273.47   20.40
   4   9   1  285.47   22.30
   4   9   1  290.07   22.90
  -4  -9  -1  291.47   24.40
  -4  -9  -1  295.17   21.30
   4  -9   1  253.07   20.80
   4   9   2   -2.20    7.30
  -4   9  -2    7.90    5.60
   4  -9   2   -4.20    4.10
  -4  -9  -2   -5.00    3.40
   4   9   3  162.18   23.10
   4   9   3  213.28   20.60
  -4   9  -3  187.08   18.20
  -4  -9  -3  197.68   20.30
   4  -9   3  193.08   19.80
  -4  -9  -3  209.18   25.50
  -4   9  -4   62.79   13.90
   4  -9   4   39.30   11.80
  -4  -9  -4   47.00   16.70
  -4  -9  -4   85.09   14.80
  -4  10   4   24.20    8.70
  -4  10   4   42.80    8.70
   4  10  -4   27.60   11.60
  -4  10   4   16.20   11.20
  -4 -10   4   28.80    9.40
   4 -10  -4   67.69   13.00
  -4  10   3  109.49   20.60
  -4  10   3  107.09   13.30
   4  10  -3   98.39   16.80
  -4  10   3  144.29   14.80
  -4 -10   3   81.39   12.70
  -4 -10   3  118.79   13.50
   4 -10  -3  116.19   14.00
  -4  10   2  -14.10    8.10
   4  10  -2    7.90    5.00
  -4  10   2    4.80    5.30
  -4 -10   2   -6.10    4.00
   4 -10  -2    3.30    5.10
  -4 -10   2    4.10    5.70
  -4  10   1   66.39   12.00
   4  10  -1   66.59   13.60
   4 -10  -1   38.70   10.90
  -4 -10   1   68.79   11.60
  -4 -10   1   42.10   10.30
   4  10   0   -5.50    4.40
  -4  10   0   -0.10    5.10
  -4 -10   0    5.20    7.00
  -4 -10   0    4.70    6.60
   4 -10   0   -6.60    4.50
  -4  10  -1   79.19   13.00
   4  10   1   79.19   14.60
   4 -10   1  100.79   15.60
  -4 -10  -1   85.39   14.80
  -4 -10  -1   85.49   15.10
  -4  10  -2  184.28   18.40
   4  10   2  162.78   18.50
  -4 -10  -2  212.88   22.60
  -4 -10  -2  192.18   19.20
   4 -10   2  114.49   17.60
  -4  11   2  418.36   25.40
   4  11  -2  450.95   32.10
   4 -11  -2  390.36   26.40
  -4 -11   2  430.76   26.70
  -4 -11   2  442.36   28.00
  -4  11   1    4.60    5.20
   4  11  -1    5.40    8.50
   4 -11  -1  -13.80    7.20
  -4 -11   1    1.20    4.50
  -4  11   0   86.19   13.70
   4  11   0   83.79   15.80
  -4 -11   0  109.09   16.20
  -4 -11   0   80.59   14.30
   4 -11   0   84.99   15.20
   5   0  -9   -7.30    5.20
  -5   0   9  -15.40    5.70
  -5   0   9    1.50    3.30
  -5   0   9   -8.30    3.00
  -5   0   8   35.20    5.30
   5   0  -8   60.79   12.20
  -5   0   8   45.90    7.90
  -5   0   8   46.60    7.20
  -5   0   8   34.00   10.50
  -5   0   7   -1.70    5.10
   5   0  -7    0.70    4.30
  -5   0   7    4.20    3.30
  -5   0   7    0.40    2.10
  -5   0   7    0.50    2.10
  -5   0   6 2132.69   55.19
   5   0  -6 2043.20   61.99
  -5   0   6 2161.28   63.29
  -5   0   6 2066.99   53.69
  -5   0   5   17.10    5.90
  -5   0   5   11.40    1.90
   5   0  -5   12.80    4.90
  -5   0   5   15.70    3.90
  -5   0   5    9.70    1.80
  -5   0   4 1323.67   29.50
  -5   0   4 1386.66   37.00
   5   0  -4 1299.17   40.80
  -5   0   4 1261.97   39.30
   5   0  -4 1295.37   40.50
  -5   0   3   -1.30    1.90
  -5   0   3    0.40    2.20
  -5   0   3    1.70    3.00
   5   0  -3   -0.70    2.00
  -5   0   3   -0.60    2.70
   5   0  -3   -0.90    1.30
  -5   0   3    1.40    1.70
  -5   0   2 2209.88   54.69
   5   0  -2 2251.87   50.49
   5   0  -2 2129.19   53.79
  -5   0   2 2135.89   50.29
  -5   0   2 2257.87   55.09
   5   0  -2 2107.49   53.49
  -5   0   2 2131.69   55.49
  -5   0   2 2209.38   52.99
  -5   0   1    0.30    1.80
  -5   0   1   -2.40    2.00
  -5   0   1   -0.20    1.80
   5   0  -1    3.00    2.70
  -5   0   1    0.30    2.10
  -5   0   1   -3.60    1.80
   5   0  -1    0.40    1.80
   5   0  -1   -1.70    2.00
  -5   0   0  360.96   14.90
   5   0   0  349.87   16.20
   5   0   0  332.17   14.20
   5   0   0  307.67   13.90
  -5   0   0  328.07   15.40
  -5   0   0  331.67   13.90
   5   0   0  336.47   16.00
  -5   0   0  336.97   16.70
  -5   0  -1   -1.00    2.30
   5   0   1    2.60    2.00
  -5   0  -1    2.70    2.60
  -5   0  -1    2.80    2.40
   5   0   1   -0.80    1.70
  -5   0  -1    2.50    2.60
   5   0   1   -1.10    3.40
   5   0   1   -1.60    1.90
  -5   0  -2  291.27   17.10
  -5   0  -2  286.37   14.00
  -5   0  -2  315.27   17.50
   5   0   2  281.57   16.50
   5   0   2  296.77   17.60
   5   0   3    1.10    2.10
   5   0   3    0.70    5.20
  -5   0  -3   -2.60    3.70
   5   0   3    2.90    3.50
  -5   0  -3    1.80    3.00
  -5   0  -3   -2.20    2.50
  -5   0  -4   29.10    6.20
  -5   0  -4   19.30    6.60
   5   0   4   32.50    8.30
   5   0   4   16.20    5.80
  -5   0  -4   38.60    8.70
  -5   0  -5   -2.60    5.30
   5   0   5    2.90    6.00
   5   0   5   -2.80    4.20
  -5   0  -5   -2.40    4.00
  -5   0  -5   -4.40    4.80
  -5   0  -6  232.38   17.00
  -5   0  -6  244.88   21.40
   5   0   6  217.18   21.20
   5   0   7  -14.90    6.30
  -5   0  -7   -3.70    6.70
  -5   0  -7   -6.70    6.90
  -5   1   9   -4.00    3.10
   5   1  -9   -3.10    5.50
  -5  -1   9   -3.60    2.80
   5  -1  -9   10.80    6.80
  -5  -1   9   -4.70    1.90
  -5  -1   9   -8.70    5.90
   5   1  -8  685.23   33.50
  -5   1   8  673.63   28.70
  -5   1   8  683.73   35.70
  -5   1   8  667.13   27.60
  -5  -1   8  628.44   22.60
   5  -1  -8  637.14   33.40
  -5  -1   8  647.64   23.80
  -5  -1   8  638.84   34.10
  -5  -1   8  656.73   23.80
  -5   1   7   -0.80    3.00
  -5   1   7    3.70    4.90
   5   1  -7    6.10    4.20
  -5   1   7    1.20    3.20
  -5  -1   7   -4.70    4.80
   5  -1  -7   -7.40    3.80
  -5  -1   7   -1.50    2.10
  -5  -1   7    3.20    2.90
  -5  -1   7    2.70    2.30
  -5  -1   7   -0.10    2.60
  -5   1   6  671.33   30.80
  -5   1   6  690.53   27.00
  -5   1   6  649.54   25.30
   5   1  -6  665.33   29.70
  -5  -1   6  672.13   21.90
   5  -1  -6  662.03   30.40
  -5  -1   6  698.93   23.50
  -5  -1   6  718.53   22.80
  -5  -1   6  673.93   21.00
  -5  -1   6  696.83   30.50
  -5   1   5  241.98   14.40
  -5   1   5  243.98   16.40
  -5   1   5  234.28   13.60
   5   1  -5  258.57   16.40
  -5  -1   5  243.68   15.70
  -5  -1   5  227.38   10.30
  -5  -1   5  246.08   11.10
   5  -1  -5  222.18   15.80
  -5  -1   5  256.37   11.90
   5   1  -4  159.38   12.10
  -5   1   4  162.38   10.90
   5   1  -4  157.98    8.40
   5   1  -4  144.09   10.90
  -5  -1   4  151.08    8.00
  -5  -1   4  172.88   11.50
  -5  -1   4  151.78    9.10
  -5  -1   4  136.89   11.50
   5  -1  -4  148.69   11.90
   5   1  -3  353.46   15.20
   5   1  -3  338.27   15.40
  -5   1   3  333.27   15.60
   5   1  -3  338.87   13.10
  -5   1   3  334.57    8.80
  -5   1   3  319.07   16.10
  -5   1   3  340.57   16.20
  -5  -1   3  337.17   12.80
  -5  -1   3  318.07   16.20
  -5  -1   3  334.17   16.90
   5  -1  -3  330.57   16.30
  -5  -1   3  328.07   14.30
   5  -1  -3  341.17    8.80
  -5  -1   3  326.07   14.50
   5  -1  -3  310.77   14.60
   5  -1  -3  350.96   17.10
   5   1  -2  366.16   15.00
  -5   1   2  379.46   13.10
  -5   1   2  403.16   16.80
   5   1  -2  405.46   15.20
  -5   1   2  396.36   16.90
   5   1  -2  361.66   15.20
  -5   1   2  412.06   16.90
  -5   1   2  381.76   17.00
  -5  -1   2  421.46   17.70
   5  -1  -2  393.56   13.20
   5  -1  -2  402.86   17.30
  -5  -1   2  412.96   14.90
  -5  -1   2  385.46   17.20
   5  -1  -2  393.26   19.40
  -5  -1   2  402.06   15.20
  -5  -1   2  399.26   16.60
  -5   1   1  270.17   14.30
   5   1  -1  263.97   11.40
  -5   1   1  261.37   12.10
   5   1  -1  268.27   13.40
   5   1  -1  259.17   13.30
  -5   1   1  258.37   12.20
   5   1  -1  258.47   18.90
  -5   1   1  278.37   13.40
  -5   1   1  282.87   12.80
   5  -1  -1  274.57   12.50
  -5  -1   1  258.67   12.60
   5  -1  -1  267.07   14.00
  -5  -1   1  254.57   13.90
  -5  -1   1  246.48   12.90
   5  -1  -1  300.07   15.60
  -5  -1   1  282.07   11.60
   5   1   0 1543.15   43.20
  -5   1   0 1580.84   38.70
  -5   1   0 1556.14   39.10
   5   1   0 1476.35   42.60
   5   1   0 1500.25   44.40
  -5   1   0 1563.94   42.10
  -5   1   0 1536.45   42.50
  -5   1   0 1567.14   44.10
   5   1   0 1561.74   38.90
  -5  -1   0 1449.76   42.50
  -5  -1   0 1559.34   39.40
  -5  -1   0 1600.64   44.50
   5  -1   0 1572.44   42.60
   5  -1   0 1562.54   41.80
   5  -1   0 1531.55   43.40
  -5  -1   0 1528.95   41.10
  -5   1  -1   68.39    8.40
   5   1   1   69.39    7.80
  -5   1  -1   75.19    6.10
   5   1   1   83.69    7.20
   5   1   1   62.69    7.80
  -5   1  -1   65.59    7.40
   5   1   1   72.59    6.40
  -5   1  -1   71.69    7.50
   5  -1   1   77.09    8.30
  -5  -1  -1   69.99    6.80
   5  -1   1   68.89    5.60
   5  -1   1   78.99    8.30
  -5  -1  -1   88.39    7.80
  -5  -1  -1   71.29    8.70
   5  -1   1   61.79    6.60
  -5   1  -2  418.56   20.30
   5   1   2  376.86   16.60
  -5   1  -2  422.16   15.70
   5   1   2  400.96   21.50
   5   1   2  366.96   19.20
   5   1   2  381.76   17.00
   5  -1   2  385.26   14.80
   5  -1   2  389.96   20.90
  -5  -1  -2  393.66   18.80
   5  -1   2  372.66   19.20
  -5  -1  -2  402.86   20.80
  -5  -1  -2  427.46   18.50
  -5   1  -3 1759.92   52.89
   5   1   3 1813.12   56.39
  -5   1  -3 1759.82   54.69
   5   1   3 1733.53   53.19
  -5   1  -3 1747.13   46.00
  -5  -1  -3 1801.82   55.19
   5  -1   3 1752.62   55.69
   5  -1   3 1761.82   52.79
   5  -1   3 1740.93   44.40
  -5  -1  -3 1842.92   53.69
  -5  -1  -3 1775.52   50.29
   5   1   4    2.10    3.90
  -5   1  -4    3.20    6.20
  -5   1  -4    3.20    3.50
   5   1   4    4.30    6.40
  -5  -1  -4   -2.00    3.40
  -5  -1  -4   -3.40    3.70
  -5  -1  -4    1.30    3.90
   5  -1   4   -0.10    4.00
   5  -1   4    3.90    2.40
   5  -1   4   -1.60    3.10
   5   1   5  244.78   19.00
  -5   1  -5  244.08   15.20
  -5   1  -5  258.37   19.20
   5   1   5  278.97   22.10
  -5   1  -5  288.47   22.00
   5  -1   5  240.28   20.60
   5  -1   5  212.88   17.00
  -5  -1  -5  282.77   21.40
  -5  -1  -5  260.97   17.70
   5   1   6  121.99   18.60
  -5   1  -6  119.89   11.90
  -5   1  -6  128.29   16.10
  -5  -1  -6  126.39   13.60
   5  -1   6  116.99   17.90
  -5  -1  -6  123.09   16.00
   5   1   7   -7.30    8.70
  -5   1  -7   -5.90    7.70
  -5   1  -7    2.50    7.20
   5   1   7   -1.00    5.20
  -5  -1  -7   11.30    7.00
  -5  -1  -7   -2.60    6.30
  -5   2   9  207.18   16.50
   5   2  -9  204.08   18.70
  -5   2   9  229.58   22.20
   5  -2  -9  231.78   21.50
  -5  -2   9  214.98   21.20
  -5  -2   9  208.78    9.10
  -5  -2   9  203.08    9.20
  -5   2   8   46.00    8.60
   5   2  -8   39.90    9.70
  -5   2   8   25.00    7.60
  -5   2   8   52.59   12.20
   5  -2  -8   30.00    8.20
  -5  -2   8   41.40    4.70
  -5  -2   8   40.90   10.70
  -5  -2   8   29.20    6.80
  -5  -2   8   39.80    4.60
   5   2  -7  315.57   20.60
  -5   2   7  300.47   19.10
  -5  -2   7  304.67   11.90
  -5  -2   7  273.77   14.70
  -5  -2   7  303.87   21.10
  -5  -2   7  285.47   12.40
  -5  -2   7  304.97   16.20
  -5   2   6   28.60    6.60
  -5   2   6   38.70    7.40
  -5   2   6   34.70    8.60
   5   2  -6   35.20    7.80
   5  -2  -6   33.70    8.50
  -5  -2   6   44.50    8.80
  -5  -2   6   34.60    4.30
  -5  -2   6   45.60    9.10
  -5  -2   6   28.60    5.70
  -5  -2   6   52.89    5.40
   5   2  -5   -0.10    1.90
  -5   2   5    2.20    3.60
  -5   2   5    0.20    3.30
  -5   2   5    2.10    2.90
  -5  -2   5   -2.00    2.50
   5  -2  -5    2.70    3.60
  -5  -2   5    0.30    1.70
   5   2  -4  700.53   23.20
  -5   2   4  679.43   27.30
  -5   2   4  674.13   25.70
   5  -2  -4  698.63   27.40
  -5  -2   4  731.13   25.10
  -5  -2   4  676.63   21.50
  -5  -2   4  674.53   22.30
  -5  -2   4  712.33   27.60
  -5  -2   4  652.73   27.80
  -5   2   3 2187.48   57.29
  -5   2   3 2207.58   57.09
  -5   2   3 2129.59   56.89
   5   2  -3 2200.48   53.69
   5   2  -3 2221.78   53.89
  -5  -2   3 2161.38   52.99
  -5  -2   3 2189.18   52.09
   5  -2  -3 2109.59   56.29
   5  -2  -3 2104.79   55.99
   5   2  -2   10.60    2.90
  -5   2   2    7.70    4.00
  -5   2   2   14.00    3.80
  -5   2   2   14.00    4.40
   5   2  -2   11.80    3.20
   5   2  -2    8.50    3.40
  -5  -2   2   10.30    2.80
  -5  -2   2    5.40    3.70
   5  -2  -2   15.10    4.10
  -5  -2   2   10.60    3.60
   5  -2  -2   11.20    2.60
   5  -2  -2   16.50    4.60
   5  -2  -2    7.90    3.40
  -5  -2   2    7.80    3.20
  -5  -2   2   14.10    4.20
   5   2  -1 1527.75   41.10
  -5   2   1 1427.86   37.80
   5   2  -1 1368.46   39.10
  -5   2   1 1411.86   37.80
   5   2  -1 1490.75   35.20
   5   2  -1 1387.16   40.60
  -5   2   1 1488.65   42.00
  -5   2   1 1455.95   37.20
  -5   2   1 1491.15   41.10
  -5  -2   1 1437.36   40.40
  -5  -2   1 1417.86   40.90
   5  -2  -1 1426.76   41.50
  -5  -2   1 1475.85   34.60
   5  -2  -1 1446.36   38.00
   5  -2  -1 1400.26   40.70
   5   2   0  323.87   15.90
   5   2   0  332.67   15.70
  -5   2   0  319.27   12.50
   5   2   0  332.27   16.90
   5   2   0  332.57   12.20
  -5   2   0  309.07   15.40
  -5   2   0  330.77   12.10
  -5   2   0  321.87   16.00
  -5   2   0  338.07   16.90
  -5  -2   0  334.67   16.40
   5  -2   0  332.87   16.00
  -5  -2   0  350.76   17.60
  -5  -2   0  337.47   12.70
   5  -2   0  344.97   17.00
  -5  -2   0  309.77   15.20
   5  -2   0  314.47   15.50
   5   2   1  525.65   25.90
  -5   2  -1  579.84   17.10
   5   2   1  562.44   18.80
  -5   2  -1  566.14   23.40
  -5   2  -1  560.14   23.70
  -5   2  -1  566.04   17.20
   5   2   1  565.74   24.30
  -5  -2  -1  562.44   22.50
   5  -2   1  560.74   23.30
  -5  -2  -1  585.54   25.00
   5  -2   1  582.24   24.00
  -5  -2  -1  564.94   20.10
  -5   2  -2  147.19   12.80
  -5   2  -2  151.78   12.10
   5   2   2  166.08   14.00
  -5   2  -2  147.79    7.80
   5   2   2  152.38   12.40
   5   2   2  146.59    9.40
  -5  -2  -2  147.79   11.00
  -5  -2  -2  145.39   11.50
  -5  -2  -2  170.88   14.00
   5  -2   2  153.58   13.40
   5  -2   2  149.69    7.60
   5  -2   2  160.38   12.30
   5   2   3    4.70    3.20
  -5   2  -3    5.20    4.80
   5   2   3   -5.40    4.00
  -5   2  -3    1.60    2.50
  -5   2  -3   -2.30    1.90
   5  -2   3    0.10    2.10
  -5  -2  -3    0.70    3.60
  -5  -2  -3    1.40    4.30
   5  -2   3   -0.10    4.10
  -5  -2  -3    3.40    4.30
  -5   2  -4  521.45   28.40
   5   2   4  488.25   27.30
   5   2   4  460.25   24.70
  -5   2  -4  478.35   17.90
  -5   2  -4  482.95   24.10
  -5  -2  -4  423.96   24.80
  -5  -2  -4  449.56   23.40
  -5  -2  -4  480.35   25.00
   5  -2   4  465.95   26.70
   5  -2   4  415.66   22.70
   5  -2   4  443.16   16.10
  -5   2  -5   31.70    8.90
  -5   2  -5   44.80    6.60
  -5   2  -5   46.10   11.50
   5   2   5   40.90    9.30
   5   2   5   46.50   11.40
  -5  -2  -5   46.80   11.00
   5  -2   5   50.09   11.40
  -5  -2  -5   33.80    8.50
   5  -2   5   58.29    5.40
   5  -2   5   42.30    8.60
  -5  -2  -5   49.99   10.70
   5   2   6   15.30    9.30
   5   2   6   16.10    7.90
  -5   2  -6   16.20    8.50
  -5  -2  -6   26.20    9.00
   5  -2   6   28.20    9.50
  -5  -2  -6    2.60    5.80
  -5  -3   9   38.00   10.40
  -5  -3   9   40.40    9.30
  -5  -3   9   54.89   12.30
  -5   3   8   58.89   12.50
  -5   3   8   71.59   11.90
  -5  -3   8   74.19   13.40
  -5  -3   8   64.89   12.90
   5  -3  -8   45.00   10.40
  -5  -3   8   49.60    9.50
  -5   3   7  143.49   15.10
  -5   3   7  102.59   12.40
  -5   3   7  137.69   13.80
  -5  -3   7  134.39    5.50
  -5  -3   7  133.29   13.90
  -5  -3   7  132.79    5.40
  -5  -3   7  145.29   14.20
  -5  -3   7  147.09   12.70
   5  -3  -7  122.19   13.70
  -5   3   6   74.89   10.90
  -5   3   6   86.09   10.60
  -5   3   6   85.29   13.10
  -5  -3   6   81.29   11.70
   5  -3  -6   76.89   12.60
  -5  -3   6   81.39   10.20
  -5  -3   6   88.69    5.50
  -5   3   5 2793.92   76.09
  -5   3   5 2762.92   73.39
  -5   3   5 2728.43   74.49
   5   3  -5 2769.02   70.09
   5  -3  -5 2767.02   75.79
  -5  -3   5 2743.23   62.09
  -5  -3   5 2793.12   68.69
  -5  -3   5 2827.32   71.29
  -5  -3   5 2851.01   74.59
  -5   3   4  468.75   22.20
   5   3  -4  458.85   19.70
  -5   3   4  412.96   21.40
  -5   3   4  423.86   20.80
  -5  -3   4  460.05   18.50
  -5  -3   4  411.76   17.70
   5  -3  -4  449.06   21.60
  -5  -3   4  447.06   18.80
  -5  -3   4  443.06   21.40
  -5  -3   4  461.25   16.40
   5   3  -3 1283.67   38.50
  -5   3   3 1343.37   41.10
  -5   3   3 1251.37   39.30
  -5   3   3 1318.07   40.60
   5  -3  -3 1356.06   27.90
   5  -3  -3 1291.87   27.70
  -5  -3   3 1338.07   33.80
  -5  -3   3 1293.57   37.80
  -5  -3   3 1384.06   41.00
  -5  -3   3 1309.17   36.00
  -5  -3   3 1317.17   34.60
   5  -3  -3 1337.47   39.70
   5   3  -2  136.49   10.30
  -5   3   2  135.69    9.40
  -5   3   2  133.79   10.80
  -5   3   2  141.09   11.10
   5  -3  -2  136.49    7.40
   5  -3  -2  124.29   10.10
  -5  -3   2  125.29    6.70
   5  -3  -2  131.69    9.10
  -5  -3   2  130.79   10.10
  -5  -3   2  134.49   10.00
   5  -3  -2  135.29    7.50
   5   3  -1 1025.80   33.70
  -5   3   1 1146.59   35.40
   5   3  -1 1048.40   25.00
  -5   3   1 1026.10   28.80
  -5   3   1 1028.20   29.40
  -5  -3   1 1079.29   24.60
   5  -3  -1 1006.20   30.40
   5  -3  -1 1044.10   30.70
  -5  -3   1 1037.00   33.60
   5  -3  -1 1112.89   35.40
  -5  -3   1 1097.19   34.30
  -5   3   0   49.80    7.60
   5   3   0   42.20    6.50
  -5   3   0   41.90    4.30
  -5   3   0   38.70    6.40
  -5   3   0   50.09    8.20
  -5   3   0   44.80    4.00
   5   3   0   47.10    3.90
  -5  -3   0   51.59    7.80
  -5  -3   0   53.79    8.30
  -5  -3   0   43.10    4.00
   5  -3   0   40.30    6.60
   5  -3   0   59.29    8.50
   5  -3   0   47.80    7.50
   5   3   1 1013.90   36.30
   5   3   1 1008.90   34.80
  -5   3  -1 1035.30   35.50
   5   3   1 1030.50   27.50
  -5   3  -1 1020.00   24.30
  -5   3  -1 1022.00   25.80
  -5   3  -1 1038.80   38.60
  -5  -3  -1 1115.29   38.10
   5  -3   1 1060.59   36.10
  -5  -3  -1 1049.09   29.10
  -5  -3  -1 1025.30   34.60
   5  -3   1  978.20   34.70
  -5   3  -2    1.20    3.50
  -5   3  -2   -1.10    1.00
   5   3   2    1.50    3.50
  -5   3  -2    0.80    3.10
   5   3   2    1.70    2.00
  -5   3  -2    1.40    1.10
   5   3   2    9.10    5.80
  -5  -3  -2   -1.90    2.90
  -5  -3  -2   -2.20    3.60
  -5  -3  -2   -2.90    3.20
   5  -3   2    0.90    3.10
   5  -3   2    2.50    3.80
  -5   3  -3  130.59    5.10
  -5   3  -3  133.99    5.00
   5   3   3  150.18   14.90
  -5   3  -3  128.89   13.20
  -5   3  -3  134.69   13.80
   5   3   3  118.39   12.40
   5  -3   3  131.19   13.80
  -5  -3  -3  130.89   14.20
   5  -3   3  138.79   12.60
  -5  -3  -3  135.99   13.00
   5   3   4   28.40    7.20
  -5   3  -4   36.60   10.00
  -5   3  -4   51.69   10.70
   5   3   4   30.70    9.20
   5  -3   4   18.50    8.20
  -5  -3  -4   32.30    7.90
  -5  -3  -4   51.29    9.70
  -5  -3  -4   57.19   10.60
   5  -3   4   33.40    7.50
  -5   3  -5  326.87   11.50
   5   3   5  345.57   24.70
  -5   3  -5  309.47   23.70
   5   3   5  344.57   22.90
  -5  -3  -5  288.87   22.50
   5  -3   5  279.07   10.60
   5  -3   5  282.37   19.70
   5  -3   5  322.27   24.80
  -5   3  -6    1.20    6.90
   5   3   6   -5.20    6.60
   5  -3   6    0.80    5.10
  -5  -3  -6   -3.30    6.60
  -5   4   9  295.67   22.30
  -5   4   9  235.08   22.20
  -5  -4   9  224.38   19.00
  -5  -4   9  233.08   21.10
   5  -4  -9  249.08   23.30
  -5   4   8    1.00    4.30
  -5   4   8  -11.20    4.50
   5  -4  -8    5.20    5.80
  -5  -4   8    9.70    5.90
  -5  -4   8   -6.10    4.40
  -5  -4   8    0.50    6.10
  -5   4   7  585.74   31.20
  -5   4   7  604.64   32.40
  -5   4   7  595.24   29.90
  -5  -4   7  654.73   30.70
   5  -4  -7  654.43   33.60
  -5  -4   7  593.44   27.90
  -5   4   6    9.80    5.30
   5   4  -6   21.00    6.10
  -5   4   6   11.80    5.40
  -5   4   6   15.20    7.70
  -5  -4   6   10.90    1.90
   5  -4  -6   16.20    7.10
  -5  -4   6    8.10    4.40
  -5  -4   6    5.60    4.50
  -5  -4   6   10.40    5.90
   5   4  -5  239.88   16.10
  -5   4   5  243.58   17.00
  -5   4   5  236.28   17.60
  -5   4   5  229.98   17.30
  -5  -4   5  233.18   10.10
  -5  -4   5  228.58   14.30
   5  -4  -5  221.98   16.70
  -5  -4   5  218.48   15.90
  -5  -4   5  197.28   12.50
  -5   4   4  466.55   24.00
  -5   4   4  465.55   23.20
  -5   4   4  460.35   23.30
   5   4  -4  485.05   22.20
   5  -4  -4  460.05   22.60
  -5  -4   4  484.95   18.40
  -5  -4   4  434.06   21.50
  -5  -4   4  461.45   17.20
  -5  -4   4  470.25   18.00
   5   4  -3  329.27   12.10
  -5   4   3  344.77   19.20
  -5   4   3  317.97   18.20
  -5   4   3  340.07   19.70
  -5  -4   3  318.47   11.90
  -5  -4   3  345.37   18.30
   5  -4  -3  352.16   17.50
  -5  -4   3  326.37   15.20
  -5  -4   3  334.57   11.80
  -5   4   2    3.30    3.50
   5   4  -2    1.10    3.90
  -5   4   2    6.10    3.70
  -5   4   2    5.20    2.80
   5  -4  -2    8.20    3.60
   5  -4  -2    6.00    3.30
   5  -4  -2    2.60    2.50
  -5  -4   2    3.70    3.20
   5  -4  -2    2.30    2.50
  -5  -4   2    5.30    3.30
  -5   4   1  977.60   33.40
  -5   4   1  886.81   32.10
  -5   4   1  933.91   26.90
   5   4  -1  964.50   33.40
   5  -4  -1  924.11   29.20
   5  -4  -1  939.71   29.80
   5  -4  -1  879.21   32.90
   5  -4  -1  932.41   26.20
  -5  -4   1  915.91   32.00
  -5  -4   1  954.60   32.80
   5   4   0  211.28   15.20
  -5   4   0  262.67   15.80
  -5   4   0  223.98   14.50
  -5   4   0  236.28    9.10
  -5   4   0  231.48    8.50
   5  -4   0  247.68   15.80
   5  -4   0  239.38   14.70
   5  -4   0  226.98   13.80
  -5  -4   0  241.38   18.90
  -5  -4   0  237.78   15.10
   5   4   1  920.61   34.80
  -5   4  -1  886.21   33.40
   5   4   1  914.51   25.00
  -5   4  -1  914.21   32.60
   5   4   1  896.41   23.40
   5  -4   1  925.61   33.80
  -5  -4  -1  907.61   35.40
  -5  -4  -1  911.31   33.30
   5  -4   1  924.81   34.10
  -5   4  -2   -2.70    1.80
   5   4   2    0.90    3.20
   5   4   2   -8.70    3.70
   5   4   2    1.10    2.20
  -5   4  -2   -1.40    3.00
  -5  -4  -2   -1.80    3.60
   5  -4   2   -3.50    3.70
  -5  -4  -2    0.40    4.10
   5   4   3  309.57   21.30
   5   4   3  305.07   17.10
   5   4   3  308.67   15.10
  -5   4  -3  317.97   18.30
  -5   4  -3  324.17   21.30
   5  -4   3  315.47   19.50
  -5  -4  -3  301.47   20.00
   5  -4   3  300.17   20.80
  -5  -4  -3  319.47   22.20
   5   4   4   46.10    9.90
  -5   4  -4   45.50   10.60
   5   4   4   32.40    9.50
  -5   4  -4   39.30    8.70
  -5  -4  -4   51.69   10.90
   5  -4   4   42.60   10.40
  -5  -4  -4   46.90    6.70
   5  -4   4   32.10    7.70
   5   4   5   56.49   11.60
  -5   4  -5   56.49   13.00
   5   4   5   67.69   12.70
  -5  -4  -5   84.59   13.90
   5  -4   5   35.10    8.70
  -5  -4  -5   61.09   12.90
   5  -4   5   59.79   12.10
  -5   4  -6   84.19   16.10
   5   4   6   94.49   15.60
   5   4   6   97.19   15.90
  -5  -4  -6   99.29   15.40
   5  -4   6  111.79   18.80
  -5   5   8   49.00   12.70
  -5   5   8   61.89   12.00
  -5  -5   8   54.69   12.20
  -5  -5   8   43.60   10.40
   5  -5  -8   70.19   13.40
  -5  -5   8   26.70    7.90
  -5   5   7   74.29   12.20
  -5   5   7   61.19   13.20
  -5  -5   7   45.50   10.00
   5  -5  -7   68.89   13.20
  -5  -5   7   48.60    9.50
  -5  -5   7   55.29   10.30
  -5   5   6  113.89   13.60
  -5   5   6  114.59   13.70
   5   5  -6  102.69   11.90
  -5   5   6  111.59   13.20
  -5  -5   6  111.09    4.00
  -5  -5   6  118.69   12.70
  -5  -5   6  107.09   11.40
   5  -5  -6  130.39   19.70
  -5   5   5   17.10    6.70
  -5   5   5   18.50    7.60
  -5   5   5   13.50    6.20
   5   5  -5   21.80    6.50
  -5  -5   5   17.70    5.30
  -5  -5   5   13.50    3.00
  -5  -5   5   17.40    4.30
  -5  -5   5   12.80    5.60
   5  -5  -5   30.80    8.00
   5   5  -4  175.98   14.10
  -5   5   4  165.58   14.60
  -5   5   4  156.18   14.10
  -5   5   4  145.19   14.50
  -5  -5   4  171.48   13.70
  -5  -5   4  156.38    9.40
  -5  -5   4  175.98   10.60
   5  -5  -4  162.58    6.20
   5  -5  -4  163.78    6.30
   5  -5  -4  170.08   13.90
  -5  -5   4  164.18    9.00
  -5   5   3  266.37   17.90
  -5   5   3  270.57   18.50
  -5   5   3  283.87   17.70
   5   5  -3  266.77   10.70
   5   5  -3  291.87   17.90
   5  -5  -3  286.17   16.50
   5  -5  -3  273.67   11.40
   5  -5  -3  290.87   12.20
  -5  -5   3  275.77   11.00
  -5  -5   3  281.47   16.50
  -5  -5   3  271.57   14.80
  -5  -5   3  272.97    8.70
  -5   5   2  353.26   16.20
   5   5  -2  347.67   15.80
  -5   5   2  397.86   21.00
  -5   5   2  346.07   18.90
   5   5  -2  362.26   20.20
  -5   5   2  355.86   20.70
   5  -5  -2  391.36   16.90
   5  -5  -2  326.87   19.30
   5  -5  -2  363.06   15.40
  -5  -5   2  367.96   19.40
   5  -5  -2  346.17   15.70
  -5  -5   2  336.47   17.80
   5   5  -1   45.90    7.40
  -5   5   1   45.10    8.70
   5   5  -1   39.70    8.40
  -5   5   1   45.30    5.00
  -5   5   1   49.80    8.40
   5  -5  -1   36.10    7.30
   5  -5  -1   46.10    7.20
  -5  -5   1   49.60    8.30
   5  -5  -1   42.90    4.90
   5  -5  -1   53.49    6.60
  -5  -5   1   43.50    7.80
  -5   5   0  247.38   16.00
  -5   5   0  251.87    8.40
   5   5   0  260.17   17.10
  -5   5   0  251.87    8.20
  -5   5   0  234.48   15.70
  -5  -5   0  271.27   17.20
   5  -5   0  254.37   16.90
  -5  -5   0  260.17   17.70
   5  -5   0  238.98   15.70
  -5   5  -1   58.09    9.60
   5   5   1   47.10    9.20
   5   5   1   50.79    3.20
   5   5   1   49.20    3.00
  -5   5  -1   52.49    8.40
  -5  -5  -1   33.00    8.60
   5  -5   1   57.39    9.70
   5  -5   1   55.39    9.40
  -5  -5  -1   51.49    9.30
   5   5   2  361.66   13.40
   5   5   2  358.46   22.50
  -5   5  -2  383.16   22.70
   5   5   2  359.96   14.80
  -5  -5  -2  389.76   24.10
  -5  -5  -2  377.46   22.20
   5  -5   2  362.36   22.40
   5  -5   2  336.97   20.50
  -5   5  -3   73.59   12.70
  -5   5  -3   64.59    9.90
   5   5   3   75.19   12.80
   5   5   3   72.39    7.10
   5   5   3   74.99    8.70
  -5  -5  -3   96.09   13.80
   5  -5   3   61.19   10.30
  -5  -5  -3   77.29   12.70
   5  -5   3   83.79   13.50
  -5   5  -4   56.49   11.50
   5   5   4   45.30   11.40
   5   5   4   37.20    8.60
  -5   5  -4   30.10    8.40
   5  -5   4   45.70    9.30
  -5  -5  -4   38.70   11.10
  -5  -5  -4   55.79   11.00
   5  -5   4   42.60   10.10
   5   5   5    9.30    7.80
   5   5   5   -0.60    6.20
  -5   5  -5   -4.90    5.50
   5   5   5  -11.40    5.30
  -5  -5  -5    3.30    6.70
   5  -5   5    3.50    6.90
  -5  -5  -5   -8.90    7.60
   5   5   6   40.80   11.30
  -5   5  -6   49.30   11.80
   5   5   6   24.40   11.70
  -5  -5  -6   42.60   10.80
   5  -5   6   31.00   11.20
  -5   6   8   10.90    7.30
  -5   6   8   -7.40    4.50
   5  -6  -8    9.90    7.80
  -5  -6   8  -11.90    5.00
  -5  -6   8  -10.70    4.50
  -5  -6   8    1.30    7.00
  -5   6   7    3.00    6.50
  -5   6   7   10.60    8.10
  -5  -6   7   13.30    6.70
  -5  -6   7    7.60    5.80
   5  -6  -7    7.80    6.20
  -5  -6   7   -4.30    4.60
  -5   6   6  303.97   22.50
  -5   6   6  295.77   30.80
   5   6  -6  311.67   21.70
  -5   6   6  303.37   22.40
  -5  -6   6  293.87   19.60
  -5  -6   6  322.27   18.60
   5  -6  -6  311.57   22.70
  -5   6   5  151.28   17.90
  -5   6   5  155.38   15.70
  -5   6   5  130.89   19.50
   5   6  -5  144.19   14.90
   5  -6  -5  130.59   14.00
  -5  -6   5  141.59    9.00
  -5  -6   5  128.69    8.90
  -5  -6   5  130.39   12.90
  -5  -6   5  131.99   10.50
  -5   6   4  743.03   32.20
  -5   6   4  739.63   33.10
   5   6  -4  723.93   32.40
  -5   6   4  684.33   33.70
  -5  -6   4  697.63   21.40
  -5  -6   4  727.23   25.60
   5  -6  -4  783.52   31.80
  -5  -6   4  734.83   30.10
   5  -6  -4  725.83   21.60
   5  -6  -4  695.33   21.00
  -5  -6   4  733.53   20.80
  -5   6   3  151.38   14.60
  -5   6   3  146.79   14.00
   5   6  -3  152.68   13.90
  -5   6   3  152.28   13.80
   5  -6  -3  159.78   10.20
   5  -6  -3  152.28    9.40
   5  -6  -3  169.88   12.80
  -5  -6   3  153.78   11.90
  -5  -6   3  151.98   13.20
  -5   6   2  628.24   23.50
   5   6  -2  685.53   30.70
  -5   6   2  671.23   28.60
  -5   6   2  653.43   29.60
   5   6  -2  632.74   23.50
   5  -6  -2  725.83   25.20
  -5  -6   2  614.34   27.20
   5  -6  -2  695.93   30.80
   5  -6  -2  666.73   24.20
  -5  -6   2  672.23   27.70
   5  -6  -2  680.73   25.10
  -5   6   1   30.80    7.60
   5   6  -1   33.40    6.30
  -5   6   1   30.60    7.30
   5   6  -1   35.30    8.40
  -5   6   1   26.70    4.30
  -5  -6   1   23.50    7.00
   5  -6  -1   35.10    7.60
   5  -6  -1   29.60    7.80
  -5  -6   1   25.30    6.30
   5  -6  -1   40.90    5.60
   5   6   0   95.89   11.10
  -5   6   0   83.99    3.40
  -5   6   0   92.09    3.50
  -5   6   0   96.99   10.90
  -5   6   0   96.39   10.90
   5  -6   0   83.69   10.00
  -5  -6   0   81.69   11.90
  -5  -6   0   95.49   11.70
   5  -6   0   85.39   10.60
  -5   6  -1   -3.90    3.40
   5   6   1    1.90    3.90
   5   6   1    7.00    4.40
  -5   6  -1    2.20    4.10
  -5  -6  -1    4.40    4.40
   5  -6   1    5.60    3.90
  -5  -6  -1    2.30    4.50
   5  -6   1    2.50    4.90
   5   6   2  785.12   35.70
  -5   6  -2  766.22   30.90
   5   6   2  809.22   36.00
  -5   6  -2  791.82   35.10
   5   6   2  757.42   21.20
   5   6   2  759.12   20.50
   5  -6   2  758.82   33.30
  -5  -6  -2  750.52   36.00
   5  -6   2  776.82   35.40
  -5  -6  -2  798.62   34.80
  -5   6  -3   77.29   13.60
   5   6   3   77.99   13.30
   5   6   3   76.39   13.40
  -5   6  -3   64.99   10.90
   5   6   3   70.99    7.90
   5  -6   3   65.19   11.30
  -5  -6  -3   77.69   12.60
  -5  -6  -3  106.39   15.80
   5  -6   3   87.59   14.90
   5   6   4  586.44   32.70
  -5   6  -4  540.95   31.90
   5   6   4  615.34   34.30
   5   6   4  567.24   25.20
  -5  -6  -4  590.94   32.80
   5  -6   4  561.64   33.20
  -5  -6  -4  560.44   33.40
   5  -6   4  449.46   39.90
   5   6   5  -11.70    5.60
   5   6   5   -4.40    7.10
   5   6   5   -1.50    6.10
  -5   6  -5   -5.20    5.50
   5  -6   5   -2.00    6.10
  -5  -6  -5  -13.10    5.00
  -5   7   7  107.29   16.70
  -5   7   7  105.99   17.10
   5  -7  -7  124.39   18.00
  -5  -7   7  104.49   12.10
  -5  -7   7   89.69   15.20
   5   7  -6  104.29   15.50
  -5   7   6   93.79   22.30
  -5   7   6   84.69   14.50
  -5  -7   6  106.39   11.50
   5  -7  -6  111.09   16.60
  -5  -7   6  123.59   13.40
   5   7  -5   28.50   10.00
  -5   7   5   35.70    9.60
  -5   7   5   31.10    9.10
  -5  -7   5   25.40    5.70
   5  -7  -5   28.40    8.50
  -5  -7   5   32.00    7.90
   5  -7  -5   25.70    4.00
  -5  -7   5   23.40    4.80
   5  -7  -5   19.30    4.70
   5   7  -4    0.70    4.50
  -5   7   4    7.00    6.10
   5  -7  -4    6.80    5.40
  -5  -7   4    5.50    5.30
   5  -7  -4    0.80    3.80
   5  -7  -4    7.20    3.00
  -5  -7   4    6.80    3.80
  -5   7   3   87.99   13.10
  -5   7   3  102.89   11.50
   5   7  -3   81.09   12.80
  -5  -7   3  111.19   11.90
  -5  -7   3   94.29   10.40
   5  -7  -3   90.09   10.00
   5  -7  -3   89.39    9.00
   5  -7  -3   84.49    8.00
  -5   7   2  831.32   34.40
   5   7  -2  825.42   36.60
  -5   7   2  874.51   36.20
  -5   7   2  773.32   27.80
   5  -7  -2  841.22   29.20
  -5  -7   2  857.71   34.10
  -5  -7   2  841.42   33.50
   5  -7  -2  882.71   31.40
   5   7  -1   61.49   11.50
  -5   7   1   44.50    8.70
  -5   7   1   67.79   11.00
  -5   7   1   57.49    5.40
   5   7  -1   53.49    8.70
   5  -7  -1   65.89   10.40
  -5  -7   1   70.89   11.10
   5  -7  -1   55.29    6.10
   5  -7  -1   41.30    9.00
  -5  -7   1   48.90    9.70
   5   7   0  964.40   40.00
  -5   7   0  892.11   36.30
   5  -7   0  923.01   38.00
   5  -7   0  942.41   37.00
  -5  -7   0  903.41   37.10
  -5  -7   0  930.41   39.00
  -5   7  -1   -1.00    3.40
  -5   7  -1    1.50    3.10
   5  -7   1    1.90    3.90
  -5  -7  -1    0.90    5.10
   5  -7   1   -1.90    4.30
  -5   7  -2   21.60    7.20
  -5   7  -2   27.70    8.40
   5   7   2    6.50    6.30
   5   7   2   19.80    8.20
   5  -7   2    9.60    5.80
  -5  -7  -2   15.70    8.10
  -5  -7  -2   23.40    8.10
   5   7   3   -1.30    4.80
  -5   7  -3    7.40    7.30
   5   7   3    1.70    6.20
   5   7   3   -3.20    3.30
   5  -7   3   -2.80    8.50
  -5  -7  -3   -5.00    5.70
   5  -7   3    2.90    5.20
  -5  -7  -3    5.30    5.00
   5   7   4   18.70    8.00
  -5   7  -4    9.40    6.70
   5   7   4   13.40    9.10
   5   7   4    0.90    5.70
   5  -7   4   15.40    8.60
  -5  -7  -4   21.00    8.50
  -5  -7  -4    3.50    7.80
   5   7   5   -3.50   13.90
  -5   7  -5    6.60    7.40
   5   7   5   -5.60    8.50
   5   7   5   -2.80    8.30
  -5  -7  -5    4.50    5.70
   5   8  -6   42.20   11.00
  -5   8   6   33.40   11.30
  -5   8   6   38.10   10.00
  -5  -8   6   28.30    7.40
   5  -8  -6   39.00   10.30
  -5  -8   6   49.90   10.60
   5   8  -5  454.65   28.80
  -5   8   5  398.96   27.40
  -5   8   5  390.96   25.10
  -5  -8   5  382.56   17.90
   5  -8  -5  389.36   16.60
  -5  -8   5  340.97   14.90
   5  -8  -5  423.26   25.50
  -5  -8   5  406.96   23.40
   5   8  -4   58.09   12.10
  -5   8   4   38.50   10.20
  -5   8   4   64.09   12.20
   5  -8  -4   47.00    7.40
  -5  -8   4   39.90    7.30
  -5  -8   4   49.60   11.40
   5  -8  -4   62.59   11.60
   5   8  -3  110.89   16.00
  -5   8   3  128.49   13.60
  -5  -8   3  119.49   12.10
   5  -8  -3  121.39   12.10
   5  -8  -3  105.99   10.90
  -5  -8   3  106.19   12.70
  -5   8   2   45.60    8.50
   5   8  -2   27.60    6.30
   5   8  -2   28.90    9.00
  -5  -8   2   44.00    9.20
  -5  -8   2   37.40   10.30
   5  -8  -2   32.40    8.00
   5  -8  -2   38.70    7.20
   5   8  -1   75.99   13.40
  -5   8   1   75.39    6.60
  -5   8   1   73.49   11.80
   5   8  -1   74.09   10.60
  -5  -8   1   72.19   14.80
   5  -8  -1   55.39   10.30
   5  -8  -1   83.89   12.30
   5  -8  -1   72.79    6.90
  -5  -8   1   61.29   17.20
   5   8   0   68.79   12.80
   5   8   0   65.79   10.60
  -5   8   0   52.59   10.40
  -5   8   0   55.79   10.60
  -5  -8   0   69.59   12.20
  -5  -8   0   55.59   11.40
   5  -8   0   54.99   10.80
   5  -8   0   46.20    8.30
  -5   8  -1  206.88   17.90
   5   8   1  198.98   18.00
   5   8   1  160.48   17.40
  -5  -8  -1  161.58   18.10
   5  -8   1  194.38   17.30
  -5  -8  -1  184.78   17.80
  -5   8  -2   11.90    6.70
   5   8   2    1.80    5.90
   5   8   2   -1.40    6.50
  -5  -8  -2    2.10    4.70
  -5  -8  -2   -1.20    6.30
   5  -8   2   -2.50    5.20
   5   8   3    0.10    5.60
   5   8   3    6.20    8.70
  -5   8  -3   10.60    6.50
  -5  -8  -3  -11.20    7.60
  -5  -8  -3    2.20    5.20
   5  -8   3   10.80    8.30
   5   8   4   24.70   13.10
  -5  -8  -4   31.70   10.20
  -5  -8  -4   18.10   11.30
  -5   9   5  448.86   27.80
   5   9  -5  423.16   29.70
  -5   9   5  413.26   30.30
  -5  -9   5  469.45   26.40
   5  -9  -5  506.55   28.70
   5   9  -4   40.50   11.60
  -5   9   4   50.69   12.60
  -5   9   4   56.49   11.10
   5  -9  -4   46.90    8.60
   5  -9  -4   43.80   10.40
  -5  -9   4   46.00    9.80
  -5  -9   4   51.19    8.90
   5   9  -3  310.27   23.90
  -5   9   3  344.67   23.00
  -5  -9   3  322.67   21.50
  -5  -9   3  313.07   21.00
   5  -9  -3  331.07   20.00
   5  -9  -3  318.47   19.50
  -5   9   2  196.38   18.00
   5   9  -2  191.28   19.00
  -5   9   2  146.39   15.20
   5  -9  -2  171.78   15.00
   5  -9  -2  156.58   12.40
  -5  -9   2  169.08   16.30
  -5  -9   2  173.58   16.60
  -5   9   1  209.08   17.60
   5   9  -1  220.78   20.10
  -5   9   1  179.98   17.60
  -5  -9   1  167.98   17.40
  -5  -9   1  190.58   17.70
   5  -9  -1  183.38   10.60
   5  -9  -1  206.18   17.30
  -5   9   0   19.10    7.20
   5   9   0   18.50    7.00
   5  -9   0   13.10    6.50
  -5  -9   0   17.30    6.80
  -5  -9   0   14.10    7.30
  -5   9  -1    7.60    5.80
   5   9   1   11.90    6.80
   5  -9   1   15.70    8.70
  -5  -9  -1   12.50    7.80
  -5  -9  -1   19.40    7.10
   5   9   2   50.59   12.10
  -5   9  -2   53.49   10.70
  -5  -9  -2   29.90   10.00
   5  -9   2   73.39   14.70
  -5  -9  -2   35.00   12.50
   5   9   3  193.18   23.90
  -5   9  -3  177.78   18.80
  -5  -9  -3  211.28   21.20
   5  -9   3  149.19   24.00
  -5  -9  -3  205.08   22.00
  -5  10   4  -20.90   11.20
   5  10  -4    4.60    5.00
  -5 -10   4    3.10    3.80
   5 -10  -4  -10.90    5.70
   5 -10  -4   -8.50    7.50
  -5 -10   4    1.90    6.50
   5  10  -3   26.00    9.20
  -5  10   3   18.50    7.40
   5 -10  -3   -1.10    5.70
  -5 -10   3   22.90    7.90
   5 -10  -3   15.20    6.40
   5  10  -2   30.90    9.10
  -5  10   2    9.00    5.60
  -5 -10   2    5.90    5.90
   5 -10  -2   24.70    6.40
  -5 -10   2   13.00    6.50
  -5  10   1  386.96   24.60
   5  10  -1  405.36   29.00
  -5 -10   1  407.26   26.10
  -5 -10   1  390.86   27.40
   5 -10  -1  400.26   25.60
  -5  10   0   31.20    9.00
   5  10   0   39.10   10.70
  -5 -10   0   25.90    8.60
  -5 -10   0   37.20   10.50
   5 -10   0   13.40    8.60
   5  10   1  116.99   18.00
  -5  10  -1  141.79   15.90
  -5 -10  -1  107.69   18.40
   5 -10   1  150.28   17.90
  -5 -10  -1  120.89   21.40
  -6   0   9   -5.10    3.20
   6   0  -9   -4.40    5.00
  -6   0   9   -0.30    3.10
  -6   0   9   -0.90    3.70
  -6   0   8  155.48   16.30
   6   0  -8  139.69   15.30
  -6   0   8  137.39   16.50
  -6   0   8  140.59   11.30
   6   0  -7    4.20    6.20
  -6   0   7   -2.20    2.70
  -6   0   7    6.10    5.80
  -6   0   7    1.40    3.50
  -6   0   6   27.70    7.80
   6   0  -6   36.80    8.50
  -6   0   6   21.70    5.10
  -6   0   6   35.40    5.90
  -6   0   5    5.40    4.50
   6   0  -5   -1.60    3.00
  -6   0   5    1.00    2.70
   6   0  -4  751.32   20.20
  -6   0   4  699.23   28.50
  -6   0   4  704.63   25.70
   6   0  -4  770.32   29.10
  -6   0   4  733.13   31.20
   6   0  -3   -0.60    2.30
  -6   0   3    0.40    1.70
   6   0  -3   -0.80    1.70
  -6   0   3    0.70    2.60
  -6   0   3   -0.30    2.40
  -6   0   3    2.00    3.00
  -6   0   2 3187.68   77.39
   6   0  -2 3168.28   72.19
  -6   0   2 3254.77   72.59
   6   0  -2 3124.89   75.49
  -6   0   2 3007.60   76.59
  -6   0   2 3279.77   76.79
  -6   0   2 3152.98   74.19
   6   0  -1   -1.50    2.00
   6   0  -1   -1.50    2.30
  -6   0   1   -1.70    2.50
   6   0  -1   -3.40    2.60
  -6   0   1    1.60    2.30
  -6   0   1    2.20    2.80
  -6   0   1    0.30    2.60
  -6   0   1    1.80    3.30
  -6   0   0   32.10    6.00
  -6   0   0   36.20    6.90
   6   0   0   32.70    6.60
   6   0   0   19.60    4.30
  -6   0   0   25.10    5.10
   6   0   0   15.10    4.30
   6   0   0   20.80    4.70
  -6   0   0   34.70    5.80
   6   0   1    0.90    2.70
  -6   0  -1    1.70    2.80
   6   0   1   -1.00    4.20
  -6   0  -1    4.60    3.80
   6   0   1    3.10    3.30
  -6   0  -1   -0.20    3.90
   6   0   2  379.46   22.30
  -6   0  -2  385.76   20.50
  -6   0  -2  412.96   22.40
  -6   0  -2  397.66   18.00
   6   0   2  387.66   17.00
   6   0   2  380.26   20.70
  -6   0  -3   -2.50    3.90
   6   0   3   -2.90    3.20
  -6   0  -3    0.20    2.90
   6   0   3    4.20    4.40
  -6   0  -3   -1.70    4.10
   6   0   4  824.42   38.30
  -6   0  -4  817.82   30.60
   6   0   4  706.43   32.90
  -6   0  -4  746.23   34.80
  -6   0  -4  773.92   35.60
  -6   0  -5   -1.00    6.00
   6   0   5    0.50    6.20
  -6   0  -5   -5.70    4.20
  -6   0  -6   16.20    8.00
  -6   0  -6   22.40    7.60
   6   0   6   17.60    9.90
   6   1  -9   -3.10    5.90
  -6   1   9   -7.80    4.30
  -6   1   9    0.60    5.60
  -6   1   9    2.70    3.70
  -6  -1   9   -5.00    2.70
  -6  -1   9    0.20    2.70
   6  -1  -9  -12.20    5.00
  -6   1   8  132.79   16.40
  -6   1   8  152.18   12.90
   6   1  -8  146.39   16.20
  -6   1   8  155.18   13.90
  -6  -1   8   93.99   14.60
  -6  -1   8  133.49    9.70
  -6  -1   8  139.99   10.90
   6  -1  -8  140.39   15.50
  -6  -1   8  104.49    7.80
   6   1  -7   98.59   12.20
  -6   1   7   95.29   11.20
  -6   1   7  108.59   10.60
  -6   1   7   98.99   17.60
  -6  -1   7   97.19    6.90
  -6  -1   7  111.69   13.20
   6  -1  -7   87.99   13.60
  -6  -1   7  119.09    9.70
  -6  -1   7  110.29    9.50
  -6  -1   7  103.79    6.90
  -6   1   6  553.94   25.00
   6   1  -6  540.65   26.90
  -6   1   6  615.34   24.80
  -6   1   6  597.04   28.80
  -6  -1   6  538.15   17.90
  -6  -1   6  554.54   17.60
  -6  -1   6  591.14   27.20
   6  -1  -6  586.54   28.50
  -6  -1   6  555.84   20.90
  -6   1   5  286.27   16.10
   6   1  -5  280.67   11.80
  -6   1   5  288.77   18.00
  -6  -1   5  265.77   13.70
  -6  -1   5  285.07   18.40
  -6  -1   5  270.97   11.30
   6  -1  -5  285.87   17.90
  -6  -1   5  315.47   17.60
  -6   1   4  778.02   28.90
   6   1  -4  731.53   27.90
   6   1  -4  750.82   22.50
  -6   1   4  735.23   27.10
  -6  -1   4  698.53   28.90
  -6  -1   4  731.73   22.00
  -6  -1   4  768.62   26.90
  -6  -1   4  739.63   25.40
   6  -1  -4  728.23   28.80
  -6   1   3  641.14   27.20
  -6   1   3  653.03   28.50
  -6   1   3  641.74   27.40
   6   1  -3  622.64   20.60
  -6  -1   3  587.04   24.30
   6  -1  -3  622.14   27.80
  -6  -1   3  615.94   21.90
  -6  -1   3  596.24   20.20
  -6  -1   3  602.44   23.00
   6   1  -2   33.60    5.90
  -6   1   2   19.50    4.80
  -6   1   2   26.50    4.30
  -6   1   2   27.00    5.20
  -6   1   2   30.20    6.00
  -6   1   2   27.70    5.70
   6   1  -2   32.20    5.50
  -6  -1   2   18.50    4.90
  -6  -1   2   24.60    4.60
   6  -1  -2   31.60    6.10
   6  -1  -2   20.10    4.80
  -6  -1   2   20.30    4.50
   6  -1  -2   28.60    4.70
  -6   1   1  777.82   25.80
  -6   1   1  771.02   28.60
  -6   1   1  762.52   26.60
   6   1  -1  755.72   27.40
  -6   1   1  814.12   25.60
   6   1  -1  730.43   24.00
   6   1  -1  751.82   26.70
  -6   1   1  774.72   29.10
  -6  -1   1  735.33   26.30
  -6  -1   1  784.22   26.80
   6  -1  -1  811.52   26.20
  -6  -1   1  778.52   28.70
   6  -1  -1  728.53   26.40
  -6  -1   1  820.72   24.50
   6  -1  -1  733.43   27.80
   6   1   0  243.28   14.80
  -6   1   0  241.98   12.10
   6   1   0  281.77   16.40
  -6   1   0  277.57   12.70
  -6   1   0  244.08   15.50
  -6   1   0  233.78   13.90
   6   1   0  241.38   12.20
   6   1   0  270.47   16.10
  -6   1   0  236.68   14.20
  -6  -1   0  263.17   13.10
   6  -1   0  254.67   15.00
   6  -1   0  262.27   15.50
  -6  -1   0  243.58   13.40
  -6  -1   0  269.17   16.30
  -6   1  -1  218.68   15.20
   6   1   1  187.88   13.60
   6   1   1  226.08   16.00
  -6   1  -1  233.38   11.80
  -6   1  -1  220.38   14.50
   6   1   1  225.98   12.40
   6  -1   1  217.68   15.40
   6  -1   1  190.28   13.90
   6  -1   1  217.98   11.50
  -6  -1  -1  238.58   16.20
  -6  -1  -1  234.48   15.50
  -6  -1  -1  235.88   13.60
   6   1   2  714.03   31.30
   6   1   2  701.93   37.30
  -6   1  -2  711.63   23.80
  -6   1  -2  731.43   30.10
  -6   1  -2  703.83   29.90
   6  -1   2  690.23   25.50
   6  -1   2  674.43   28.90
  -6  -1  -2  713.83   27.00
  -6  -1  -2  695.33   30.90
   6  -1   2  708.63   30.90
  -6  -1  -2  679.23   27.60
  -6   1  -3   15.70    6.70
  -6   1  -3   15.40    5.90
   6   1   3    8.60    4.90
   6   1   3   18.40    7.70
  -6   1  -3   19.60    4.90
  -6  -1  -3   13.50    6.50
   6  -1   3   18.30    5.50
   6  -1   3    9.50    5.30
  -6  -1  -3   19.90    5.80
   6  -1   3    9.50    3.50
  -6  -1  -3    2.80    5.50
   6   1   4  254.27   18.50
   6   1   4  268.97   21.90
  -6   1  -4  300.37   22.30
  -6   1  -4  289.77   16.00
  -6  -1  -4  311.17   19.00
   6  -1   4  274.97   21.50
   6  -1   4  279.57   19.60
  -6  -1  -4  313.47   21.10
  -6  -1  -4  283.07   21.00
   6   1   5   56.09   11.80
  -6   1  -5   28.80    6.90
  -6   1  -5   40.60   11.10
  -6  -1  -5    5.70    7.60
  -6  -1  -5   47.80    9.20
  -6  -1  -5   31.40    9.20
   6  -1   5   42.90   11.10
  -6   1  -6    9.50    8.30
  -6   1  -6   -7.50    6.60
   6   1   6    3.50    6.20
  -6  -1  -6    4.10    6.30
   6  -1   6    1.90    7.50
  -6  -1  -6   -4.00    5.80
   6   2  -9   -0.50    4.40
  -6   2   9    7.70    8.30
  -6  -2   9   -6.30    5.00
  -6  -2   9   -0.60    2.00
  -6  -2   9    4.10    2.00
  -6  -2   9    9.10    5.80
   6  -2  -9    7.10    7.70
  -6   2   8  246.98   17.40
  -6   2   8  257.67   19.00
   6   2  -8  229.68   18.80
  -6   2   8  252.57   21.60
  -6  -2   8  259.07   11.70
  -6  -2   8  247.78   12.40
  -6  -2   8  228.18   19.10
  -6  -2   8  233.78   14.30
   6  -2  -8  245.08   20.90
  -6  -2   8  253.47   20.30
  -6   2   7  640.64   31.50
  -6   2   7  628.44   28.20
  -6   2   7  728.83   34.60
  -6  -2   7  721.23   32.50
  -6  -2   7  704.53   22.50
  -6  -2   7  646.34   23.10
   6  -2  -7  650.23   32.70
  -6  -2   7  674.83   32.70
  -6  -2   7  687.93   23.10
  -6  -2   7  669.73   24.50
  -6   2   6   28.80    6.80
  -6   2   6   31.50    6.90
  -6   2   6   43.20   10.00
  -6  -2   6   39.50    8.50
   6  -2  -6   29.10    7.90
  -6  -2   6   23.70    5.20
  -6  -2   6   41.30    8.90
  -6  -2   6   29.80    4.90
  -6  -2   6   25.80    4.60
  -6   2   5 1124.09   39.90
  -6   2   5 1097.59   37.50
  -6   2   5 1082.29   38.70
   6   2  -5 1135.49   33.30
  -6  -2   5 1177.88   37.40
  -6  -2   5 1137.99   40.40
  -6  -2   5 1097.09   32.20
  -6  -2   5 1087.39   31.90
   6  -2  -5 1116.39   40.20
  -6   2   4  273.87   16.30
  -6   2   4  282.97   17.20
   6   2  -4  274.37   13.60
   6   2  -4  261.77   14.80
   6  -2  -4  277.17   16.80
  -6  -2   4  247.48   12.80
  -6  -2   4  267.47   16.90
  -6  -2   4  270.67   13.70
  -6  -2   4  290.27   14.70
   6   2  -3  290.07   14.10
   6   2  -3  279.47   14.20
  -6   2   3  300.87   16.60
  -6  -2   3  282.67   13.00
   6  -2  -3  294.87    9.30
  -6  -2   3  302.57   17.00
  -6  -2   3  310.87   15.50
  -6  -2   3  310.47   14.50
   6  -2  -3  278.67    8.90
  -6   2   2  162.98   10.80
   6   2  -2  181.48   11.60
  -6   2   2  152.68   11.40
  -6   2   2  162.98    9.00
   6   2  -2  169.88    9.60
  -6   2   2  169.68   11.10
  -6   2   2  152.68   11.90
  -6  -2   2  184.08   12.60
  -6  -2   2  166.88    8.80
   6  -2  -2  167.48   12.20
   6  -2  -2  163.78    9.10
  -6  -2   2  163.88   10.90
  -6  -2   2  153.38   11.70
  -6   2   1  238.98   14.90
   6   2  -1  217.68   10.60
  -6   2   1  231.98   11.70
   6   2  -1  243.78   14.50
  -6   2   1  213.28   13.60
  -6   2   1  222.98   12.30
  -6   2   1  219.28   11.90
   6  -2  -1  232.88   12.50
  -6  -2   1  235.08   14.00
  -6  -2   1  256.77   10.90
  -6  -2   1  225.38   13.70
  -6  -2   1  233.38   14.70
   6  -2  -1  230.88   14.40
   6   2   0 1406.56   36.70
  -6   2   0 1319.97   41.60
  -6   2   0 1393.66   36.30
   6   2   0 1397.16   44.00
  -6   2   0 1476.55   43.40
  -6   2   0 1405.66   37.50
  -6   2   0 1455.15   44.50
  -6  -2   0 1465.65   42.50
   6  -2   0 1447.56   44.60
  -6  -2   0 1418.96   44.80
   6  -2   0 1441.96   42.70
  -6  -2   0 1425.16   37.60
  -6   2  -1  655.73   27.90
   6   2   1  700.93   29.50
   6   2   1  658.53   27.70
  -6   2  -1  690.23   27.80
  -6   2  -1  649.83   20.80
   6   2   1  667.43   24.80
  -6   2  -1  663.03   20.60
   6  -2   1  663.83   28.10
  -6  -2  -1  654.93   29.10
  -6  -2  -1  676.93   24.10
   6  -2   1  645.54   27.50
  -6  -2  -1  683.13   26.60
   6   2   2  235.68   16.20
  -6   2  -2  227.58   10.80
   6   2   2  222.48   17.20
  -6   2  -2  228.18   16.60
  -6   2  -2  220.78   16.20
  -6  -2  -2  224.08   17.30
  -6  -2  -2  238.98   14.70
   6  -2   2  213.58   15.70
  -6  -2  -2  225.28   15.20
   6  -2   2  206.48   16.70
  -6   2  -3   46.20    8.90
   6   2   3   21.70    6.80
   6   2   3   46.00    8.90
  -6   2  -3   40.20    9.50
  -6   2  -3   49.00    5.70
  -6  -2  -3   41.50    9.60
  -6  -2  -3   55.09    9.70
   6  -2   3   40.00    9.50
   6  -2   3   34.30    5.20
   6  -2   3   43.50    8.60
  -6  -2  -3   47.90    9.00
   6   2   4   24.90    7.30
  -6   2  -4   37.80    5.50
  -6   2  -4   41.80   13.60
  -6   2  -4   47.00   11.10
   6   2   4   43.70   10.90
   6  -2   4   26.30    4.60
   6  -2   4   36.30    8.60
  -6  -2  -4   33.10    9.50
  -6  -2  -4   33.70    8.60
   6  -2   4   31.00    9.80
  -6  -2  -4   46.10    9.50
  -6   2  -5   -0.20    3.80
   6   2   5   -4.90    5.80
  -6   2  -5    9.10    7.80
   6  -2   5    7.10    7.00
  -6  -2  -5  -10.90    7.60
  -6  -2  -5   -0.50    5.40
  -6   2  -6  157.18   19.00
  -6  -2  -6  154.68   16.50
  -6  -2  -6  178.68   19.50
  -6   3   9  693.83   32.90
  -6  -3   9  659.43   34.80
  -6  -3   9  705.63   36.30
  -6  -3   9  526.15   37.20
   6  -3  -9  659.83   37.70
  -6   3   8    8.20    7.50
  -6   3   8    3.20    4.70
   6  -3  -8   16.60    4.90
  -6  -3   8    2.80    6.20
  -6  -3   8    3.60    5.40
  -6  -3   8   -9.00    4.60
  -6  -3   8    3.30    1.50
  -6   3   7  150.68   14.10
  -6   3   7  145.69   15.40
  -6   3   7  150.48   16.60
  -6  -3   7  130.69   12.00
  -6  -3   7  143.29    8.10
   6  -3  -7  139.89   15.40
  -6  -3   7  173.68   16.10
  -6  -3   7  147.99    7.90
  -6  -3   7  148.19   15.00
   6   3  -6   37.30    7.20
  -6   3   6   47.70   10.30
  -6   3   6   38.40    8.70
  -6   3   6   35.60    8.00
  -6  -3   6   48.50    9.20
  -6  -3   6   44.40    5.20
  -6  -3   6   38.90    8.70
   6  -3  -6   47.00    9.80
  -6   3   5  182.58   15.50
   6   3  -5  181.38   12.60
  -6   3   5  181.88   14.50
  -6   3   5  159.78   14.30
  -6  -3   5  187.88   10.60
   6  -3  -5  198.48   15.10
  -6  -3   5  168.68   14.40
  -6  -3   5  156.08   10.90
  -6  -3   5  156.18   12.00
  -6   3   4   15.20    6.30
  -6   3   4   11.60    5.10
   6   3  -4   10.30    4.70
   6  -3  -4   11.60    5.10
  -6  -3   4   18.40    4.20
  -6  -3   4    6.10    3.30
  -6  -3   4   11.50    4.70
  -6  -3   4    9.60    3.60
  -6  -3   4   15.20    4.20
   6   3  -3 2103.29   54.89
  -6   3   3 1834.52   55.29
   6  -3  -3 2040.80   43.50
  -6  -3   3 2074.19   53.29
  -6  -3   3 1987.40   53.49
  -6  -3   3 2019.20   47.40
  -6  -3   3 1917.21   56.19
  -6  -3   3 2010.20   49.10
   6  -3  -3 2044.60   43.50
  -6   3   2   -0.20    3.60
   6   3  -2    2.00    2.10
  -6   3   2    3.60    2.80
   6   3  -2    2.80    3.40
  -6   3   2    2.00    3.30
  -6  -3   2    0.80    1.70
   6  -3  -2    5.40    3.20
   6  -3  -2   -0.60    1.90
  -6  -3   2    2.90    3.40
   6  -3  -2    3.40    2.30
   6  -3  -2    3.00    2.50
  -6  -3   2    0.70    2.60
   6   3  -1  197.18    8.90
  -6   3   1  218.28   14.90
  -6   3   1  205.38   14.20
   6   3  -1  230.88   14.90
  -6   3   1  211.08   11.40
  -6   3   1  223.68   11.20
  -6  -3   1  214.08   14.20
   6  -3  -1  213.88   14.70
   6  -3  -1  224.18   14.60
  -6  -3   1  222.78    9.00
  -6  -3   1  221.68   15.00
   6  -3  -1  242.68   13.10
  -6   3   0   44.40    8.10
   6   3   0   27.00    4.30
  -6   3   0   29.30    6.90
  -6   3   0   37.70    4.30
  -6   3   0   32.00    4.70
   6   3   0   30.30    7.40
   6  -3   0   31.70    6.70
  -6  -3   0   41.40    4.90
   6  -3   0   26.00    6.20
  -6  -3   0   42.60    7.90
  -6   3  -1   29.30    3.70
  -6   3  -1   28.50    7.80
   6   3   1   29.90    8.30
   6   3   1   28.70    4.70
  -6   3  -1   30.90    4.10
  -6   3  -1   24.20    6.60
   6  -3   1   26.30    7.10
  -6  -3  -1   37.50    8.60
   6  -3   1   14.70    5.40
  -6  -3  -1   23.40    5.10
  -6  -3  -1   36.50    7.80
  -6   3  -2   29.00    8.20
  -6   3  -2   11.00    4.70
   6   3   2   19.90    6.70
   6   3   2   13.00    4.10
  -6  -3  -2   18.30    5.30
   6  -3   2   17.40    5.90
   6  -3   2   22.80    7.60
  -6  -3  -2   21.90    7.10
  -6  -3  -2   21.90    7.50
   6   3   3  130.09   15.10
  -6   3  -3  162.58   15.90
  -6  -3  -3  121.59   13.10
  -6  -3  -3  134.19   12.20
  -6  -3  -3  137.59   15.30
   6  -3   3  111.69   12.20
   6  -3   3  141.99   15.30
   6   3   4   43.60   11.10
  -6   3  -4   39.30    9.60
  -6   3  -4   31.80    8.80
  -6  -3  -4   29.90    7.60
  -6  -3  -4   42.00    9.30
   6  -3   4   34.00    8.30
  -6  -3  -4   13.80    8.20
   6  -3   4   25.70    8.50
   6   3   5  212.58   21.60
  -6   3  -5  231.68   21.10
   6  -3   5  221.58   21.70
  -6  -3  -5  237.08   19.90
  -6  -3  -5  211.58   23.20
   6   3   6   14.40   10.40
   6   3   6   34.20   10.70
  -6   3  -6   35.00   11.80
   6  -3   6   13.90    9.40
  -6  -3  -6   19.90    8.80
  -6   4   8   93.29   16.10
  -6   4   8  110.69   15.60
  -6  -4   8   76.19   12.60
  -6  -4   8   77.69   11.60
  -6  -4   8  106.99   15.40
   6  -4  -8   92.69   15.90
  -6   4   7   77.29   14.20
  -6   4   7   71.19   11.90
  -6   4   7   63.59   11.70
  -6  -4   7   81.69    4.00
   6  -4  -7   74.29   13.30
  -6  -4   7   80.79    4.00
  -6  -4   7   82.89   12.60
  -6  -4   7   58.99    9.90
  -6  -4   7   88.29   13.90
   6   4  -6   17.60    6.00
  -6   4   6   21.70    8.50
  -6   4   6   22.30    7.30
  -6   4   6   27.70    7.70
  -6  -4   6   16.40    6.60
  -6  -4   6    8.20    4.80
   6  -4  -6   22.80    7.40
  -6  -4   6   16.90    3.30
  -6   4   5  279.87   19.30
  -6   4   5  298.57   20.10
  -6   4   5  304.17   19.60
   6   4  -5  339.77   18.80
  -6  -4   5  277.07   13.30
  -6  -4   5  286.87   15.50
   6  -4  -5  300.17   19.70
  -6  -4   5  286.97   18.90
  -6  -4   5  290.37   15.20
   6   4  -4 1007.60   35.00
  -6   4   4 1014.80   37.10
  -6   4   4  938.01   38.20
  -6   4   4  951.40   36.60
   6  -4  -4  971.40   35.50
  -6  -4   4  989.40   30.80
  -6  -4   4  954.90   35.80
  -6  -4   4  973.40   28.10
  -6  -4   4  919.91   28.50
   6   4  -3  102.39   10.60
  -6   4   3  137.59   12.50
   6  -4  -3  124.99    6.70
   6  -4  -3  115.19    6.30
  -6  -4   3  107.99    9.90
   6  -4  -3  135.79   11.10
  -6  -4   3  119.29    6.30
  -6  -4   3  117.09    6.80
  -6  -4   3  131.49   12.00
  -6   4   2  718.73   29.40
  -6   4   2  675.43   28.20
  -6   4   2  632.14   24.30
   6   4  -2  689.03   28.30
  -6  -4   2  685.03   27.30
   6  -4  -2  737.33   23.30
  -6  -4   2  717.63   28.50
   6  -4  -2  728.03   24.60
  -6  -4   2  686.43   15.10
   6  -4  -2  690.03   22.80
  -6  -4   2  690.93   15.30
  -6   4   1    0.80    4.00
   6   4  -1    3.70    4.60
  -6   4   1    0.30    3.80
  -6   4   1    3.30    2.60
  -6   4   1    0.70    2.40
  -6  -4   1    3.80    4.70
   6  -4  -1    2.20    3.10
   6  -4  -1    4.10    3.40
  -6  -4   1    3.20    4.00
   6  -4  -1    6.20    4.00
  -6   4   0  993.70   25.30
   6   4   0  996.00   23.60
   6   4   0 1021.80   37.80
  -6   4   0 1018.60   36.70
  -6   4   0 1023.50   36.70
  -6   4   0  989.90   26.40
  -6  -4   0 1052.19   36.90
  -6  -4   0  986.40   38.10
   6  -4   0 1043.00   35.50
   6  -4   0  969.10   36.60
   6   4   1  160.28    8.20
  -6   4  -1  193.98   15.30
  -6   4  -1  174.58   14.10
   6   4   1  194.88   16.10
   6  -4   1  178.88   14.60
  -6  -4  -1  186.68    9.70
   6  -4   1  153.18   13.50
  -6  -4  -1  178.28   16.00
  -6  -4  -1  165.38   13.60
   6   4   2  133.49   10.00
   6   4   2  120.99   13.90
  -6   4  -2  138.29   14.30
  -6   4  -2  137.99   12.80
  -6  -4  -2  141.39   10.20
   6  -4   2  123.09   13.40
  -6  -4  -2  128.99   13.20
   6  -4   2  109.29   12.00
  -6   4  -3  807.02   38.10
  -6   4  -3  697.43   32.40
   6   4   3  824.22   30.90
   6   4   3  871.51   38.30
   6  -4   3  736.63   41.40
   6  -4   3  745.03   33.70
  -6  -4  -3  798.42   35.20
  -6  -4  -3  874.91   39.60
   6   4   4   28.40    8.80
  -6   4  -4   34.70    9.80
   6   4   4   36.20    9.30
  -6  -4  -4   34.30    8.50
   6  -4   4   15.10   11.50
   6  -4   4   34.40   10.30
  -6  -4  -4   42.60    9.90
   6   4   5  130.09   16.00
  -6   4  -5  172.18   18.30
   6   4   5  114.39   17.50
  -6  -4  -5  138.59   15.80
   6  -4   5  113.59   18.30
  -6   5   8  273.17   22.10
  -6   5   8  269.77   26.80
   6  -5  -8  273.57   23.60
  -6  -5   8  299.87   22.20
  -6  -5   8  256.57   20.20
  -6   5   7   30.40    9.90
  -6   5   7   29.30    8.90
  -6  -5   7   26.10    8.30
  -6  -5   7   26.20    8.30
  -6  -5   7   26.10    7.70
   6  -5  -7   38.80   10.10
  -6   5   6  711.43   33.70
  -6   5   6  715.33   35.80
   6   5  -6  691.93   31.40
  -6   5   6  671.13   33.30
   6  -5  -6  745.13   34.70
  -6  -5   6  754.92   33.80
  -6  -5   6  670.13   20.70
  -6  -5   6  675.83   27.60
  -6   5   5  731.73   33.10
   6   5  -5  756.52   32.00
  -6   5   5  753.72   34.10
  -6   5   5  657.53   33.10
  -6  -5   5  650.93   24.10
  -6  -5   5  685.43   23.80
   6  -5  -5  762.12   32.90
  -6  -5   5  729.13   31.50
  -6  -5   5  698.83   24.40
  -6   5   4  131.99   13.20
  -6   5   4  140.09   14.10
  -6   5   4  104.59   11.80
   6   5  -4  123.79   12.00
  -6  -5   4  106.59    7.10
  -6  -5   4  114.49   10.00
  -6  -5   4  120.89   12.20
  -6  -5   4  116.89    7.30
   6  -5  -4  137.29   12.70
  -6   5   3  351.16   22.10
  -6   5   3  397.46   22.00
  -6   5   3  404.76   23.40
   6   5  -3  362.96   20.90
  -6  -5   3  396.86   19.60
  -6  -5   3  385.66   21.10
   6  -5  -3  400.66   19.50
   6  -5  -3  387.46   14.30
   6  -5  -3  400.86   14.30
  -6   5   2   42.70    8.70
  -6   5   2   38.20    6.20
  -6   5   2   26.40    6.70
   6   5  -2   31.80    6.10
   6   5  -2   34.80    7.90
   6  -5  -2   37.90    6.50
   6  -5  -2   36.10    6.20
  -6  -5   2   42.60    8.30
   6  -5  -2   33.20    5.30
  -6  -5   2   23.90    6.20
  -6   5   1 1190.08   41.30
  -6   5   1 1185.38   41.50
  -6   5   1 1181.68   31.70
   6   5  -1 1179.08   42.30
  -6  -5   1 1154.88   40.70
   6  -5  -1 1161.38   42.20
  -6  -5   1 1145.89   41.30
   6  -5  -1 1185.78   37.70
  -6   5   0  319.37   19.70
  -6   5   0  297.57   18.80
   6   5   0  294.37   19.80
   6  -5   0  318.27   19.80
  -6  -5   0  313.67   19.20
  -6  -5   0  280.77   19.70
   6  -5   0  305.67   18.40
   6   5   1  130.99    6.50
   6   5   1  139.99    5.80
   6   5   1  142.29   14.70
  -6   5  -1  162.48   14.30
  -6   5  -1  126.29   14.60
  -6  -5  -1  167.18   14.90
  -6  -5  -1  167.58   16.10
   6  -5   1  148.69   13.90
   6  -5   1  130.39   13.10
   6   5   2  286.67   12.00
   6   5   2  283.17   21.20
  -6   5  -2  300.37   24.20
   6   5   2  293.37   13.50
  -6  -5  -2  296.37   22.70
  -6  -5  -2  305.67   20.90
   6  -5   2  283.27   19.90
   6  -5   2  261.27   20.00
  -6   5  -3    3.10    5.70
   6   5   3    0.90    5.60
  -6   5  -3    0.70    5.40
   6   5   3   -3.40    3.10
  -6  -5  -3    1.90    6.30
   6  -5   3    0.60    5.40
   6  -5   3   -0.30    4.40
  -6  -5  -3   -1.30    4.90
   6   5   4  103.49   12.30
  -6   5  -4  159.38   16.80
   6   5   4  125.69   15.20
   6  -5   4  110.39   17.50
  -6  -5  -4  112.49   16.80
  -6  -5  -4  131.29   14.80
  -6   5  -5   12.50    8.30
   6   5   5    6.80    8.00
   6   5   5    2.50    8.20
  -6  -5  -5    8.50    7.20
   6  -5   5   12.60    6.20
  -6   6   7   53.49   13.20
  -6   6   7   47.40   11.30
  -6  -6   7   47.10   11.50
   6  -6  -7   53.29   11.00
  -6  -6   7   43.40    9.80
  -6  -6   7   37.60   10.10
  -6   6   6   71.29   13.60
   6   6  -6   88.29   13.60
  -6   6   6   83.29   20.40
  -6  -6   6   71.79    9.30
  -6  -6   6   80.59    6.30
   6  -6  -6   83.59   14.40
  -6  -6   6   75.69   12.40
   6   6  -5   60.59   11.50
  -6   6   5   43.60   10.70
  -6   6   5   47.10    7.80
  -6   6   5   43.00   10.30
  -6  -6   5   53.29    5.00
  -6  -6   5   39.70    6.10
   6  -6  -5   46.70    9.90
  -6  -6   5   46.30    6.40
  -6   6   4   47.90   10.10
  -6   6   4   32.90    9.00
   6   6  -4   52.09   10.20
  -6   6   4   22.10    6.00
   6  -6  -4   30.70    7.60
  -6  -6   4   28.30    8.20
  -6  -6   4   31.50    7.90
  -6   6   3   55.79   10.30
  -6   6   3   59.49   10.70
   6   6  -3   46.80    9.40
   6  -6  -3   55.69    6.10
  -6  -6   3   47.80    8.20
   6  -6  -3   66.49    6.90
   6  -6  -3   46.50    8.40
  -6  -6   3   50.79    9.90
  -6   6   2  167.68   15.40
   6   6  -2  158.58   14.70
   6   6  -2  151.08   11.50
  -6   6   2  153.98   14.50
  -6   6   2  157.18   10.30
   6  -6  -2  154.98   11.70
  -6  -6   2  170.08   14.80
   6  -6  -2  159.58   11.10
  -6  -6   2  163.58   14.10
   6  -6  -2  162.48   11.00
   6   6  -1   30.50    7.00
   6   6  -1   40.00    9.50
  -6   6   1   38.90    4.80
  -6   6   1   41.50    9.40
  -6   6   1   39.90    9.10
  -6   6   1   41.70    4.70
  -6  -6   1   43.90    9.60
   6  -6  -1   50.69    8.90
   6  -6  -1   33.40    7.70
  -6  -6   1   34.70    8.10
  -6   6   0   14.30    5.50
  -6   6   0    9.10    4.90
   6   6   0   15.10    6.80
   6   6   0   15.80    6.00
   6  -6   0   11.70    5.20
  -6  -6   0   14.20    6.40
  -6  -6   0   12.30    6.50
   6  -6   0   15.90    6.20
   6   6   1  129.99   16.30
   6   6   1   87.49   12.80
  -6   6  -1   94.39   11.70
   6  -6   1  110.29   12.70
   6  -6   1   68.59   11.00
  -6  -6  -1  106.99   15.00
  -6   6  -2   87.69   14.00
   6   6   2   83.79   14.50
   6   6   2   80.39   13.40
  -6  -6  -2  116.89   13.90
   6  -6   2   70.09   12.00
  -6  -6  -2   96.59   15.40
   6   6   3    3.50    4.40
   6   6   3    4.00    6.70
   6   6   3   21.30    8.80
  -6   6  -3    0.30    5.30
  -6  -6  -3   10.10    7.70
   6  -6   3    6.50    6.80
  -6  -6  -3    5.50    7.20
   6   6   4  263.57   22.70
   6   6   4  270.67   24.90
   6   6   4  259.87   16.80
  -6   6  -4  259.57   23.30
  -6  -6  -4  271.97   22.50
  -6  -6  -4  293.87   24.10
   6  -6   4  272.97   23.80
  -6   7   7    7.20    7.00
   6  -7  -7    4.60    6.30
  -6  -7   7   -3.50    4.30
  -6  -7   7    3.50    6.20
  -6  -7   7   -7.60    5.20
  -6   7   6  242.58   21.60
   6   7  -6  239.18   21.00
  -6   7   6  225.28   20.30
  -6  -7   6  247.18   19.00
  -6  -7   6  243.48   11.50
   6  -7  -6  263.37   21.30
  -6   7   5  372.16   24.70
  -6   7   5  410.56   26.80
   6   7  -5  375.26   25.20
  -6  -7   5  386.56   18.20
  -6  -7   5  358.46   13.40
  -6  -7   5  423.56   24.10
  -6   7   4  599.34   30.40
  -6   7   4  557.54   30.90
   6  -7  -4  580.64   27.80
   6  -7  -4  581.64   19.50
  -6  -7   4  553.04   24.80
   6  -7  -4  574.74   19.40
  -6  -7   4  606.54   29.10
   6   7  -3  408.16   24.90
  -6   7   3  390.86   24.80
  -6   7   3  422.16   24.40
   6  -7  -3  372.96   17.50
   6  -7  -3  388.56   17.90
   6  -7  -3  386.86   20.20
  -6  -7   3  359.06   20.70
   6   7  -2   14.40    7.10
   6   7  -2   19.30    4.80
  -6   7   2   12.70    4.30
  -6   7   2    4.70    5.60
   6  -7  -2   15.50    5.50
  -6  -7   2   16.30    7.40
   6  -7  -2    9.80    3.80
  -6   7   1  428.16   29.20
  -6   7   1  430.66   24.80
  -6   7   1  430.56   15.00
   6   7  -1  361.16   23.60
  -6  -7   1  467.85   26.20
  -6  -7   1  401.46   28.70
   6  -7  -1  469.55   23.80
   6  -7  -1  417.76   28.90
   6   7   0  124.09   14.00
  -6   7   0  133.69   14.00
  -6   7   0  137.79   14.10
   6  -7   0  120.59   13.50
  -6  -7   0  151.48   16.40
  -6  -7   0  149.49   15.30
   6   7   1   40.40    9.70
   6   7   1   37.20   10.00
  -6   7  -1   39.90    9.00
  -6   7  -1   50.79   10.60
   6  -7   1   30.80    9.00
   6  -7   1   35.30    7.40
  -6  -7  -1   41.50   10.10
  -6  -7  -1   44.20   10.70
  -6   7  -2  166.28   16.40
   6   7   2  125.39   14.80
   6   7   2  132.49   15.80
  -6  -7  -2   99.39   15.90
  -6  -7  -2  151.88   15.80
   6  -7   2  150.48   16.80
   6   7   3    2.40    5.90
   6   7   3  -11.60    6.20
  -6   7  -3    0.30    5.60
  -6  -7  -3   -7.10    4.60
  -6  -7  -3    4.80    7.90
   6  -7   3    8.20    5.90
   6   7   4  -14.00    9.50
  -6   7  -4   -9.30    5.50
  -6  -7  -4  -19.50    9.30
  -6  -7  -4    3.20    5.80
  -6   8   6  -11.60    6.20
  -6   8   6    4.60    6.60
   6   8  -6   -4.20    5.70
   6  -8  -6   11.70    6.90
  -6  -8   6    4.60    6.30
   6   8  -5  306.97   24.20
  -6   8   5  238.58   22.10
  -6   8   5  287.97   22.10
   6  -8  -5  314.17   21.70
  -6  -8   5  295.37   16.80
  -6  -8   5  267.57   20.20
   6   8  -4  323.07   23.80
  -6   8   4  263.87   20.50
  -6   8   4  278.47   22.80
  -6  -8   4  261.27   17.30
   6  -8  -4  257.17   14.20
  -6  -8   4  254.27   19.60
   6  -8  -4  250.27   18.20
  -6   8   3  160.08   16.20
   6   8  -3  169.68   17.10
  -6   8   3  175.78   17.90
  -6  -8   3  139.19   14.10
  -6  -8   3  173.28   16.10
   6  -8  -3  165.58   13.50
   6  -8  -3  170.18   12.90
  -6   8   2  246.68   19.70
  -6   8   2  236.88   19.00
   6   8  -2  244.38   21.00
   6  -8  -2  229.08   16.80
  -6  -8   2  227.78   18.80
  -6  -8   2  236.58   18.80
  -6   8   1   52.29   10.40
   6   8  -1   71.79   13.00
  -6   8   1   67.59   11.70
   6  -8  -1   62.39   11.10
  -6  -8   1   53.79   11.50
  -6  -8   1   63.59   11.90
  -6   8   0  212.58   18.70
  -6   8   0  211.78   18.30
   6   8   0  224.88   19.90
  -6  -8   0  231.18   19.80
  -6  -8   0  211.18   20.10
  -6   8  -1  356.96   24.60
   6   8   1  407.56   27.50
   6  -8   1  402.76   26.50
  -6  -8  -1  398.46   26.40
  -6  -8  -1  421.16   29.10
  -6   8  -2   10.20    7.00
   6   8   2   -7.70    4.70
  -6  -8  -2   -2.80    5.50
   6  -8   2    0.10    5.40
   6   8   3   98.99   19.50
  -6  -8  -3  109.49   20.00
   6  -8   3  109.29   17.90
  -6  -8  -3  130.09   19.90
  -6   9   5    0.10    6.50
   6   9  -5    3.70    5.30
  -6  -9   5   -6.90    2.90
  -6  -9   5    0.40    5.00
   6  -9  -5   -4.80    4.90
  -6   9   4    8.50    6.20
  -6   9   4   15.10    9.50
   6   9  -4    4.80    5.60
   6  -9  -4    4.10    9.70
  -6  -9   4   -1.50    5.20
   6  -9  -4   13.50    7.60
  -6  -9   4    5.00    5.00
  -6   9   3  163.08   16.40
  -6   9   3  104.99   15.50
   6   9  -3  146.59   17.20
  -6  -9   3  140.99   14.90
   6  -9  -3  152.58   13.60
  -6  -9   3  143.59   15.90
   6  -9  -3  129.59   12.60
   6   9  -2   59.99   12.80
  -6   9   2   65.49   12.30
  -6   9   2   63.79   13.20
  -6  -9   2   54.59   11.30
  -6  -9   2   34.80    9.40
   6  -9  -2   57.69   10.60
  -6   9   1  182.68   17.50
   6   9  -1  208.08   20.20
   6  -9  -1  207.58   18.10
  -6  -9   1  184.28   17.60
  -6  -9   1  202.88   19.00
   6   9   0   -1.00    5.00
  -6   9   0   -3.90    4.90
  -6  -9   0   15.50    6.10
  -6  -9   0   -1.10    6.20
   6  -9   0    4.00    7.10
  -6   9  -1   26.30    8.70
   6   9   1   33.90   10.20
  -6  -9  -1   27.80    9.80
  -6  -9  -1   35.00   10.60
   6   9   2   36.00   11.40
  -6   9  -2   27.20   11.10
  -6  -9  -2   26.60   11.20
   6  -9   2   11.80    8.20
  -6  -9  -2   25.80   10.00
   6 -10  -3   -7.30    7.60
  -6 -10   3    0.90    5.50
  -6  10   2    9.30    4.80
   6  10  -2   12.40    8.50
  -6 -10   2  -12.70    5.90
   6 -10  -2   -2.60    6.00
  -6  10   1   10.30    6.20
   6  10  -1    6.10    7.60
  -6 -10   1    1.80    7.00
   6 -10  -1  -13.10    7.30
  -6 -10   1   -6.10    6.50
  -7   0   9  -13.20    6.20
  -7   0   9   -0.60    5.80
  -7   0   9   -0.20    4.30
  -7   0   8  321.37   22.60
  -7   0   8  331.47   17.80
  -7   0   8  305.47   23.20
   7   0  -8  314.57   23.30
  -7   0   7    1.40    3.10
  -7   0   7   -0.90    3.90
   7   0  -7    7.40    5.00
  -7   0   7    2.00    6.60
  -7   0   6  991.20   34.00
   7   0  -6 1003.90   39.90
  -7   0   6 1057.49   39.40
  -7   0   5   -8.70    2.90
  -7   0   5   -2.50    4.10
  -7   0   5   -0.30    3.30
  -7   0   4  430.36   22.20
  -7   0   4  422.26   20.20
  -7   0   4  394.86   13.50
  -7   0   4  401.56   19.80
   7   0  -4  427.86   13.90
  -7   0   3    3.80    2.20
  -7   0   3   -3.40    2.90
   7   0  -3    2.00    2.50
  -7   0   3   -2.80    3.60
  -7   0   3    2.90    4.00
  -7   0   2   43.60    7.90
  -7   0   2   46.80    8.20
  -7   0   2   52.29    7.60
   7   0  -2   53.89    7.30
  -7   0   2   39.90    6.20
  -7   0   1   -0.10    2.80
  -7   0   1    0.00    3.60
  -7   0   1    0.00    3.00
   7   0  -1    0.80    3.30
  -7   0   1   -1.60    2.90
   7   0   0 3150.08   79.19
  -7   0   0 3008.40   80.69
  -7   0   0 2998.60   75.49
  -7   0  -1    0.50    4.10
   7   0   1    1.40    4.80
   7   0   1    0.30    2.90
  -7   0  -1   -1.50    3.30
  -7   0  -1    3.90    3.20
   7   0   2  262.07   19.10
  -7   0  -2  301.37   16.20
  -7   0  -2  280.17   20.00
   7   0   2  291.57   18.80
  -7   0  -2  286.07   18.70
  -7   0  -3    2.30    4.10
  -7   0  -3   -5.10    4.40
   7   0   3   -1.80    6.10
  -7   0  -3    3.60    5.50
   7   0   3   14.20    4.40
  -7   0  -4   53.19    9.30
  -7   0  -4   42.10   10.00
   7   0   4   36.80   11.30
  -7   0  -5    4.30    6.80
   7   0   5   -6.50    6.50
  -7   0  -5    7.50    5.60
  -7  -1   9  677.43   26.70
  -7  -1   9  682.43   36.70
   7  -1  -9  709.93   38.20
  -7   1   8   25.50    7.00
   7   1  -8   31.80    9.30
  -7   1   8   23.60    9.60
  -7   1   8   29.40    7.50
  -7  -1   8   40.80   11.20
  -7  -1   8   28.30    6.50
  -7  -1   8   35.00    6.00
  -7  -1   8   14.30    8.00
   7  -1  -8   26.50    9.10
   7   1  -7   -1.50    2.80
  -7   1   7    4.00    3.50
  -7   1   7    4.10    3.40
  -7   1   7    3.10    6.30
  -7  -1   7   -0.50    3.00
   7  -1  -7   -1.90    5.00
  -7  -1   7    7.10    4.60
  -7  -1   7    7.20    5.90
  -7  -1   7    1.10    2.70
  -7   1   6   94.19   10.30
  -7   1   6  125.19   13.60
  -7  -1   6   97.59    6.30
  -7  -1   6  116.39    9.60
  -7  -1   6   92.19    6.20
   7  -1  -6  104.39   12.30
  -7  -1   6  100.89   14.50
  -7  -1   6   94.69   11.00
   7   1  -5  129.49    7.90
  -7   1   5  144.49   13.30
  -7   1   5  136.99   12.10
  -7  -1   5  132.39   12.80
  -7  -1   5  134.49    8.10
  -7  -1   5  144.39   12.20
  -7  -1   5  139.29   10.60
   7  -1  -5  125.69   12.60
   7   1  -4  426.46   16.20
  -7   1   4  409.56   20.70
  -7   1   4  406.36   20.40
  -7   1   4  405.76   21.50
  -7  -1   4  443.96   20.00
  -7  -1   4  409.46   19.40
  -7  -1   4  378.16   15.30
  -7  -1   4  398.26   21.60
   7   1  -3    9.00    3.50
  -7   1   3    8.80    3.00
   7   1  -3    4.70    3.70
  -7   1   3    8.50    4.30
  -7   1   3   10.00    5.00
  -7   1   3    4.60    3.70
  -7  -1   3    8.30    4.20
  -7  -1   3    3.20    3.60
  -7  -1   3   11.80    4.40
   7  -1  -3    7.50    2.60
  -7  -1   3    6.80    3.20
  -7   1   2  257.97   14.70
  -7   1   2  272.97   17.30
  -7   1   2  281.27   15.70
   7   1  -2  263.27   14.40
  -7   1   2  262.77   13.20
   7   1  -2  267.17   14.40
  -7  -1   2  300.17   17.50
  -7  -1   2  289.17   14.10
  -7  -1   2  246.08   14.00
  -7  -1   2  262.77   15.80
   7  -1  -2  286.87   13.70
  -7   1   1   50.99    7.50
   7   1  -1   42.40    6.90
  -7   1   1   27.90    7.10
  -7   1   1   28.30    5.70
  -7   1   1   48.20    8.20
  -7   1   1   26.70    5.50
  -7  -1   1   54.59    8.30
  -7  -1   1   47.60    6.20
   7  -1  -1   46.70    7.50
  -7  -1   1   29.30    6.90
   7   1   0    8.60    3.80
  -7   1   0   17.80    5.40
  -7   1   0   15.60    4.70
  -7   1   0    7.70    4.90
   7   1   0   10.90    5.50
  -7   1   0   23.60    5.50
  -7  -1   0   17.50    5.30
   7  -1   0   14.80    5.20
   7  -1   0   14.60    5.90
  -7  -1   0   10.00    4.60
  -7  -1   0   13.90    6.10
  -7   1  -1   87.19   12.20
  -7   1  -1  100.69    8.60
   7   1   1  101.49   11.50
  -7   1  -1  106.79    8.80
  -7   1  -1  107.29   11.40
   7  -1   1  106.89   12.00
  -7  -1  -1   98.19    9.60
   7  -1   1   88.99   10.70
  -7  -1  -1  114.89   10.50
  -7  -1  -1  101.39   12.50
  -7   1  -2  159.18   11.00
  -7   1  -2  160.18   14.40
  -7   1  -2  169.68   15.40
   7   1   2  163.68   16.10
  -7  -1  -2  171.48   16.10
   7  -1   2  168.28   14.60
  -7  -1  -2  181.58   13.30
   7  -1   2  178.58   16.30
   7  -1   2  136.79   10.00
  -7  -1  -2  183.38   14.60
   7   1   3  463.05   27.90
  -7   1  -3  442.36   26.20
  -7   1  -3  442.46   26.20
   7  -1   3  422.36   31.50
  -7  -1  -3  522.35   28.80
  -7  -1  -3  493.75   25.80
  -7  -1  -3  466.45   23.20
   7  -1   3  425.26   31.40
  -7   1  -4  199.28   18.70
  -7   1  -4  112.69   16.50
  -7   1  -4  173.18   12.80
   7   1   4  204.88   20.40
  -7  -1  -4  208.68   22.30
  -7  -1  -4  151.98   17.70
  -7  -1  -4  175.98   15.40
   7  -1   4  189.78   19.70
  -7   1  -5    9.40    6.10
   7   1   5    9.40    6.90
  -7   1  -5   16.40    7.40
  -7  -1  -5   24.20    8.20
   7  -1   5   -0.80    8.40
  -7   2   9  193.48   20.90
  -7  -2   9  218.88   15.90
  -7  -2   9  177.78   18.50
  -7  -2   9  174.18   19.30
  -7  -2   9  173.18   10.50
   7  -2  -9  215.18   20.70
  -7   2   8  131.79   24.00
  -7   2   8  141.39   13.80
  -7   2   8  171.58   17.50
  -7  -2   8  166.28   10.30
  -7  -2   8  168.58   16.90
  -7  -2   8  158.88   11.00
   7  -2  -8  146.99   16.50
  -7  -2   8  137.09   16.10
  -7   2   7   -6.70    3.80
  -7   2   7    4.80    4.50
  -7   2   7   -0.20    5.80
  -7  -2   7   -8.90    3.10
  -7  -2   7    1.20    5.10
  -7  -2   7    1.10    5.90
  -7  -2   7   -3.20    2.30
  -7  -2   7   -1.80    3.20
  -7  -2   7   -4.00    2.10
   7  -2  -7    7.60    5.60
  -7   2   6   53.09    9.00
  -7   2   6   49.80    9.00
  -7   2   6   37.70    9.50
  -7  -2   6   37.80    6.50
  -7  -2   6   39.00    6.10
  -7  -2   6   56.69   11.20
   7  -2  -6   44.30    9.80
  -7  -2   6   36.00    5.50
  -7  -2   6   43.30    8.70
  -7   2   5  654.53   28.40
   7   2  -5  673.53   23.70
  -7   2   5  643.04   29.50
  -7  -2   5  635.64   25.80
   7  -2  -5  706.23   30.70
  -7  -2   5  669.83   24.80
  -7  -2   5  660.13   22.80
  -7  -2   5  669.03   30.20
  -7   2   4 1002.80   35.70
   7   2  -4  965.70   32.90
   7   2  -4  980.10   30.90
  -7   2   4  964.90   35.50
  -7  -2   4  914.91   35.40
  -7  -2   4  951.50   32.20
   7  -2  -4  960.60   35.10
  -7  -2   4  976.20   30.90
  -7  -2   4  990.10   33.30
  -7   2   3 2385.46   63.79
   7   2  -3 2245.58   58.39
   7   2  -3 2405.06   62.49
  -7   2   3 2242.08   61.79
  -7   2   3 2206.08   60.59
   7  -2  -3 2262.07   50.69
  -7  -2   3 2257.27   62.89
  -7  -2   3 2146.69   57.59
  -7  -2   3 2275.87   55.29
  -7  -2   3 2179.58   60.39
   7  -2  -3 2196.98   50.99
  -7   2   2  353.66   15.30
   7   2  -2  367.66   18.10
  -7   2   2  388.66   26.60
   7   2  -2  342.07   15.50
  -7   2   2  389.36   18.10
  -7   2   2  371.76   19.30
   7  -2  -2  365.56   15.70
  -7  -2   2  368.56   19.80
  -7  -2   2  374.96   15.00
  -7  -2   2  368.66   19.00
  -7   2   1  579.34   23.60
  -7   2   1  615.24   22.20
  -7   2   1  606.34   23.30
   7   2  -1  629.64   21.50
  -7   2   1  627.14   27.60
   7   2  -1  641.74   26.40
  -7   2   1  647.84   26.20
   7  -2  -1  653.23   24.50
  -7  -2   1  622.34   21.10
  -7  -2   1  585.74   25.20
  -7  -2   1  641.54   27.80
   7   2   0   52.29    9.40
  -7   2   0   50.89    6.10
  -7   2   0   67.09   10.10
  -7   2   0   56.69    9.40
   7  -2   0   60.79    9.50
  -7  -2   0   67.59    7.30
   7  -2   0   53.29    8.60
  -7  -2   0   62.49    9.40
  -7  -2   0   71.49   10.60
  -7   2  -1    7.30    3.10
  -7   2  -1    6.80    5.20
   7   2   1    5.30    5.70
   7   2   1    0.20    2.90
  -7   2  -1    9.30    3.00
  -7   2  -1   12.80    6.00
   7  -2   1   13.10    5.50
  -7  -2  -1    6.80    4.60
   7  -2   1    6.70    4.20
  -7  -2  -1    8.20    4.70
  -7  -2  -1   12.80    5.70
   7   2   2   91.49   13.70
  -7   2  -2  111.39    8.00
  -7   2  -2  113.39    8.20
  -7   2  -2  118.69   13.20
  -7   2  -2  109.49   12.60
   7  -2   2   97.79   11.60
  -7  -2  -2  127.39   12.00
   7  -2   2  102.29   12.90
  -7  -2  -2  120.19   11.80
  -7  -2  -2  118.99   14.20
   7   2   3  178.58   18.10
  -7   2  -3  136.89   20.40
  -7   2  -3  172.18   10.40
   7  -2   3  144.79   14.60
  -7  -2  -3  181.28   17.50
  -7  -2  -3  172.68   14.80
  -7  -2  -3  181.88   15.40
   7  -2   3  164.88   17.20
  -7   2  -4   43.00   10.80
  -7   2  -4   11.00    4.30
   7   2   4   21.70    9.40
  -7  -2  -4   27.20    8.00
  -7  -2  -4   28.00    9.70
   7  -2   4   17.30    7.40
  -7  -2  -4   23.90    7.70
   7   2   5   37.30   11.30
  -7   2  -5   50.69   12.30
  -7  -2  -5   41.70   10.40
   7  -2   5   29.70   11.90
  -7  -2  -5   37.90   10.00
  -7   3   8    2.00    7.50
  -7   3   8    1.40    4.80
  -7  -3   8    6.50    6.90
  -7  -3   8   -6.30    4.70
   7  -3  -8   -6.20    5.10
  -7  -3   8    5.10    5.40
  -7   3   7 1264.67   45.60
  -7   3   7 1212.68   48.50
  -7   3   7 1177.48   46.70
  -7  -3   7 1197.08   34.00
  -7  -3   7 1288.07   48.60
   7  -3  -7 1226.88   48.80
  -7  -3   7 1180.18   43.60
  -7   3   6  -10.20    3.60
  -7   3   6   -1.80    3.30
   7   3  -6    4.60    3.70
  -7   3   6    1.50    5.50
  -7  -3   6   -5.30    4.00
  -7  -3   6    3.80    4.70
  -7  -3   6    0.10    2.40
  -7   3   5  199.18   16.90
  -7   3   5  216.38   16.60
   7   3  -5  205.18   13.70
  -7   3   5  220.48   17.50
  -7  -3   5  237.78   16.50
   7  -3  -5  240.78   17.10
  -7  -3   5  190.98   15.50
  -7  -3   5  213.78   13.00
  -7   3   4  124.89   12.30
   7   3  -4  134.09   12.20
  -7   3   4  108.79   12.00
  -7  -3   4  114.89   12.30
  -7  -3   4  106.39    8.60
   7  -3  -4  129.29   12.00
  -7  -3   4  115.59   10.00
  -7  -3   4  128.99   10.70
  -7   3   3   41.20    8.30
  -7   3   3   42.70    7.70
   7   3  -3   37.20    5.80
   7   3  -3   32.80    7.10
  -7   3   3   40.70    8.30
   7  -3  -3   38.50    4.30
  -7  -3   3   38.90    8.00
   7  -3  -3   36.60    7.10
   7  -3  -3   33.10    4.00
  -7  -3   3   33.40    6.40
  -7  -3   3   28.10    4.50
   7   3  -2  209.18   14.30
  -7   3   2  181.48   14.30
   7   3  -2  190.68   10.10
  -7   3   2  181.68   13.80
  -7   3   2  199.48   12.40
  -7   3   2  193.48   15.10
  -7  -3   2  192.18    9.10
  -7  -3   2  195.08   14.60
  -7  -3   2  181.08   13.70
   7  -3  -2  189.08   11.30
   7  -3  -2  197.98   11.40
  -7   3   1 1144.99   39.00
  -7   3   1 1058.69   33.30
  -7   3   1 1005.60   34.50
  -7   3   1 1130.99   32.30
  -7   3   1 1112.99   39.80
   7   3  -1 1107.79   29.80
   7   3  -1 1147.49   39.20
  -7  -3   1 1114.29   39.90
  -7  -3   1 1124.59   38.10
   7  -3  -1 1082.59   35.30
  -7  -3   1 1102.59   29.40
  -7   3   0   19.70    4.10
   7   3   0   22.90    7.20
  -7   3   0   28.50    7.40
   7   3   0   13.40    3.40
  -7   3   0   14.20    5.90
  -7   3   0   22.50    4.30
  -7  -3   0   19.70    4.20
  -7  -3   0   26.40    7.40
  -7  -3   0   24.40    7.00
   7  -3   0   19.70    6.00
   7  -3   0    5.70    3.90
  -7   3  -1 1642.74   52.49
  -7   3  -1 1559.24   38.60
  -7   3  -1 1554.94   39.50
  -7   3  -1 1585.64   51.99
   7   3   1 1603.54   53.49
   7  -3   1 1625.04   52.09
  -7  -3  -1 1561.04   49.99
  -7  -3  -1 1596.44   54.59
  -7  -3  -1 1568.24   43.80
  -7   3  -2   27.80    3.70
  -7   3  -2   35.90    8.70
   7   3   2   33.50    8.60
  -7   3  -2   29.00    3.90
  -7   3  -2   26.20    7.60
   7  -3   2   28.10    8.90
  -7  -3  -2   42.40   14.70
  -7  -3  -2   40.80    9.00
   7  -3   2   27.70    6.90
  -7   3  -3    6.20    6.10
  -7   3  -3    5.30    3.00
  -7   3  -3   -0.30    5.50
   7   3   3    3.40    6.80
  -7  -3  -3    3.30    5.30
   7  -3   3    4.60    4.10
   7  -3   3    6.20    5.40
  -7  -3  -3   10.50    6.70
  -7  -3  -3    3.00    5.00
   7   3   4    0.50    5.30
  -7   3  -4    4.00    6.80
  -7  -3  -4   12.90    8.50
  -7  -3  -4    3.80    5.10
   7  -3   4    1.60    5.10
  -7  -3  -4   -1.30    4.70
   7   3   5   18.50    8.20
  -7   3  -5   16.80   10.30
  -7  -3  -5   24.60    8.80
  -7   4   8   62.79   12.40
  -7   4   8   46.60   11.20
  -7  -4   8   37.10    7.90
   7  -4  -8   76.19   14.30
  -7  -4   8   49.99   11.40
  -7  -4   8   44.50   10.80
  -7   4   7   45.50   11.20
  -7   4   7   58.59   10.80
  -7  -4   7   32.30    7.60
   7  -4  -7   61.69   12.60
  -7  -4   7   42.80   10.10
  -7  -4   7   42.20    9.20
  -7  -4   7   49.90    5.50
   7   4  -6   29.60    7.20
  -7   4   6   28.70    8.40
  -7   4   6   36.70   10.20
  -7  -4   6   34.10    7.60
  -7  -4   6   32.50    5.40
   7  -4  -6   37.10    9.60
  -7  -4   6   30.80    8.70
   7   4  -5  270.97   17.00
  -7   4   5  213.58   18.40
  -7   4   5  258.27   19.60
  -7   4   5  270.47   19.30
   7  -4  -5  237.88   17.80
  -7  -4   5  244.28   14.20
  -7  -4   5  240.68   17.80
  -7  -4   5  254.27   13.80
  -7  -4   5  247.08   13.70
  -7   4   4  438.96   23.90
   7   4  -4  425.56   21.60
  -7   4   4  453.75   24.20
   7  -4  -4  413.56   22.00
  -7  -4   4  415.66   15.60
  -7  -4   4  434.66   23.60
  -7  -4   4  420.76   19.90
  -7  -4   4  393.76   16.20
  -7   4   3   17.00    6.00
  -7   4   3   20.10    6.30
   7   4  -3   23.20    6.70
   7  -4  -3   16.40    3.50
  -7  -4   3   17.90    6.50
  -7  -4   3   22.80    3.40
   7  -4  -3   21.00    5.40
  -7  -4   3   18.30    3.50
   7  -4  -3   17.20    3.20
  -7  -4   3   17.40    5.60
  -7   4   2  428.46   23.20
   7   4  -2  392.06   21.70
  -7   4   2  437.66   22.90
  -7   4   2  406.16   18.30
  -7   4   2  385.06   18.30
  -7  -4   2  406.36   22.00
  -7  -4   2  414.76   11.40
  -7  -4   2  397.66   11.00
  -7  -4   2  393.06   21.60
   7  -4  -2  448.36   18.10
   7  -4  -2  433.26   17.80
  -7   4   1   73.39   11.00
  -7   4   1   64.89    6.30
   7   4  -1   83.49   12.00
  -7   4   1   67.09    6.60
  -7   4   1   54.09   10.10
   7   4  -1   70.39    3.60
  -7  -4   1   49.30    9.60
   7  -4  -1   75.29   11.20
  -7  -4   1   64.69    3.50
  -7  -4   1   77.39   11.10
  -7   4   0    1.90    2.00
  -7   4   0    3.90    2.80
  -7   4   0   -3.70    3.50
   7   4   0   -3.60    1.70
  -7   4   0    0.10    3.90
   7   4   0   -0.80    2.90
  -7  -4   0    1.00    2.20
  -7  -4   0   -3.60    4.10
   7  -4   0   -1.50    3.10
  -7  -4   0    0.30    3.80
  -7   4  -1    0.80    1.00
  -7   4  -1    1.60    1.30
  -7   4  -1    0.10    3.90
  -7   4  -1    0.10    4.30
   7   4   1   -5.60    2.70
   7   4   1   -2.20    5.40
   7  -4   1   -2.20    3.60
   7  -4   1    1.50    4.20
  -7  -4  -1    4.60    6.00
  -7  -4  -1    1.70    5.30
  -7  -4  -1    5.40    3.10
  -7   4  -2   39.60    9.30
   7   4   2   36.20    6.00
   7   4   2   44.20   10.10
  -7   4  -2   18.70    7.70
  -7  -4  -2   46.00    9.50
   7  -4   2   24.50    6.50
  -7  -4  -2   48.50   10.40
   7  -4   2   47.40   10.30
  -7  -4  -2   37.40    7.00
   7   4   3  154.78   13.10
  -7   4  -3  147.39   16.80
   7   4   3  112.89   16.90
   7  -4   3  161.88   17.70
  -7  -4  -3  159.68   16.10
  -7  -4  -3  115.89   17.20
  -7   4  -4  111.39   18.20
   7   4   4   92.89   16.00
   7   4   4   94.39   13.80
   7  -4   4   73.19   14.50
  -7  -4  -4   60.09   16.40
  -7  -4  -4  119.39   14.90
   7   4   5  199.78   22.10
  -7   4  -5  201.58   21.40
   7   4   5  215.68   20.30
   7  -4   5  183.08   20.30
  -7  -4  -5  220.98   20.10
  -7   5   8  -10.20    7.10
  -7   5   8   -3.30    4.70
   7  -5  -8   -2.30    6.70
  -7  -5   8   -4.10    6.00
  -7  -5   8    2.50    6.30
  -7   5   7    8.30    6.20
  -7   5   7    2.70    5.70
  -7  -5   7    9.00    6.10
  -7  -5   7   12.70    7.10
   7  -5  -7    6.80    5.40
  -7  -5   7   13.30    2.80
  -7  -5   7    7.80    6.50
  -7   5   6   91.69   14.00
   7   5  -6   98.19   12.20
  -7   5   6  102.49   16.20
  -7  -5   6   89.79    9.80
  -7  -5   6   85.69   13.60
   7  -5  -6   86.29   13.80
  -7  -5   6   86.49    8.20
  -7   5   5  188.28   17.30
  -7   5   5  178.28   16.70
   7   5  -5  156.68   14.30
  -7   5   5  156.38   16.00
  -7  -5   5  181.18   15.90
   7  -5  -5  207.88   16.60
  -7  -5   5  169.78   12.20
  -7  -5   5  163.68   10.30
  -7   5   4  465.75   25.80
  -7   5   4  346.87   26.30
   7   5  -4  430.66   23.60
  -7   5   4  477.25   29.50
  -7  -5   4  433.86   26.40
  -7  -5   4  438.26   13.60
  -7  -5   4  443.06   14.30
   7  -5  -4  512.95   24.20
  -7  -5   4  420.66   23.50
  -7   5   3    2.70    4.80
   7   5  -3   -5.30    3.10
  -7   5   3   -5.20    3.80
  -7   5   3   -4.80    3.10
  -7  -5   3    2.70    4.10
  -7  -5   3    2.50    4.00
   7  -5  -3   -1.10    2.40
   7  -5  -3    2.30    3.30
   7  -5  -3   -2.10    2.30
   7   5  -2  452.45   24.40
  -7   5   2  397.06   17.90
  -7   5   2  415.76   23.10
  -7   5   2  397.36   23.50
  -7   5   2  368.16   18.00
  -7  -5   2  404.66   23.00
  -7  -5   2  432.46   23.40
   7  -5  -2  415.36   18.10
   7  -5  -2  409.66   18.40
  -7   5   1   59.89    6.10
  -7   5   1   54.59    5.80
   7   5  -1   58.59   10.60
  -7   5   1   53.09   10.40
  -7   5   1   57.29   10.50
   7  -5  -1   61.89    9.60
  -7  -5   1   67.19   11.40
  -7  -5   1   69.19   11.20
   7   5   0   13.90    5.90
  -7   5   0   14.00    6.90
  -7   5   0   18.70    6.40
  -7  -5   0    8.80    5.50
   7  -5   0   15.20    5.40
   7  -5   0   16.30    5.60
  -7  -5   0   19.10    6.50
  -7   5  -1    1.70    4.90
   7   5   1   -4.10    4.70
  -7   5  -1    2.60    5.10
   7   5   1   -1.30    2.10
  -7  -5  -1    7.60    6.50
  -7  -5  -1    2.60    5.40
   7  -5   1    2.80    4.90
   7   5   2   -2.40    3.20
  -7   5  -2    4.60    5.40
  -7   5  -2   -6.20    5.30
   7   5   2   -3.50    4.00
   7   5   2   -3.90    3.80
   7  -5   2   -2.40    4.20
   7  -5   2   -3.20    5.00
  -7  -5  -2    6.00    7.30
  -7  -5  -2    1.70    4.90
   7   5   3    7.70    6.00
   7   5   3    5.40    6.40
  -7   5  -3   17.60    8.00
   7  -5   3   23.20    9.40
  -7  -5  -3   18.60    7.40
  -7  -5  -3   22.50   10.40
   7   5   4  118.39   13.90
  -7   5  -4  166.98   18.10
   7   5   4  115.19   17.70
   7  -5   4  141.59   18.10
  -7  -5  -4  107.09   18.50
  -7  -5  -4  147.39   16.30
  -7   6   7   97.39   19.50
  -7   6   7   91.19   15.30
   7   6  -7   89.69   13.60
   7  -6  -7  106.99   16.70
  -7  -6   7   64.19   10.70
  -7  -6   7   80.99    3.90
  -7  -6   7  100.59   15.30
  -7   6   6  344.47   25.00
  -7   6   6  351.66   25.20
   7  -6  -6  369.36   24.40
  -7  -6   6  357.06   23.50
  -7  -6   6  328.37   15.50
  -7   6   5   38.00    9.80
  -7   6   5   36.30   10.00
   7   6  -5   33.90    9.80
  -7  -6   5   44.50   10.40
  -7  -6   5   29.70    4.60
   7  -6  -5   47.90    9.90
  -7  -6   5   37.00    6.90
  -7   6   4   22.60    8.00
   7   6  -4   22.10    7.30
  -7   6   4   24.60    8.40
   7  -6  -4   25.30    8.00
  -7  -6   4   18.00    7.00
  -7  -6   4   19.70    6.00
   7   6  -3   60.99   10.70
  -7   6   3   70.89   11.50
  -7   6   3   61.79   11.00
  -7  -6   3   57.09    9.60
   7  -6  -3   69.59    6.80
  -7  -6   3   80.69   12.30
   7  -6  -3   81.79    9.50
   7  -6  -3   70.79    7.30
  -7   6   2   -2.10    3.60
   7   6  -2    6.50    5.50
  -7   6   2   -3.00    4.70
  -7   6   2    4.70    5.10
   7   6  -2   -1.40    4.00
  -7   6   2   -2.10    3.10
  -7  -6   2   10.10    5.80
  -7  -6   2   14.60    8.20
   7   6  -1    2.90    5.40
  -7   6   1    1.70    2.40
  -7   6   1    1.70    2.50
   7   6  -1    1.80    3.70
  -7   6   1   11.90    6.30
  -7   6   1   -2.20    4.20
  -7  -6   1    2.60    4.00
   7  -6  -1    3.50    4.30
  -7  -6   1   10.20    5.60
   7   6   0  555.24   29.20
  -7   6   0  582.64   29.30
   7   6   0  588.94   31.30
  -7   6   0  615.54   30.60
   7  -6   0  540.95   27.70
  -7  -6   0  611.34   30.60
   7  -6   0  552.54   29.70
  -7  -6   0  611.34   32.30
  -7   6  -1   27.40    8.10
   7   6   1   29.00    9.40
  -7   6  -1    9.10    7.00
  -7  -6  -1   31.90   10.50
  -7  -6  -1   29.80    9.20
   7  -6   1   11.50    6.00
  -7   6  -2  232.58   20.40
   7   6   2  209.38   19.10
   7  -6   2  248.38   20.80
  -7  -6  -2  254.87   22.90
  -7  -6  -2  251.77   20.90
   7   6   3   11.30    9.10
  -7   6  -3    5.60    5.60
   7   6   3   -3.40    5.90
  -7  -6  -3   -8.10    4.60
  -7  -6  -3  -11.60    7.40
   7  -6   3   -2.50    6.00
   7   6   4  191.48   21.10
  -7   6  -4  219.18   21.80
   7   6   4  139.99   22.60
  -7  -6  -4  130.19   23.30
   7  -6   4  183.08   20.70
  -7  -6  -4  187.28   20.00
   7   7  -6  137.89   17.00
  -7   7   6  112.49   16.20
  -7   7   6  117.29   17.90
   7  -7  -6  111.19   15.90
  -7  -7   6   92.79    8.70
  -7  -7   6  149.49   15.60
   7   7  -5   76.19   13.10
  -7   7   5   54.89   12.00
  -7   7   5   83.79   14.40
  -7  -7   5   85.19   13.80
   7  -7  -5   75.49   12.30
  -7  -7   5   88.59   10.10
  -7   7   4  801.22   38.60
  -7   7   4  816.92   37.20
   7   7  -4  839.72   38.70
  -7  -7   4  821.52   36.40
   7  -7  -4  777.02   33.00
  -7  -7   4  754.62   31.80
  -7   7   3    5.20    5.60
   7   7  -3   11.90    6.20
  -7   7   3    3.60    5.00
   7  -7  -3    9.10    4.90
  -7  -7   3   12.40    7.10
   7  -7  -3   -2.20    3.60
  -7  -7   3    3.10    4.20
  -7   7   2  647.44   32.40
   7   7  -2  695.13   34.60
  -7   7   2  668.33   33.20
  -7  -7   2  644.14   32.10
  -7  -7   2  633.54   31.60
   7  -7  -2  605.54   26.20
  -7   7   1   50.39    6.10
  -7   7   1   47.70    4.40
   7   7  -1   73.69   12.80
  -7   7   1   84.49   13.30
  -7   7   1   59.69   11.50
   7   7  -1   50.49   11.90
  -7  -7   1   77.59   13.20
   7  -7  -1   61.09   10.60
  -7  -7   1   66.69   11.90
   7   7   0   66.29   17.50
  -7   7   0   64.09   11.10
  -7   7   0   54.09   11.10
   7   7   0   89.09   14.70
   7  -7   0   59.09   10.50
  -7  -7   0   72.89   12.70
  -7  -7   0   60.09   12.20
   7   7   1    7.50    9.10
  -7   7  -1   10.30    6.80
   7   7   1   15.30    7.20
   7  -7   1   10.80    6.60
  -7  -7  -1   20.70    7.60
  -7  -7  -1    3.10    8.30
   7   7   2  154.58   24.50
  -7   7  -2  204.58   19.20
   7   7   2  187.68   19.10
  -7  -7  -2  165.28   17.30
   7  -7   2  136.29   16.40
  -7   7  -3    2.40    6.30
   7   7   3   -4.50    3.50
   7  -7   3  -11.90    4.80
  -7  -7  -3   -3.80    7.30
  -7   8   5   -4.50    6.30
  -7   8   5   -5.20    5.70
   7   8  -5   -4.40    5.40
   7  -8  -5   -1.60    5.20
  -7  -8   5   -3.60    3.30
  -7  -8   5   -1.30    4.90
  -7   8   4   83.19   14.60
  -7   8   4   83.19   14.50
   7   8  -4   87.19   15.20
  -7  -8   4   88.39   13.90
  -7  -8   4   76.19   11.20
   7  -8  -4   82.09   12.30
   7   8  -3  138.29   16.70
  -7   8   3  170.98   17.00
  -7   8   3  154.08   18.10
  -7  -8   3  130.29   14.60
   7  -8  -3  132.99   12.00
  -7  -8   3  141.89   14.70
   7   8  -2   62.49   13.10
  -7   8   2   38.70   10.50
  -7   8   2   61.19   11.80
  -7  -8   2   33.70    9.10
   7  -8  -2   44.50    9.50
  -7  -8   2   46.30   10.20
   7   8  -1    9.40    6.50
  -7   8   1   -6.40    3.50
  -7   8   1  -11.30    5.90
   7  -8  -1   -2.30    5.00
  -7  -8   1   -1.20    5.90
  -7  -8   1  -10.10    5.20
   7   8   0   37.30   10.80
  -7   8   0   41.20   10.60
   7  -8   0   42.80   10.60
  -7  -8   0   35.60    9.70
  -7  -8   0   37.40   11.00
   7   8   1   24.70    9.70
  -7   8  -1   51.59   11.30
  -7  -8  -1   27.30   10.20
   7  -8   1   42.20   11.70
  -7  -8  -1   21.60    8.90
   7   8   2   27.90   10.20
  -7   8  -2   36.80   10.10
  -7  -8  -2   32.10   11.30
   7  -8   2   36.20   11.70
  -7  -8  -2   25.10    8.20
  -7   9   4  137.99   16.40
   7   9  -4   93.39   17.90
  -7   9   4  132.39   19.00
   7  -9  -4  122.19   13.80
  -7  -9   4  122.79   13.90
  -7  -9   4  133.19   15.30
  -7   9   3   -5.90    7.80
   7   9  -3   15.20    7.60
  -7   9   3    9.60    6.30
   7  -9  -3   -9.10    7.20
   7  -9  -3   21.70    5.70
  -7  -9   3   -3.80    5.90
   7   9  -2   70.49   14.00
  -7   9   2   73.89   13.70
  -7  -9   2   46.10   10.20
   7  -9  -2  110.39   13.10
  -7  -9   2   74.69   13.80
   7   9  -1  180.48   19.50
  -7   9   1  163.38   17.00
  -7  -9   1  175.28   17.60
   7  -9  -1  147.49   16.70
  -7  -9   1  119.09   16.90
   7   9   0    7.90    6.80
  -7  -9   0    3.40    6.70
   7  -9   0   10.70    7.40
  -7  -9   0    7.30    7.80
  -8   0   8  244.28   16.20
  -8   0   8  223.78   18.30
   8   0  -8  190.78   18.30
  -8   0   8  218.98   19.40
  -8   0   8  243.78   21.30
  -8   0   7   -3.10    4.10
  -8   0   7   -4.40    5.70
  -8   0   7    0.00    3.10
  -8   0   7   -1.50    4.50
  -8   0   6  105.79   12.70
  -8   0   6  101.29   10.70
  -8   0   6  122.09   13.20
  -8   0   5   -3.30    3.10
  -8   0   5    6.00    5.40
  -8   0   5   -2.20    3.90
  -8   0   4 1962.60   54.69
  -8   0   4 1927.61   57.89
  -8   0   4 1850.01   55.69
   8   0  -4 1924.81   46.00
  -8   0   4 1854.31   45.70
  -8   0   3   -0.30    3.60
  -8   0   3    2.10    2.10
  -8   0   3    0.40    3.60
  -8   0   3    2.80    4.20
   8   0  -3   -1.60    2.70
  -8   0   2  311.37   19.60
  -8   0   2  306.87   17.60
  -8   0   2  337.57   17.60
  -8   0   2  314.27   16.40
   8   0  -2  330.97   16.70
  -8   0   1    0.40    3.90
  -8   0   1    1.30    3.40
   8   0  -1    1.50    4.00
  -8   0   1    4.10    4.30
  -8   0   0  125.29   14.30
  -8   0   0  128.59   11.70
  -8   0   0  119.39   10.60
   8   0   0  118.39   12.50
  -8   0  -1    6.40    5.60
   8   0   1   -1.50    4.80
  -8   0  -1    7.50    4.00
  -8   0  -1    1.30    4.60
  -8   0  -2   27.00    8.10
  -8   0  -2   22.40    7.20
  -8   0  -2   23.30    6.80
  -8   0  -3    0.70    5.10
  -8   0  -3   -1.40    4.00
  -8   0  -3    5.60    7.20
   8   0   3   -6.40    3.60
  -8   0  -4  167.78   17.50
   8   0   4  107.79   17.90
  -8   0  -4  161.48   14.10
  -8   1   8  429.46   23.10
  -8   1   8  448.16   28.00
   8  -1  -8  402.36   27.30
  -8  -1   8  415.16   26.60
  -8  -1   8  404.06   27.70
  -8  -1   8  355.76   20.30
  -8   1   7  392.26   23.60
  -8   1   7  403.06   25.30
  -8   1   7  396.26   21.90
  -8  -1   7  430.56   27.30
   8  -1  -7  392.56   25.60
  -8  -1   7  404.66   20.00
  -8   1   6  101.99   14.80
  -8   1   6  114.69   12.00
  -8   1   6   87.49   13.20
  -8  -1   6  114.39   10.90
  -8  -1   6   81.39    7.30
  -8  -1   6   96.19   14.00
  -8  -1   6  106.49   11.90
   8  -1  -6   99.59   12.10
  -8   1   5  170.28   15.40
  -8   1   5  141.69   13.70
   8   1  -5  149.69    8.60
  -8   1   5  153.38   13.50
  -8  -1   5  168.28   15.10
  -8  -1   5  183.58   13.90
  -8  -1   5  113.79    8.10
  -8  -1   5  155.98   12.60
  -8   1   4   16.30    6.00
   8   1  -4   23.90    4.80
  -8   1   4   16.10    6.30
  -8   1   4   15.40    5.50
  -8  -1   4   20.00    6.10
  -8  -1   4   19.00    5.40
  -8  -1   4   11.60    4.00
   8  -1  -4   10.10    2.70
  -8  -1   4   15.80    6.30
  -8   1   3  465.85   18.10
  -8   1   3  532.85   25.30
  -8   1   3  476.55   22.60
   8   1  -3  495.65   20.50
  -8   1   3  557.34   24.40
   8  -1  -3  522.85   18.50
  -8  -1   3  500.15   20.90
  -8  -1   3  465.15   23.80
  -8  -1   3  471.15   23.60
  -8  -1   3  476.35   20.20
  -8   1   2  345.17   16.90
  -8   1   2  398.76   22.30
  -8   1   2  368.96   19.30
  -8   1   2  377.86   19.20
   8   1  -2  367.16   18.80
   8  -1  -2  364.46   17.30
  -8  -1   2  353.56   19.40
  -8  -1   2  370.86   21.30
  -8  -1   2  369.56   19.50
  -8   1   1    9.90    6.20
  -8   1   1    6.60    4.20
  -8   1   1    4.90    4.00
   8   1  -1   10.50    4.80
  -8  -1   1    8.50    5.10
   8  -1  -1    4.20    4.80
  -8  -1   1    2.00    3.60
  -8   1   0  186.38   14.20
   8   1   0  156.58   14.50
  -8   1   0  228.88   18.10
  -8   1   0  171.18   12.10
   8  -1   0  176.48   14.50
  -8  -1   0  225.68   14.10
  -8  -1   0  201.38   14.10
  -8  -1   0  187.18   16.50
  -8   1  -1  394.76   22.20
  -8   1  -1  397.76   24.40
  -8   1  -1  393.06   18.20
   8   1   1  352.36   22.80
  -8  -1  -1  390.16   20.40
  -8  -1  -1  378.56   20.50
   8  -1   1  365.66   23.00
  -8  -1  -1  372.66   28.50
   8   1   2   17.80    8.30
  -8   1  -2   10.20    6.20
  -8   1  -2   10.30    4.60
  -8   1  -2   21.80    7.60
  -8  -1  -2    2.50    6.20
  -8  -1  -2   20.70    6.20
  -8  -1  -2   24.20    7.60
  -8   1  -3   12.80    6.80
  -8   1  -3   24.90    6.30
  -8   1  -3   19.00    7.60
   8   1   3   25.40   10.00
  -8  -1  -3   30.50   10.60
   8  -1   3   24.20    9.20
  -8  -1  -3   31.30    8.30
  -8  -1  -3   47.80   11.00
   8   1   4   -0.80    7.40
  -8   1  -4   10.00    5.40
  -8   1  -4   -2.20    6.50
  -8  -1  -4    0.90    6.10
  -8  -1  -4    9.50    7.10
   8  -1   4   15.40    7.70
  -8   2   8   34.40   10.20
  -8   2   8   21.90    6.90
  -8  -2   8   33.60   10.00
   8  -2  -8   41.60   10.00
  -8  -2   8   23.20    5.60
  -8  -2   8   27.80    9.30
  -8  -2   8   24.60    5.50
  -8   2   7  171.78   14.90
  -8   2   7  171.38   16.50
  -8   2   7  173.68   17.60
  -8  -2   7  191.78   18.30
  -8  -2   7  173.48   15.60
   8  -2  -7  168.08   17.00
  -8  -2   7  134.59    9.20
  -8  -2   7  181.18   12.70
  -8   2   6  510.95   26.10
  -8   2   6  524.55   28.00
   8   2  -6  507.25   19.70
  -8  -2   6  518.25   28.20
  -8  -2   6  529.05   25.10
  -8  -2   6  517.75   19.20
  -8  -2   6  543.45   23.20
   8  -2  -6  513.75   28.10
  -8   2   5    5.20    5.50
  -8   2   5   -1.70    3.70
   8   2  -5    2.20    3.20
  -8   2   5   -3.20    2.10
  -8  -2   5    2.50    5.00
   8  -2  -5   -0.80    2.30
  -8  -2   5   -4.70    3.40
  -8  -2   5   -1.10    3.80
  -8  -2   5    0.50    3.00
  -8   2   4   -2.60    3.60
  -8   2   4    5.00    4.30
   8   2  -4    5.30    3.60
  -8   2   4    0.90    3.90
  -8  -2   4    0.20    3.20
  -8  -2   4    2.90    3.80
   8   2  -3  506.35   21.70
  -8   2   3  551.04   26.60
   8   2  -3  528.65   23.20
  -8   2   3  538.05   24.10
  -8   2   3  550.74   25.40
  -8  -2   3  575.54   26.70
  -8  -2   3  556.94   26.00
  -8  -2   3  523.95   20.30
   8  -2  -3  535.85   18.20
  -8   2   2   38.60    7.30
  -8   2   2   23.80    7.40
   8   2  -2   36.00    7.40
  -8   2   2   17.90    4.60
  -8   2   2   34.20    7.90
   8   2  -2   22.70    5.60
   8  -2  -2   33.30    6.30
  -8  -2   2   35.90    5.70
  -8  -2   2   28.90    7.50
  -8  -2   2   31.20    7.90
  -8   2   1  981.50   44.80
  -8   2   1  968.60   35.70
   8   2  -1  969.90   36.00
  -8   2   1 1022.80   31.50
   8   2  -1  906.71   30.00
  -8  -2   1  973.40   38.10
   8  -2  -1  895.71   33.10
  -8  -2   1  909.81   34.50
  -8   2   0  375.26   23.00
  -8   2   0  332.27   17.00
  -8   2   0  359.56   20.90
   8   2   0  357.86   18.90
   8   2   0  367.96   22.20
  -8   2   0  355.96   16.40
  -8  -2   0  370.56   17.70
  -8  -2   0  373.26   23.10
  -8  -2   0  359.06   20.10
   8  -2   0  370.26   21.30
  -8   2  -1  476.75   26.30
  -8   2  -1  477.05   25.40
  -8   2  -1  424.36   18.10
   8   2   1  457.25   25.90
  -8   2  -1  435.26   18.40
  -8  -2  -1  429.76   21.00
  -8  -2  -1  458.05   27.40
  -8  -2  -1  450.25   23.20
   8  -2   1  425.06   24.70
  -8   2  -2  386.76   28.30
  -8   2  -2  335.77   15.90
  -8   2  -2  360.36   24.10
   8   2   2  402.26   26.10
  -8   2  -2  356.56   16.70
   8  -2   2  365.86   25.00
  -8  -2  -2  376.46   21.30
  -8  -2  -2  394.06   22.40
  -8  -2  -2  362.26   25.10
  -8   2  -3   39.80    6.20
  -8   2  -3   26.80    8.70
   8   2   3   38.10   10.80
  -8   2  -3   24.40   10.10
  -8  -2  -3   36.80   10.70
  -8  -2  -3   42.60    9.30
   8  -2   3   49.90   12.40
  -8  -2  -3   39.20   10.60
  -8   2  -4   27.70    8.40
   8   2   4   10.50    7.90
   8  -2   4   21.70    8.50
  -8  -2  -4   22.70    9.60
  -8  -2  -4   26.70    7.90
  -8   3   8   17.00    9.50
  -8   3   8   17.70    6.60
  -8  -3   8   25.20    9.10
   8  -3  -8   19.70    9.00
  -8  -3   8   20.60    5.50
  -8  -3   8   26.20    4.60
  -8  -3   8    8.60    8.40
  -8   3   7   43.10   10.70
  -8   3   7   41.10    9.70
  -8  -3   7   43.30   10.70
   8  -3  -7   53.19   11.70
  -8  -3   7   46.70    7.00
  -8  -3   7   49.60   10.00
   8   3  -6   -1.80    3.90
  -8   3   6    3.20    4.20
  -8   3   6   -6.80    4.90
   8  -3  -6   10.10    6.20
  -8  -3   6   -5.00    4.20
  -8  -3   6   -3.20    2.30
  -8  -3   6   -3.20    4.60
   8   3  -5  549.74   23.50
  -8   3   5  521.05   27.00
  -8  -3   5  544.75   22.10
  -8  -3   5  494.35   27.10
  -8  -3   5  501.25   22.90
   8  -3  -5  527.15   26.90
  -8   3   4   77.69   11.80
   8   3  -4   92.39   10.10
  -8   3   4   69.39   10.90
  -8   3   4   65.19   10.80
  -8  -3   4   80.69   12.20
  -8  -3   4   86.89    7.80
  -8  -3   4   80.09    7.50
  -8  -3   4   79.59    9.70
  -8   3   3 1195.18   39.30
   8   3  -3 1151.98   34.60
   8   3  -3 1150.98   39.50
  -8   3   3 1270.47   44.20
  -8   3   3 1178.58   41.90
   8  -3  -3 1157.28   31.20
  -8  -3   3 1172.18   32.50
  -8  -3   3 1199.18   41.40
  -8  -3   3 1205.08   42.50
   8  -3  -3 1146.89   31.50
   8   3  -2   12.40    5.10
  -8   3   2   17.40    5.80
   8   3  -2    3.40    3.30
  -8   3   2   21.80    7.20
  -8   3   2    8.10    4.50
  -8  -3   2   10.50    5.50
   8  -3  -2   12.10    4.60
  -8  -3   2    8.60    3.20
   8  -3  -2    8.80    3.30
  -8  -3   2    5.60    5.40
   8   3  -1   16.70    4.10
  -8   3   1   27.80    7.30
  -8   3   1   18.70    4.90
  -8   3   1   17.50    5.50
  -8   3   1   23.70    7.40
   8   3  -1   25.80    7.30
  -8  -3   1   27.10    7.50
   8  -3  -1   25.20    6.70
  -8  -3   1   21.50    4.30
  -8  -3   1   19.80    6.70
   8   3   0  119.49   13.50
  -8   3   0  110.69   13.60
  -8   3   0   94.69   14.60
  -8   3   0  110.09   12.00
  -8   3   0  118.89    8.60
   8  -3   0  113.69   12.60
  -8  -3   0  118.89   13.90
  -8  -3   0  111.89    8.90
  -8  -3   0  130.49   12.90
  -8   3  -1   35.30    5.40
  -8   3  -1   31.50    5.00
   8   3   1   21.50    9.30
   8   3   1   23.00    8.40
  -8   3  -1   21.70    7.20
  -8   3  -1   26.60    9.30
   8  -3   1   29.00    8.20
  -8  -3  -1   34.20    8.20
  -8  -3  -1   21.90    8.20
  -8  -3  -1   36.90    7.00
  -8   3  -2    9.10    7.10
  -8   3  -2   13.40    7.80
  -8   3  -2    9.70    5.50
  -8   3  -2    8.20    2.80
   8   3   2    7.30    5.70
   8  -3   2    8.70    5.90
  -8  -3  -2   18.20    7.30
  -8  -3  -2   19.90    6.40
  -8   3  -3  235.88   21.00
   8   3   3  307.77   24.00
  -8  -3  -3  268.07   24.10
  -8  -3  -3  283.47   21.20
   8  -3   3  223.98   21.00
  -8  -3  -3  280.47   18.90
  -8   3  -4   20.70    7.80
  -8  -3  -4   14.80    7.70
  -8  -3  -4    7.60    6.60
   8  -3   4   16.40    9.90
  -8   4   8   22.70   10.60
   8  -4  -8   47.90   11.80
  -8  -4   8   11.20    8.40
  -8  -4   8   29.80    4.20
  -8  -4   8   17.30   10.30
  -8  -4   8   23.80    4.20
  -8   4   7  155.28   16.20
  -8   4   7  144.59   17.20
  -8  -4   7  114.89   12.50
  -8  -4   7  145.69   13.80
   8  -4  -7  136.99   15.50
  -8  -4   7  162.78   16.50
  -8  -4   7  127.29    9.90
  -8   4   6  376.86   24.60
   8   4  -6  399.46   21.60
  -8   4   6  355.16   23.50
  -8  -4   6  391.16   18.80
   8  -4  -6  412.46   25.20
  -8  -4   6  384.26   19.30
  -8  -4   6  369.36   24.50
  -8   4   5    8.70    5.10
  -8   4   5    2.90    6.00
  -8   4   5   -7.60    4.80
   8   4  -5    4.60    4.80
  -8  -4   5    5.70    2.80
  -8  -4   5    7.90    5.90
  -8  -4   5    2.40    3.70
  -8  -4   5   -1.60    3.40
   8  -4  -5   -1.20    4.00
  -8   4   4   76.09   12.00
   8   4  -4   88.09   10.50
   8  -4  -4   71.19   11.20
  -8  -4   4   77.99    6.40
  -8  -4   4   97.69    7.20
  -8  -4   4   87.39   10.90
  -8  -4   4   91.79   13.50
   8   4  -3   32.40    7.80
  -8   4   3   32.00    7.30
  -8   4   3   34.60    8.60
  -8   4   3   34.50    9.00
   8  -4  -3   37.30    5.00
  -8  -4   3   46.60    4.80
  -8  -4   3   41.00    4.10
  -8  -4   3   32.20    7.70
   8  -4  -3   42.70    5.10
  -8  -4   3   32.20    8.20
   8   4  -2  208.88   16.30
  -8   4   2  219.18   13.40
  -8   4   2  248.08   18.90
  -8   4   2  201.08   16.10
   8  -4  -2  221.98   13.30
  -8  -4   2  225.08   17.50
  -8  -4   2  230.98   16.90
   8  -4  -2  216.68   13.60
  -8   4   1   95.39    8.00
   8   4  -1  107.69   12.40
  -8   4   1   89.29   13.00
  -8   4   1   82.39   12.70
  -8   4   1   84.99    8.50
   8  -4  -1  100.29   11.10
  -8  -4   1   88.79   13.50
  -8  -4   1   94.19   11.00
  -8   4   0  106.99    8.10
  -8   4   0   82.19   12.70
   8   4   0   90.79    7.00
  -8   4   0  107.99    7.30
   8   4   0  112.49   12.90
   8  -4   0  100.59   12.30
  -8  -4   0   94.49    6.80
  -8  -4   0   97.59   14.80
  -8  -4   0  116.79   13.50
  -8   4  -1   -1.50    5.20
   8   4   1   -0.80    4.10
  -8   4  -1    4.40    5.90
  -8  -4  -1    8.00    5.80
  -8  -4  -1    0.20    6.00
   8  -4   1    3.60    5.20
  -8  -4  -1   -2.50    3.10
   8   4   2  182.58   17.90
  -8   4  -2  146.79   16.40
  -8   4  -2  170.08   16.50
  -8  -4  -2  178.78   17.90
   8  -4   2  148.09   17.00
  -8  -4  -2  173.98   16.00
   8   4   3   53.09    9.70
   8   4   3   54.29   13.20
  -8   4  -3   59.09   12.40
  -8  -4  -3   81.29   14.20
   8  -4   3   55.79   12.60
  -8  -4  -3   45.00   11.60
  -8   4  -4    2.90    7.70
   8   4   4    4.40    9.20
   8   4   4    1.60    6.50
   8  -4   4   10.30    7.00
  -8  -4  -4   23.40    8.50
  -8   5   7   60.39   12.80
  -8   5   7   92.89   16.30
   8   5  -7   62.99   11.20
  -8  -5   7   56.09   12.60
   8  -5  -7   87.49   14.70
  -8  -5   7   42.70    8.60
  -8  -5   7   57.59    6.90
  -8   5   6    6.00    7.10
   8   5  -6   32.90    8.30
  -8   5   6   26.50    8.60
  -8  -5   6   16.80    7.50
   8  -5  -6   19.90    8.00
  -8  -5   6   12.60    4.70
  -8  -5   6    5.70    5.20
   8   5  -5  261.47   18.60
  -8   5   5  228.78   19.30
  -8   5   5  271.67   20.90
   8  -5  -5  244.58   21.70
  -8  -5   5  266.47   20.30
  -8  -5   5  244.08   11.50
  -8  -5   5  223.08   15.40
   8   5  -4  336.47   21.50
  -8   5   4  332.07   21.90
  -8   5   4  296.37   21.90
  -8   5   4  335.17   22.80
  -8  -5   4  334.77   20.00
   8  -5  -4  351.56   20.10
  -8  -5   4  311.87   21.50
   8   5  -3   89.29   12.90
  -8   5   3   77.29   12.40
  -8   5   3   80.49   12.80
   8   5  -3   54.89   11.50
  -8   5   3   90.99   10.20
  -8  -5   3   52.99   10.50
   8  -5  -3   60.89    7.00
   8  -5  -3   83.69    7.40
  -8  -5   3   83.89   12.10
  -8   5   2  203.98   14.50
   8   5  -2  208.88   17.30
  -8   5   2  219.98   17.80
  -8   5   2  203.58   17.90
  -8  -5   2  209.68   25.40
  -8  -5   2  229.68   17.80
   8  -5  -2  190.98   15.30
  -8   5   1   84.99   13.50
   8   5  -1   90.09   13.70
  -8   5   1  108.69   12.60
  -8   5   1   93.99    7.20
  -8   5   1  112.79   10.50
   8  -5  -1  103.79   12.00
  -8  -5   1  111.79   13.10
  -8  -5   1  119.69   14.90
   8   5   0  477.85   27.70
  -8   5   0  309.67   14.90
  -8   5   0  370.06   24.20
  -8   5   0  330.27   14.00
  -8   5   0  444.76   25.60
  -8  -5   0  442.56   25.70
  -8  -5   0  408.26   26.90
   8  -5   0  484.55   25.50
  -8   5  -1  125.39   14.90
   8   5   1  102.19   15.60
  -8   5  -1  104.29   15.40
  -8  -5  -1  105.99   16.60
  -8  -5  -1  133.69   15.10
  -8   5  -2   46.40   10.60
   8   5   2   68.39   13.70
   8  -5   2   59.49   12.50
  -8  -5  -2   52.09   13.00
  -8  -5  -2   65.49   12.30
  -8   5  -3   35.80   10.70
   8   5   3   30.80   11.40
  -8  -5  -3   21.70   12.00
   8  -5   3   28.90   10.20
  -8  -5  -3   29.40   10.20
  -8   6   7   -8.70    7.60
  -8   6   7   13.50    7.30
   8  -6  -7    8.20    7.20
  -8   6   6  110.09   16.90
   8   6  -6  136.19   15.70
  -8   6   6  125.99   18.00
  -8  -6   6  107.09   15.50
  -8  -6   6  109.19   10.30
   8  -6  -6  108.49   15.90
  -8   6   5   11.40   11.80
   8   6  -5   24.10    8.10
  -8   6   5   23.10    7.50
   8  -6  -5   26.80    8.00
  -8  -6   5   15.60    5.20
  -8  -6   5   24.60    7.10
  -8   6   4  247.48   19.90
  -8   6   4  226.58   20.00
   8  -6  -4  273.17   18.10
  -8  -6   4  245.98   19.10
  -8  -6   4  230.88   17.30
   8   6  -3   24.70    7.30
  -8   6   3   20.00    6.30
  -8   6   3   27.90    8.00
  -8   6   3   26.10    9.00
   8  -6  -3   12.10    4.70
  -8  -6   3   16.60    6.40
  -8  -6   3   42.70   10.00
  -8   6   2   14.50    6.10
  -8   6   2   15.20    7.50
   8   6  -2   26.20    8.40
   8  -6  -2   15.70    5.60
  -8  -6   2    9.70    7.00
  -8  -6   2   32.20    9.40
  -8   6   1   14.90    3.30
   8   6  -1   18.20    8.30
  -8   6   1   20.80    6.90
   8   6  -1    6.60    7.60
  -8   6   1   10.90    7.50
   8  -6  -1   17.90    6.20
  -8  -6   1   27.60    9.20
  -8  -6   1   17.90    7.80
  -8   6   0    6.40    6.70
   8   6   0   12.60    7.20
  -8   6   0   -4.30    5.40
   8  -6   0    0.80    5.70
  -8  -6   0   -3.00    5.10
  -8  -6   0   14.10    6.90
   8   6   1   48.30   11.90
  -8   6  -1   29.30   12.40
  -8   6  -1   42.00   10.80
  -8  -6  -1   42.60   16.90
  -8  -6  -1   66.49   12.90
   8  -6   1   63.29   12.20
  -8   6  -2   97.49   15.60
   8   6   2   55.29   12.80
   8  -6   2   61.69   13.60
  -8  -6  -2  115.89   23.70
  -8  -6  -2   82.49   13.90
  -8   7   6   44.20   10.80
  -8   7   6   65.79   13.80
   8   7  -6   77.99   14.00
  -8  -7   6   40.50    6.50
   8  -7  -6   56.99   10.80
   8   7  -5   86.69   14.60
  -8   7   5   96.79   14.70
  -8   7   5   76.79   13.50
   8  -7  -5  125.69   13.90
  -8  -7   5   74.79   13.10
  -8  -7   5   98.29   11.10
   8   7  -4   20.00    7.70
  -8   7   4    4.30    6.30
  -8   7   4    5.20    6.70
  -8  -7   4   10.70    6.60
   8  -7  -4   14.30    6.50
  -8  -7   4    8.40    5.30
   8   7  -3   72.69   13.20
  -8   7   3   56.49   12.40
  -8   7   3   86.89   14.40
  -8  -7   3   57.99   12.00
  -8  -7   3   70.09   11.40
   8  -7  -3   62.39    8.60
  -8   7   2  489.15   28.60
   8   7  -2  444.96   28.70
  -8   7   2  440.06   18.70
  -8   7   2  479.15   29.10
   8  -7  -2  480.85   23.30
  -8  -7   2  503.05   29.10
  -8  -7   2  509.15   29.10
  -8   7   1    8.20    5.20
   8   7  -1   24.20    8.10
  -8   7   1   13.20    7.70
  -8  -7   1   14.00    6.50
   8  -7  -1    7.70    6.00
  -8  -7   1   12.00    8.00
  -8   7   0  182.88   18.10
   8   7   0  166.08   18.40
  -8  -7   0  183.88   18.50
  -8  -7   0  160.38   19.20
   8  -7   0  177.48   17.60
   8   7   1   85.79   15.80
  -8   7  -1   49.70   11.60
   8  -7   1   71.89   13.80
  -8  -7  -1   57.29   12.60
  -8  -7  -1   90.89   15.00
  -8   7  -2    9.50    6.40
   8   7   2    3.90    7.50
   8  -7   2  -12.30    6.60
  -8  -7  -2    6.70    9.80
  -8   8   4   58.29   13.60
   8   8  -4   78.59   13.70
  -8  -8   4   37.80   11.10
  -8  -8   4   31.10    9.30
   8  -8  -4   59.39   10.50
  -8   8   3  175.88   17.80
  -8   8   3  174.88   20.00
   8   8  -3  191.18   19.20
  -8  -8   3  143.89   15.90
  -8  -8   3  170.58   17.70
   8   8  -2   66.99   13.70
  -8   8   2   64.59   15.00
  -8   8   2   80.39   14.20
  -8  -8   2   55.29   11.60
  -8  -8   2   76.39   13.40
   8  -8  -2   53.29   10.40
   8   8  -1   60.29   12.00
  -8   8   1  118.49   14.80
  -8  -8   1   89.29   14.20
  -8  -8   1   73.79   14.10
  -8   8   0   40.40   12.50
   8  -8   0   50.19   10.80
  -8  -8   0   57.39   13.40
  -8  -8   0   44.20   11.90
  -9   0   8    4.60    7.30
  -9   0   8   14.90    9.90
  -9   0   8   18.00    7.80
  -9   0   7  -15.10    6.00
  -9   0   7   -8.60    4.90
  -9   0   7   -2.50    3.40
  -9   0   6  335.87   22.00
  -9   0   6  386.16   24.90
  -9   0   6  359.46   21.30
   9   0  -5    2.40    1.50
  -9   0   5    0.40    3.50
  -9   0   5    2.20    4.80
  -9   0   5   -0.30    4.00
  -9   0   4  638.94   29.50
  -9   0   4  688.23   27.80
   9   0  -4  640.04   21.40
  -9   0   4  612.84   21.30
  -9   0   4  565.64   28.30
  -9   0   3   -2.40    3.20
  -9   0   3   -1.10    3.80
   9   0  -3    1.20    3.20
  -9   0   3   -1.50    4.00
  -9   0   3   -2.30    3.10
  -9   0   2  436.16   22.10
   9   0  -2  456.35   21.60
  -9   0   2  445.46   25.60
  -9   0   2  451.55   21.70
   9   0  -1   -0.60    4.20
  -9   0   1    2.50    3.50
  -9   0   1   -9.10    4.20
  -9   0   1   -2.00    3.00
  -9   0   0  330.37   23.20
  -9   0   0  337.27   19.70
  -9   0   0  329.97   18.50
   9   0   0  318.97   21.10
   9   0   1   -3.50    3.90
  -9   0  -1    2.90    3.90
  -9   0  -1   -2.80    3.80
  -9   0  -1    3.60    5.80
  -9   0  -2   -2.20    4.60
  -9   0  -2   -2.90   15.00
  -9   0  -2   10.80    6.10
   9   0   2    0.50    6.20
   9   0   3   -6.40    6.70
  -9   0  -3   -9.40    5.30
  -9   0  -3  -11.70    4.40
  -9   1   8  177.28   19.30
  -9   1   8  187.18   19.10
  -9   1   8  190.48   17.30
  -9  -1   8  209.88   19.90
  -9  -1   8  200.48   17.10
  -9  -1   8  199.38   19.30
  -9   1   7    3.40    4.40
  -9   1   7   -8.80    5.10
  -9   1   7   -4.50    5.10
  -9  -1   7   -4.50    5.70
  -9  -1   7   -9.90    4.90
  -9  -1   7    3.30    3.80
  -9   1   6  445.36   26.70
  -9   1   6  492.35   26.50
  -9   1   6  441.96   24.50
  -9  -1   6  457.95   24.50
  -9  -1   6  457.65   23.70
  -9  -1   6  442.46   26.70
  -9   1   5   -7.10    3.30
  -9   1   5    8.70    5.10
   9   1  -5    2.80    2.80
  -9   1   5    3.30    5.00
  -9  -1   5    5.30    2.80
  -9  -1   5    6.30    5.10
  -9  -1   5   -3.40    4.60
  -9  -1   5    2.70    4.10
  -9   1   4   76.19    9.70
   9   1  -4   62.29    7.50
  -9   1   4   71.09   11.40
  -9   1   4   64.79   10.60
  -9   1   4   55.69    5.40
  -9  -1   4   51.99    6.70
  -9  -1   4   70.59    9.00
  -9  -1   4   82.89   12.50
   9  -1  -4   66.99    5.50
  -9  -1   4   92.29   11.30
  -9   1   3  126.09   12.00
  -9   1   3  135.09   12.30
  -9   1   3   94.29    8.80
   9   1  -3  115.49   10.50
  -9   1   3  112.49   12.80
  -9  -1   3   97.39   12.20
  -9  -1   3  128.39   10.50
   9  -1  -3  124.59    9.70
  -9  -1   3  104.69   11.70
   9   1  -2  101.89   11.00
  -9   1   2  122.29   13.70
  -9   1   2  104.69   10.90
  -9   1   2  103.79   10.60
   9  -1  -2   89.59   10.00
  -9  -1   2   89.09   10.60
  -9  -1   2   85.39   12.30
  -9  -1   2  115.19    9.90
  -9   1   1   71.09   12.10
   9   1  -1   67.99   10.80
  -9   1   1   57.99    8.90
  -9   1   1   66.99   10.40
   9  -1  -1   65.69   10.00
  -9  -1   1   60.69   11.10
  -9  -1   1   74.79   10.70
  -9  -1   1   58.89    7.70
  -9   1   0  309.57   17.30
  -9   1   0  306.57   19.90
   9   1   0  276.97   20.30
  -9   1   0  289.87   22.20
  -9  -1   0  352.76   19.20
  -9  -1   0  287.27   18.20
  -9  -1   0  295.77   22.30
   9  -1   0  326.17   21.00
  -9   1  -1    2.30    6.50
   9   1   1   -6.20    3.60
  -9   1  -1    4.70    6.10
  -9   1  -1   13.80    5.10
  -9  -1  -1   -2.10    5.50
  -9  -1  -1   -2.00    4.10
  -9  -1  -1   10.90    6.00
  -9   1  -2  185.88   14.10
  -9   1  -2  224.88   18.80
   9   1   2  224.88   20.60
  -9   1  -2  208.28   20.50
   9  -1   2  233.08   21.00
  -9  -1  -2  230.28   21.90
  -9  -1  -2  241.48   17.30
  -9  -1  -2  226.98   18.30
  -9   1  -3    6.70    6.60
  -9   1  -3   -2.70    5.20
   9   1   3   10.40    8.80
  -9  -1  -3   -0.80    4.60
  -9  -1  -3   13.70    7.90
   9  -1   3   10.20    8.30
  -9   2   8   56.99   11.00
  -9   2   8   34.70   13.30
  -9  -2   8   40.40   10.50
  -9  -2   8   32.90   10.80
   9  -2  -8   60.29   12.80
  -9  -2   8   27.10    7.20
  -9  -2   8   43.20    7.50
  -9   2   7  154.18   15.60
  -9   2   7  136.19   15.90
  -9   2   7  132.39   15.60
   9  -2  -7  134.89   15.20
  -9  -2   7  129.79   12.10
  -9  -2   7  146.09   16.00
  -9  -2   7  155.08   17.30
  -9   2   6  110.59   13.90
  -9   2   6  123.89   15.00
  -9   2   6  102.89   14.10
  -9  -2   6  127.59   14.10
  -9  -2   6  105.69   11.40
  -9  -2   6   99.09   12.00
  -9   2   5  234.98   18.80
   9   2  -5  229.18   13.80
  -9   2   5  223.38   17.70
  -9   2   5  250.37   18.90
  -9  -2   5  258.37   17.30
  -9  -2   5  209.58   18.30
  -9  -2   5  189.98   12.40
  -9  -2   5  222.28   14.80
  -9   2   4   43.60    9.00
  -9   2   4   42.20    9.40
  -9   2   4   39.90    8.60
   9   2  -4   46.20    7.60
  -9  -2   4   48.30    7.70
  -9  -2   4   52.79   10.10
  -9  -2   4   39.60    8.40
  -9   2   3  323.57   21.80
  -9   2   3  393.96   21.00
   9   2  -3  352.46   19.10
  -9   2   3  323.87   20.20
  -9  -2   3  341.47   16.80
   9  -2  -3  347.17   15.10
  -9  -2   3  345.87   21.50
  -9  -2   3  317.27   20.60
  -9   2   2  221.28   16.50
  -9   2   2  242.78   15.30
   9   2  -2  219.58   15.80
  -9   2   2  221.18   18.50
   9  -2  -2  210.88   14.30
  -9  -2   2  202.38   15.80
  -9  -2   2  215.98   17.90
  -9   2   1   36.00    8.50
  -9   2   1   39.00    7.10
  -9   2   1   17.40    8.00
   9   2  -1   25.20    7.70
  -9  -2   1   32.50    7.70
  -9  -2   1   36.30    9.40
  -9  -2   1   39.30    7.10
   9  -2  -1   39.20    8.40
  -9   2   0   12.30    6.40
  -9   2   0    8.90    6.90
   9   2   0    1.80    5.40
  -9   2   0    6.00    4.20
   9  -2   0   -2.70    5.00
  -9  -2   0    5.70    4.40
  -9  -2   0    4.90    5.30
  -9  -2   0    9.10    4.50
   9   2   1  126.89   17.50
  -9   2  -1  148.99   14.80
  -9   2  -1   88.29   14.70
  -9   2  -1  123.49    9.80
   9  -2   1  104.09   17.90
  -9  -2  -1  123.19   13.30
  -9  -2  -1  108.29   11.70
  -9  -2  -1  102.09   16.40
  -9   2  -2    9.00    6.30
  -9   2  -2   -2.60    7.60
  -9  -2  -2   -2.70    5.30
   9  -2   2   -8.40    6.50
  -9  -2  -2    7.10    6.10
  -9  -2  -2   12.10    9.10
  -9   2  -3   62.59   12.50
   9   2   3   52.19   12.40
   9  -2   3   60.79   13.10
  -9  -2  -3   26.30   15.10
  -9  -2  -3   54.79   11.80
  -9  -2  -3   55.79   11.00
  -9   3   7   43.00    9.90
  -9   3   7   64.09   13.80
  -9  -3   7   50.39   10.10
   9  -3  -7   41.80    9.90
  -9  -3   7   50.89    7.90
  -9  -3   7   64.79   12.30
  -9   3   6   19.20    8.40
  -9   3   6   16.50    7.20
   9   3  -6   20.20    5.80
  -9  -3   6    1.40    5.90
   9  -3  -6   20.40    6.40
  -9  -3   6   18.50    5.30
  -9  -3   6    8.20    6.00
  -9   3   5  215.48   17.80
  -9   3   5  242.18   19.40
   9   3  -5  257.97   16.00
  -9   3   5  253.17   19.80
  -9  -3   5  233.68   19.20
  -9  -3   5  241.08   17.00
  -9  -3   5  240.98   14.60
  -9   3   4   33.80    8.70
  -9   3   4   35.60    8.90
  -9   3   4   54.39   10.40
   9   3  -4   32.10    7.30
  -9  -3   4   21.00    8.10
  -9  -3   4   38.40    8.70
  -9  -3   4   37.20    6.10
   9   3  -3  384.06   21.40
  -9   3   3  377.76   23.90
  -9   3   3  356.56   19.80
  -9  -3   3  340.37   15.10
   9  -3  -3  326.47   14.80
  -9  -3   3  379.16   22.80
   9  -3  -3  364.76   15.70
  -9  -3   3  309.17   29.50
  -9   3   2  114.89   14.40
  -9   3   2  129.89   11.60
   9   3  -2  161.08   14.30
  -9   3   2  131.59   14.00
  -9  -3   2  124.59   18.20
   9  -3  -2  134.99   11.60
  -9  -3   2  140.79    9.40
  -9  -3   2  161.88   15.60
   9   3  -1  461.75   25.70
  -9   3   1  481.85   20.20
  -9   3   1  498.05   28.30
  -9  -3   1  499.65   19.40
  -9  -3   1  423.36   29.20
  -9  -3   1  476.15   28.10
   9  -3  -1  446.16   23.50
  -9   3   0   33.10    8.20
  -9   3   0   20.00    5.10
   9   3   0   28.50    8.90
  -9  -3   0   40.50   10.40
  -9  -3   0   26.80    8.30
  -9  -3   0   21.10    5.70
   9  -3   0   24.60    8.30
   9   3   1    0.60    6.70
  -9   3  -1   19.50    7.40
  -9   3  -1   10.70    4.10
  -9   3  -1   20.70    8.60
  -9  -3  -1    3.60    7.30
  -9  -3  -1   23.20    6.50
   9  -3   1   21.10    8.30
  -9  -3  -1    6.90    6.30
  -9   3  -2   39.80    7.80
   9   3   2   14.40    9.40
  -9   3  -2    2.10   11.80
  -9  -3  -2   51.59   12.90
   9  -3   2   36.50   11.00
  -9  -3  -2   25.10    7.40
  -9  -3  -2   38.80    9.70
  -9   3  -3  183.28   19.00
   9  -3   3  155.88   19.60
  -9  -3  -3  151.68   23.10
  -9  -3  -3  144.99   16.20
  -9   4   7  346.87   24.40
  -9   4   7  360.46   26.80
   9   4  -7  386.96   22.00
   9  -4  -7  358.46   25.60
  -9  -4   7  371.06   26.00
   9   4  -6   32.10    7.40
  -9   4   6    8.40    7.50
  -9   4   6   17.20    8.00
  -9  -4   6   25.90    7.40
  -9  -4   6   16.40    5.90
   9  -4  -6   39.90    9.90
  -9  -4   6   23.00    6.10
  -9   4   5  252.47   20.50
  -9   4   5  258.37   20.30
  -9   4   5  242.78   18.80
   9   4  -5  229.18   16.90
  -9  -4   5  248.88   13.10
  -9  -4   5  239.58   16.80
  -9  -4   5  227.68   19.40
   9  -4  -5  260.27   18.80
   9   4  -4   96.29   11.80
  -9   4   4   92.39   14.10
  -9   4   4  106.69   13.10
  -9   4   4  102.99   11.80
  -9  -4   4   96.89    7.10
  -9  -4   4   95.69   12.00
  -9  -4   4   81.69   13.20
  -9   4   3  253.37   16.20
  -9   4   3  267.07   19.70
   9   4  -3  260.77   18.60
  -9   4   3  284.97   21.40
   9  -4  -3  260.67   12.80
  -9  -4   3  260.17   19.50
  -9  -4   3  240.48   10.10
   9  -4  -3  244.78   13.40
  -9  -4   3  266.27   19.80
  -9  -4   3  235.18   10.80
  -9   4   2  253.47   18.90
  -9   4   2  267.57   15.50
   9   4  -2  253.17   19.00
   9   4  -2  248.68   10.40
  -9   4   2  255.07   20.80
   9  -4  -2  271.87   16.10
  -9  -4   2  302.37   22.00
  -9  -4   2  218.08   11.50
  -9  -4   2  301.17   20.20
  -9   4   1  118.69   13.60
   9   4  -1   93.69    7.40
  -9   4   1  101.09   15.30
  -9   4   1  103.89    9.90
   9   4  -1  101.99   13.00
  -9  -4   1   90.09   14.10
  -9  -4   1  105.89   13.00
  -9  -4   1  104.49    6.50
   9  -4  -1   94.39   11.50
   9   4   0  143.89   16.00
  -9   4   0  119.59    8.30
  -9   4   0  150.38   15.80
  -9   4   0   98.69   14.80
  -9  -4   0  118.99    8.40
  -9  -4   0  118.69   17.60
   9  -4   0  100.59   12.70
  -9  -4   0  122.59   13.70
   9   4   1  216.58   20.40
  -9   4  -1  216.08   19.50
  -9   4  -1  269.57   23.60
   9  -4   1  239.08   19.90
  -9  -4  -1  239.58   19.50
  -9  -4  -1  249.18   22.70
  -9  -4  -1  257.77   14.20
   9   4   2    5.60    6.00
  -9   4  -2   11.10    7.80
  -9  -4  -2    1.20    5.70
   9  -4   2   -1.30    6.20
  -9  -4  -2    2.10    8.30
  -9  -4  -2    5.00    5.10
   9   5  -6  124.49   14.00
  -9   5   6  107.79   16.70
  -9   5   6  107.79   15.80
   9  -5  -6  112.19   16.10
  -9  -5   6  131.09   15.80
  -9  -5   6  127.79   12.50
   9   5  -5   -1.30    5.30
  -9   5   5   -1.10    5.40
  -9   5   5   -0.80    4.90
  -9  -5   5    0.40    4.00
   9  -5  -5   -5.80    4.30
  -9  -5   5   -1.90    5.10
   9   5  -4   93.99   13.40
  -9   5   4   97.99   15.10
  -9   5   4   81.49   12.40
  -9   5   4   93.19   14.50
  -9  -5   4   77.89   12.20
  -9  -5   4   78.39   12.70
  -9   5   3  230.98   19.20
  -9   5   3  245.68   20.50
  -9   5   3  227.28   15.00
  -9  -5   3  244.88   19.60
  -9  -5   3  221.38   18.60
   9  -5  -3  208.78   12.00
  -9   5   2    9.30    6.40
  -9   5   2    4.70    4.30
  -9   5   2    7.70    6.40
   9   5  -2    7.00    6.10
  -9  -5   2   12.30    7.60
  -9  -5   2    9.30    6.20
   9  -5  -2   -0.70    4.80
  -9   5   1   88.39    7.60
  -9   5   1   82.19   13.10
  -9   5   1   74.79   13.30
   9   5  -1   97.69   14.70
   9  -5  -1  110.39   12.80
  -9  -5   1  111.09   15.80
  -9  -5   1  110.89   16.00
  -9   5   0   53.49   11.60
   9   5   0  107.39   13.60
  -9   5   0   78.99   13.60
   9  -5   0   58.09   11.40
  -9  -5   0   66.89   12.20
  -9  -5   0   81.69   15.20
   9   5   1  171.68   18.50
  -9   5  -1  184.48   17.90
  -9  -5  -1  164.48   19.90
  -9  -5  -1  188.38   18.40
   9  -5   1  161.58   18.40
  -9   5  -2    5.90    7.20
   9   5   2    5.60    8.50
  -9  -5  -2   -5.50    5.30
  -9  -5  -2    4.80    8.90
   9  -5   2   -1.80    6.30
   9   6  -6  116.99   14.00
  -9   6   6   95.29   15.00
  -9   6   6   96.49   15.90
  -9  -6   6  106.19   11.40
   9  -6  -6  100.99   15.30
  -9  -6   6   85.89   15.40
   9   6  -5   -4.10    5.20
  -9   6   5   -6.20    6.50
  -9   6   5    0.70    4.90
  -9  -6   5  -10.20    4.40
  -9  -6   5   -6.90    3.60
   9  -6  -5    2.10    5.10
   9   6  -4  148.09   16.00
  -9   6   4  105.59   15.70
  -9   6   4  136.09   15.50
  -9   6   4  124.29   13.10
  -9  -6   4  132.49   14.70
  -9  -6   4  146.49   15.70
  -9   6   3  246.28   15.70
  -9   6   3  238.48   19.80
   9   6  -3  262.97   21.10
  -9   6   3  242.78   21.50
  -9  -6   3  253.37   20.10
  -9  -6   3  250.37   20.20
   9  -6  -3  235.78   14.10
   9   6  -2   69.59   12.30
  -9   6   2   99.09   15.80
  -9   6   2   74.99    8.50
  -9   6   2   95.19   14.70
   9  -6  -2   67.59   10.20
  -9  -6   2   82.79   13.10
  -9  -6   2   93.69   14.60
  -9   6   1   47.30    9.90
   9   6  -1   28.30    8.60
  -9   6   1    4.70    6.90
   9  -6  -1   20.50    7.40
  -9  -6   1   28.50    8.60
  -9  -6   1    9.80    7.40
  -9   6   0   18.40    6.60
   9   6   0   16.20    8.10
  -9  -6   0   16.00    8.70
   9  -6   0    7.70    7.40
  -9  -6   0   34.20   10.40
  -9   6  -1    2.70    5.30
   9  -6   1   -7.00    6.40
  -9  -6  -1    3.90    5.80
  -9  -6  -1  -14.90    6.90
  -9   7   4   91.69   16.90
  -9   7   4   63.19   12.50
  -9   7   4  105.29   17.20
   9   7  -4   84.79   14.40
  -9  -7   4   64.79   12.60
  -9   7   3  104.59   17.50
  -9   7   3  114.09   19.40
   9   7  -3  102.79   16.40
  -9   7   3   93.79   11.10
  -9  -7   3  118.89   14.70
  -9  -7   3  113.99   16.40
   9   7  -2   17.30    7.90
  -9   7   2   10.80    6.80
  -9   7   2    6.30    8.50
  -9  -7   2    0.70    5.40
  -9  -7   2    6.70    6.70
   9  -7  -2   -4.00    6.20
   9   7  -1   59.79   12.80
  -9  -7   1   61.69   12.30
   9  -7  -1   39.10    9.60
   9   7   0   74.49   18.30
  -9   7   0   52.79   12.00
  -9  -7   0   60.89   11.50
  -9  -7   0   48.60   12.10
   9  -7   0   51.29   10.80
 -10   0   7    1.80    6.90
 -10   0   7   -3.10    4.70
 -10   0   7   -4.80    4.40
 -10   0   6   93.19   13.60
 -10   0   6   87.39   13.10
 -10   0   6   75.39   13.20
 -10   0   5    0.50    5.50
 -10   0   5   -4.70    4.60
 -10   0   5    7.50    5.20
 -10   0   4    2.90    5.10
 -10   0   4    6.40    5.10
  10   0  -4   -0.30    3.40
 -10   0   4    3.30    5.20
  10   0  -3   -1.00    4.00
 -10   0   3    1.80    3.60
 -10   0   3   -8.60    6.10
 -10   0   2   16.30    6.20
 -10   0   2   13.10    6.00
  10   0  -2   25.40    7.50
 -10   0   2   18.40    7.10
 -10   0   1    2.10    6.00
 -10   0   1   -0.80    4.70
  10   0  -1    3.20    6.20
 -10   0   1   -0.30    3.70
 -10   0   0   79.99   14.00
  10   0   0   94.69   14.50
 -10   0   0  105.39   12.30
 -10   0   0  143.19   13.80
 -10   0  -1    0.80    5.30
 -10   0  -1   -9.20    4.00
 -10   0  -1   -4.80    7.10
 -10   0  -2   43.90   10.30
  10   0   2   22.10   10.20
 -10   0  -2   33.50   13.60
 -10   0  -2   36.50    8.80
 -10   1   7  167.08   18.30
 -10   1   7  214.78   20.80
 -10   1   7  179.08   17.90
 -10  -1   7  198.08   17.80
 -10   1   6  131.39   14.40
 -10   1   6  114.89   14.40
 -10   1   6  133.79   14.20
 -10  -1   6  117.39   14.80
 -10  -1   6  116.69   13.00
 -10   1   5   21.00    7.60
 -10   1   5   14.00    6.50
  10   1  -5   12.00    4.20
 -10   1   5   15.70    7.30
 -10  -1   5   21.40    7.40
 -10  -1   5   22.20    6.50
 -10  -1   5   17.70    6.80
 -10   1   4  249.68   18.40
 -10   1   4  203.78   18.80
 -10   1   4  240.08   19.70
 -10  -1   4  227.88   18.30
 -10  -1   4  223.88   15.30
  10  -1  -4  200.78   10.70
 -10  -1   4  203.08   17.60
  10   1  -3  252.17   16.40
 -10   1   3  236.28   19.90
 -10   1   3  256.27   17.90
 -10   1   3  262.17   17.80
 -10  -1   3  288.87   21.40
 -10  -1   3  230.98   17.30
 -10  -1   3  264.07   16.10
 -10   1   2   90.39   10.90
  10   1  -2  122.19   12.40
 -10   1   2  102.09   11.70
 -10   1   2   93.69   14.70
 -10  -1   2  104.69   10.80
  10  -1  -2  106.69   11.80
 -10  -1   2   84.89   12.60
 -10  -1   2   76.59   12.70
  10   1  -1  111.99   13.20
 -10   1   1   98.99   12.00
 -10   1   1   90.39   10.70
 -10   1   1  105.79   15.90
  10  -1  -1  106.69   12.70
 -10  -1   1   98.59   14.90
 -10  -1   1  102.89   11.10
 -10   1   0   47.30   10.80
 -10   1   0   53.59    9.50
  10   1   0   50.49   11.40
 -10   1   0   53.89   10.60
 -10  -1   0   49.00    9.80
  10  -1   0   49.60   10.10
 -10  -1   0   41.10   11.80
 -10   1  -1    0.10    6.00
 -10   1  -1   -1.50    5.20
  10   1   1   -5.30    5.90
  10  -1   1   -1.50    5.90
 -10  -1  -1    5.20    5.10
 -10  -1  -1    5.40    5.60
 -10   1  -2   65.49   10.60
  10   1   2   89.79   16.10
 -10   1  -2   87.19   14.10
 -10  -1  -2  116.19   13.10
 -10  -1  -2   80.79   12.80
  10  -1   2   83.59   15.50
 -10  -1  -2  104.29   18.80
 -10   2   7   -3.40    7.00
 -10   2   7    7.30    6.70
 -10  -2   7   11.90    5.60
 -10  -2   7   14.50    8.90
 -10  -2   7   -1.00    7.40
 -10   2   6   52.19   11.80
 -10   2   6   29.90    8.50
 -10   2   6   22.10    8.10
 -10  -2   6   39.80   11.10
 -10  -2   6   38.70    8.60
 -10  -2   6   36.60    8.20
  10   2  -5  273.97   18.30
 -10   2   5  285.77   21.40
 -10   2   5  298.77   21.30
 -10   2   5  265.27   19.70
 -10  -2   5  253.97   20.20
 -10  -2   5  287.07   16.70
 -10  -2   5  299.07   20.60
 -10   2   4   -3.90    5.20
  10   2  -4   -2.40    4.00
 -10   2   4    6.70    5.80
 -10   2   4    1.00    4.60
 -10  -2   4   -1.00    3.60
 -10  -2   4    4.80    3.90
 -10  -2   4   -0.90    5.00
  10   2  -3  280.57   18.00
 -10   2   3  224.48   16.50
 -10   2   3  272.47   21.40
 -10   2   3  250.27   18.50
 -10  -2   3  262.97   15.00
 -10  -2   3  218.78   17.90
 -10  -2   3  246.38   19.90
  10  -2  -3  246.08   14.10
 -10   2   2  170.18   15.20
  10   2  -2  209.58   17.10
 -10   2   2  185.18   18.20
 -10   2   2  166.78   13.80
  10  -2  -2  182.58   14.50
 -10  -2   2  167.08   17.70
 -10  -2   2  172.48   15.80
 -10  -2   2  193.58   13.10
 -10   2   1  145.59   14.20
 -10   2   1  132.19   11.90
 -10   2   1  118.39   17.50
  10  -2  -1  145.49   14.00
 -10  -2   1  144.89   16.90
 -10  -2   1  106.69   13.00
 -10  -2   1  149.79   12.10
 -10   2   0  116.99   10.90
  10   2   0   92.59   14.10
 -10   2   0  126.59   14.00
 -10   2   0   78.29   14.70
  10  -2   0   70.69   14.30
 -10  -2   0  108.39   11.50
 -10  -2   0   87.59   14.70
 -10  -2   0  115.49   13.50
 -10   2  -1   -1.20    5.40
  10   2   1    3.10    6.60
 -10   2  -1   -1.30    4.30
 -10   2  -1   -2.30    9.10
 -10  -2  -1   -8.90    7.40
  10  -2   1   -6.50    5.90
 -10  -2  -1   13.40    6.40
 -10  -2  -1    5.90    6.60
  10   2   2   -3.30    7.80
 -10  -2  -2  -10.70   10.70
 -10  -2  -2    3.20    7.20
  10  -2   2    9.80    8.00
 -10   3   7  209.18   22.70
 -10   3   7  187.98   24.00
 -10  -3   7  198.88   18.90
 -10  -3   7  225.38   16.30
 -10  -3   7  229.88   20.80
 -10   3   6   -6.00    5.70
 -10   3   6    0.60    6.10
 -10   3   6   -6.60    4.90
  10   3  -6   -7.40    5.50
 -10  -3   6   -8.00    3.40
 -10  -3   6   -4.30    5.70
 -10   3   5  181.28   17.70
 -10   3   5  248.08   20.80
  10   3  -5  200.18   15.30
 -10   3   5  193.98   17.50
 -10  -3   5  183.48   16.50
 -10  -3   5  217.08   13.60
 -10  -3   5  231.18   19.80
 -10   3   4   31.30    7.70
 -10   3   4    6.60    7.50
  10   3  -4   24.60    7.00
 -10   3   4   25.40    8.60
 -10  -3   4   22.70    8.70
 -10  -3   4   18.60    7.40
 -10   3   3    2.70    5.40
 -10   3   3   -0.30    5.20
 -10   3   3    5.60    5.00
  10   3  -3   10.60    6.40
 -10  -3   3    6.00    5.70
  10  -3  -3   -1.80    3.70
 -10  -3   3   10.70    4.20
 -10  -3   3    2.00    5.90
  10   3  -2   10.60    6.60
 -10   3   2    8.40    5.30
 -10   3   2    3.00    4.80
 -10   3   2    1.00    5.70
 -10  -3   2   10.20    7.10
  10  -3  -2    1.30    4.70
 -10  -3   2    6.00    4.00
 -10  -3   2   -0.40    5.30
 -10   3   1  260.97   15.30
 -10   3   1  275.07   20.40
 -10   3   1  261.27   22.40
  10   3  -1  264.87   20.40
 -10  -3   1  259.57   20.80
 -10  -3   1  246.28   22.10
 -10  -3   1  305.47   21.20
  10  -3  -1  251.57   19.00
  10   3   0  139.69   17.50
 -10   3   0  167.68   18.90
 -10   3   0  135.49   10.90
 -10   3   0  162.58   16.50
 -10  -3   0  150.98   12.80
 -10  -3   0  149.88   15.60
  10  -3   0  137.59   16.00
 -10   3  -1  341.07   24.10
  10   3   1  313.97   24.80
 -10   3  -1  315.87   27.60
  10  -3   1  287.37   23.50
 -10  -3  -1  267.47   28.20
 -10  -3  -1  325.47   18.80
 -10  -3  -1  263.07   21.30
 -10   4   6   -3.20    5.90
  10   4  -6    3.20    6.40
 -10   4   6    7.20    8.00
 -10   4   6    4.70    6.50
 -10  -4   6  -13.00    5.00
 -10  -4   6    4.80    4.60
 -10   4   5  200.88   18.40
 -10   4   5  187.48   19.10
 -10   4   5  206.78   17.80
 -10  -4   5  170.08   17.90
 -10  -4   5  197.78   17.10
  10   4  -4   -2.60    4.90
 -10   4   4    1.80    4.80
 -10   4   4   -8.90    4.20
 -10   4   4   -0.10    6.00
 -10  -4   4   -2.10    3.70
 -10  -4   4   -1.40    2.90
 -10  -4   4    0.40    4.70
 -10   4   3  162.78   16.40
 -10   4   3  202.18   19.60
 -10   4   3  166.98   13.90
  10  -4  -3  156.18   11.50
 -10  -4   3  175.08   16.90
 -10  -4   3  155.38   17.20
  10   4  -2   52.29   11.20
 -10   4   2   20.50    9.30
 -10   4   2   34.10    9.10
 -10   4   2   28.40    6.90
 -10  -4   2   42.00   10.60
 -10  -4   2   53.19   10.80
  10  -4  -2   31.90    7.90
  10   4  -1    9.40    7.20
 -10   4   1   -3.80    6.60
 -10   4   1    5.20    4.40
 -10   4   1   19.60    7.40
 -10  -4   1    6.10    7.00
  10  -4  -1   -5.80    6.00
 -10  -4   1    5.70    6.30
  10   4   0   20.70    8.00
 -10   4   0   20.80    8.60
 -10   4   0   14.30    9.50
 -10  -4   0   18.10    8.20
 -10  -4   0    2.30    7.90
  10  -4   0    2.90    6.20
  10   4   1  132.79   19.50
 -10   4  -1  171.88   18.20
 -10  -4  -1  126.79   19.50
  10  -4   1  113.79   16.90
 -10  -4  -1  139.49   16.20
 -10   5   5   25.00    8.10
 -10   5   5   33.00   10.50
  10   5  -5   28.10    8.50
 -10  -5   5   13.50   10.70
 -10   5   4  283.27   22.40
 -10   5   4  276.17   18.70
 -10   5   4  247.98   22.20
 -10  -5   4  279.27   22.20
 -10  -5   4  255.87   20.70
  10   5  -3   11.00    6.80
 -10   5   3   -6.30    5.20
 -10   5   3   -5.80    3.90
 -10   5   3   16.50    8.30
 -10  -5   3    6.30    5.30
 -10  -5   3    1.20    5.50
  10   5  -2    0.60    5.10
 -10   5   2    0.00    4.00
 -10   5   2    3.90    7.80
 -10   5   2    6.00    5.90
 -10  -5   2    2.30    6.40
  10  -5  -2  -15.00    5.60
 -10  -5   2    5.40    6.20
 -10   5   1    8.90    6.20
 -10   5   1    1.60    8.20
  10   5  -1    2.40    6.50
 -10  -5   1   10.10    7.30
  10  -5  -1    6.00    6.80
 -10  -5   1    5.30    7.70
 -10   5   0   60.49   13.60
  10   5   0   26.90    9.80
  10  -5   0   40.50   10.70
 -10  -5   0   32.00   10.00
 -10  -5   0   25.50   10.50
 -10   6   4   -4.90    7.40
 -10   6   4   17.00    7.60
  10   6  -4   15.30    6.70
 -10   6   4    7.10    6.10
 -10  -6   4    3.10    6.30
 -10  -6   4   -2.30    5.70
 -10   6   3    0.70    8.90
 -10   6   3   -6.90    5.80
 -10   6   3   -5.60    5.20
  10   6  -3   -0.70    5.30
 -10  -6   3   -4.60    6.40
 -10   6   2  148.79   20.40
 -10   6   2  136.59   16.30
  10   6  -2  149.69   17.70
 -10  -6   2  167.78   17.90
 -10  -6   2  100.99   15.10
  10  -6  -2  145.09   16.50
 -10   6   1   -1.30    5.50
  10   6  -1  -10.80    6.00
 -10  -6   1  -11.50    7.00
 -10  -6   1    1.40    7.60
  10  -6  -1  -13.90    6.10
 -11   0   6   93.49   18.00
 -11   0   6  119.69   12.90
 -11   0   5   -1.50    5.80
 -11   0   5  -10.30    4.20
 -11   0   5   -2.70    5.10
 -11   0   4   64.89   12.90
 -11   0   4   94.89   14.10
 -11   0   4  124.79   12.70
 -11   0   3   -6.30    4.80
 -11   0   3    1.90    6.50
  11   0  -3   -7.70    4.20
 -11   0   2   59.39   10.40
  11   0  -2   38.40    9.10
 -11   0   2   45.60   11.30
  11   0  -1  -12.80    4.60
 -11   0   1    5.50    5.40
 -11   0   1   -2.00    8.30
 -11   0   1    1.00    5.50
  11   0   0   -3.50    7.00
 -11   0   0    2.50    6.00
 -11   0   0   -3.30    4.90
 -11   0   0  -11.40    7.40
 -11   1   6   54.39   11.10
 -11   1   6   54.89   11.10
 -11  -1   6   44.30   10.20
 -11  -1   6   39.20   11.20
 -11  -1   6   41.80    9.20
 -11   1   5  249.68   20.10
 -11   1   5  285.37   22.10
 -11   1   5  278.97   19.90
 -11  -1   5  249.08   20.20
 -11  -1   5  291.17   22.00
 -11   1   4   50.79   10.70
 -11   1   4   66.29   12.00
  11   1  -4   62.69    9.30
 -11   1   4   73.49   12.30
 -11  -1   4   56.19    8.80
 -11  -1   4   70.49   12.60
 -11  -1   4   82.39   13.50
 -11   1   3   -2.90    6.50
  11   1  -3   -0.30    5.20
 -11   1   3    8.60    6.40
 -11   1   3    5.40    4.70
 -11  -1   3    9.80    5.80
 -11  -1   3    6.90    4.70
 -11  -1   3   -0.60    5.30
  11  -1  -3    1.30    4.50
  11   1  -2  174.98   16.10
 -11   1   2  161.68   15.30
 -11   1   2  183.58   16.00
 -11   1   2  176.18   19.80
  11  -1  -2  170.78   15.30
 -11  -1   2  175.78   16.10
 -11  -1   2  205.88   15.20
 -11  -1   2  170.48   19.70
 -11   1   1   25.30   10.70
 -11   1   1   17.90    6.20
  11   1  -1    4.20    5.60
  11  -1  -1    9.10    6.50
 -11  -1   1   15.10    5.90
 -11  -1   1    2.50    6.10
 -11  -1   1    4.10    5.10
 -11   1   0   72.19   11.30
 -11   1   0   65.09   14.40
 -11   1   0   84.99   13.90
  11   1   0   83.69   14.90
 -11  -1   0   66.49   12.40
 -11  -1   0   72.59   14.60
 -11  -1   0   68.89   13.50
  11  -1   0   59.69   12.90
 -11   2   6  150.48   16.90
 -11   2   6  144.79   15.50
 -11  -2   6  200.28   19.90
 -11  -2   6  178.58   17.30
 -11  -2   6  206.68   15.40
 -11   2   5   55.69   11.10
 -11   2   5   69.79   13.30
 -11   2   5   67.19   12.40
  11   2  -5   66.59   14.20
 -11  -2   5   66.79   11.50
 -11  -2   5   60.69   12.30
 -11  -2   5   80.69    9.70
 -11   2   4   48.30   10.00
  11   2  -4   53.69    9.10
 -11   2   4   69.89   11.50
 -11   2   4   54.29   11.80
 -11  -2   4   72.09    8.90
 -11  -2   4   77.49   12.40
 -11  -2   4   74.49   13.60
  11   2  -3   40.60    8.50
 -11   2   3   60.49   11.10
 -11   2   3   51.89   10.20
 -11   2   3   45.30   11.30
  11  -2  -3   52.29    9.10
 -11  -2   3   48.60    9.30
 -11  -2   3   57.89   12.50
 -11  -2   3   75.79    9.00
 -11   2   2  112.19   13.20
 -11   2   2   78.99   13.70
 -11   2   2   89.29   18.00
  11   2  -2   81.39   12.50
  11  -2  -2   76.89   11.50
 -11  -2   2  103.49   12.90
 -11  -2   2   67.39   13.30
 -11   2   1  136.89   20.00
 -11   2   1  182.38   14.30
 -11   2   1  175.28   16.40
  11   2  -1  150.18   16.80
 -11  -2   1  170.88   16.10
  11  -2  -1  126.19   15.70
 -11  -2   1  122.39   18.40
 -11  -2   1  165.88   13.20
  11   2   0   75.69   14.40
 -11   2   0   56.69   10.40
 -11   2   0  115.19   14.20
 -11   2   0   75.09   15.90
 -11  -2   0   95.39   17.40
 -11  -2   0   80.09   13.20
 -11  -2   0  103.59   11.30
  11  -2   0   65.09   13.70
 -11   3   5   33.60   10.00
 -11   3   5   28.90    7.80
  11   3  -5   29.30    8.90
 -11   3   5   27.30    9.00
 -11  -3   5   18.40   11.50
 -11  -3   5   32.90    7.80
 -11  -3   5   15.10   10.60
 -11   3   4   -7.80    6.00
 -11   3   4    7.90    5.90
  11   3  -4    5.30    6.10
 -11   3   4   -9.20    5.30
 -11  -3   4   -2.10    5.30
 -11  -3   4    6.60    4.50
 -11  -3   4   -4.10    4.60
  11   3  -3   69.29   12.20
 -11   3   3   69.49   12.30
 -11   3   3   53.19   12.70
 -11   3   3   59.19   10.70
 -11  -3   3   82.49   13.20
 -11  -3   3   55.69   11.70
 -11  -3   3   69.29    8.50
 -11   3   2    0.60    5.30
  11   3  -2    1.00    5.50
 -11   3   2    8.30    5.10
 -11  -3   2   -7.80    5.40
  11  -3  -2   -6.60    6.30
 -11  -3   2  -12.60    4.60
  11   3  -1   94.49   15.40
 -11   3   1   75.19   10.60
 -11   3   1  110.49   13.60
 -11   3   1   83.29   16.60
 -11  -3   1   71.69   14.60
 -11  -3   1   77.39   12.90
  11  -3  -1   61.39   11.10
 -11   4   4   40.90   16.90
  11   4  -4   46.10    9.70
 -11   4   4   26.60    9.50
 -11   4   4   36.10    8.80
 -11  -4   4   52.79   13.20
 -11   4   3  264.47   21.10
  11   4  -3  272.17   20.20
 -11   4   3  244.38   23.00
 -11  -4   3  269.47   22.90
 -11   4   2  106.29   13.70
  11   4  -2   82.99   13.80
 -11   4   2   82.49   11.40
 -11  -4   2   77.89   14.90
 -11  -4   2  115.29   27.90
  11  -4  -2  101.59   13.60
 -11   4   1  -14.00   11.30
  11   4  -1   18.50    8.50
 -11  -4   1  -12.60    6.30
  11  -4  -1   -5.70    6.80
   0   0   0    0.00    0.00

_computing_structure_solution     'SHELXT 2018/2 (Sheldrick, 2018)'
;
_shelx_hkl_checksum              91814
loop_
_space_group_symop_operation_xyz
'x, y, z'
'-x, y+1/2, -z+1/2'
'-x, -y, -z'
'x, -y-1/2, z-1/2'
loop_
_atom_site_label
_atom_site_type_symbol
_atom_site_fract_x
_atom_site_fract_y
_atom_site_fract_z
_atom_site_U_iso_or_equiv
_atom_site_adp_type
_atom_site_occupancy
_atom_site_site_symmetry_order
_atom_site_calc_flag
_atom_site_refinement_flags_posn
_atom_site_refinement_flags_adp
_atom_site_refinement_flags_occupancy
_atom_site_disorder_assembly
_atom_site_disorder_group
Cl1 Cl 0.14858(4) 0.33191(4) 0.93683(5) 0.02309(10) Uani 1 1 d . . . . .
N2 N 0.26922(13) 0.53424(14) 0.71052(16) 0.0161(2) Uani 1 1 d . . . . .
N4 N 0.28055(14) 0.57776(15) 0.40842(17) 0.0197(2) Uani 1 1 d . . . . .
N3 N 0.18054(14) 0.58798(14) 0.52389(17) 0.0189(2) Uani 1 1 d . . . . .
N1 N 0.42443(14) 0.48718(14) 0.72558(17) 0.0183(2) Uani 1 1 d . . . . .
C1 C 0.42701(15) 0.51578(16) 0.53388(19) 0.0164(2) Uani 1 1 d . . . . .
C2 C 0.20209(17) 0.53198(16) 0.8830(2) 0.0180(2) Uani 1 1 d . . . . .
H2A H 0.287(2) 0.572(2) 1.000(3) 0.026(4) Uiso 1 1 d . . . . .
H2B H 0.105(2) 0.594(2) 0.846(3) 0.026(5) Uiso 1 1 d . . . . .
loop_
_atom_site_aniso_label
_atom_site_aniso_U_11
_atom_site_aniso_U_22
_atom_site_aniso_U_33
_atom_site_aniso_U_23
_atom_site_aniso_U_13
_atom_site_aniso_U_12
Cl1 0.03018(18) 0.02167(17) 0.02123(16) 0.00292(12) 0.01355(13) -0.00114(12)
N2 0.0157(5) 0.0192(5) 0.0147(5) 0.0015(4) 0.0067(4) 0.0012(4)
N4 0.0190(5) 0.0245(6) 0.0176(5) 0.0035(4) 0.0087(4) 0.0029(4)
N3 0.0186(5) 0.0233(5) 0.0163(5) 0.0036(4) 0.0076(4) 0.0034(4)
N1 0.0161(5) 0.0252(5) 0.0156(5) 0.0015(4) 0.0077(4) 0.0009(4)
C1 0.0169(6) 0.0187(6) 0.0151(5) 0.0013(4) 0.0071(4) -0.0009(4)
C2 0.0207(6) 0.0196(6) 0.0169(6) 0.0008(4) 0.0104(5) 0.0012(5)
loop_
_atom_type_symbol
_atom_type_description
_atom_type_scat_dispersion_real
_atom_type_scat_dispersion_imag
_atom_type_scat_source
C C 0.0033 0.0016 'International Tables Vol C Tables 4.2.6.8 and 6.1.1.4'
H H 0.0000 0.0000 'International Tables Vol C Tables 4.2.6.8 and 6.1.1.4'
Cl Cl 0.1484 0.1585 'International Tables Vol C Tables 4.2.6.8 and 6.1.1.4'
N N 0.0061 0.0033 'International Tables Vol C Tables 4.2.6.8 and 6.1.1.4'
loop_
_geom_angle_atom_site_label_1
_geom_angle_atom_site_label_2
_geom_angle_atom_site_label_3
_geom_angle
_geom_angle_site_symmetry_1
_geom_angle_site_symmetry_3
_geom_angle_publ_flag
N3 N2 N1 114.35(10) . . ?
N3 N2 C2 122.20(11) . . ?
N1 N2 C2 123.43(11) . . ?
N3 N4 C1 105.59(10) . . ?
N4 N3 N2 106.07(10) . . ?
N2 N1 C1 100.80(10) . . ?
N1 C1 N4 113.19(11) . . ?
N1 C1 C1 123.30(14) . 3_666 ?
N4 C1 C1 123.51(14) . 3_666 ?
N2 C2 Cl1 111.40(9) . . ?
N2 C2 H2A 107.1(11) . . ?
Cl1 C2 H2A 108.7(11) . . ?
N2 C2 H2B 107.7(12) . . ?
Cl1 C2 H2B 108.1(12) . . ?
H2A C2 H2B 113.8(16) . . ?
loop_
_geom_bond_atom_site_label_1
_geom_bond_atom_site_label_2
_geom_bond_distance
_geom_bond_site_symmetry_2
_geom_bond_publ_flag
Cl1 C2 1.7737(14) . ?
N2 N3 1.3279(15) . ?
N2 N1 1.3285(15) . ?
N2 C2 1.4482(15) . ?
N4 N3 1.3157(15) . ?
N4 C1 1.3549(17) . ?
N1 C1 1.3288(15) . ?
C1 C1 1.457(2) 3_666 ?
C2 H2A 0.95(2) . ?
C2 H2B 0.92(2) . ?
loop_
_geom_contact_atom_site_label_1
_geom_contact_atom_site_label_2
_geom_contact_distance
_geom_contact_site_symmetry_1
_geom_contact_site_symmetry_2
_geom_contact_publ_flag
? ? ? ? ? ?
loop_
_geom_hbond_atom_site_label_D
_geom_hbond_atom_site_label_H
_geom_hbond_atom_site_label_A
_geom_hbond_distance_DH
_geom_hbond_distance_HA
_geom_hbond_distance_DA
_geom_hbond_angle_DHA
_geom_hbond_site_symmetry_A
? ? ? ? ? ? ? ?
loop_
_geom_torsion_atom_site_label_1
_geom_torsion_atom_site_label_2
_geom_torsion_atom_site_label_3
_geom_torsion_atom_site_label_4
_geom_torsion
_geom_torsion_site_symmetry_1
_geom_torsion_site_symmetry_2
_geom_torsion_site_symmetry_3
_geom_torsion_site_symmetry_4
_geom_torsion_publ_flag
C1 N4 N3 N2 0.49(14) . . . . ?
N1 N2 N3 N4 -0.42(15) . . . . ?
C2 N2 N3 N4 178.01(11) . . . . ?
N3 N2 N1 C1 0.14(14) . . . . ?
C2 N2 N1 C1 -178.26(12) . . . . ?
N2 N1 C1 N4 0.20(14) . . . . ?
N2 N1 C1 C1 179.94(16) . . . 3_666 ?
N3 N4 C1 N1 -0.45(15) . . . . ?
N3 N4 C1 C1 179.80(16) . . . 3_666 ?
N3 N2 C2 Cl1 105.39(12) . . . . ?
N1 N2 C2 Cl1 -76.33(14) . . . . ?
