#------------------------------------------------------------------------------
#$Date: 2021-09-09 01:55:46 +0300 (Thu, 09 Sep 2021) $
#$Revision: 269053 $
#$URL: file:///home/coder/svn-repositories/cod/cif/7/70/82/7708243.cif $
#------------------------------------------------------------------------------
#
# This file is available in the Crystallography Open Database (COD),
# http://www.crystallography.net/
#
# All data on this site have been placed in the public domain by the
# contributors.
#
data_7708243
loop_
_publ_author_name
'Johnson, Andrew Lee'
'Paish, James David'
'Snook, Michael'
_publ_section_title
;
 Evaluation of Sn(II) Aminoalkoxide Precursors for Atomic Layer Deposition
 of SnO Thin Films. Invitation: Dalton Transactions web collection themed
 around the topic of tin chemistry
;
_journal_name_full               'Dalton Transactions'
_journal_paper_doi               10.1039/D1DT02480A
_journal_year                    2021
_chemical_formula_moiety         'C14 H36 N4 O2 Sn2'
_chemical_formula_sum            'C14 H36 N4 O2 Sn2'
_chemical_formula_weight         529.85
_chemical_properties_physical
Air-sensitive,Moisture-sensitive,Oxygen-sensitive
_space_group_crystal_system      triclinic
_space_group_IT_number           2
_space_group_name_Hall           '-P 1'
_space_group_name_H-M_alt        'P -1'
_atom_sites_solution_hydrogens   geom
_audit_creation_method           SHELXL-2018/3
_audit_update_record
;
2021-01-12 deposited with the CCDC.	2021-09-08 downloaded from the CCDC.
;
_cell_angle_alpha                73.154(5)
_cell_angle_beta                 74.104(5)
_cell_angle_gamma                68.138(5)
_cell_formula_units_Z            1
_cell_length_a                   7.5712(4)
_cell_length_b                   8.6744(5)
_cell_length_c                   9.2638(4)
_cell_measurement_reflns_used    2621
_cell_measurement_temperature    150(2)
_cell_measurement_theta_max      72.7120
_cell_measurement_theta_min      6.3890
_cell_volume                     530.90(5)
_computing_cell_refinement       'CrysAlisPro 1.171.38.43 (Rigaku OD, 2015)'
_computing_data_collection       'CrysAlisPro 1.171.38.43 (Rigaku OD, 2015)'
_computing_data_reduction        'CrysAlisPro 1.171.38.43 (Rigaku OD, 2015)'
_computing_molecular_graphics
'ORTEP3 for Windows - Farrugia, L. J. J. Appl. Crystallogr. 1997, 30, 565'
_computing_publication_material
;
 'WinGX publication routines, Farrugia, 
 L. J., J. Appl. Crystallogr., 1999, 32, 837-838
;
_computing_structure_refinement
;
 SHELXL-2018/3 (Sheldrick, 2018)
 Sheldrick GM (2008) Acta Crystallogr A64:112--122 and 
 C. B. H\"ubschle, G. M. Sheldrick and B. Dittrich
 ShelXle: a Qt graphical user interface for SHELXL
 J. Appl. Cryst., 44, (2011) 1281-1284.
;
_computing_structure_solution
; 
 SHELXT
 Sheldrick, G. M. (2008). Acta Cryst. A64, 112-122.
;
_diffrn_ambient_environment      N~2~
_diffrn_ambient_temperature      150.00(10)
_diffrn_detector                 'CCD plate'
_diffrn_detector_area_resol_mean 8.1150
_diffrn_detector_type            EosS2
_diffrn_measured_fraction_theta_full 0.999
_diffrn_measured_fraction_theta_max 0.987
_diffrn_measurement_device       'four-circle diffractometer'
_diffrn_measurement_device_type  'SuperNova, Dual, Cu at home/near, EosS2'
_diffrn_measurement_method       '\w scans'
_diffrn_radiation_monochromator  mirror
_diffrn_radiation_probe          x-ray
_diffrn_radiation_type           'Cu K\a'
_diffrn_radiation_wavelength     1.54184
_diffrn_reflns_av_R_equivalents  0.0224
_diffrn_reflns_av_unetI/netI     0.0305
_diffrn_reflns_Laue_measured_fraction_full 0.999
_diffrn_reflns_Laue_measured_fraction_max 0.987
_diffrn_reflns_limit_h_max       9
_diffrn_reflns_limit_h_min       -8
_diffrn_reflns_limit_k_max       10
_diffrn_reflns_limit_k_min       -8
_diffrn_reflns_limit_l_max       11
_diffrn_reflns_limit_l_min       -11
_diffrn_reflns_number            3776
_diffrn_reflns_point_group_measured_fraction_full 0.999
_diffrn_reflns_point_group_measured_fraction_max 0.987
_diffrn_reflns_theta_full        67.684
_diffrn_reflns_theta_max         72.931
_diffrn_reflns_theta_min         5.078
_diffrn_source                   'micro-focus sealed X-ray tube'
_diffrn_source_type              'SuperNova (Cu) X-ray Source'
_exptl_absorpt_coefficient_mu    18.795
_exptl_absorpt_correction_T_max  0.534
_exptl_absorpt_correction_T_min  0.192
_exptl_absorpt_correction_type   gaussian
_exptl_absorpt_process_details
;
CrysAlisPro 1.171.39.46 (Rigaku Oxford Diffraction, 2018)
Numerical absorption correction based on gaussian integration over
			a multifaceted crystal model
Empirical absorption correction using spherical harmonics,
 implemented in SCALE3 ABSPACK scaling algorithm.
;
_exptl_crystal_colour            colourless
_exptl_crystal_density_diffrn    1.657
_exptl_crystal_description       block
_exptl_crystal_F_000             264
_exptl_crystal_recrystallization_method
'Re-crystallisation from solvent: Hexane'
_exptl_crystal_size_max          0.320
_exptl_crystal_size_mid          0.171
_exptl_crystal_size_min          0.141
_refine_diff_density_max         1.180
_refine_diff_density_min         -0.999
_refine_diff_density_rms         0.137
_refine_ls_extinction_method     none
_refine_ls_goodness_of_fit_ref   1.103
_refine_ls_hydrogen_treatment    constr
_refine_ls_matrix_type           full
_refine_ls_number_parameters     105
_refine_ls_number_reflns         2104
_refine_ls_number_restraints     0
_refine_ls_restrained_S_all      1.103
_refine_ls_R_factor_all          0.0304
_refine_ls_R_factor_gt           0.0297
_refine_ls_shift/su_max          0.001
_refine_ls_shift/su_mean         0.000
_refine_ls_structure_factor_coef Fsqd
_refine_ls_weighting_details
'w=1/[\s^2^(Fo^2^)+(0.0570P)^2^+0.1249P] where P=(Fo^2^+2Fc^2^)/3'
_refine_ls_weighting_scheme      calc
_refine_ls_wR_factor_gt          0.0792
_refine_ls_wR_factor_ref         0.0799
_reflns_Friedel_coverage         0.000
_reflns_number_gt                2057
_reflns_number_total             2104
_reflns_threshold_expression     'I > 2\s(I)'
_cod_data_source_file            d1dt02480a2.cif
_cod_data_source_block           1b
_cod_database_code               7708243
_shelx_shelxl_version_number     2018/3
_shelx_space_group_comment
;
The symmetry employed for this shelxl refinement is uniquely defined
by the following loop, which should always be used as a source of
symmetry information in preference to the above space-group names.
They are only intended as comments.
;
_shelx_estimated_absorpt_t_min   0.065
_shelx_estimated_absorpt_t_max   0.177
_oxdiff_exptl_absorpt_empirical_full_min 0.630
_oxdiff_exptl_absorpt_empirical_full_max 2.251
_oxdiff_exptl_absorpt_empirical_details
;
Empirical correction (ABSPACK) includes:
- Absorption correction using spherical harmonics
- Frame scaling
;
_shelx_res_file
;
TITL s17alj25 in P-1
    s17alj25.res
    created by SHELXL-2018/3 at 16:03:12 on 06-Jun-2018
CELL 1.54184 7.5712 8.6744 9.2638 73.154 74.104 68.138
ZERR 1.0000 0.0004 0.0005 0.0004 0.005 0.005 0.005
LATT 1
SFAC C H N O SN
UNIT 14 36 4 2 2
ACTA
LIST 4
FMAP 2
PLAN 10
BIND SN1 N1
TEMP -123
SIZE 0.141 0.171 0.320
BOND   $H
CONF
L.S. 10
WGHT    0.057000    0.124900
FVAR       8.00124
SN1   5    0.345432    0.386456    0.516991    11.00000    0.02146    0.01557 =
         0.01257   -0.00105   -0.00431   -0.00428
O1    4    0.548014    0.168432    0.602366    11.00000    0.02504    0.01579 =
         0.01943    0.00106   -0.00204   -0.00237
N1    3    0.158576    0.211925    0.766112    11.00000    0.02548    0.02271 =
         0.01962   -0.00195   -0.00360   -0.00688
N2    3    0.392886    0.535664    0.652362    11.00000    0.02358    0.01559 =
         0.01189   -0.00267   -0.00011   -0.00070
C1    1    0.494234    0.026064    0.694698    11.00000    0.03009    0.01337 =
         0.01686    0.00109   -0.00710   -0.00426
AFIX  13
H1    2    0.456194   -0.025855    0.629509    11.00000   -1.20000
AFIX   0
C2    1    0.669804   -0.103157    0.760432    11.00000    0.03168    0.02616 =
         0.02449    0.00043   -0.00906   -0.00239
AFIX 137
H2A   2    0.636474   -0.204314    0.823168    11.00000   -1.50000
H2B   2    0.708069   -0.052819    0.824157    11.00000   -1.50000
H2C   2    0.777533   -0.135259    0.676153    11.00000   -1.50000
AFIX   0
C3    1    0.323873    0.076957    0.824514    11.00000    0.03025    0.02347 =
         0.01660    0.00063   -0.00661   -0.00803
AFIX  23
H3A   2    0.283625   -0.023616    0.882736    11.00000   -1.20000
H3B   2    0.365718    0.116336    0.895863    11.00000   -1.20000
AFIX   0
C4    1    0.020796    0.297186    0.886794    11.00000    0.03131    0.03745 =
         0.03366   -0.01162    0.00449   -0.01043
AFIX 137
H4A   2   -0.082458    0.391786    0.841849    11.00000   -1.50000
H4B   2    0.088329    0.340701    0.934263    11.00000   -1.50000
H4C   2   -0.035549    0.216043    0.964912    11.00000   -1.50000
AFIX   0
C5    1    0.056231    0.148745    0.695371    11.00000    0.03108    0.03365 =
         0.03151   -0.00343   -0.00945   -0.01160
AFIX 137
H5A   2   -0.052492    0.242904    0.657308    11.00000   -1.50000
H5B   2    0.007209    0.061949    0.771701    11.00000   -1.50000
H5C   2    0.145298    0.098986    0.609636    11.00000   -1.50000
AFIX   0
C6    1    0.465548    0.443848    0.795840    11.00000    0.03937    0.03042 =
         0.01209    0.00013   -0.00721   -0.01421
AFIX 137
H6A   2    0.512112    0.516431    0.829788    11.00000   -1.50000
H6B   2    0.572205    0.340097    0.778217    11.00000   -1.50000
H6C   2    0.360731    0.413854    0.875092    11.00000   -1.50000
AFIX   0
C7    1    0.219079    0.680419    0.683049    11.00000    0.02979    0.02121 =
         0.02658   -0.00918    0.00770   -0.00337
AFIX 137
H7A   2    0.251280    0.755970    0.725160    11.00000   -1.50000
H7B   2    0.118169    0.638788    0.757230    11.00000   -1.50000
H7C   2    0.171905    0.743009    0.587215    11.00000   -1.50000
AFIX   0
HKLF 4




REM  s17alj25 in P-1
REM wR2 = 0.0799, GooF = S = 1.103, Restrained GooF = 1.103 for all data
REM R1 = 0.0297 for 2057 Fo > 4sig(Fo) and 0.0304 for all 2104 data
REM 105 parameters refined using 0 restraints

END

WGHT      0.0570      0.1249

REM Highest difference peak  1.180,  deepest hole -0.999,  1-sigma level  0.137
Q1    1   0.3848  0.4601  0.4936  11.00000  0.05    1.18
Q2    1   0.3084  0.3083  0.5407  11.00000  0.05    1.17
Q3    1   0.3283  0.3374  0.6189  11.00000  0.05    1.13
Q4    1   0.3660  0.4344  0.4157  11.00000  0.05    1.09
Q5    1   0.4171  0.6175  0.5935  11.00000  0.05    0.64
Q6    1   0.4194  0.5615  0.5554  11.00000  0.05    0.63
Q7    1   0.5573  0.2246  0.6662  11.00000  0.05    0.58
Q8    1   0.0853  0.4019  0.5785  11.00000  0.05    0.53
Q9    1   0.5232  0.1247  0.6243  11.00000  0.05    0.42
Q10   1   0.5431  0.4783  0.6227  11.00000  0.05    0.38
;
_shelx_res_checksum              98299
_shelx_hkl_file
;
   0   0   1 675573. 13782.9  32
   0   0   2 53746.0 1801.46  32
   0   0  -2 54537.9 1635.98  16
   0   0   3 281695. 6865.58  32
   0   0  -3 289501. 6645.38  16
   0   0  -4 213807. 5575.83  16
   0   0  -5 164888. 4948.40  16
   0   0  -6 138634. 4991.36   1
   0   0   7 113507. 3776.91  30
   0   0  -7 117259. 3577.17   8
   0   0  -8 51617.4 2146.54   8
   0   0   8 51070.3 2345.46  30
   0   0  -8 54251.5 2177.58  12
   0   0  -9 23671.8 1248.89  12
   0   0   9 23065.2 1424.87  10
   0   0  -9 22368.1 1247.75   8
   0   0 -10 32031.5 1226.96  12
   0   0  10 34037.9 1502.10  10
   0   1 -10 5611.32 425.539  12
   0   1  -9 3024.58 420.361  12
   0   1  -9 3812.80 480.987   8
   0  -1   9 4612.80 618.155  10
   0   1  -8 1141.00 313.209   8
   0  -1   8 710.316 319.560  10
   0   1  -8 809.036 301.794  12
   0   1  -7 24506.8 1394.95   8
   0   1  -6 26794.4 1923.74   1
   0   1  -5 21376.7 1565.18   1
   0   1  -4 13662.6 1105.80   1
   0   1  -3 59338.5 2265.36   1
   0  -1   3 62840.7 2070.64  32
   0  -1   2 311598. 6830.73  32
   0  -1   1 67719.0 1681.23  32
   0   1  -1 70473.1 1570.71  33
   0   1   0 211549. 4426.42  25
   0  -1  -1 682896. 14124.4  31
   0  -1  -2 461717. 10116.9  31
   0  -1  -3 512655. 11166.7  16
   0  -1  -4 343529. 8210.97  16
   0  -1  -5 285478. 7435.00  16
   0  -1  -6 219584. 6483.08  16
   0  -1  -7 161129. 5674.36  16
   0  -1  -7 177932. 4786.33   8
   0   1   8 127345. 4123.34  30
   0  -1  -8 132581. 3936.76   8
   0  -1  -9 64195.0 2318.71   8
   0   1   9 65897.0 2542.92  30
   0   1   9 61599.6 2508.37  10
   0   1  10 67082.6 2333.41  10
   0  -1 -10 61552.7 2025.37   8
   0   1  10 67043.5 2228.51  30
   0   2  -9 62964.0 2080.39  12
   0   2  -8 93572.1 3046.23  12
   0   2  -7 25788.2 1428.07   8
   0   2  -7 25428.8 1435.80  12
   0   2  -6 13689.8 982.016   8
   0   2  -5 61975.8 2860.85   1
   0   2  -4 40091.1 2054.09   1
   0   2  -3 5884.78 666.034   1
   0  -2   2 12945.5 588.724  32
   0   2  -2 12275.3 837.665   1
   0   2  -2 13000.7 565.577  33
   0  -2   1 29988.2 842.849  32
   0   2   0 11335.4 544.856  25
   0  -2  -1 945.868 248.488  31
   0  -2  -2 8587.15 781.954  31
   0  -2  -3 72249.5 2708.93  31
   0  -2  -4 128183. 3940.45  16
   0  -2  -5 136412. 4413.05  16
   0  -2  -6 162669. 5309.12  16
   0  -2  -7 100174. 3224.77   8
   0  -2  -8 99478.8 3226.51   8
   0  -2  -9 111311. 3356.89   8
   0   2   9 110060. 3562.63  30
   0   2  10 65609.6 2240.61  30
   0   2  10 67423.2 2331.11  10
   0  -2 -10 62087.7 2029.97   8
   0   2  11 48500.9 1546.63  10
   0   3  -9 43999.1 1425.94  17
   0   3  -9 45156.2 1497.16  12
   0   3  -9 44305.1 1380.16  18
   0   3  -8 59142.0 2073.86  17
   0   3  -8 62745.5 2176.81  12
   0   3  -7 143821. 4156.32  12
   0   3  -6 184862. 5046.30  12
   0   3  -5 206455. 6429.32   1
   0   3  -4 212308. 6252.34   1
   0   3  -3 184746. 5351.79   1
   0   3  -2 161434. 4567.97   1
   0   3  -1 78228.4 2546.51   1
   0   3   0 47678.6 1549.22  25
   0   3   0 49243.8 1667.78   2
   0   3   0 45528.3 1744.62   1
   0   3   1 35531.9 1374.86  25
   0   3   1 33441.5 1278.49   2
   0  -3  -1 35099.6 1747.76  31
   0  -3  -2 90852.6 3350.14  31
   0  -3  -3 36410.8 2009.81  31
   0  -3  -4 1455.85 448.731  31
   0  -3  -5 36954.8 2070.13  16
   0  -3  -6 409.906 287.333  16
   0  -3  -7 38011.4 1765.49   8
   0   3   7 37919.0 1739.32  28
   0  -3  -8 8250.45 773.205   8
   0   3   8 7791.71 761.194  28
   0  -3  -9 4938.38 558.846   8
   0   3   9 3604.16 531.134  30
   0   3  10 25500.2 1270.04  10
   0  -3 -10 22214.2 1033.07   8
   0   3  10 24944.4 1217.86  30
   0   3  11 30487.8 1108.90  10
   0   4  -8 60087.6 1931.29  12
   0   4  -8 62903.5 1903.82  18
   0   4  -7 56245.6 2033.74  12
   0   4  -7 53436.9 1929.66  17
   0   4  -6 78781.6 2663.03  12
   0   4  -6 77986.5 2602.91  17
   0   4  -5 187365. 4946.40  12
   0   4  -4 231389. 7001.94   1
   0   4  -3 206742. 6165.16   1
   0   4  -2 334367. 8481.33   1
   0   4  -1 388105. 9269.71   1
   0   4   0 287024. 6643.73  25
   0   4   0 289123. 6867.01   2
   0   4   1 213046. 5278.59  25
   0  -4  -1 212289. 6425.01  31
   0   4   1 215113. 5294.83   2
   0  -4  -2 181013. 6048.45  31
   0   4   2 195571. 5149.76  25
   0  -4  -3 287002. 8368.75  31
   0  -4  -4 135219. 5048.06  31
   0  -4  -5 42733.5 2441.48  16
   0  -4  -6 68630.6 3356.91  16
   0   4   7 40057.1 1790.77  28
   0  -4  -7 42186.0 1896.31   8
   0   4   8 19474.9 1185.53  28
   0  -4  -8 19975.4 1215.35   8
   0   4   9 22068.9 1152.70  28
   0  -4  -9 23083.5 1186.82   8
   0   4  10 11184.0 758.772  30
   0   4  10 10448.4 744.048  10
   0   5  -8 7781.72 426.743  18
   0   5  -8 8127.94 453.613  27
   0   5  -7 19230.0 949.674  26
   0   5  -7 20505.2 972.797  18
   0   5  -6 16255.1 982.450  18
   0   5  -6 17271.5 957.982  12
   0   5  -5 41417.6 1757.62  18
   0   5  -5 37893.2 1601.37  12
   0   5  -4 88536.6 2896.07  18
   0   5  -4 86841.0 2657.18  19
   0   5  -3 51725.8 1985.61  18
   0   5  -3 47553.7 1800.93  19
   0   5  -2 77303.5 3258.16   2
   0   5  -2 83406.4 3409.81   1
   0   5  -1 202261. 5688.63   2
   0   5   0 180449. 4978.14   2
   0  -5   0 173561. 6388.25  31
   0   5   1 242266. 6056.56  25
   0  -5  -1 243954. 7965.65  31
   0   5   2 374453. 8911.64  25
   0  -5  -2 364783. 10852.9  31
   0  -5  -3 319473. 10033.5  31
   0   5   3 342883. 8638.27  25
   0  -5  -4 219396. 7624.93  31
   0  -5  -5 127141. 5405.37  31
   0  -5  -5 124664. 5015.44  16
   0   5   6 98890.6 3192.72  28
   0   5   7 80903.8 2780.78  28
   0   5   8 72772.0 2511.55  28
   0   5   9 85303.6 2582.47  28
   0   5  10 56607.1 1827.16  30
   0   5  10 54595.9 1732.44  10
   0   6  -7 3621.09 310.701  27
   0   6  -7 3287.51 282.417  18
   0   6  -6 2555.20 326.383  18
   0   6  -6 2832.03 366.785  26
   0   6  -6 2561.70 383.120  27
   0   6  -5 5680.67 587.389  18
   0   6  -5 7304.91 726.034  27
   0   6  -4 5518.18 598.243  18
   0   6  -4 5863.24 542.802  19
   0   6  -3 27842.1 1322.67  19
   0   6  -3 26755.7 1576.23  27
   0   6  -3 27730.7 1421.77  18
   0   6  -2 374.961 204.193  27
   0   6  -2 1216.92 286.811  19
   0   6  -2 688.479 300.043  15
   0   6  -1 819.078 286.724  15
   0   6  -1 780.344 242.483  18
   0   6  -1 624.687 222.127  19
   0   6  -1 461.906 187.073  26
   0   6   0 14591.9 948.072  19
   0  -6   0 17559.2 2143.28  31
   0  -6  -1 45702.8 3494.29  31
   0  -6  -2 94546.2 5229.31  31
   0  -6  -3 107174. 5510.47  31
   0   6   4 99480.6 3284.14  28
   0   6   5 67252.7 2549.74  28
   0   6   6 72513.7 2647.29  28
   0   6   7 110600. 3433.93  28
   0   6   8 96434.4 2943.89  28
   0   6   9 84783.9 2550.24  30
   0   6   9 81623.7 2376.27  28
   0   7  -6 42139.1 1253.05  27
   0   7  -5 18851.9 949.552  26
   0   7  -5 19009.7 940.189  27
   0   7  -5 17878.2 860.396  18
   0   7  -4 34739.9 1566.63  27
   0   7  -4 36905.1 1488.21  18
   0   7  -4 35729.8 1659.53  26
   0   7  -3 50690.6 2081.31  27
   0   7  -3 51311.3 1962.35  18
   0   7  -3 48843.4 2220.31  26
   0   7  -2 23049.7 1426.58  15
   0   7  -2 22177.5 1285.21  27
   0   7  -2 23036.6 1254.19  18
   0   7  -2 21574.1 1399.41  26
   0   7  -1 7141.28 766.838  26
   0   7  -1 6139.48 844.844  15
   0   7  -1 6527.35 649.396  27
   0   7   0 7533.03 654.258  27
   0   7   0 6199.62 907.118  15
   0   7   0 6799.31 707.630  26
   0   7   1 5450.78 601.651  26
   0   7   1 5338.65 836.335  15
   0   7   2 592.565 326.825  15
   0   7   2-88.8940 145.719  26
   0   7   3 148.438 135.262  26
   0   7   3 249.167 166.436  28
   0   7   3 171.835 207.349  15
   0   7   4 955.988 271.371  15
   0   7   4 991.919 225.774  26
   0   7   4 1311.09 348.050  28
   0   7   5 4763.51 601.865  28
   0   7   6 13699.6 986.942  28
   0   7   7 26827.7 1326.06  28
   0   7   8 24869.4 1125.28  28
   0   7   9 25026.0 932.959  28
   0   8  -4 49654.8 1549.34  26
   0   8  -3 69337.2 2244.44  26
   0   8  -2 117975. 3549.83  26
   0   8  -2 125617. 3426.12  15
   0   8  -1 98732.1 3101.91  26
   0   8  -1 96517.1 3325.95  15
   0   8   0 39066.5 1685.33  26
   0   8   0 36673.1 2038.61  15
   0   8   1 35554.8 1537.79  26
   0   8   1 32795.1 1948.37  15
   0   8   2 27935.3 1291.72  26
   0   8   2 27608.7 1535.99  28
   0   8   2 28196.3 1684.76  15
   0   8   3 26005.6 1461.00  15
   0   8   3 24417.5 1409.07  28
   0   8   3 24556.1 1149.08  26
   0   8   4 54618.8 2171.69  28
   0   8   4 56393.1 2065.90  15
   0   8   5 31893.6 1499.19  28
   0   8   6 3245.87 417.145  28
   0   8   7 2410.59 327.855  28
   0   8   8 1950.23 238.243  28
   0   9  -2 56682.2 1636.36  26
   0   9  -1 64855.6 1914.81  15
   0   9  -1 59404.1 1633.02   4
   0   9  -1 62000.1 1865.02  26
   0   9   0 55572.4 2003.79  15
   0   9   0 55726.2 1778.52  26
   0   9   1 73231.2 2152.69  26
   0   9   1 74180.8 2559.06  15
   0   9   2 112196. 3284.65  15
   0   9   2 105559. 2808.26  26
   0   9   3 53641.7 1888.94  15
   0   9   3 53325.2 1870.62  28
   0   9   4 28371.9 1223.95  28
   0   9   5 59135.3 1860.15  28
   0   9   6 54006.2 1623.55  28
  -1   9   5 3862.34 296.952  28
  -1   9   4 2678.65 275.547  28
  -1   9   3 4877.96 375.132  15
  -1   9   3 5711.69 424.912  28
  -1   9   2 22476.6 970.463  15
  -1   9   2 21837.1 904.311  28
  -1   9   1 32634.3 1248.90  15
  -1   9   0 19550.3 852.223  15
  -1   9   0 17301.1 669.476  26
  -1   9  -1 29193.7 910.712  26
  -1   9  -1 30811.0 986.970  15
  -1   8   7 15982.0 677.816  28
  -1   8   6 24677.3 1029.35  28
  -1   8   5 18244.4 950.966  28
  -1   8   4 5831.23 551.993  28
  -1   8   4 5514.25 462.904  15
  -1   8   3 4474.34 518.008  28
  -1   8   3 4383.04 487.911  15
  -1   8   2 13361.8 958.076  15
  -1   8   2 13567.7 918.731  28
  -1   8   1 1625.57 358.862  15
  -1   8   1 1906.83 276.609  26
  -1   8   0 152.525 119.182  26
  -1   8   0 259.173 188.577  15
  -1   8  -1 184.615 163.325  15
  -1   8  -1 503.102 162.090  26
  -1   8  -2 9717.25 637.766  15
  -1   8  -2 9416.25 626.595  26
  -1   8  -3 17583.6 803.970  26
  -1   8  -4 14572.9 595.193  26
  -1   7   8 62185.0 1735.40  28
  -1   7   7 84375.7 2453.38  28
  -1   7   6 70916.2 2299.78  28
   1  -7  -6 63170.5 2434.72   8
  -1   7   5 54782.3 2103.24  28
  -1   7   4 88964.3 2961.23  28
  -1   7   3 60816.6 2327.46  15
  -1   7   2 38977.3 1921.11  15
  -1   7   2 38097.7 1483.94  26
  -1   7   1 71648.2 2348.18  26
  -1   7   1 72508.9 2941.16  15
  -1   7   0 74058.4 3081.07  15
  -1   7   0 75382.0 2506.36  26
  -1   7  -1 44315.9 2220.81  15
  -1   7  -1 51799.9 1999.00  26
  -1   7  -2 22374.9 1310.13  15
  -1   7  -2 20031.9 1193.64  26
  -1   7  -2 20350.4 1054.08  27
  -1   7  -3 6592.62 639.336  26
  -1   7  -3 7114.81 583.698  27
  -1   7  -4 4752.13 486.446  26
  -1   7  -4 4809.54 443.907  27
  -1   7  -5 1332.57 200.011  27
  -1   7  -5 1202.00 209.149  26
  -1   6   9 20243.3 858.276  30
  -1   6   8 42160.3 1486.47  28
   1  -6  -8 40165.5 1593.26   8
  -1   6   7 75894.5 2453.97  28
   1  -6  -7 73999.8 2658.99   8
   1  -6  -6 135324. 4247.99   8
  -1   6   6 142779. 4006.29  28
  -1   6   5 95523.6 3129.25  28
  -1   6   4 76345.2 2729.89  28
  -1   6   3 142205. 4140.96  15
  -1   6   2 147737. 4483.95  15
  -1   6   1 159123. 5032.76  15
  -1   6   1 168869. 4342.75  26
  -1   6   1 163427. 4833.79  14
  -1   6   0 153384. 4650.41  14
  -1   6   0 159589. 4271.23  26
  -1   6   0 145451. 4936.61  15
  -1   6  -1 89009.6 2681.81  27
  -1   6  -1 85432.4 3160.28  14
  -1   6  -1 85265.7 2875.45  26
  -1   6  -2 58016.9 2545.86  15
  -1   6  -2 58169.5 2155.92  27
  -1   6  -2 60540.7 2196.99  18
  -1   6  -3 108496. 3376.09  27
  -1   6  -3 109150. 3290.19  18
  -1   6  -3 113528. 3456.39  15
  -1   6  -4 148726. 4031.78  18
  -1   6  -4 148226. 4160.86  27
  -1   6  -5 68419.6 2184.05  18
  -1   6  -5 69740.3 2310.03  27
  -1   6  -6 30448.5 1164.14  18
  -1   6  -6 33883.1 1292.14  26
  -1   6  -6 33975.4 1274.72  27
  -1   6  -7 26344.6 873.742  27
   1  -5  -9 155.232 144.645   8
   1  -5  -8 1727.89 366.521   8
  -1   5   8 2154.33 336.998  28
  -1   5   7 4746.15 546.587  28
   1  -5  -7 5089.98 652.683   8
   1  -5  -6 11468.3 1016.10   8
  -1   5   6 12375.4 912.833  28
  -1   5   5 22342.7 1277.75  28
   1  -5  -4 24302.4 2389.22  31
   1  -5  -3 121356. 5750.18  31
   1  -5  -2 215623. 8104.36  31
   1  -5  -1 141550. 6109.17  31
   1  -5   0 157405. 6460.58  31
   1  -5   1 200814. 7495.33  31
  -1   5  -2 138567. 3869.72  18
   1  -5   2 151257. 6296.67  31
  -1   5  -3 56405.7 2074.76  18
  -1   5  -3 53002.9 1918.75  19
  -1   5  -4 107329. 3265.71  18
  -1   5  -5 208572. 5284.57  18
  -1   5  -6 113452. 3169.34  18
  -1   5  -7 71221.9 2052.98  18
  -1   5  -8 69922.1 1812.09  27
  -1   4  10 40282.3 1391.50  30
  -1   4  10 42606.6 1417.14  10
   1  -4  -9 10691.7 761.287   8
  -1   4   8 6729.28 603.840  28
   1  -4  -8 6682.49 702.066   8
  -1   4   7 10010.6 804.160  28
   1  -4  -7 10956.9 942.418   8
  -1   4   7 11521.5 923.236  13
  -1   4   6 25129.4 1323.88  28
  -1   4   6 25023.7 1385.59  13
   1  -4  -6 27223.4 1531.90   8
   1  -4  -5 31687.0 2201.61  16
   1  -4  -4 27190.3 2290.93  31
   1  -4  -3 200.401 374.793  31
   1  -4  -2 33037.4 2469.45  31
   1  -4  -1 23700.9 1960.68  31
  -1   4   0 23543.9 1125.35   2
   1  -4   0 24866.3 1913.69  31
  -1   4  -1 17990.4 1062.67   2
  -1   4  -2 68679.0 2810.35   1
  -1   4  -3 204077. 6074.74   1
  -1   4  -4 92943.6 2878.07  18
  -1   4  -5 43096.4 1805.14  17
  -1   4  -5 43454.8 1778.40  18
  -1   4  -5 45150.9 1803.79  12
  -1   4  -6 57383.1 2112.41  12
  -1   4  -6 57143.8 2064.33  18
  -1   4  -6 54672.9 2070.10  17
  -1   4  -7 72817.5 2319.33  17
  -1   4  -7 72423.1 2299.94  18
  -1   4  -8 75682.1 2135.11  17
  -1   4  -8 77248.7 2114.15  18
  -1   3  10 75155.1 2203.47  10
  -1   3  10 72085.8 2118.79  30
   1  -3  -9 61805.7 2179.38   8
   1  -3  -8 94886.8 3152.72   8
  -1   3   7 120576. 3759.96  13
   1  -3  -7 127423. 3924.32   8
   1  -3  -6 123902. 3762.60   8
  -1   3   6 118326. 3573.83  13
   1  -3  -5 79491.3 3410.08  16
   1  -3  -4 86275.1 3938.03  31
   1  -3  -3 193462. 6406.21  31
   1  -3  -2 73937.8 3420.64  31
   1  -3  -1 136704. 4841.53  31
  -1   3   1 148358. 3657.95  25
  -1   3   0 170407. 3858.85  25
   1  -3   0 159371. 5073.93  31
  -1   3   0 165685. 3996.49   2
  -1   3  -1 13617.0 924.269   1
  -1   3  -2 44178.5 1927.96   1
  -1   3  -3 11683.5 1016.04   1
  -1   3  -4 16206.6 1316.48   1
  -1   3  -5 21526.3 1173.99  12
  -1   3  -5 20511.7 1591.93   1
  -1   3  -6 15157.2 1018.15  17
  -1   3  -6 17461.9 1092.63  12
  -1   3  -7 13887.2 964.005  12
  -1   3  -7 13663.5 940.567  17
  -1   3  -8 11932.1 736.106  18
  -1   3  -8 12290.8 803.410  17
  -1   3  -8 12140.6 825.678  12
  -1   3  -9 8252.27 527.888  17
  -1   2  10 43760.1 1533.48  30
  -1   2  10 45344.1 1639.68  10
   1  -2 -10 39903.5 1451.47   8
  -1   2   9 56624.5 2182.76  30
   1  -2  -9 55110.2 2065.85   8
   1  -2  -8 118268. 3681.64   8
  -1   2   7 136040. 4102.63  13
   1  -2  -7 147733. 4303.83   8
   1  -2  -6 177931. 5845.77  16
   1  -2  -5 389100. 9875.81  16
   1  -2  -4 222496. 6132.27  16
   1  -2  -3 105714. 3911.71  31
  -1   2   3 99848.7 3903.45  32
   1  -2  -2 352798. 8954.16  31
  -1   2   2 344420. 8911.01  32
   1  -2  -1 420914. 10042.4  31
  -1   2   1 415398. 9774.61  32
  -1   2   0 503580. 10445.1   2
  -1   2   0 512562. 10341.3  25
   1  -2   0 494267. 11396.5  31
  -1   2  -1 205727. 4945.65   1
  -1   2  -1 204163. 5014.14  33
  -1   2  -2 308541. 6972.71  33
  -1   2  -2 301109. 7147.73   1
  -1   2  -3 391886. 9165.64   1
  -1   2  -4 107525. 3606.05   1
  -1   2  -5 34889.8 1963.07   1
  -1   2  -6 38101.6 1696.47  12
  -1   2  -6 37834.2 1692.09   8
  -1   2  -7 22983.9 1315.75  12
  -1   2  -8 1925.48 373.339  12
  -1   2  -9 484.767 178.553  17
  -1   2  -9 600.089 191.293  12
  -1   2 -10 5651.67 380.569  17
  -1   1  10 5764.86 528.425  10
   1  -1 -10 6053.99 489.940   8
   1  -1  -9 1244.80 299.344   8
  -1   1   9 1148.02 285.760  30
   1  -1  -8 10773.3 905.430   8
   1  -1  -7 89467.1 3082.85   8
   1  -1  -6 51453.4 2643.86  16
   1  -1  -5 71150.6 2928.50  16
   1  -1  -4 405576. 9601.46  16
  -1   1   4 399497. 10286.5  32
  -1   1   3 448793. 10866.0  32
  -1   1   2 215612. 5761.39  32
  -1   1   1 183399. 4724.05  32
  -1   1   0 606771. 12360.0  32
  -1   1   0 573500. 12492.8  33
   1  -1   0 605068. 12672.7  31
  -1   1  -1 538021. 11289.1  33
  -1   1  -1 542853. 11243.3   1
  -1   1  -1 539833. 10758.0  32
  -1   1  -2 295397. 6650.00   1
  -1   1  -2 290589. 6475.49  33
  -1   1  -3 416247. 9445.75   1
  -1   1  -3 417829. 9078.25  33
  -1   1  -4 266715. 6297.09  33
  -1   1  -4 268869. 6828.55   1
  -1   1  -5 201554. 5800.65   1
  -1   1  -6 208887. 6276.21   1
  -1   1  -7 177316. 4821.28  12
  -1   1  -7 175224. 4799.09   8
   1  -1   7 173025. 5114.41  10
   1  -1   8 138805. 4640.20  10
  -1   1  -8 153639. 4259.25   8
  -1   1  -8 148306. 4254.74  12
  -1   1  -9 65636.6 2279.78  12
   1  -1   9 66862.7 2699.72  10
  -1   1 -10 14312.6 762.977  17
  -1   0  10 10814.3 686.920  10
   1   0 -10 8999.88 589.441   8
   1   0 -10 9362.24 528.077  12
   1   0  -9 5536.00 559.853  12
  -1   0   9 6407.00 687.744  10
   1   0  -9 5651.52 596.346   8
   1   0  -8 18458.7 1198.99   8
   1   0  -7 5710.33 667.049   8
   1   0  -6 148.144 241.889  16
  -1   0   5 949.362 362.959  32
   1   0  -5 960.290 339.233  16
   1   0  -4 6466.04 685.376  16
  -1   0   4 6068.34 781.327  32
   1   0  -3 35419.0 1474.09  16
  -1   0   3 32220.8 1716.54  32
   1   0  -2 28732.1 1124.52  16
   1   0  -1 74217.1 2257.03  31
  -1   0   0 414477. 8559.19  32
   1   0   0 415147. 8738.91  31
  -1   0  -1 739218. 14819.0   1
  -1   0  -1 734971. 14966.1  33
  -1   0  -2 207489. 4790.58   1
  -1   0  -3 217299. 5395.20   1
  -1   0  -3 224418. 5406.89  16
  -1   0  -4 141035. 4105.76   1
  -1   0  -5 88847.5 3249.49   1
  -1   0  -6 223661. 6582.01   1
  -1   0  -7 267975. 6485.85   8
   1   0   7 256061. 6764.51  30
   1   0   7 256500. 6742.61  10
  -1   0  -7 254159. 6439.93  12
  -1   0  -8 148251. 4233.74   8
  -1   0  -8 152265. 4267.67  12
   1   0   8 141457. 4538.91  10
   1   0   8 145263. 4619.18  30
  -1   0  -9 123802. 3552.89  12
   1   0   9 115748. 3907.46  10
  -1   0  -9 117195. 3481.98   8
   1   0   9 122668. 3961.51  30
   1   0  10 99404.2 3168.87  10
   1   1 -10 58025.1 1628.84  12
   1   1  -9 76909.8 2501.90   8
   1   1  -9 76979.8 2440.18  12
  -1  -1   8 92366.2 3342.30  10
   1   1  -8 97104.2 3157.32   8
   1   1  -7 65724.1 2522.04   8
   1   1  -6 31443.2 2240.88   1
  -1  -1   5 73223.6 3080.58  32
   1   1  -5 69813.4 3278.70   1
   1   1  -4 119539. 4232.37   1
   1   1  -4 126292. 3891.83  16
  -1  -1   4 122424. 4028.65  32
   1   1  -3 153223. 4120.75  16
  -1  -1   3 148219. 4339.55  32
   1   1  -2 133576. 3325.18  16
  -1  -1   2 122734. 3536.65  32
  -1  -1   1 9955.62 575.614  32
   1   1  -1 3310.59 259.504  16
   1   1   0 32407.8 870.498   1
  -1  -1   0 33550.9 934.565  33
   1   1   0 35476.3 1052.11  25
  -1  -1  -1 10569.6 425.099  16
  -1  -1  -2 131648. 3197.03  16
  -1  -1  -3 4181.94 440.710  16
  -1  -1  -4 27980.8 1414.43  16
  -1  -1  -5 44566.4 2070.28  16
  -1  -1  -6 59378.5 2726.25  16
  -1  -1  -7 70476.9 3352.10   1
   1   1   8 49135.8 2284.37  30
  -1  -1  -8 54607.1 2134.88  12
  -1  -1  -8 53793.1 2108.54   8
   1   1   9 47972.6 2225.35  30
  -1  -1  -9 54780.2 2048.73  12
   1   1   9 46248.2 2204.23  10
  -1  -1  -9 54201.2 2034.48   8
   1   1  10 62124.6 2363.76  10
   1   1  10 62616.6 2297.50  30
  -1  -1 -11 48502.1 1455.58  17
   1   2  -9 108446. 2980.63  12
   1   2  -8 147473. 4164.43   8
   1   2  -8 142757. 4095.10  12
   1   2  -7 147036. 4368.27   8
   1   2  -6 114815. 3599.32   8
   1   2  -5 150748. 5287.43   1
  -1  -2   4 186884. 5303.47  32
   1   2  -4 195204. 5874.20   1
   1   2  -3 213682. 5895.83   1
  -1  -2   3 205889. 5440.22  32
  -1  -2   2 592378. 12998.4  32
   1   2  -2 624498. 13372.2   1
  -1  -2   1 312850. 6974.13  32
   1   2  -1 319585. 7073.51   1
   1   2   0 9815.51 531.317   1
  -1  -2  -1 310713. 6678.73  31
  -1  -2  -2 766795. 15913.0  31
  -1  -2  -3 244004. 5864.11  16
  -1  -2  -4 31929.3 1562.04  16
  -1  -2  -5 10689.5 974.707  16
  -1  -2  -6 1321.15 413.739  16
  -1  -2  -7 4605.81 796.119  16
   1   2   8 44.4151 176.908  30
   1   2   8 203.754 225.525  28
  -1  -2  -8 203.520 175.221   8
  -1  -2  -9 1484.41 314.604   8
   1   2   9 580.437 267.116  30
   1   2   9 1603.91 381.706  10
   1   2  10 4849.85 586.234  10
   1   2  10 5319.90 596.944  30
   1   2  11 10919.7 703.683  10
   1   3  -9 29647.8 1109.98  12
   1   3  -8 31817.3 1425.00  12
   1   3  -7 50674.3 2107.15   8
   1   3  -6 114797. 3637.90   8
   1   3  -5 189514. 6246.89   1
   1   3  -4 316979. 8659.05   1
   1   3  -3 200633. 5830.09   1
  -1  -3   2 108364. 3088.12  32
   1   3  -2 116499. 3571.47   1
  -1  -3   1 346772. 7800.36  32
   1   3  -1 368044. 8224.56   1
   1   3   0 397375. 8553.31  25
   1   3   0 380945. 8543.87   1
   1   3   0 379703. 8643.65   2
  -1  -3  -1 358500. 7830.99  31
   1   3   1 347171. 7681.42  25
  -1  -3  -2 469610. 10579.6  31
  -1  -3  -3 422928. 9868.68  31
  -1  -3  -4 365778. 8846.19  16
  -1  -3  -5 242030. 6695.51  16
  -1  -3  -6 183142. 5807.97  16
  -1  -3  -7 52981.9 2877.77  16
   1   3   7 55255.9 2225.32  28
   1   3   8 19447.2 1287.37  28
   1   3   9 46103.2 2094.83  30
   1   3   9 48840.8 2070.35  28
   1   3  10 22373.4 1246.99  30
   1   3  10 24813.5 1360.81  10
   1   3  11 6180.16 488.554  30
   1   3  11 6409.66 531.114  10
   1   4  -8 2900.94 316.336  27
   1   4  -8 2349.46 310.482  12
   1   4  -7 1210.67 284.826  12
   1   4  -6 1258.10 313.623  12
   1   4  -5 26884.3 1248.48  19
   1   4  -4 87575.6 3864.71   1
   1   4  -3 120739. 4409.65   1
   1   4  -2 102588. 3624.16   1
   1   4  -1 158466. 4573.67   1
   1   4   0 176511. 4501.94  25
   1   4   0 166118. 4587.21   1
   1   4   0 163935. 4611.82   2
   1   4   1 164233. 4537.79   2
   1   4   1 168468. 4550.95  25
  -1  -4  -2 333531. 8330.44  31
   1   4   2 313946. 7903.49  25
  -1  -4  -3 283349. 7601.33  31
  -1  -4  -4 240872. 6629.72  16
  -1  -4  -4 240107. 6806.43  31
  -1  -4  -5 173576. 5501.48  16
  -1  -4  -6 174998. 5824.44  16
   1   4   7 240920. 6180.36  28
   1   4   8 127299. 3896.78  28
   1   4   9 69488.1 2507.48  28
   1   4   9 70244.8 2667.87  30
   1   4  10 85143.1 2602.55  28
   1   4  10 89841.6 2850.66  30
   1   4  10 92432.2 2921.50  10
   1   4  11 56377.9 1777.39  10
   1   4  11 57481.3 1754.21  30
   1   5  -8 40564.4 1230.06  18
   1   5  -7 10856.3 713.718  18
   1   5  -7 13016.8 810.544  27
   1   5  -7 11168.1 684.303  12
   1   5  -6 11475.7 794.422  12
   1   5  -5 29944.9 1309.69  19
   1   5  -5 26057.0 1326.54  12
   1   5  -4 24838.4 1225.73  19
   1   5  -3 4351.87 489.165  19
   1   5  -3 5356.74 869.342   1
   1   5  -2 1806.47 466.507   1
   1   5  -2 3241.24 661.070   2
   1   5  -1 1701.54 417.911   2
   1   5  -1 2979.75 540.776   1
   1   5   0 23069.7 1323.21  25
   1   5   0 20945.4 1383.80   2
   1   5   1 21657.7 1356.05   2
   1   5   1 21556.8 1289.70  25
  -1  -5  -1 19874.4 1684.61  31
   1   5   2 59617.4 2489.23  25
  -1  -5  -2 62541.9 3158.85  31
   1   5   3 80914.0 3344.11  25
  -1  -5  -3 86256.0 3816.73  31
  -1  -5  -4 71038.0 3432.97  31
  -1  -5  -5 126941. 4779.87  16
  -1  -5  -6 47600.7 2807.50  16
   1   5   6 45183.4 1921.67  28
   1   5   7 19664.0 1216.30  28
   1   5   8 76526.5 2715.18  28
   1   5   9 132423. 3855.66  28
   1   5   9 140842. 4110.14  10
   1   5   9 138109. 4104.50  30
   1   5  10 103392. 2973.14  30
   1   5  10 101387. 2925.03  10
   1   6  -7 76218.7 1968.45  27
   1   6  -7 71426.6 1959.34  18
   1   6  -6 82063.4 2500.64  18
   1   6  -6 89047.9 2747.35  27
   1   6  -5 48230.3 2251.56  27
   1   6  -5 49325.6 1921.28  18
   1   6  -5 48658.8 1707.37  19
   1   6  -5 50525.9 2202.02  26
   1   6  -4 55003.8 2148.85  18
   1   6  -4 50174.5 2583.07  26
   1   6  -4 47178.6 2478.38  27
   1   6  -4 54769.7 1949.79  19
   1   6  -3 70617.3 3089.17  27
   1   6  -3 69499.1 3216.73  26
   1   6  -3 76172.8 2500.46  19
   1   6  -3 77392.4 2700.13  18
   1   6  -2 87190.8 2762.61  19
   1   6  -2 84335.8 3211.96  27
   1   6  -2 78288.2 3319.64  26
   1   6  -2 85701.6 3078.23  20
   1   6  -2 85752.1 2870.33  18
   1   6  -1 106802. 3503.00  27
   1   6  -1 108916. 4185.29   2
   1   6  -1 109394. 3487.60  20
   1   6  -1 104910. 3671.01  26
   1   6  -1 106412. 3197.94  19
  -1  -6   0 70360.2 4131.65  31
   1   6   0 74254.4 3151.79   2
  -1  -6  -1 50048.6 3356.54  31
   1   6   1 48058.9 2206.89  25
  -1  -6  -2 19057.7 2044.71  31
   1   6   2 18533.5 1352.16  25
   1   6   3 817.159 347.745  25
  -1  -6  -3 1791.91 655.159  31
   1   6   4 666.603 359.807  25
   1   6   5 920.138 295.846  28
   1   6   6 3776.93 526.043  28
   1   6   7 3894.31 538.693  28
   1   6   8 3738.94 516.563  28
   1   6   9 12231.6 827.697  28
   1   6   9 11589.6 861.537  30
   1   6  10 25193.3 1015.80  28
   1   6  10 25041.6 1074.23  30
   1   7  -6 83173.8 2159.07  18
   1   7  -6 86389.1 2210.21  27
   1   7  -5 82389.3 2401.68  18
   1   7  -5 83967.7 2610.75  27
   1   7  -5 81799.6 2458.82  26
   1   7  -4 52430.0 2281.17  27
   1   7  -4 56267.4 1872.76  19
   1   7  -4 54588.0 2337.37  26
   1   7  -4 56002.9 2017.47  18
   1   7  -3 102521. 3193.02  18
   1   7  -3 98032.9 3548.94  27
   1   7  -3 97384.6 3712.35  26
   1   7  -3 103930. 3049.08  19
   1   7  -2 99163.8 3146.38  18
   1   7  -2 94424.6 3418.65  27
   1   7  -2 92097.1 3612.52  26
   1   7  -2 97215.5 3033.34  19
   1   7  -1 91792.8 2978.00  18
   1   7  -1 89508.5 3156.89  27
   1   7  -1 87991.5 3381.64  26
   1   7  -1 94084.1 3511.11  15
   1   7  -1 87317.4 2914.17  19
   1   7   0 154798. 4341.83  19
   1   7   0 145036. 5059.99  15
   1   7   0 155085. 4684.18  26
   1   7   0 158797. 4292.47  18
   1   7   0 155296. 4425.08  27
   1   7   1 155291. 4418.47  26
   1   7   1 137298. 4905.61  15
   1   7   2 99994.4 3158.96  26
   1   7   2 91438.5 3571.93  15
   1   7   2 96342.9 2894.37   4
   1   7   3 57667.6 1989.12   4
   1   7   3 54505.4 2409.33  15
   1   7   3 51657.5 2290.83  28
   1   7   3 57604.8 2145.43  26
   1   7   4 74567.7 2524.68  26
   1   7   4 76120.5 2737.58  15
   1   7   4 76976.1 2400.47   4
   1   7   4 73302.8 2789.74  28
   1   7   5 91325.1 3169.53  28
   1   7   6 36612.6 1785.72  28
   1   7   7 16023.1 1083.41  28
   1   7   8 6502.43 627.123  28
   1   7   9 1596.52 274.170  28
   1   8  -4 25124.3 1070.12  26
   1   8  -3 21952.9 1259.45  26
   1   8  -3 24322.4 1255.84  27
   1   8  -2 93061.7 3259.37  26
   1   8  -1 113725. 3815.81  15
   1   8  -1 110863. 3699.62  26
   1   8   0 63977.6 2489.43  26
   1   8   0 55595.0 2761.91  15
   1   8   1 54584.3 1979.28   4
   1   8   1 52028.4 2725.18  15
   1   8   1 57480.7 2262.10  26
   1   8   2 84564.3 2805.13  26
   1   8   2 82783.4 2559.44   4
   1   8   2 77344.7 3289.83  15
   1   8   3 84540.4 2559.27   4
   1   8   3 82332.4 3068.66  28
   1   8   3 84940.1 3209.79  15
   1   8   3 87567.2 2783.24  26
   1   8   4 85184.8 2963.80  15
   1   8   4 86836.2 3076.16  28
   1   8   5 139928. 4160.61  28
   1   8   6 109060. 3378.89  28
   1   8   7 56212.5 2046.72  28
   1   8   8 48104.6 1669.59  28
   1   8   9 28987.9 1005.29  28
   1   9  -3 3084.21 255.477   4
   1   9  -2 9501.11 636.139  26
   1   9  -2 9189.90 554.064   4
   1   9  -1 13587.2 859.045  26
   1   9  -1 11790.7 694.971   4
   1   9   0 18422.7 1200.04  15
   1   9   0 20013.3 1086.92  26
   1   9   0 17480.0 890.148   4
   1   9   1 21104.4 1118.70  26
   1   9   1 19072.2 1346.95  15
   1   9   1 20203.1 952.911   4
   1   9   1 21335.3 1045.20   5
   1   9   2 22228.7 1231.21   5
   1   9   2 19314.1 917.015   4
   1   9   2 20019.4 1059.13  26
   1   9   2 20943.1 1370.63  15
   1   9   3 36262.9 1734.44  15
   1   9   3 37728.5 1477.31  26
   1   9   4 42210.1 1763.97  28
   1   9   5 43113.4 1707.29  28
   1   9   6 54873.1 1861.92  28
   1   9   7 45565.9 1498.01  29
   1   9   7 41829.5 1434.63  28
   1   9   7 43777.4 1369.73   5
   1  10   0 6119.18 392.413  26
   1  10   2 227.627 106.550   5
   1  10   3 807.933 178.728   5
   1  10   4 11681.4 665.986   5
   1  10   5 7381.87 479.039   5
  -2   8   5 40190.9 1269.88  28
   2  -8  -4 42405.6 1717.74   8
  -2   8   4 45324.3 1477.15  28
  -2   8   3 73605.2 2157.13  28
  -2   8   3 70301.2 2005.64  15
  -2   8   2 80137.5 2360.50  28
  -2   8   2 78773.3 2329.60  15
  -2   8   1 61236.1 1978.13  28
  -2   8   1 62632.2 2050.49  15
  -2   8   0 42368.3 1575.70  15
  -2   8  -1 24342.2 878.219  26
  -2   8  -1 27310.8 1095.50  15
  -2   8  -2 20070.9 783.939  15
  -2   8  -2 18157.1 696.061  26
  -2   7   7 25745.9 874.689  28
  -2   7   6 30115.1 1136.32  28
   2  -7  -6 27048.6 1316.98   8
  -2   7   5 36478.1 1417.55  28
   2  -7  -5 33539.8 1666.91   8
  -2   7   4 55927.0 1991.90  28
  -2   7   3 75515.3 2529.31  28
  -2   7   3 76933.2 2418.96  15
  -2   7   2 53041.5 2042.92  15
  -2   7   1 72628.9 2628.25  15
  -2   7   0 163106. 4082.04  26
  -2   7   0 168163. 4733.38  15
  -2   7  -1 124679. 3345.70  26
  -2   7  -1 124881. 3741.72  15
  -2   7  -2 70679.7 2228.75  26
  -2   7  -2 73874.1 2407.51  15
  -2   7  -3 65460.7 1951.31  15
  -2   7  -3 61864.2 1977.80  26
  -2   7  -4 48671.5 1528.68  26
  -2   7  -5 38457.1 1127.48  26
   2  -6  -8 1255.99 229.490   8
  -2   6   7 321.207 124.068  28
   2  -6  -7 396.899 229.774   8
   2  -6  -6 8036.94 811.830   8
  -2   6   6 9313.45 673.459  28
  -2   6   5 15393.0 971.165  28
  -2   6   4 2917.56 434.041  28
  -2   6   3 11705.2 843.097  15
  -2   6   2 54730.9 2195.75  15
  -2   6   1 24957.9 1441.68  14
  -2   6   0 38608.9 1864.74  14
  -2   6   0 38134.4 1536.08  26
  -2   6  -1 101130. 3017.06  26
  -2   6  -1 95998.3 3338.42  14
  -2   6  -2 82564.8 2714.31  26
  -2   6  -2 84295.4 2961.46  15
  -2   6  -2 79430.3 2903.23  14
  -2   6  -3 71801.0 2226.21  27
  -2   6  -3 73619.5 2456.92  15
  -2   6  -4 78955.9 2357.78  27
  -2   6  -5 93592.5 2669.87  26
  -2   6  -5 89968.3 2480.66  27
  -2   6  -6 80932.8 2113.23  27
  -2   6  -6 87865.7 2249.97  26
  -2   5   9 33457.9 1130.29  30
   2  -5  -8 44584.6 1711.99   8
  -2   5   7 29439.8 1243.55  28
   2  -5  -7 28110.1 1497.79   8
  -2   5   6 26303.7 1286.41  28
   2  -5  -6 25899.4 1540.44   8
  -2   5   6 25340.3 1278.15  13
  -2   5   5 29106.9 1441.63  28
  -2   5   4 13500.5 934.897  11
  -2   5   3 20418.2 1149.51  11
  -2   5   2 1917.16 380.900  14
  -2   5   1 5595.59 639.826  14
   2  -5  -1 4999.48 1181.81  31
  -2   5   0 3339.67 500.453  14
   2  -5   0 4404.59 1086.07  31
  -2   5  -1 4966.23 607.833  14
  -2   5  -2 1091.26 318.576  14
  -2   5  -2 1059.28 265.834  18
  -2   5  -3 3064.92 505.468  14
  -2   5  -3 2771.42 401.819  17
  -2   5  -4 22787.0 1170.83  18
  -2   5  -4 22358.6 1177.57  17
  -2   5  -5 46868.5 1714.79  18
  -2   5  -5 44305.4 1700.98  17
  -2   5  -6 55350.1 1734.17  18
  -2   5  -6 48384.7 1678.38  17
  -2   5  -7 46693.5 1479.13  27
   2  -4  -9 44117.6 1542.16   8
   2  -4  -8 47749.6 1930.38   8
  -2   4   7 82138.6 2729.77  13
   2  -4  -7 80080.5 2949.90   8
  -2   4   6 85941.5 2871.82  13
  -2   4   6 82830.8 2695.31  28
   2  -4  -6 86066.3 3153.23   8
  -2   4   5 156704. 4237.28  28
  -2   4   5 149631. 4274.63  13
  -2   4   4 212474. 5479.34  11
   2  -4  -4 218524. 8204.34  31
   2  -4  -3 186123. 7447.80  31
   2  -4  -2 123372. 5734.43  31
   2  -4  -1 43400.5 3119.01  31
   2  -4   0 40756.5 2881.43  31
   2  -4   1 59193.0 3411.17  31
   2  -4   2 80564.3 4053.69  31
  -2   4  -3 22221.7 1578.66   1
  -2   4  -4 536.791 209.007  18
  -2   4  -4 197.596 159.946  17
  -2   4  -5 7087.04 626.337  18
  -2   4  -5 6459.71 634.309  17
  -2   4  -6 4354.24 467.604  18
  -2   4  -6 3629.66 462.136  17
  -2   4  -7 1393.76 234.982  18
  -2   4  -7 1273.48 251.701  17
  -2   4  -8 1787.38 231.732  17
   2  -3  -9 34497.1 1416.08   8
   2  -3  -8 39661.4 1786.81   8
   2  -3  -7 59785.9 2487.72   8
  -2   3   7 61470.9 2330.96  13
   2  -3  -6 78666.2 2985.01   8
  -2   3   6 80131.3 2759.84  13
   2  -3  -5 146665. 4364.56   8
  -2   3   5 140981. 4007.80  13
   2  -3  -5 132779. 5103.43  16
   2  -3  -4 286826. 9333.20  31
   2  -3  -3 198158. 7173.17  31
   2  -3  -2 207676. 7295.87  31
   2  -3  -1 362815. 10424.1  31
   2  -3   0 438409. 11632.1  31
   2  -3   1 193646. 6187.69  31
  -2   3  -2 158966. 4603.05   1
  -2   3  -3 336382. 8454.07   1
  -2   3  -4 120741. 4161.07   1
  -2   3  -5 23367.4 1165.28  18
  -2   3  -5 24391.0 1255.99  12
  -2   3  -5 23581.6 1269.89  17
  -2   3  -6 61814.6 2130.38  18
  -2   3  -6 62572.8 2307.03  17
  -2   3  -7 57982.7 1975.75  18
  -2   3  -7 59677.4 2153.50  17
  -2   3  -8 24308.0 1136.14  17
  -2   3  -9 18584.6 789.338  17
  -2   2  10 1352.57 207.041  10
   2  -2 -10 1642.53 224.434   8
   2  -2  -9 400.985 207.301   8
  -2   2   9 3.05684 130.440  30
   2  -2  -8 524.014 275.292   8
   2  -2  -7 15719.6 1167.28   8
  -2   2   7 16282.9 1103.54  13
  -2   2   6 37837.3 1717.80  13
   2  -2  -6 39107.3 1912.61   8
   2  -2  -5 46267.9 2536.52  16
  -2   2   4 124840. 4649.65  32
   2  -2  -3 67929.8 3414.67  31
  -2   2   3 62336.5 2878.72  32
  -2   2   2 31260.4 1784.51  32
   2  -2  -2 33152.2 2249.52  31
   2  -2  -1 153309. 5370.29  31
  -2   2   1 156768. 4517.09  32
  -2   2   0 336030. 8137.78  33
   2  -2   0 343274. 9004.31  31
  -2   2   0 343765. 7828.27  32
  -2   2  -1 715471. 15506.8  33
   2  -2   1 711055. 16061.6  31
  -2   2  -2 365187. 8624.71  33
  -2   2  -2 368764. 8461.53   1
  -2   2  -3 218818. 5661.38   1
  -2   2  -3 210115. 5610.42  33
  -2   2  -4 302629. 7717.67   1
  -2   2  -5 222892. 6335.55   1
  -2   2  -6 152658. 4291.23  12
  -2   2  -6 160967. 4380.40  17
  -2   2  -7 113880. 3503.37  12
  -2   2  -7 116843. 3514.95  17
  -2   2  -8 75042.1 2527.61  17
  -2   2  -9 68991.6 2166.78  17
  -2   2 -10 63536.8 1698.06  17
   2  -1 -10 31701.9 1131.67   8
  -2   1  10 35033.4 1173.60  10
   2  -1  -9 47678.7 1800.59   8
   2  -1  -8 38779.3 1798.27   8
  -2   1   7 9052.24 817.359  13
   2  -1  -7 9805.11 857.062  21
   2  -1  -7 9592.33 911.974   8
  -2   1   6 931.090 270.967  13
   2  -1  -6 1314.22 361.258   8
   2  -1  -6 978.982 315.125  21
   2  -1  -5 21007.9 1557.19  16
  -2   1   5 21615.5 1778.37  32
  -2   1   4 3948.64 705.470  32
   2  -1  -4 3000.37 531.478  16
  -2   1   3 68652.2 2882.25  32
  -2   1   2 1670.84 376.001  32
   2  -1  -2 1441.76 452.889  31
  -2   1   1 2882.41 419.710  32
   2  -1  -1 3381.18 592.774  31
  -2   1   0 33410.1 1454.80  33
  -2   1   0 32291.3 1278.81  32
  -2   1  -1 2728.60 313.098   1
   2  -1   1 3604.17 487.590  31
  -2   1  -1 3160.77 416.687  33
  -2   1  -1 3740.67 313.451  32
  -2   1  -2 121615. 2684.00  32
  -2   1  -2 115165. 3129.25   1
  -2   1  -3 248433. 5965.60   1
  -2   1  -3 243102. 6024.75  33
  -2   1  -4 188962. 4985.50   1
  -2   1  -4 176228. 4825.73  33
  -2   1  -5 114200. 3784.17   1
  -2   1  -6 119591. 4159.03   1
   2  -1   7 147185. 4628.59  10
  -2   1  -7 146319. 4144.45  12
   2  -1   8 143372. 4638.78   7
   2  -1   8 140517. 4623.16  10
  -2   1  -8 146850. 4123.51  12
  -2   1  -9 126955. 3613.88  17
  -2   1 -10 62492.1 1892.33  17
   2   0 -10 45724.3 1388.23   8
   2   0  -9 76175.6 2423.51   8
   2   0  -9 74156.4 2275.86  12
   2   0  -8 103046. 3318.19   8
   2   0  -7 161658. 4718.17   8
   2   0  -7 162204. 4622.08  21
   2   0  -6 121067. 3802.11   8
   2   0  -6 122672. 3667.47  21
  -2   0   6 111192. 3537.43  13
  -2   0   5 65960.8 3254.36  32
   2   0  -4 167909. 4980.12  16
  -2   0   4 180394. 5583.35  32
  -2   0   3 218256. 6127.85  32
   2   0  -3 218546. 5599.83  16
  -2   0   2 73751.1 2660.72  32
   2   0  -1 29259.2 1547.18  31
  -2   0   1 27427.7 1266.35  32
  -2   0   1 27798.1 1251.98  33
   2   0  -1 27175.0 724.467   2
   2   0   0 4316.63 527.868  31
  -2   0   0 5525.48 444.712  32
  -2   0  -1 63003.9 1636.47   1
   2   0   1 61918.6 1998.75  31
  -2   0  -2 17521.3 929.809  33
  -2   0  -2 17700.1 764.980   1
  -2   0  -3 2628.43 367.136  33
  -2   0  -3 105.823 115.602   1
  -2   0  -4 6163.79 607.691  33
  -2   0  -4 6471.55 632.378   1
  -2   0  -5 3115.95 476.781  33
  -2   0  -5 3325.06 522.734   1
  -2   0  -6 11151.0 973.298  33
  -2   0  -6 12912.4 1131.57   1
  -2   0  -7 50972.5 1964.99   8
  -2   0  -7 50058.9 1966.21  12
   2   0   7 52297.3 2292.58  10
   2   0   7 53233.2 2283.61  30
   2   0   8 33152.3 1829.12  30
   2   0   8 29562.7 1773.53  10
  -2   0  -8 30565.2 1518.53  12
   2   0   9 35157.0 1899.51  10
  -2   0 -10 85967.7 2554.83  17
   2   0  10 87377.5 2872.36   7
   2   1  -9 67981.8 2167.40   8
   2   1  -9 65499.8 2059.47  12
   2   1  -8 83450.7 2846.38   8
   2   1  -7 70058.0 2670.53   8
   2   1  -6 181037. 4995.08  21
   2   1  -6 183298. 5130.35   8
   2   1  -5 222523. 7382.60   1
  -2  -1   5 238786. 7113.78  32
  -2  -1   4 185427. 5763.29  32
   2   1  -3 210761. 5516.70  16
  -2  -1   3 223609. 6059.15  32
  -2  -1   2 619950. 13575.4  32
   2   1  -2 606207. 12894.0  16
   2   1  -1 992190. 19998.5  16
  -2  -1   1 999999. 20697.4  32
  -2  -1   1 999054. 20392.7  33
  -2  -1   0 268016. 6181.21  33
   2   1   0 281789. 5922.07   2
   2   1   1 85749.4 2133.35  25
  -2  -1  -1 80584.8 2293.16  33
  -2  -1  -2 124535. 2871.75   1
  -2  -1  -3 73355.0 2178.97   1
  -2  -1  -4 185459. 4944.22  16
  -2  -1  -4 186165. 4827.10   1
  -2  -1  -5 161106. 4671.07   1
  -2  -1  -6 64136.3 2770.99   1
   2   1   7 12917.4 1039.77  10
  -2  -1  -7 13345.0 1295.82   1
  -2  -1  -7 12608.3 1146.54  33
   2   1   7 13634.7 1043.84  30
   2   1   8 533.509 295.010  28
   2   1   8 1223.55 374.599  30
  -2  -1  -8 864.499 259.761  12
   2   1   8 1346.59 379.306  10
  -2  -1  -9 6164.42 617.040  12
   2   1   9 6707.81 785.413  30
   2   1   9 6035.29 775.932  10
   2   1  10 4504.90 599.841  10
  -2  -1 -11 1474.89 211.253  17
   2   2  -9 14499.1 752.689  12
   2   2  -8 50604.4 1995.81   8
   2   2  -7 40871.2 1900.00   8
   2   2  -6 31462.9 1659.10   8
   2   2  -6 29835.2 1565.90  21
  -2  -2   5 59586.2 2895.46  32
   2   2  -5 58543.9 3236.18   1
   2   2  -4 107108. 4332.63   1
  -2  -2   4 108806. 3948.35  32
   2   2  -3 162657. 5314.40   1
  -2  -2   3 167276. 4922.20  32
  -2  -2   2 289411. 7167.15  32
   2   2  -2 288160. 7364.51   1
  -2  -2   1 625880. 13121.1  32
   2   2  -1 589883. 12890.9   1
   2   2   0 357843. 8015.90  25
   2   2   0 374345. 7909.61   2
  -2  -2   0 371817. 7743.45  33
   2   2   0 350843. 7552.33   1
  -2  -2  -1 218176. 4529.92  16
   2   2   1 223941. 5104.08  25
  -2  -2  -1 208904. 4911.11  33
  -2  -2  -2 844875. 17229.8  16
  -2  -2  -3 441977. 9678.73  16
  -2  -2  -4 184406. 4896.52  16
  -2  -2  -5 300775. 7660.72  16
  -2  -2  -6 173350. 5406.12  16
  -2  -2  -7 84010.4 3609.96   1
   2   2   8 72739.8 2891.13  10
   2   2   8 77921.0 3033.09  28
   2   2   8 74834.2 2875.87  30
   2   2   9 74546.0 2962.81  10
   2   2   9 84102.1 3107.81  28
   2   2   9 75736.9 2917.73  30
   2   2  10 59690.2 2395.65  10
   2   2  10 59616.8 2307.06  30
  -2  -2 -11 31358.1 1118.42  17
   2   2  11 31823.6 1291.12   7
   2   3  -9 9368.54 510.286  12
   2   3  -8 374.206 189.145  12
   2   3  -7 250.488 203.141   8
   2   3  -6 3788.22 459.525  19
   2   3  -6 4325.66 602.625   8
   2   3  -5 2741.95 481.088   8
   2   3  -5 2092.81 392.666  21
   2   3  -4 22774.6 1855.79   1
  -2  -3   3 43855.1 2091.18  32
   2   3  -3 52511.1 2603.32   1
   2   3  -2 14392.7 1115.55   1
  -2  -3   2 16069.8 1090.37  32
  -2  -3   1 18776.8 1082.07  32
   2   3  -1 17926.2 1047.28   1
  -2  -3   0 139631. 3214.72  33
   2   3   0 139535. 3555.67   1
   2   3   0 143132. 3860.16   2
   2   3   0 142978. 3859.02  25
   2   3   1 50169.1 1814.37   2
   2   3   1 48660.1 1847.07  25
  -2  -3  -2 145674. 3516.87  31
  -2  -3  -2 147295. 3531.43  16
  -2  -3  -3 659824. 14086.7  16
  -2  -3  -4 465752. 10641.2  16
  -2  -3  -5 228729. 6262.81  16
  -2  -3  -6 151429. 5016.05  16
   2   3   7 140233. 4166.60  30
   2   3   7 136534. 4128.53  28
  -2  -3  -7 137925. 5030.98  16
   2   3   8 124528. 3947.10  28
   2   3   8 117651. 3883.65  30
   2   3   8 119045. 3965.95  10
   2   3   9 95480.3 3357.50  30
   2   3   9 103730. 3439.02  28
   2   3   9 95129.6 3431.53  10
   2   3  10 93172.1 3088.66  30
   2   3  10 95244.1 3031.53  28
   2   3  10 95678.7 3203.00  10
   2   3  11 71987.4 2315.34  10
   2   4  -8 52841.0 1675.96  12
   2   4  -7 59334.9 2116.75  12
   2   4  -6 96519.1 2847.71  19
   2   4  -5 53884.0 2001.73  19
   2   4  -5 53513.7 2275.62   8
   2   4  -4 24913.9 1443.32   8
   2   4  -4 26163.2 1284.80  19
   2   4  -4 21618.4 1945.68   1
   2   4  -4 26268.2 1352.66  21
   2   4  -3 10864.4 1214.63   1
   2   4  -2 3388.36 572.838   1
   2   4  -1 11796.2 946.387   1
   2   4  -1 11440.3 1065.14   2
  -2  -4   1 10721.0 857.613  32
   2   4   0 54001.3 2049.59   1
   2   4   0 56379.9 2203.61  25
   2   4   0 54294.4 2253.32   2
   2   4   1 4790.99 589.451   2
   2   4   1 5318.39 615.278  25
   2   4   2 5704.67 683.860  25
  -2  -4  -2 7392.63 697.251  31
  -2  -4  -3 25203.5 1306.66  16
   2   4   3 25258.7 1675.26  25
  -2  -4  -4 17302.2 1186.31  16
  -2  -4  -5 53881.2 2485.81  16
  -2  -4  -6 77720.1 3371.85  16
   2   4   7 43829.7 1935.13  28
   2   4   8 77850.3 2907.19  30
   2   4   8 75068.3 2808.55  28
   2   4   8 72969.3 2911.03  10
   2   4   9 76923.1 2897.98  30
   2   4   9 79322.7 2830.13  28
   2   4   9 80121.6 3033.52  10
   2   4  10 57812.2 2225.33  30
   2   4  10 61628.0 2365.53  10
   2   4  10 58206.5 2128.99  28
   2   4  11 50669.8 1725.82  30
   2   4  11 51210.3 1781.66  10
   2   5  -7 86735.0 2435.70  12
   2   5  -6 102119. 3083.15  12
   2   5  -6 100654. 2873.18  19
   2   5  -5 133202. 4586.87  27
   2   5  -5 133056. 3686.49  19
   2   5  -4 101426. 3259.53  20
   2   5  -4 101106. 3110.61  19
   2   5  -3 167854. 4604.81  20
   2   5  -3 165667. 4452.08  19
   2   5  -2 169877. 6320.31   2
   2   5  -2 192571. 5992.16   1
   2   5  -1 96401.5 3561.45   1
   2   5  -1 92810.0 3844.49   2
   2   5   0 71117.1 2764.75  25
   2   5   0 65996.7 2893.57   2
   2   5   1 73725.7 3002.88   2
   2   5   1 76131.1 2924.36  25
   2   5   2 64963.6 2739.11  25
   2   5   3 37785.2 2220.50  25
  -2  -5  -4 45901.4 2202.11  16
   2   5   4 37854.0 2595.64  25
  -2  -5  -5 34988.6 2077.95  16
  -2  -5  -6 659.236 327.749  16
   2   5   6 757.509 259.704  28
   2   5   7 6228.46 682.675  28
   2   5   8 6396.40 689.893  28
   2   5   8 5283.48 675.592  30
   2   5   8 5089.36 692.276  10
   2   5   9 12449.8 1022.82  30
   2   5   9 13205.8 975.442  28
   2   5   9 14178.3 1092.52  10
   2   5  10 17672.3 1075.61  30
   2   5  10 19659.6 1139.82  10
   2   5  10 17789.6 1005.00  28
   2   5  11 10871.2 638.664  30
   2   6  -7 41714.3 1272.20  18
   2   6  -6 75461.8 2381.69  18
   2   6  -6 86249.9 2548.55  27
   2   6  -5 64814.3 2323.15  18
   2   6  -5 65299.4 2724.36  27
   2   6  -5 65060.6 2113.52  19
   2   6  -4 54613.5 2814.61  27
   2   6  -4 60810.4 2143.08  19
   2   6  -3 103666. 4216.95  27
   2   6  -3 114805. 4178.70  26
   2   6  -3 116159. 3719.42  20
   2   6  -3 117576. 3450.39  19
   2   6  -2 162736. 5384.38  27
   2   6  -2 167102. 5409.85  26
   2   6  -2 186030. 4993.55  20
   2   6  -2 181425. 4774.70  19
   2   6  -1 176585. 5303.29  27
   2   6  -1 185762. 6379.03   2
   2   6  -1 185837. 4996.15  20
   2   6  -1 188196. 4886.41  19
   2   6   0 241164. 7280.13   2
   2   6   1 237151. 6705.55  25
   2   6   2 151891. 4987.81  25
   2   6   3 96004.9 3938.09  25
   2   6   4 78484.5 3846.34  25
   2   6   5 134516. 5942.05  25
   2   6   5 130461. 3850.93  28
   2   6   5 126403. 3680.84   4
   2   6   6 89887.4 3055.66  28
   2   6   7 26924.3 1488.92  28
   2   6   8 57108.0 2385.53  30
   2   6   8 54116.7 2222.51  28
   2   6   9 51470.6 2086.35  30
   2   6   9 48714.2 1979.66  28
   2   6  10 8437.06 653.638  30
   2   6  10 8653.04 630.182  28
   2   7  -6 1903.39 214.424  18
   2   7  -5 20073.0 975.376  18
   2   7  -5 20011.6 1098.28  27
   2   7  -5 19386.0 859.573  19
   2   7  -4 21619.5 1166.57  18
   2   7  -4 21196.5 1062.83  19
   2   7  -4 19394.8 1381.43  27
   2   7  -3 16439.7 1085.98  18
   2   7  -3 13076.9 1237.08  27
   2   7  -3 13742.6 1230.31  26
   2   7  -3 14262.8 938.246  19
   2   7  -2 44527.5 1936.25  18
   2   7  -2 39904.6 2225.38  27
   2   7  -2 40267.9 2287.38  26
   2   7  -2 43672.9 2049.86  20
   2   7  -2 41446.1 1805.64  19
   2   7  -1 53384.9 2119.56  18
   2   7  -1 54624.1 2294.26  15
   2   7  -1 50224.2 2410.94  27
   2   7  -1 47960.4 2450.08  26
   2   7  -1 53208.0 2277.97  20
   2   7  -1 52844.7 2107.46  19
   2   7   0 76559.6 2587.36   5
   2   7   0 71475.4 2797.84  27
   2   7   0 68992.5 2870.03  26
   2   7   0 72907.6 2914.07  15
   2   7   0 72400.4 2713.79  20
   2   7   0 71213.5 2564.84  19
   2   7   1 150642. 4511.42  26
   2   7   1 143870. 4690.62  15
   2   7   1 151940. 4379.62  20
   2   7   1 148801. 4205.28  19
   2   7   2 162745. 4595.46  26
   2   7   2 161490. 4370.85   4
   2   7   2 156899. 4481.44  20
   2   7   2 152948. 4314.78  19
   2   7   2 161049. 4873.71  15
   2   7   3 132145. 3868.70  26
   2   7   3 125384. 4031.06  15
   2   7   3 127252. 3685.01   4
   2   7   4 87207.9 3018.75  15
   2   7   4 93509.9 2996.94  26
   2   7   4 85787.8 3035.75  28
   2   7   4 90802.3 2873.51   4
   2   7   5 76765.6 2571.22   4
   2   7   5 72292.2 2737.83  28
   2   7   6 124717. 3897.53  28
   2   7   7 136522. 4120.69  28
   2   7   8 75685.4 2656.83  28
   2   7   9 36991.1 1551.09  28
   2   7  10 33450.1 1219.41  28
   2   8  -4 2931.30 331.242  18
   2   8  -3 4808.77 496.434  18
   2   8  -3 4344.74 558.338  26
   2   8  -3 5064.38 479.502  19
   2   8  -2 243.320 184.718  19
   2   8  -2 183.496 146.554  18
   2   8  -2 227.204 223.831  26
   2   8  -1 8299.45 724.770  18
   2   8  -1 8271.88 942.051  26
   2   8  -1 8785.31 770.226  19
   2   8   0 2352.79 443.284  19
   2   8   0 1760.66 452.413  26
   2   8   0 1605.52 451.407  15
   2   8   1 3342.17 686.633  15
   2   8   1 2575.86 456.207   5
   2   8   1 2988.33 524.434  26
   2   8   2 9857.19 1064.60  15
   2   8   2 11753.2 966.907  26
   2   8   2 11991.3 884.402   4
   2   8   3 13680.5 1176.36  15
   2   8   3 15309.3 1081.55  26
   2   8   3 14895.3 977.005   4
   2   8   4 39661.9 1668.20   4
   2   8   5 64114.2 2553.67  28
   2   8   6 64186.3 2482.49  28
   2   8   7 52243.2 2074.65  28
   2   8   8 55017.5 1997.89  28
   2   8   9 48758.5 1462.65  29
   2   8   9 52930.5 1684.13  28
   2   9  -3 25418.4 960.173   4
   2   9  -2 28474.3 1220.17   4
   2   9  -2 26003.8 1239.86  26
   2   9  -1 21471.8 1251.04  26
   2   9  -1 20365.6 1094.49   4
   2   9   0 5301.49 634.008  26
   2   9   0 5350.83 548.267   4
   2   9   1 4763.95 527.397   5
   2   9   1 4333.06 565.972  26
   2   9   1 4474.73 485.672   4
   2   9   2 13841.0 1069.49   5
   2   9   2 15331.7 1038.06  26
   2   9   2 15472.2 918.517   4
   2   9   3 23571.6 1309.78  29
   2   9   3 21611.0 1093.42   4
   2   9   3 22966.9 1232.15  26
   2   9   3 21304.2 1498.27   5
   2   9   4 2456.95 358.923   4
   2   9   4 2305.21 454.508  29
   2   9   5 2887.74 519.999  29
   2   9   6 4306.94 586.490  29
   2   9   6 3163.01 460.986   5
   2   9   6 3404.13 448.299  28
   2   9   7 4525.60 457.544  28
   2   9   7 4940.67 519.454  29
   2   9   7 4452.70 419.972   5
   2   9   8 4779.77 388.026  29
   2   9   8 4902.75 396.489  28
   2  10   0 56890.1 1664.58   4
   2  10   0 59715.9 1826.60  26
   2  10   1 66801.6 2070.31  26
   2  10   1 66201.1 1892.38   4
   2  10   2 31132.7 1216.82   5
   2  10   2 30575.9 1111.81   4
   2  10   3 31201.3 1365.56   5
   2  10   3 29597.5 1065.66   4
   2  10   4 41601.1 1655.17   5
   2  10   4 36995.7 1317.41  29
   2  10   5 16715.3 929.311   5
   2  10   5 16998.1 843.596  29
   2  10   6 18967.4 842.894   5
   2  10   6 19434.6 848.098  29
  -3   8   3 28232.6 910.631  28
  -3   8   2 40162.1 1214.41  28
  -3   8   1 43697.6 1281.93  15
  -3   8   1 43394.1 1287.58  28
  -3   8   0 52461.5 1467.20  15
   3  -7  -5 1116.46 282.906   8
  -3   7   5 1024.56 163.149  28
   3  -7  -4 366.803 239.366   8
  -3   7   4 333.932 126.568  28
  -3   7   3 1425.43 247.263  28
  -3   7   2 5845.23 485.015  15
  -3   7   1 12476.7 778.357  15
  -3   7   0 22182.1 1088.14  15
  -3   7  -1 41962.8 1546.15  15
  -3   7  -2 38923.2 1369.08  15
  -3   7  -3 30271.1 983.296  15
  -3   7  -3 28206.5 904.360  26
   3  -6  -7 19315.5 874.973   8
   3  -6  -6 17320.2 1009.00   8
  -3   6   6 17990.8 754.785  28
   3  -6  -5 27105.6 1468.57   8
  -3   6   5 29609.2 1177.71  28
  -3   6   4 42550.2 1623.97  28
  -3   6   3 30319.3 1309.34  11
  -3   6   2 14784.4 917.750  15
  -3   6   2 13773.5 861.514  11
  -3   6   1 7425.47 627.114  11
  -3   6   0 13599.9 984.147  14
  -3   6  -1 1832.57 374.669  14
  -3   6  -2 1847.85 357.624  14
  -3   6  -2 1579.27 262.315  26
  -3   6  -3 1733.11 301.211  15
  -3   6  -3 1590.94 293.455  14
  -3   6  -3 2329.09 308.479  26
  -3   6  -4 9341.46 613.919  14
  -3   6  -4 10463.8 620.074  26
  -3   6  -5 8569.52 494.108  26
   3  -5  -8 44946.3 1431.74   8
   3  -5  -7 72405.3 2386.02   8
   3  -5  -6 73079.6 2657.55   8
  -3   5   6 71929.2 2127.03  28
  -3   5   6 73848.1 2222.51  13
   3  -5  -5 70290.1 2783.89   8
  -3   5   5 72694.3 2296.83  28
  -3   5   5 69244.1 2242.38  13
  -3   5   4 70044.2 2375.38  28
  -3   5   3 69608.6 2422.22  11
  -3   5   2 156954. 4303.67  11
  -3   5   1 118127. 3644.16  14
  -3   5   0 35565.5 1715.57  14
  -3   5  -1 55550.7 2232.58  14
  -3   5  -2 84580.2 2927.39  14
  -3   5  -3 73443.0 2625.96  14
  -3   5  -3 75124.6 2464.59  17
  -3   5  -4 31329.0 1466.92  14
  -3   5  -4 32525.4 1395.15  17
  -3   5  -5 6951.58 549.955  17
  -3   5  -5 7282.75 578.403  14
  -3   5  -5 6782.85 497.233  27
  -3   5  -6 1417.29 193.680  27
  -3   5  -6 1745.84 233.921  17
  -3   5  -7 277.587 92.2120  26
   3  -4  -8 17243.2 926.123   8
  -3   4   7 32133.0 1342.32  13
   3  -4  -7 31090.4 1563.54   8
   3  -4  -6 39435.2 1975.69   8
  -3   4   6 42544.7 1711.98  13
   3  -4  -5 63445.0 2727.05   8
  -3   4   5 67662.9 2233.96  28
  -3   4   5 63543.5 2302.34  13
  -3   4   4 182281. 4873.20  13
  -3   4   4 190454. 5007.48  11
  -3   4   3 160726. 4379.10  13
  -3   4   3 168278. 4526.06  11
  -3   4   2 74854.5 2629.95  14
  -3   4   2 77116.5 2580.93  11
  -3   4   1 173835. 4749.31  14
   3  -4  -1 182894. 7561.33  31
   3  -4   0 170126. 7147.40  31
  -3   4   0 168784. 4610.06  14
   3  -4   1 95430.0 4959.24  31
  -3   4  -1 93864.3 3054.70  14
  -3   4  -2 123342. 3537.59  17
  -3   4  -3 185154. 4861.65  17
  -3   4  -4 159320. 4154.64  18
  -3   4  -4 162277. 4363.13  17
  -3   4  -5 93144.2 2717.96  18
  -3   4  -5 94547.0 2898.73  17
  -3   4  -6 72187.2 2297.55  17
  -3   4  -7 44512.3 1513.44  17
  -3   4  -8 21560.5 787.101  17
  -3   4  -8 23041.2 794.123  27
   3  -3  -9 809.676 170.051   8
   3  -3  -8 138.749 180.825   8
  -3   3   7 1946.57 342.699  13
   3  -3  -7 1986.03 446.450   8
   3  -3  -6 1209.44 375.457   8
  -3   3   6 745.449 251.089  13
   3  -3  -5 2649.82 547.628   8
  -3   3   5 3851.21 499.871  13
  -3   3   4 24661.4 1302.97  13
  -3   3   4 24934.8 1344.87  11
   3  -3  -3 122144. 5838.87  31
   3  -3  -2 86096.5 4730.04  31
   3  -3  -1 58124.8 3701.48  31
   3  -3   0 110191. 5118.96  31
   3  -3   1 131702. 5470.34  31
   3  -3   2 169255. 6250.51  31
   3  -3   3 154694. 5816.96  31
  -3   3  -4 129512. 3705.21  17
  -3   3  -5 76137.0 2591.09  17
  -3   3  -6 96228.6 3001.23  17
  -3   3  -7 146900. 3953.25  17
  -3   3  -8 99039.6 2715.59  17
  -3   3  -9 60723.7 1625.08  17
   3  -2  -9 32465.9 1236.70   8
  -3   2   9 32199.4 1071.33  30
   3  -2  -8 52756.4 2029.35   8
   3  -2  -7 30841.3 1663.49   8
  -3   2   7 29415.8 1463.48  13
   3  -2  -6 25683.3 1589.25   8
  -3   2   6 25583.5 1380.57  13
   3  -2  -5 21328.8 1435.21   8
  -3   2   5 21655.9 1232.14  13
   3  -2  -4 20933.3 1706.71  16
  -3   2   4 26860.8 1879.85  32
  -3   2   3 13538.6 1234.89  32
   3  -2  -3 13331.5 1675.84  31
   3  -2  -2 16938.6 1840.72  31
  -3   2   2 17149.0 1290.16  32
   3  -2  -1 26912.9 2256.96  31
   3  -2   0 5972.62 1007.32  31
   3  -2   1 39596.9 2477.97  31
  -3   2  -1 41272.3 1996.09  33
  -3   2  -2 106418. 3596.67  33
   3  -2   2 95328.9 3944.77  31
   3  -2   3 43893.7 2446.71  31
  -3   2  -3 46540.7 1999.58   1
  -3   2  -3 47420.8 2191.50  33
  -3   2  -4 30065.4 1659.93   1
  -3   2  -5 77713.9 3070.35   1
   3  -2   5 72826.3 3054.89   7
  -3   2  -5 73719.5 2519.29  17
  -3   2  -6 52743.5 2073.78  17
   3  -2   6 50763.2 2493.55   7
   3  -2   7 34050.6 1968.15   7
  -3   2  -7 35173.4 1609.10  17
  -3   2  -8 62119.4 2152.35  17
  -3   2  -9 76271.2 2213.08  17
   3  -1  -9 64690.7 1994.11   8
   3  -1  -8 107677. 3291.59   8
   3  -1  -7 112492. 3636.51   8
  -3   1   7 107660. 3375.63  13
  -3   1   6 106015. 3342.65  13
   3  -1  -6 106582. 3643.98   8
   3  -1  -6 105130. 3378.46  21
   3  -1  -5 66401.6 2704.40   8
  -3   1   5 67927.0 2427.95  13
   3  -1  -5 70688.9 2529.42  21
  -3   1   4 83170.5 3558.96  32
  -3   1   3 157398. 5049.63  32
  -3   1   2 208861. 5838.42  32
   3  -1  -2 209507. 7006.57  31
  -3   1   1 224671. 5834.72  32
   3  -1  -1 222975. 7170.87  31
   3  -1   0 82700.5 3655.15  31
  -3   1   0 83726.5 2956.84  33
  -3   1   0 83516.7 2666.73  32
  -3   1  -1 167222. 4185.29  32
   3  -1   1 162592. 5356.81  31
  -3   1  -1 174069. 4781.59  33
   3  -1   2 127202. 4266.63  31
  -3   1  -2 138631. 4077.45  33
  -3   1  -2 134436. 3566.89   1
  -3   1  -3 4143.88 478.820   1
  -3   1  -3 3937.28 563.300  33
  -3   1  -4 2051.21 410.995  33
  -3   1  -4 1935.31 372.720   1
  -3   1  -5 13749.0 1096.89   1
  -3   1  -6 2380.32 403.977  17
   3  -1   6 2907.38 542.062   7
   3  -1   7 8782.87 943.384   7
  -3   1  -7 8026.70 755.381  17
   3  -1   8 1535.76 441.937   7
  -3   1  -8 2649.77 417.855  17
  -3   1  -9 6175.53 559.040  17
   3  -1   9 4807.85 651.776   7
  -3   1 -10 18019.1 798.290  17
   3   0  -9 39570.1 1436.99   8
  -3   0   9 41883.7 1386.85  10
   3   0  -8 86515.1 2819.84   8
   3   0  -7 82957.0 2955.71   8
   3   0  -7 81026.0 2798.52  21
  -3   0   6 118377. 3647.36  13
   3   0  -6 117881. 3693.54  21
   3   0  -6 117468. 3871.62   8
   3   0  -5 152598. 4661.91   8
  -3   0   5 154394. 4342.37  13
   3   0  -5 164380. 4474.23  21
  -3   0   4 136491. 4867.42  32
  -3   0   3 265527. 7309.16  32
  -3   0   2 289447. 7396.46  32
  -3   0   1 262259. 6598.60  32
   3   0  -1 258441. 7533.26  31
  -3   0   1 272937. 6696.83  33
  -3   0   0 317222. 7416.13  32
   3   0   0 301115. 8389.30  31
  -3   0  -1 158074. 4357.95  33
  -3   0  -1 163180. 4013.53  32
  -3   0  -2 351346. 7570.07   1
   3   0   2 336469. 8350.01  31
  -3   0  -2 359067. 8274.33  33
  -3   0  -3 369090. 8127.23   1
  -3   0  -3 362519. 8673.88  33
  -3   0  -4 185220. 5145.40  33
  -3   0  -4 187078. 4780.80   1
  -3   0  -5 171697. 5051.66  33
  -3   0  -5 178634. 4867.89   1
  -3   0  -6 92392.3 3389.56  33
   3   0   7 36606.7 1976.32  10
  -3   0  -8 18903.9 1176.56  17
   3   0   8 21711.0 1474.21   7
  -3   0  -9 13757.2 906.456  17
   3   0   9 12728.1 1082.11   7
  -3   0 -10 2561.99 333.970  17
   3   0  10 2279.56 408.877   7
   3   1  -9 791.763 196.282   8
   3   1  -9 694.548 157.969  12
   3   1  -8 7497.31 680.658   8
   3   1  -7 1562.01 379.634   8
   3   1  -7 1851.70 395.490  21
   3   1  -6 5018.42 651.712   8
  -3  -1   6 4417.05 574.788  13
   3   1  -6 4622.38 598.755  21
   3   1  -5 121447. 3854.71   8
  -3  -1   5 114508. 3553.25  13
   3   1  -5 121333. 4064.24  22
   3   1  -5 118695. 3628.43  21
  -3  -1   4 114577. 4376.55  32
  -3  -1   3 47844.3 2371.67  32
  -3  -1   2 235807. 6355.94  32
  -3  -1   1 374326. 8665.75  33
  -3  -1   1 376657. 8854.69  32
  -3  -1   0 298385. 7112.97  33
  -3  -1   0 301191. 7036.03  32
  -3  -1  -1 265762. 6343.10  33
  -3  -1  -2 268338. 6281.48  33
   3   1   2 250166. 5612.08  25
   3   1   3 195295. 4716.41  25
  -3  -1  -3 203899. 5245.66  33
  -3  -1  -3 203919. 4567.18   1
  -3  -1  -4 164066. 4611.47  33
  -3  -1  -4 162111. 4139.78   1
  -3  -1  -5 361811. 8468.57   1
  -3  -1  -5 358741. 8849.29  33
  -3  -1  -6 353586. 8970.84  33
   3   1   7 185839. 5245.76  30
   3   1   7 183876. 5459.20  28
   3   1   7 180582. 5366.27  10
   3   1   8 89495.2 3510.30  28
   3   1   8 86840.1 3379.17  10
   3   1   8 87431.1 3247.28  30
   3   1   9 54215.4 2472.16  10
   3   1  10 79152.7 2771.27   7
  -3  -1 -10 78707.0 2389.08  17
  -3  -1 -11 56557.6 1559.89  17
   3   2  -8 10436.8 747.242   8
   3   2  -7 1312.53 324.913   8
   3   2  -6 26133.8 1528.90   8
   3   2  -6 25149.2 1414.59  21
   3   2  -5 42634.3 2075.30  22
   3   2  -5 43580.2 2052.47   8
   3   2  -5 47005.0 1976.94  21
  -3  -2   4 1286.92 411.444  32
  -3  -2   3 2345.94 505.815  32
  -3  -2   2 17681.1 1271.00  32
  -3  -2   1 53804.5 2165.52  32
   3   2  -1 53968.3 1832.45   2
  -3  -2   1 51931.5 1868.28  33
  -3  -2   0 96266.0 2996.92  32
  -3  -2   0 100860. 2924.95  33
   3   2   0 100356. 2758.36   2
   3   2   1 79690.5 2420.19  25
  -3  -2  -1 80687.4 2479.93  33
   3   2   2 59924.7 1990.75  25
  -3  -2  -2 60224.2 2092.39  33
  -3  -2  -3 155226. 4226.39  33
   3   2   3 150862. 4159.97  25
  -3  -2  -4 145691. 4235.34  33
  -3  -2  -5 138122. 4277.36  33
  -3  -2  -6 151131. 4812.88  33
  -3  -2  -7 95144.1 3758.08  33
   3   2   7 97067.2 3311.21  30
   3   2   7 95767.7 3354.22  28
   3   2   7 95895.6 3375.90  10
   3   2   8 132222. 4233.91  30
   3   2   8 135276. 4386.01  28
   3   2   8 132827. 4360.50  10
   3   2   9 129526. 4193.36  30
   3   2   9 140198. 4455.62  28
   3   2   9 131107. 4325.84  10
  -3  -2 -10 67885.4 2170.71  17
  -3  -2 -11 76309.7 2020.86  17
   3   2  11 79409.6 2359.71   7
   3   3  -8 55717.4 1808.32  12
   3   3  -7 58996.6 1920.13  19
   3   3  -7 60912.4 2252.84   8
   3   3  -6 47898.9 2131.77   8
   3   3  -6 47733.4 2036.02  21
   3   3  -5 64904.5 2610.71   8
   3   3  -5 63330.3 2441.57  21
  -3  -3   4 100096. 4129.68  32
   3   3  -4 115200. 3447.79  21
  -3  -3   3 142802. 4778.83  32
  -3  -3   2 47233.8 2294.56  32
   3   3  -2 53744.9 2377.87   2
  -3  -3   1 15294.1 1126.40  32
   3   3  -1 15156.7 1043.98   2
  -3  -3   0 59135.4 2252.83  32
   3   3   0 61856.0 2202.06   2
  -3  -3   0 61244.8 1968.85  33
   3   3   1 44207.7 1802.51  25
  -3  -3  -1 42043.9 1592.68  33
   3   3   2 32955.5 1556.48  25
  -3  -3  -2 32427.7 1427.13  33
  -3  -3  -3 2447.99 325.736  16
   3   3   3 2004.22 418.767  25
  -3  -3  -4 53973.1 2080.31  16
  -3  -3  -5 44211.7 2069.17  16
  -3  -3  -6 21871.9 1549.39  16
   3   3   7 6823.26 735.731  30
   3   3   7 6164.68 741.147  10
   3   3   7 7056.99 740.593  28
   3   3   8 4041.35 589.516  30
   3   3   8 3767.38 583.625  28
   3   3   8 5137.04 703.840  10
   3   3   9 40182.9 1968.23  30
   3   3   9 40364.4 1985.45  28
   3   3   9 38629.2 2033.37  10
   3   3  10 67423.8 2498.31  30
   3   3  10 67512.1 2492.73  28
   3   3  10 65650.0 2575.48  10
   3   3  11 41144.6 1561.25   7
   3   4  -8 44045.6 1358.47  12
   3   4  -7 72664.0 2052.39  19
   3   4  -6 137020. 3739.65  19
   3   4  -5 154079. 4676.08   8
   3   4  -5 159343. 4380.79  19
   3   4  -5 158620. 4517.45  21
   3   4  -4 98105.7 3182.99  21
   3   4  -3 95896.5 4399.60   2
  -3  -4   2 129478. 4412.07  32
   3   4  -2 136299. 4882.41   2
  -3  -4   1 124685. 4113.38  32
   3   4  -1 130698. 4310.81   2
   3   4   0 351211. 8599.57   2
  -3  -4   0 339728. 8439.00  32
   3   4   1 369210. 8979.83  25
   3   4   2 103445. 3470.26  25
  -3  -4  -2 97497.2 3026.23  33
   3   4   3 97486.0 3605.66  25
  -3  -4  -4 157905. 4296.03  16
   3   4   4 139873. 5196.56  25
  -3  -4  -5 42435.3 2040.98  16
  -3  -4  -6 5077.61 751.265  16
   3   4   7 7623.18 782.442  30
   3   4   7 8055.45 791.661  28
   3   4   7 7886.27 850.262  10
   3   4   8 12215.1 1031.48  30
   3   4   8 12644.3 1033.58  28
   3   4   8 10723.1 1033.08  10
   3   4   9 587.936 271.445  30
   3   4   9 489.644 252.942  28
   3   4   9 710.200 331.460  10
   3   4  10 375.400 217.997  30
   3   4  10 394.934 220.685  28
   3   4  10-279.796 244.398  10
   3   4  11 177.678 164.925   7
   3   5  -7 19828.4 858.262  12
   3   5  -6 63741.9 2017.95  19
   3   5  -5 96908.7 2988.81  19
   3   5  -4 88707.1 2943.87  19
   3   5  -3 74757.2 2688.38  19
   3   5  -3 79164.3 3052.35  27
   3   5  -3 76007.8 2655.75  20
   3   5  -2 135704. 5499.09   2
   3   5  -1 136676. 5052.19   2
   3   5   0 110087. 4065.65   2
  -3  -5   0 98942.8 3627.54  32
   3   5   1 311863. 8207.33  25
   3   5   2 309522. 8243.65  25
   3   5   3 106665. 4121.79  25
   3   5   4 108639. 4655.02  25
   3   5   5 194262. 7514.08  25
   3   5   6 204994. 5232.75  28
   3   5   6 157735. 7612.46  25
   3   5   7 82640.2 3055.55  30
   3   5   7 91208.6 3062.45  28
   3   5   8 58220.3 2483.46  30
   3   5   8 63173.7 2477.40  28
   3   5   9 43985.8 2046.49  30
   3   5   9 45373.8 1994.19  28
   3   5   9 47791.2 2228.68  10
   3   5  10 17028.7 1075.45  30
   3   5  10 17698.3 1040.97  28
   3   5  10 17758.1 1141.44  10
   3   5  11 19199.6 875.502  28
   3   6  -6 1245.63 197.026  19
   3   6  -6 1029.11 230.960  18
   3   6  -5 860.441 211.980  19
   3   6  -4 2348.53 387.231  19
   3   6  -4 2240.28 478.926  27
   3   6  -4 2502.82 434.304  20
   3   6  -3 13442.3 1243.09  27
   3   6  -3 12977.1 997.894  20
   3   6  -3 13285.6 970.019  19
   3   6  -2 24111.4 1644.47  27
   3   6  -2 24402.9 1407.09  20
   3   6  -2 26605.2 1432.75  19
   3   6  -1 71590.4 2878.66  27
   3   6  -1 76792.1 2666.06  19
   3   6   0 86316.0 3970.20   2
   3   6   1 74422.7 3298.53  25
   3   6   2 81440.5 3515.93  25
   3   6   3 80903.2 3714.47  25
   3   6   4 102018. 4680.26  25
   3   6   5 101267. 3144.36  28
   3   6   5 95290.3 3117.25   4
   3   6   6 104949. 3373.22  28
   3   6   7 130405. 3999.89  28
   3   6   8 109919. 3564.84  28
   3   6   9 110687. 3436.72  28
   3   6   9 110514. 3513.15  30
   3   6  10 72135.2 2353.85  30
   3   6  10 70731.2 2306.35  28
   3   7  -5 18656.1 921.001  18
   3   7  -5 19429.4 848.395  19
   3   7  -4 27836.9 1369.54  18
   3   7  -4 29195.4 1282.83  19
   3   7  -3 27304.8 1486.32  18
   3   7  -3 27147.3 1785.65  27
   3   7  -3 27718.1 1505.47  20
   3   7  -3 28135.4 1386.09  19
   3   7  -2 9971.52 1093.16  27
   3   7  -2 9676.81 883.665  20
   3   7  -2 9691.40 830.137  19
   3   7  -1 1299.37 317.514  19
   3   7  -1 1116.37 391.601  27
   3   7  -1 1437.09 386.815  26
   3   7  -1 1173.52 324.266  20
   3   7   0 426.816 236.461  19
   3   7   0-191.384 241.434  26
   3   7   0 183.128 169.277  20
   3   7   1 1807.36 348.337  19
   3   7   1 1850.92 391.404   5
   3   7   1 1943.83 405.463  26
   3   7   1 1384.96 329.488  20
   3   7   2 14455.7 1097.15   5
   3   7   2 14565.7 1057.10  26
   3   7   2 14243.3 1014.53   4
   3   7   2 14348.9 1001.26  20
   3   7   2 13304.2 925.445  19
   3   7   2 14763.1 1069.43  29
   3   7   3 10339.9 956.538  29
   3   7   3 10979.8 909.566  26
   3   7   3 11240.8 883.943   4
   3   7   4 15878.7 1067.19   4
   3   7   5 21268.8 1276.39   4
   3   7   6 12534.4 993.646  28
   3   7   7 42825.1 1962.93  28
   3   7   8 62494.1 2247.77  29
   3   7   8 64398.0 2431.48  28
   3   7   9 35157.5 1566.48  28
   3   7  10 38018.1 1414.70  28
   3   8  -4 60049.1 1815.19  18
   3   8  -4 64497.3 1924.78   4
   3   8  -4 62383.6 1820.79  19
   3   8  -3 54259.0 1870.63  19
   3   8  -2 63104.2 2501.19  26
   3   8  -2 62541.3 2240.54  19
   3   8  -1 70911.4 2957.99  26
   3   8  -1 73584.1 2802.58  20
   3   8  -1 78175.4 2659.56  19
   3   8   0 46675.7 1928.05   5
   3   8   0 46598.7 2275.19  26
   3   8   0 44470.9 2076.00  20
   3   8   0 47365.9 2001.88  19
   3   8   1 33252.4 1728.41   5
   3   8   1 31853.6 1792.10  26
   3   8   1 31900.6 1683.12   4
   3   8   1 31854.7 1700.45  20
   3   8   1 34759.7 1644.54  19
   3   8   2 23496.9 1550.37   5
   3   8   2 25369.6 1516.08  26
   3   8   2 25344.3 1432.55   4
   3   8   2 25223.9 1456.63  29
   3   8   2 25405.8 1471.91  20
   3   8   2 24370.1 1332.12  19
   3   8   3 25354.2 1683.98   5
   3   8   3 26371.7 1664.33  29
   3   8   3 27183.9 1461.79   4
   3   8   3 27265.2 1541.31  26
   3   8   4 20676.6 1556.58  29
   3   8   4 21205.6 1250.33   4
   3   8   4 18328.5 1431.84   5
   3   8   5-29.3523 299.192   5
   3   8   5-184.864 367.934  29
   3   8   6 134.954 265.374  29
   3   8   6-123.808 256.368   5
   3   8   6 452.605 194.354  28
   3   8   7 1786.46 410.201  29
   3   8   7 1946.11 344.073   5
   3   8   7 1947.64 389.479  28
   3   8   8 1861.19 329.846  29
   3   8   8 2002.08 371.682  28
   3   8   9 5025.83 391.435  29
   3   8   9 5121.84 482.045  28
   3   9  -2 48507.1 1831.28   4
   3   9  -1 64255.6 2433.15  26
   3   9  -1 65498.5 2410.92   4
   3   9   0 75949.1 2873.63  26
   3   9   0 77136.8 2729.27   4
   3   9   1 55580.1 2172.78   5
   3   9   1 58733.3 2424.92  26
   3   9   1 58194.5 2254.58   4
   3   9   2 63663.7 2648.19   5
   3   9   2 65526.7 2561.55  26
   3   9   2 67279.8 2404.84   4
   3   9   3 79223.1 3228.36   5
   3   9   3 82121.2 2968.04  29
   3   9   3 82150.6 2710.04   4
   3   9   4 99471.0 3660.09  29
   3   9   4 95771.2 3719.54   5
   3   9   4 102010. 3074.91   4
   3   9   5 71350.4 3008.62  29
   3   9   5 70555.4 2893.97   5
   3   9   6 22351.4 1306.45   5
   3   9   6 20982.3 1425.39  29
   3   9   7 12596.8 780.886   5
   3   9   7 13353.1 943.385  29
   3   9   7 12625.2 838.423  28
   3   9   8 17133.6 852.003  29
   3   9   8 15663.6 816.170  28
   3  10   0 29107.5 1180.42   4
   3  10   1 53254.9 1795.56   4
   3  10   2 51328.4 1834.87   5
   3  10   2 50942.9 1748.77   4
   3  10   3 59348.8 2260.03   5
   3  10   3 58884.6 1897.44   4
   3  10   4 73008.3 2640.91   5
   3  10   4 71238.4 2309.76  29
   3  10   5 62335.5 2276.29   5
   3  10   5 63313.2 2191.31  29
   3  10   6 55142.5 1848.93   5
   3  10   6 56894.3 1928.61  29
   3  10   7 75123.6 2078.68  29
   4  -7  -3 36817.7 1322.77   8
  -4   7   3 33699.1 1022.29  28
  -4   7   2 21541.4 811.890  28
  -4   7   1 13048.6 583.090  15
  -4   7   1 12822.5 613.871  28
  -4   7   0 2830.35 267.012  15
  -4   7  -1 2561.84 247.622  15
   4  -6  -5 53037.2 1761.28   8
   4  -6  -4 66204.9 2189.32   8
  -4   6   4 59500.1 1708.48  28
  -4   6   3 73935.3 2117.25  28
  -4   6   2 74062.7 2130.79  15
  -4   6   2 77165.1 2210.27  11
  -4   6   1 92964.1 2608.29  15
  -4   6   1 89311.5 2552.68  11
  -4   6   0 63954.6 2029.05  15
  -4   6   0 60106.4 1933.70  11
  -4   6  -1 40441.7 1585.48  14
  -4   6  -1 39233.0 1439.60  11
  -4   6  -2 48519.3 1619.92  15
  -4   6  -2 48505.9 1697.64  14
  -4   6  -3 38066.9 1260.33  15
  -4   6  -3 36957.6 1319.71  14
  -4   6  -4 15242.6 640.183  14
   4  -5  -6 12611.0 783.180   8
   4  -5  -5 23648.9 1291.04   8
  -4   5   5 21947.3 911.322  13
  -4   5   4 34821.4 1311.70  28
   4  -5  -4 37668.2 1803.22   8
  -4   5   3 46401.8 1734.72  11
  -4   5   2 48074.5 1818.20  11
  -4   5   1 92276.7 2959.69  14
  -4   5   1 96160.9 2909.78  11
  -4   5   0 114844. 3472.20  14
  -4   5  -1 86975.7 2877.02  14
  -4   5  -2 99244.7 3087.97  14
  -4   5  -3 95655.1 2920.49  14
  -4   5  -4 89983.0 2446.96  26
  -4   5  -4 94341.4 2705.10  14
  -4   5  -5 76788.4 2060.27  26
  -4   5  -5 78612.6 2174.33  14
  -4   5  -6 32377.3 973.016  26
   4  -4  -7 1043.83 235.455   8
   4  -4  -6 1642.32 376.616   8
  -4   4   6 1666.70 259.859  13
  -4   4   5 117.370 126.938  13
   4  -4  -5 280.782 298.650   8
  -4   4   4 5475.74 496.525  28
  -4   4   4 5808.75 553.145  13
  -4   4   3 18249.3 1033.62  13
  -4   4   3 18120.4 1081.02  11
  -4   4   2 4594.52 540.796  11
  -4   4   1 4945.91 568.669  14
  -4   4   0 49782.4 2013.77  14
   4  -4   1 30271.7 2074.72   7
  -4   4  -1 30349.1 1507.87  14
   4  -4   2 34144.5 2177.12   7
  -4   4  -2 33422.3 1614.26  14
  -4   4  -3 96063.8 2938.24  17
  -4   4  -3 95735.0 3073.70  14
  -4   4  -4 90709.1 2792.47  17
  -4   4  -5 82960.5 2544.20  17
  -4   4  -5 84362.0 2598.72  14
  -4   4  -6 81263.6 2352.30  14
  -4   4  -6 84829.9 2383.40  17
  -4   4  -7 53966.9 1558.33  17
   4  -3  -8 36778.1 1256.56   8
   4  -3  -7 34345.9 1519.50   8
  -4   3   7 37363.0 1362.73  13
   4  -3  -6 50390.1 2184.11   8
  -4   3   6 51601.1 1862.21  13
   4  -3  -5 54314.2 2445.19   8
  -4   3   5 55648.6 2043.55  13
   4  -3  -4 48763.3 2382.84   8
  -4   3   4 52339.1 1993.07  13
  -4   3   3 25161.8 1288.24  13
  -4   3   3 23402.4 1296.11  11
  -4   3   2 3917.80 484.679  14
  -4   3   2 2811.88 430.774  11
  -4   3   1 3648.35 467.937  14
   4  -3   0 30427.8 2784.85  31
   4  -3   0 32638.5 2035.44   7
  -4   3   0 32709.8 1496.14  14
   4  -3   1 7427.49 1336.38  31
   4  -3   1 8229.21 1022.73   7
  -4   3  -1 8168.87 717.195  14
   4  -3   2-210.764 295.304   7
  -4   3  -2 112.115 142.671  17
  -4   3  -3 9661.02 775.094  17
   4  -3   3 10952.3 1188.32   7
   4  -3   4 11681.8 1224.64   7
  -4   3  -4 13228.2 915.886  17
  -4   3  -5 8675.68 728.713  17
   4  -3   5 7700.43 941.921   7
  -4   3  -6 15639.2 940.416  17
  -4   3  -7 18595.4 943.547  17
  -4   3  -8 29554.0 1066.62  17
   4  -2  -8 50423.3 1686.64   8
   4  -2  -7 66904.4 2435.51   8
  -4   2   7 69449.0 2209.10  13
   4  -2  -6 100939. 3529.81   8
  -4   2   6 109204. 3203.56  13
   4  -2  -5 130310. 4360.71   8
  -4   2   5 139068. 3924.36  13
   4  -2  -4 67823.4 2874.85   8
  -4   2   4 72708.3 2527.90  13
  -4   2   3 115118. 3498.19  11
   4  -2  -2 247879. 8976.49  31
   4  -2  -1 136833. 6109.38  31
   4  -2   0 89412.2 4684.29  31
  -4   2  -1 84105.3 3380.80  33
   4  -2   1 92980.5 4575.33  31
  -4   2  -2 78573.2 3233.78  33
  -4   2  -3 25739.9 1712.58  33
  -4   2  -4 21233.8 1157.17  17
   4  -2   4 21426.1 1585.49   7
  -4   2  -5 32657.5 1525.48  17
   4  -2   5 35820.8 2083.87   7
  -4   2  -6 10882.6 836.441  17
   4  -2   6 10899.3 1099.06   7
  -4   2  -7 5780.22 579.299  17
   4  -2   7 4746.48 707.038   7
  -4   2  -8 3128.37 378.466  17
   4  -2   8 2408.13 453.050   7
  -4   2  -9 789.209 159.764  17
   4  -1  -8 16065.3 876.100   8
   4  -1  -7 48481.0 2006.08   8
  -4   1   7 49780.5 1827.33  13
  -4   1   6 64680.5 2277.49  13
   4  -1  -6 60187.1 2510.90   8
   4  -1  -6 56775.4 2215.12  21
   4  -1  -5 83421.1 3186.63   8
  -4   1   5 83536.2 2802.40  13
   4  -1  -5 81104.9 2861.42  21
  -4   1   4 67096.2 2384.20  13
   4  -1  -4 61236.5 2686.64   8
  -4   1   3 64402.2 2955.64  32
  -4   1   2 200707. 5902.15  32
  -4   1   1 346696. 8664.75  32
   4  -1  -1 361158. 10854.1  31
  -4   1   0 381102. 9529.22  33
   4  -1   0 383614. 11286.6  31
  -4   1  -1 292373. 7714.77  33
  -4   1  -2 208471. 6011.77  33
  -4   1  -3 126799. 4275.55  33
  -4   1  -4 98550.9 3649.61  33
  -4   1  -5 194518. 5009.96  17
   4  -1   5 194973. 5748.18   7
  -4   1  -6 127377. 3687.72  17
   4  -1   6 127045. 4329.56   7
  -4   1  -7 31242.2 1484.97  17
   4  -1   7 31207.2 1864.42   7
  -4   1  -8 43996.4 1733.00  17
   4  -1   8 44269.9 2176.73   7
  -4   1  -9 50288.5 1682.93  17
   4  -1   9 51002.5 2106.05   7
  -4   1 -10 16168.9 641.780  17
   4   0  -8 5923.33 522.702   8
   4   0  -7 4115.17 547.781   8
   4   0  -7 4553.87 511.467  21
   4   0  -6 1117.01 381.764   8
  -4   0   6 1035.40 283.829  13
   4   0  -6 1344.13 340.099  21
   4   0  -5 9213.96 940.628   8
  -4   0   5 9069.20 789.877  13
   4   0  -5 8495.54 810.511  21
   4   0  -4 21956.2 1470.59   8
  -4   0   4 23561.0 1278.09  13
   4   0  -4 23847.5 1697.42  22
  -4   0   3 17527.2 1460.73  32
  -4   0   2 62624.4 2715.59  32
  -4   0   1 122496. 3950.06  32
  -4   0   0 120212. 3700.11  32
  -4   0   0 121671. 3946.68  33
  -4   0  -1 150437. 4548.00  33
  -4   0  -1 149701. 4158.02  32
  -4   0  -2 201398. 5667.29  33
  -4   0  -3 355433. 8899.19  33
  -4   0  -4 229271. 6389.68  33
  -4   0  -5 115994. 4036.73  33
  -4   0  -6 176081. 4649.24  17
   4   0   6 176089. 5250.89   7
  -4   0  -7 175142. 4686.00  17
   4   0   7 174017. 5285.63   7
  -4   0  -8 96749.8 2968.65  17
   4   0   8 93595.1 3482.42   7
  -4   0  -9 67101.9 2156.89  17
   4   0   9 65353.3 2632.54   7
  -4   0 -10 53083.1 1584.27  17
   4   0  10 49370.0 1890.95   7
   4   1  -8 28702.8 1184.57   8
   4   1  -7 17773.4 1098.06   8
   4   1  -7 17319.9 1044.95  21
   4   1  -6 23680.6 1441.56   8
  -4  -1   6 21890.4 1239.10  13
   4   1  -6 21364.4 1286.25  21
   4   1  -5 28901.8 1696.68   8
  -4  -1   5 30571.6 1530.58  13
   4   1  -5 30907.3 1600.43  21
   4   1  -4 5259.39 701.097   8
  -4  -1   4 7245.48 685.896  13
   4   1  -4 5902.63 830.274  22
  -4  -1   3 4410.63 745.838  32
  -4  -1   2 723.333 275.512  32
  -4  -1   1 8073.10 837.654  32
  -4  -1   0 1341.64 343.540  33
  -4  -1   0 1052.31 295.859  32
  -4  -1  -1 3545.53 524.032  33
  -4  -1  -1 2668.07 412.868  32
  -4  -1  -2 22688.0 1375.29  33
  -4  -1  -2 22554.7 1198.26  32
  -4  -1  -3 7691.25 807.303  33
  -4  -1  -4 65429.1 2691.03  33
  -4  -1  -5 144171. 4654.11  33
   4   1   6 110463. 3631.46   7
  -4  -1  -6 103808. 3916.23  33
  -4  -1  -7 82047.9 2635.99  17
   4   1   7 77730.7 3061.04   7
  -4  -1  -8 89681.3 2871.03  17
   4   1   8 97503.4 3471.89   7
  -4  -1  -9 90981.1 2730.83  17
   4   1   9 90513.6 3253.13   7
  -4  -1 -10 46820.7 1543.52  17
   4   1  10 45377.5 1901.64   7
   4   2  -7 84270.1 2722.07   8
   4   2  -6 89830.1 3124.90   8
   4   2  -6 88511.0 2995.28  21
   4   2  -5 128819. 4135.23   8
   4   2  -5 126386. 4184.82  22
   4   2  -5 124777. 3872.42  21
   4   2  -4 133129. 4507.97  22
   4   2  -4 142463. 4147.57  21
  -4  -2   3 90375.7 3739.91  32
  -4  -2   2 115227. 4110.77  32
  -4  -2   1 69538.1 2799.74  32
  -4  -2   0 34343.8 1669.84  33
  -4  -2   0 32369.5 1664.55  32
  -4  -2  -1 53478.2 2109.45  32
  -4  -2  -1 51795.9 2127.23  33
  -4  -2  -2 37322.7 1762.88  33
  -4  -2  -3 46488.3 2072.17  33
  -4  -2  -4 37743.6 1925.55  33
  -4  -2  -5 1394.15 387.044  33
  -4  -2  -6 3217.79 607.206  33
   4   2   7 4720.02 652.340  28
   4   2   8 4674.64 709.162  28
  -4  -2  -8 4745.16 520.044  17
  -4  -2  -9 19254.9 1019.90  17
   4   2   9 17192.5 1254.23   7
  -4  -2 -10 18003.0 855.207  17
   4   2  10 16040.9 1083.80   7
   4   2  11 11402.4 697.941   7
   4   3  -8 21887.6 849.483  12
   4   3  -7 54746.6 1883.44   8
   4   3  -7 50888.6 1664.34  19
   4   3  -6 84186.3 2919.77   8
   4   3  -6 83745.1 2829.57  21
   4   3  -5 47917.0 2067.50  21
   4   3  -4 128731. 4302.59  22
   4   3  -4 138581. 4067.35  21
  -4  -3   3 268999. 7855.89  32
  -4  -3   2 234177. 6858.95  32
  -4  -3   1 172237. 5258.71  32
  -4  -3   0 212561. 5860.89  32
  -4  -3  -1 285070. 7085.59  33
  -4  -3  -1 292190. 7263.47  32
   4   3   2 137644. 4066.61  25
  -4  -3  -2 146410. 4188.35  33
   4   3   3 104926. 3375.47  25
  -4  -3  -3 107903. 3508.17  33
  -4  -3  -4 190514. 5248.34  33
   4   3   4 164231. 4941.07  25
  -4  -3  -5 82668.8 3222.40  33
  -4  -3  -6 32136.4 1963.66  33
   4   3   7 40057.2 1953.03  30
   4   3   7 40925.5 1953.37  28
   4   3   7 38593.2 2076.12  10
   4   3   8 61075.2 2559.62  30
   4   3   8 60928.0 2579.64  28
   4   3   8 58547.2 2686.61  10
   4   3   9 36861.4 1898.36  28
   4   3  10 735.171 295.521   7
   4   3  11 162.791 147.654   7
   4   4  -7 645.647 140.641  19
   4   4  -6 23229.9 1136.12  19
   4   4  -5 58187.2 2250.88  19
   4   4  -5 56700.8 2255.36  21
   4   4  -4 29728.7 1657.91  22
   4   4  -4 32825.3 1650.26  21
   4   4  -3 36431.0 1901.01  22
   4   4  -3 40046.7 1794.86  21
  -4  -4   2 80860.5 3505.28  32
  -4  -4   1 116374. 4271.90  32
   4   4  -1 130035. 4267.87   2
  -4  -4   0 145514. 4643.80  32
   4   4   1 306188. 7955.92  25
  -4  -4  -2 399441. 9369.96  33
   4   4   2 391360. 9698.06  25
  -4  -4  -3 180799. 5162.13  33
   4   4   3 177816. 5348.20  25
  -4  -4  -4 157135. 4721.94  33
   4   4   4 139202. 4814.44  25
   4   4   5 137295. 5135.87  25
  -4  -4  -5 159298. 4912.20  33
  -4  -4  -6 97712.0 3745.23  33
   4   4   6 84076.0 4050.03  25
   4   4   7 120673. 3897.04  30
   4   4   7 125687. 3880.95  28
   4   4   7 119340. 4149.91  10
   4   4   8 89696.7 3258.79  30
   4   4   8 91869.3 3230.44  28
   4   4   8 90294.2 3491.56  10
   4   4   9 68777.9 2693.57  30
   4   4   9 69527.5 2666.25  28
   4   4  10 72796.8 2540.59  28
   4   4  10 73436.8 2586.50   7
   4   4  11 41724.8 1536.26   7
   4   5  -6 3410.59 361.579  19
   4   5  -5 597.868 228.416  19
   4   5  -4 2427.43 444.447  19
   4   5  -4 1454.13 330.093  21
   4   5  -3 5294.25 669.754  19
   4   5  -3 5938.30 654.900  21
   4   5  -2 489.051 217.181  19
  -4  -5   1 1219.62 399.543  32
   4   5  -1 1174.81 461.346   2
  -4  -5   0 8504.16 987.459  32
  -4  -5  -1 31954.8 1921.54  32
   4   5   1 32212.5 2007.59  25
   4   5   2 140722. 4818.02  25
   4   5   3 121108. 4465.90  25
  -4  -5  -4 51202.7 2476.10  33
   4   5   4 46067.7 2723.72  25
  -4  -5  -5 98875.7 3770.17  33
   4   5   5 79726.0 4077.88  25
   4   5   6 114844. 3347.04  29
   4   5   6 113645. 3551.87  28
   4   5   7 113933. 3648.39  28
   4   5   8 117959. 3881.53  30
   4   5   8 118559. 3789.57  28
   4   5   9 67689.7 2623.09  30
   4   5   9 69669.8 2588.09  28
   4   5  10 40161.8 1690.86  28
   4   5  11 51923.9 1691.07   7
   4   6  -6 35043.7 1099.58  19
   4   6  -5 20940.0 1015.48  19
   4   6  -4 45174.9 1852.09  19
   4   6  -3 44523.1 1930.59  20
   4   6  -3 45595.3 2002.72  19
   4   6  -2 26186.8 1516.21  19
   4   6  -1 17226.0 1095.15   5
   4   6  -1 17237.4 1204.53  19
   4   6   0 2180.35 408.933  19
   4   6   0 845.167 295.114   5
  -4  -6  -1 2711.06 597.117  32
   4   6   1 2537.27 433.931   5
   4   6   2 20598.8 1739.30  25
   4   6   3 4112.17 813.620  25
   4   6   4 4195.20 508.678   5
   4   6   4 3121.24 476.282  29
   4   6   4 3896.97 506.790   4
   4   6   4 3703.84 816.218  25
   4   6   5 9780.54 774.977   5
   4   6   5 10841.4 878.671  29
   4   6   6 7019.54 696.746  29
   4   6   6 6898.73 715.346  28
   4   6   7 17423.9 1077.05  29
   4   6   7 16444.4 1149.25  28
   4   6   8 44461.3 1984.92  28
   4   6   9 32946.6 1592.04  28
   4   6  10 34250.6 1451.15   7
   4   6  10 31916.4 1402.97  28
   4   7  -5 56378.1 1627.97  19
   4   7  -4 76594.6 2362.97  19
   4   7  -3 116046. 3509.61  20
   4   7  -3 115721. 3472.96  19
   4   7  -2 80404.5 2852.60  20
   4   7  -2 78449.3 2822.51  19
   4   7  -1 91467.1 3142.86  20
   4   7  -1 86839.5 3086.14  19
   4   7   0 101489. 3307.89   5
   4   7   0 101639. 3398.39  20
   4   7   0 101259. 3347.09  19
   4   7   1 31682.3 1634.78   5
   4   7   1 30717.0 1538.50  26
   4   7   1 28397.4 1536.94   4
   4   7   1 29980.5 1519.87  19
   4   7   2 22077.2 1356.79   5
   4   7   2 21562.5 1341.10  29
   4   7   2 22143.5 1289.10  26
   4   7   2 21774.3 1301.35   4
   4   7   3 67738.5 2608.98   5
   4   7   3 68542.6 2670.86  29
   4   7   3 65732.5 2488.20   4
   4   7   4 78802.3 2989.12  29
   4   7   4 78761.6 2806.29   4
   4   7   4 78901.0 2867.54   5
   4   7   4 80708.4 3129.45  23
   4   7   5 22905.5 1339.40   5
   4   7   5 21597.8 1415.33  29
   4   7   6 6346.18 641.981   5
   4   7   6 5238.71 675.927  29
   4   7   7 15136.1 1056.39  29
   4   7   7 13692.7 1039.24  28
   4   7   8 1818.46 328.173  29
   4   7   8 1653.91 367.256  28
   4   7   9 364.200 197.814  28
   4   7  10 747.099 198.941  28
   4   8  -4 48398.4 1462.90  19
   4   8  -3 66497.0 2132.97   4
   4   8  -3 66394.1 2113.89  19
   4   8  -2 68809.9 2555.84   4
   4   8  -2 64055.3 2408.98  20
   4   8  -2 65632.8 2307.61  19
   4   8  -1 69308.7 2748.41   4
   4   8  -1 69286.5 2619.32  20
   4   8  -1 65724.0 2481.89  19
   4   8   0 100764. 3240.22   5
   4   8   0 100978. 3550.28   4
   4   8   0 101620. 3430.87  20
   4   8   0 106954. 3379.26  19
   4   8   1 108831. 3595.83   5
   4   8   1 108532. 3574.79  26
   4   8   1 105004. 3605.13   4
   4   8   1 109306. 3578.79  20
   4   8   1 107382. 3421.19  19
   4   8   2 88754.2 3293.98   5
   4   8   2 93472.1 3224.24  29
   4   8   2 87847.3 3142.39  26
   4   8   2 89526.1 3167.87   4
   4   8   2 94580.1 3173.30  20
   4   8   3 66913.9 2805.29   5
   4   8   3 69552.1 2838.39  29
   4   8   3 67013.0 2593.85   4
   4   8   4 60689.8 2629.32   5
   4   8   4 60122.8 2721.94  29
   4   8   4 63337.7 2480.41   4
   4   8   5 71808.2 2801.28   5
   4   8   5 71219.0 3005.00  29
   4   8   6 59391.5 2351.00   5
   4   8   6 57651.5 2585.05  29
   4   8   7 56632.2 2280.43  29
   4   8   7 53601.6 2158.95  28
   4   8   8 44184.0 1713.20  29
   4   8   8 43642.2 1786.61  28
   4   8   9 16050.8 896.156  28
   4   8   9 19777.3 1057.39  23
   4   9  -2 17475.7 918.134   4
   4   9  -2 17009.8 854.989  19
   4   9  -1 11701.5 907.056   4
   4   9  -1 10700.8 748.967  19
   4   9   0 28358.2 1541.56   4
   4   9   0 27080.9 1455.81  20
   4   9   0 26710.6 1336.67  19
   4   9   1 42163.1 1947.63   4
   4   9   1 39723.0 1793.40   5
   4   9   1 42622.5 1933.48  20
   4   9   2 37246.2 1917.40   5
   4   9   2 38071.2 1812.15   4
   4   9   2 39106.0 1823.49  20
   4   9   3 62791.4 2782.51   5
   4   9   3 71225.3 2753.00  29
   4   9   3 70432.8 2566.01   4
   4   9   4 71853.4 3033.96   5
   4   9   4 75219.5 3081.83  29
   4   9   4 81859.3 2749.57   4
   4   9   5 69655.4 2793.96   5
   4   9   5 71256.9 2995.34  29
   4   9   6 65229.7 2437.94   5
   4   9   6 67099.2 2722.35  29
   4   9   7 37714.1 1462.49   5
   4   9   7 39942.4 1757.75  29
   4   9   8 46542.4 1620.73  29
   4  10   0 1512.90 266.880   4
   4  10   1 574.414 201.411   4
   4  10   2 387.000 197.734   5
   4  10   2 372.438 188.708   4
   4  10   3 6042.53 675.995   5
   4  10   3 6641.26 596.153   4
   4  10   4 23824.3 1409.03   5
   4  10   5 16020.8 1066.65   5
   4  10   5 16326.9 1070.14  29
   4  10   6 19595.9 1003.56   5
   4  10   6 20462.8 1126.81  29
   5  -6  -2 36340.6 1275.43   8
  -5   6   2 32416.4 980.340  28
  -5   6   1 28499.5 900.375  15
  -5   6   1 30516.5 984.378  28
  -5   6   0 39940.4 1172.58  15
  -5   6   0 36374.7 1114.51  11
  -5   6  -1 40001.9 1193.60  15
  -5   6  -2 28908.0 900.609  15
   5  -5  -4 910.817 245.476   8
   5  -5  -3 18.3659 173.781   8
  -5   5   3 313.444 103.913  28
  -5   5   2 918.982 194.640  11
  -5   5   1 1641.31 258.373  11
  -5   5   0 4667.73 444.100  11
  -5   5  -1 12929.8 786.397  14
  -5   5  -1 13360.4 765.322  11
  -5   5  -2 19665.5 970.262  14
  -5   5  -3 27382.4 1104.42  14
  -5   5  -4 23522.2 824.361  15
  -5   5  -4 25864.3 949.815  14
   5  -4  -5 24073.6 1141.65   8
  -5   4   5 21912.3 870.270  13
   5  -4  -4 31259.8 1498.71   8
  -5   4   4 28516.4 1126.80  13
  -5   4   3 39148.7 1456.98  13
  -5   4   3 41796.2 1555.23  11
  -5   4   2 37005.4 1437.56  13
  -5   4   2 38525.3 1552.96  11
  -5   4   1 20794.5 1114.99  11
  -5   4   0 20167.9 1117.12  14
  -5   4   0 21131.6 1133.24  11
  -5   4  -1 15021.0 969.023  14
  -5   4  -2 7340.86 651.381  14
  -5   4  -3 663.776 219.070  14
  -5   4  -4 1080.30 235.360  14
   5  -4   4 691.839 261.295   7
  -5   4  -5 1451.16 237.947  14
  -5   4  -6 9625.90 504.518  14
   5  -3  -6 55716.1 1900.65   8
  -5   3   6 58075.6 1683.69  13
   5  -3  -5 78728.8 2684.48   8
  -5   3   5 79450.7 2316.16  13
   5  -3  -4 66600.4 2599.51   8
  -5   3   4 67795.1 2181.05  13
  -5   3   3 67839.6 2240.01  13
  -5   3   3 65067.1 2282.51  11
  -5   3   2 85353.9 2764.48  11
  -5   3   1 65424.4 2223.45  14
  -5   3   1 62936.7 2286.18  11
  -5   3   0 93468.5 2916.87  14
   5  -3   1 123570. 4594.12   7
  -5   3  -1 125220. 3615.41  14
   5  -3   2 99215.9 3944.20   7
  -5   3  -2 94256.4 3022.43  14
   5  -3   3 83982.7 3515.51   7
  -5   3  -4 37256.6 1565.89  17
   5  -3   4 37185.9 2094.39   7
  -5   3  -5 20200.4 1052.41  17
   5  -3   5 20566.2 1408.63   7
  -5   3  -6 18549.0 911.736  17
   5  -3   6 16605.1 1125.41   7
  -5   3  -7 8280.34 502.304  17
  -5   3  -7 7368.10 466.623  14
   5  -2  -7 7168.50 494.687   8
   5  -2  -6 25156.1 1267.49   8
  -5   2   6 25869.0 1085.12  13
   5  -2  -5 57408.6 2337.36   8
  -5   2   5 59323.0 2029.36  13
   5  -2  -4 64006.6 2692.13   8
  -5   2   4 68177.3 2318.71  13
   5  -2  -3 42202.5 2176.88   8
  -5   2   3 43810.0 1785.58  13
  -5   2   3 42869.4 1817.79  11
  -5   2   2 108059. 3297.49  11
   5  -2  -2 100565. 3961.47   3
  -5   2   1 132243. 3746.48  11
   5  -2  -1 119205. 4480.81   3
   5  -2   0 56818.5 2795.86   3
   5  -2   0 61322.8 2867.50   7
  -5   2   0 61785.5 2130.34  14
   5  -2   1 146814. 4900.31   7
  -5   2  -1 138428. 3886.61  14
   5  -2   2 183825. 5837.89   7
  -5   2  -3 90208.9 2884.88  17
   5  -2   3 99213.9 3820.33   7
   5  -2   4 89801.8 3607.85   7
  -5   2  -4 89828.4 2832.34  17
  -5   2  -5 124768. 3552.51  17
   5  -2   5 126600. 4364.28   7
  -5   2  -6 122227. 3397.83  17
   5  -2   6 119522. 4057.91   7
  -5   2  -7 75618.8 2255.75  17
   5  -2   7 70776.3 2716.92   7
  -5   2  -8 51934.5 1548.29  17
   5  -2   8 46638.2 1808.97   7
   5  -1  -7 3875.45 399.495   8
  -5   1   6 944.629 224.824  13
   5  -1  -6 1234.09 330.403   8
   5  -1  -5 181.027 278.682   8
  -5   1   5 162.247 144.143  13
   5  -1  -5 292.729 197.895  21
   5  -1  -4 6301.40 807.534   8
  -5   1   4 7168.54 660.704  13
   5  -1  -3 4433.22 704.400   8
  -5   1   3 3972.91 501.404  13
  -5   1   3 4146.15 528.666  11
   5  -1  -2 539.460 375.199   3
  -5   1   2 1466.16 310.573  11
   5  -1  -1 47812.3 2465.45   3
  -5   1   1 45853.4 1873.92  11
   5  -1   0 119573. 4376.42   3
   5  -1   0 127824. 4295.89   7
  -5   1  -1 93138.0 3708.27  33
   5  -1   1 95709.3 3585.91   7
  -5   1  -2 78517.5 3372.36  33
   5  -1   2 78614.3 3221.71   7
  -5   1  -3 57904.3 2094.99  17
   5  -1   3 64056.4 2827.66   7
  -5   1  -4 57647.3 2110.15  17
   5  -1   4 62847.1 2808.63   7
  -5   1  -5 73191.8 2468.20  17
   5  -1   5 77541.3 3191.30   7
  -5   1  -6 118178. 3399.98  17
   5  -1   6 118922. 4142.78   7
  -5   1  -7 126031. 3436.94  17
   5  -1   7 119142. 4062.93   7
  -5   1  -8 86722.5 2462.07  17
   5  -1   8 84048.4 2969.97   7
  -5   1  -9 63040.7 1735.62  17
   5  -1   9 60104.3 2051.15   7
   5   0  -7 18967.7 931.600   8
   5   0  -6 19891.4 1173.43   8
  -5   0   6 21829.1 1063.58  13
   5   0  -6 18730.3 1067.26  21
   5   0  -5 23791.2 1489.15   8
  -5   0   5 26750.1 1309.87  13
   5   0  -5 25101.5 1381.56  21
   5   0  -4 62478.3 2730.46   8
  -5   0   4 67571.4 2385.45  13
  -5   0   3 53893.1 2092.26  13
   5   0  -3 54550.6 2705.57  22
   5   0  -3 50990.1 2480.83   3
   5   0  -2 15515.7 1313.79   3
  -5   0   2 16400.0 1046.09  11
   5   0  -2 18350.8 1496.71  22
  -5   0   1 6073.11 784.131  32
  -5   0   0 3156.61 583.739  33
  -5   0   0 2983.83 518.462  32
  -5   0  -1 212.605 191.817  33
  -5   0  -2 7471.98 911.210  33
  -5   0  -3 7634.52 936.714  33
  -5   0  -4 18542.5 1480.14  33
  -5   0  -4 16156.8 965.979  17
   5   0   4 16678.9 1304.08   7
  -5   0  -5 27273.9 1304.73  17
   5   0   5 27349.0 1722.66   7
  -5   0  -6 15227.3 958.451  17
   5   0   6 16304.9 1321.40   7
  -5   0  -7 33076.5 1436.28  17
   5   0   7 30339.0 1817.87   7
  -5   0  -8 43140.0 1603.37  17
   5   0   8 42781.1 2073.33   7
  -5   0  -9 36506.8 1286.44  17
   5   0   9 36527.8 1683.06   7
   5   1  -7 40187.3 1428.69   8
   5   1  -6 54496.6 2071.39   8
  -5  -1   6 51092.8 1794.69  13
   5   1  -6 52907.2 1995.96  21
   5   1  -5 58463.7 2464.37   8
  -5  -1   5 60033.4 2155.51  13
   5   1  -5 59496.6 2338.44  21
  -5  -1   4 99101.0 3115.04  13
   5   1  -4 99765.6 3762.47  22
  -5  -1   3 123342. 3605.22  13
   5   1  -3 119240. 4330.11  22
   5   1  -3 117128. 4043.92   3
   5   1  -2 99730.9 3612.36   3
  -5  -1   2 106431. 3969.05  32
   5   1  -2 96720.5 3792.29  22
  -5  -1   1 96678.2 3646.73  32
  -5  -1   0 100665. 3662.23  33
  -5  -1   0 99551.5 3543.63  32
  -5  -1  -1 127783. 4303.50  33
  -5  -1  -1 125981. 4015.74  32
  -5  -1  -2 103176. 3721.51  33
  -5  -1  -2 98362.9 3292.25  32
  -5  -1  -3 98126.9 3713.16  33
  -5  -1  -4 69761.7 3054.81  33
   5   1   5 367.268 228.682   7
  -5  -1  -6 2355.43 369.899  17
   5   1   6 2196.80 493.130   7
  -5  -1  -7 10917.8 777.470  17
   5   1   7 11064.3 1067.01   7
  -5  -1  -8 869.970 220.050  17
   5   1   8 1247.53 376.852   7
  -5  -1  -9 3284.34 358.699  17
   5   1   9 3599.63 547.878   7
  -5  -1 -10 1492.46 189.159  17
   5   1  10 1769.90 311.531   7
   5   2  -7 19472.1 832.922  19
   5   2  -6 85113.5 2735.97  21
   5   2  -5 81021.9 2862.74  21
   5   2  -4 79090.3 3253.50  22
   5   2  -4 83867.0 3001.77  21
   5   2  -3 111855. 4157.46  22
   5   2  -3 121696. 3884.27   3
   5   2  -2 94963.9 3357.66   3
   5   2  -2 90726.8 3506.28  22
  -5  -2   1 120812. 4277.19  32
  -5  -2   0 180840. 5366.11  33
  -5  -2   0 178323. 5404.31  32
  -5  -2  -1 232978. 6391.76  33
  -5  -2  -1 224623. 6215.85  32
  -5  -2  -2 224092. 6303.15  33
  -5  -2  -2 224285. 6061.54  32
  -5  -2  -3 132279. 4407.78  33
  -5  -2  -4 210257. 6183.52  33
  -5  -2  -5 271932. 7629.77  33
   5   2   6 80256.9 3088.08   7
   5   2   7 26249.1 1638.26   7
   5   2   8 36770.5 1961.81   7
   5   2   9 32929.0 1742.47   7
   5   2  10 16998.2 1027.32   7
   5   3  -7 1312.06 181.602  19
   5   3  -6 1079.71 279.863  21
   5   3  -5 14518.2 1028.56  21
   5   3  -4 12325.5 1123.68  22
   5   3  -4 13158.6 1029.38  21
   5   3  -3 62739.1 2814.35  22
   5   3  -2 81307.5 3228.71  22
  -5  -3   1 52908.6 2655.57  32
  -5  -3   0 89653.8 3471.18  32
  -5  -3  -1 122677. 4029.35  33
  -5  -3  -1 119401. 4060.29  32
  -5  -3  -2 160231. 4915.98  33
  -5  -3  -2 159084. 4825.48  32
  -5  -3  -3 165622. 5109.98  33
  -5  -3  -4 131274. 4461.61  33
  -5  -3  -5 136784. 4696.79  33
   5   3   6 132440. 4070.57  28
   5   3   6 129905. 4163.38   7
   5   3   7 151644. 4616.89  28
   5   3   7 150217. 4680.56   7
   5   3   8 127044. 4135.60   7
   5   3   9 80299.1 2935.38   7
   5   3  10 67029.4 2362.17   7
   5   4  -6 19600.7 931.247  19
   5   4  -5 7262.72 687.782  19
   5   4  -5 6020.09 627.909  21
   5   4  -4 13342.7 1095.55  22
   5   4  -4 14088.2 1028.23  21
   5   4  -3 14954.8 1242.63  22
   5   4  -3 14362.1 1081.44  21
   5   4  -2 1252.69 399.547  22
  -5  -4   1 1654.03 497.839  32
   5   4  -1 2464.28 485.580  22
  -5  -4   0 1356.54 419.381  32
  -5  -4  -1 8997.48 982.765  32
  -5  -4  -2 36872.2 2037.98  32
  -5  -4  -3 76526.2 3113.01  33
  -5  -4  -4 54109.2 2615.24  33
  -5  -4  -5 43937.3 2378.30  33
   5   4   6 31401.3 1617.59  28
   5   4   7 36703.0 1835.60  28
   5   4   7 35563.6 1871.90   7
   5   4   8 84867.0 3092.63  28
   5   4   8 85605.7 3148.38   7
   5   4   9 76755.5 2815.67  28
   5   4   9 79284.9 2871.29   7
   5   4  10 76505.1 2572.48   7
   5   5  -6 39967.1 1265.92  19
   5   5  -5 60129.2 2058.12  19
   5   5  -4 37820.3 1779.69  19
   5   5  -4 33341.9 1590.88  22
   5   5  -4 35227.4 1609.05  21
   5   5  -3 31302.0 1769.34  19
   5   5  -3 32710.1 1761.75  22
   5   5  -3 33673.5 1641.54  21
   5   5  -2 60953.0 2684.35  22
   5   5  -2 67296.4 2478.60  21
   5   5  -1 107513. 3498.56   5
   5   5  -1 102615. 3661.57  22
   5   5   0 58893.2 2427.29  19
   5   5   0 58656.7 2304.32   5
   5   5   0 57361.0 2373.23  24
   5   5   0 57754.2 2491.35  22
   5   5   1 14377.2 1001.05   5
  -5  -5  -1 15153.7 1385.02  32
   5   5   1 14304.8 1078.59  24
  -5  -5  -2 16039.7 1415.34  32
   5   5   3 5656.62 843.490  25
   5   5   4 370.953 182.083  29
   5   5   4 443.698 289.288  25
   5   5   4 87.7596 140.251  23
   5   5   5 2449.79 400.660  29
   5   5   6 54.6892 151.978  29
   5   5   6 386.020 231.752  28
   5   5   7 906.571 299.614  28
   5   5   8 13525.6 1033.65  28
   5   5   8 12034.1 1033.12   7
   5   5   9 19173.4 1189.23  28
   5   5   9 18789.5 1218.41   7
   5   5  10 3583.89 465.851   7
   5   6  -5 37554.1 1334.62  19
   5   6  -4 56317.8 2074.64  19
   5   6  -3 80307.3 2685.63  20
   5   6  -3 81202.0 2928.08  19
   5   6  -2 69678.1 2810.02  19
   5   6  -1 94708.9 3446.00  19
   5   6  -1 98698.4 3273.73   5
   5   6  -1 90725.2 3327.05  22
   5   6   0 154380. 4621.86  19
   5   6   0 154269. 4488.39   5
   5   6   0 151118. 4666.80  22
   5   6   1 78699.2 2811.25   5
   5   6   1 81290.3 2997.19  24
   5   6   2 58707.6 2318.00   5
   5   6   2 62727.4 2202.01   4
   5   6   2 59492.4 2486.23  24
   5   6   2 58142.7 2537.10  23
   5   6   3 115841. 3555.08   5
   5   6   3 118773. 3653.56  29
   5   6   3 112582. 3435.68   4
   5   6   3 115881. 3863.10  24
   5   6   3 117281. 3978.48  23
   5   6   4 92973.1 2956.17   5
   5   6   4 85570.7 2962.13  29
   5   6   4 87161.2 3309.96  24
   5   6   4 82620.4 3320.71  23
   5   6   5 57156.7 2141.56   5
   5   6   5 56184.3 2217.72  29
   5   6   5 53483.8 2560.88  24
   5   6   6 40840.4 1800.29  29
   5   6   7 15143.1 966.334  29
   5   6   7 14772.7 1069.01  28
   5   6   8 6456.37 695.399  28
   5   6   9 3216.01 475.203  28
   5   6  10 3613.83 419.692  28
   5   7  -4 26946.3 1129.47  19
   5   7  -3 41252.2 1669.88  20
   5   7  -3 42694.2 1757.29  19
   5   7  -2 64114.6 2379.79  20
   5   7  -2 59201.2 2410.35  19
   5   7  -1 54907.6 2303.20  20
   5   7  -1 54522.3 2373.67  19
   5   7   0 76517.5 2806.60   5
   5   7   0 76138.3 2866.97  19
   5   7   1 84128.2 3018.24   5
   5   7   1 84751.8 2839.52   4
   5   7   1 83396.2 3055.63  22
   5   7   2 37990.5 1867.09   5
   5   7   2 39856.8 1792.74   4
   5   7   2 39855.8 1968.14  24
   5   7   3 84428.7 2984.95   5
   5   7   3 84655.3 3070.11  29
   5   7   3 80817.2 2853.07   4
   5   7   3 83761.7 3070.47  24
   5   7   3 84754.9 3276.72  23
   5   7   4 159977. 4577.51   5
   5   7   4 157884. 4719.85  29
   5   7   4 151413. 4525.28   4
   5   7   4 169528. 4819.37  24
   5   7   4 153747. 5122.50  23
   5   7   5 105473. 3348.63   5
   5   7   5 104765. 3519.24  29
   5   7   5 107403. 4173.23  23
   5   7   6 77627.6 2595.32   5
   5   7   6 78088.7 2780.41  29
   5   7   6 71678.1 3407.36  23
   5   7   7 73210.7 2541.75  29
   5   7   8 49618.0 1991.15  28
   5   7   9 32153.2 1428.88  28
   5   7  10 38123.4 1439.54  23
   5   8  -3 5500.92 469.840  19
   5   8  -2 11407.4 833.390  20
   5   8  -2 11180.6 815.410  19
   5   8  -1 10988.5 905.114  20
   5   8  -1 11517.8 907.780  19
   5   8   0 4926.88 623.093   5
   5   8   0 5485.43 619.165   4
   5   8   0 4302.15 591.378  20
   5   8   0 4515.85 580.637  19
   5   8   1 19424.2 1278.41   5
   5   8   1 19105.6 1230.17   4
   5   8   1 19542.1 1306.92  20
   5   8   1 17960.9 1150.86  19
   5   8   2 42480.5 2052.66   5
   5   8   2 44011.2 1980.70   4
   5   8   2 46462.2 2077.20  20
   5   8   3 34053.8 1811.04   5
   5   8   3 33076.8 1696.73   4
   5   8   3 34798.3 1693.98  20
   5   8   4 28047.0 1606.96   5
   5   8   4 27867.0 1688.02  29
   5   8   4 30432.8 1629.81   4
   5   8   4 29644.4 1767.56  23
   5   8   5 36122.1 1776.22   5
   5   8   5 37074.2 1948.44  29
   5   8   5 41529.9 2284.09  23
   5   8   6 60450.5 2237.48   5
   5   8   6 56900.7 2410.69  29
   5   8   7 59111.9 2290.06  29
   5   8   7 74929.3 3200.39  23
   5   8   8 71613.6 2884.18  23
   5   8   9 57491.7 1904.13  28
   5   8   9 75405.8 2363.95  23
   5   9  -1 8486.89 697.008  20
   5   9  -1 8812.05 660.828  19
   5   9   0 1927.34 338.502  19
   5   9   0 1925.34 379.422   4
   5   9   0 1703.59 367.930  20
   5   9   1 3187.16 477.131   5
   5   9   1 3150.32 500.369   4
   5   9   1 2319.61 437.637  20
   5   9   1 3181.42 427.702  19
   5   9   2 2766.95 487.882   5
   5   9   2 3299.00 515.784   4
   5   9   2 3258.82 504.640  20
   5   9   3 569.901 252.260   5
   5   9   3 1024.26 331.984   4
   5   9   3 1143.38 283.822  20
   5   9   4 11393.3 1000.69   5
   5   9   5 3698.48 618.056  29
   5   9   5 3831.57 561.555   5
   5   9   6 2487.45 474.242  29
   5   9   6 2423.76 391.340   5
   5   9   7 16597.3 1060.93  23
   5  10   1 41606.5 1611.30   4
   5  10   2 31550.8 1441.40   5
   5  10   2 37981.4 1576.29   4
   5  10   3 34077.0 1632.15   5
   5  10   4 17194.6 1134.38   5
   5  10   5 3897.18 504.437   5
   5  10   6 4655.13 448.115   5
  -6   5   0 10321.4 477.724  11
  -6   5  -1 28423.2 872.456  15
  -6   5  -1 27173.9 883.270  11
   6  -4  -3 45189.1 1454.12   8
  -6   4   3 42442.6 1225.23  13
   6  -4  -2 58826.2 1863.47   8
  -6   4   2 54401.9 1560.47  13
  -6   4   1 74625.0 2040.93  13
  -6   4   1 80863.4 2209.02  11
  -6   4   0 57659.7 1667.34  13
  -6   4   0 60955.5 1839.22  11
   6  -4   0 55457.1 1934.82   9
  -6   4  -1 62643.3 1858.90  14
  -6   4  -1 59306.8 1861.76  11
  -6   4  -2 55163.6 1717.92  14
  -6   4  -2 53887.3 1705.99  11
  -6   4  -3 40507.4 1358.10  14
  -6   4  -4 36884.7 1189.84  14
   6  -3  -4 10900.9 674.884   8
  -6   3   4 11244.5 578.771  13
   6  -3  -3 9357.22 706.924   8
  -6   3   3 8686.75 553.934  13
   6  -3  -2 23134.4 1248.55   8
  -6   3   2 23660.4 1039.79  13
  -6   3   2 23945.2 1088.76  11
  -6   3   1 51185.4 1800.95  11
   6  -3  -1 48719.6 1898.23   9
  -6   3   0 54560.8 1820.19  14
  -6   3   0 56102.1 1945.87  11
  -6   3  -1 81036.6 2447.05  14
  -6   3  -2 112349. 3120.94  14
   6  -3   3 77989.4 2981.57   7
  -6   3  -3 81013.9 2426.68  14
   6  -3   4 62671.2 2448.36   7
  -6   3  -4 64594.5 2013.69  14
   6  -3   5 55587.5 2086.59   7
  -6   3  -5 58059.9 1759.26  14
  -6   3  -6 55838.0 1563.72  14
   6  -2  -5 2850.72 330.822   8
  -6   2   5 2825.36 284.308  13
   6  -2  -4 202.705 178.628   8
  -6   2   4-9.56150 99.8148  13
   6  -2  -3 2092.82 404.068   8
  -6   2   3 2625.92 346.414  13
  -6   2   2 925.418 238.525  13
  -6   2   2 710.546 225.841  11
  -6   2   1 1832.04 329.149  11
   6  -2  -1 1190.51 385.108   9
   6  -2   0 2500.12 544.267   3
  -6   2   0 2150.60 356.536  11
  -6   2  -1 7134.75 602.580  14
   6  -2   2 42278.0 2258.04   7
  -6   2  -2 40379.7 1634.81  14
   6  -2   3 44588.1 2321.79   7
  -6   2  -3 48824.7 1827.94  14
   6  -2   4 35492.1 1946.80   7
   6  -2   5 45738.9 2127.03   7
   6  -2   6 34888.8 1627.09   7
   6  -2   6 30181.3 1330.06   9
   6  -2   7 41263.2 1594.52   7
  -6   1   6 36495.8 1104.45  13
  -6   1   5 27878.3 1089.27  13
  -6   1   4 35032.2 1368.10  13
   6  -1  -4 30727.5 1402.34  21
  -6   1   3 37673.3 1535.99  13
  -6   1   2 31220.0 1450.06  11
   6  -1  -2 28521.3 1835.63   3
  -6   1   1 28628.0 1410.59  11
   6  -1  -1 30010.5 1695.10   9
   6  -1  -1 29025.9 1862.37   3
   6  -1   0 4246.77 760.127   9
   6  -1   0 4159.07 730.591   3
  -6   1   0 4005.34 499.525  11
   6  -1   1 3969.40 689.705   3
   6  -1   1 3189.02 637.803   7
   6  -1   2 12528.1 1167.93   3
   6  -1   2 10077.2 1081.41   7
   6  -1   3 1017.28 416.286   7
   6  -1   4 1731.69 496.728   7
  -6   1  -5 86.8866 114.689  17
   6  -1   5 445.616 298.897   7
  -6   1  -6 4990.15 477.257  17
   6  -1   6 5445.89 707.614   7
  -6   1  -7 9396.52 589.803  17
   6  -1   7 8917.14 808.539   7
   6  -1   8 16244.4 934.070   7
   6   0  -6 34873.0 1160.80  21
  -6   0   5 42772.2 1459.49  13
   6   0  -5 37439.7 1530.09  21
  -6   0   4 68877.1 2204.27  13
   6   0  -4 62311.6 2355.95  21
  -6   0   3 150849. 4081.62  13
  -6   0   2 91269.3 2921.10  11
   6   0  -2 97596.3 3633.61   3
   6   0  -1 95419.9 3710.40   3
  -6   0   1 95105.9 3016.18  11
   6   0  -1 99289.4 3537.62   9
   6   0   0 130792. 4541.94   3
  -6   0   0 126835. 3724.07  11
   6   0   0 135726. 4712.19   9
   6   0   1 51620.2 2604.92   3
   6   0   1 52099.7 2531.43   7
   6   0   1 56811.5 3068.16   9
   6   0   2 27185.5 1748.43   7
   6   0   3 67371.6 2953.31   7
  -6   0  -4 90384.0 2793.53  17
   6   0   4 90779.6 3508.72   7
   6   0   4 89583.6 3296.24   6
  -6   0  -5 36333.5 1521.41  17
   6   0   5 38982.2 2089.94   7
  -6   0  -6 9716.17 693.102  17
   6   0   6 9223.34 971.229   7
  -6   0  -7 14355.0 797.949  17
   6   0   7 16298.4 1215.50   7
  -6   0  -8 7151.11 480.916  17
   6   0   8 7900.88 735.456   7
   6   0   9 530.134 199.728   7
   6   1  -6 10715.4 639.639  21
  -6  -1   5 22442.1 984.164  13
   6   1  -5 21847.4 1164.42  21
  -6  -1   4 21021.6 1073.52  13
   6   1  -4 21383.8 1291.95  21
  -6  -1   3 76069.9 2516.79  13
   6   1  -3 75247.2 3074.77  22
   6   1  -2 137437. 4636.31  22
   6   1  -2 133894. 4510.60   3
   6   1  -1 84356.0 3371.59   3
   6   1  -1 86501.7 3434.88  22
   6   1  -1 81677.8 3184.48   9
   6   1   0 92993.7 3587.26   3
   6   1   0 86269.1 3622.39   9
   6   1   1 159265. 4962.11   7
   6   1   1 150203. 5736.41   9
   6   1   2 171147. 5264.22   7
   6   1   2 164810. 5140.82   6
   6   1   2 174943. 6674.19   9
   6   1   3 133537. 4376.19   7
   6   1   3 120055. 4156.14   6
   6   1   3 136291. 5935.40   9
   6   1   4 121885. 4185.39   7
   6   1   4 114977. 3970.96   6
   6   1   5 123043. 4232.70   7
   6   1   5 118954. 3993.33   6
   6   1   6 62406.3 2712.81   7
   6   1   6 57284.4 2414.65   6
  -6  -1  -7 47878.9 1687.67  17
   6   1   7 50637.1 2330.85   7
   6   1   8 62105.0 2496.77   7
   6   1   9 36501.4 1583.11   7
   6   2  -6 125.529 116.806  21
   6   2  -5 1078.38 290.918  21
   6   2  -4 5650.75 735.296  22
   6   2  -4 5898.90 680.815  21
   6   2  -3 10624.8 1070.94  22
   6   2  -2 12222.3 1175.42  22
   6   2  -2 12874.7 1140.00   3
   6   2  -1 7176.22 895.716   3
   6   2  -1 6825.27 861.788  22
   6   2   0 23345.0 1608.67   3
   6   2   0 22292.2 1508.07  22
   6   2   0 19552.7 1529.10   9
   6   2   1 55243.8 2378.21  22
   6   2   1 52707.9 2945.38   9
  -6  -2  -2 94783.3 3459.03  32
   6   2   2 90880.9 3372.17   6
   6   2   3 125156. 4117.02   7
   6   2   3 121069. 4068.63   6
   6   2   4 105543. 3732.28   7
   6   2   4 102457. 3625.69   6
   6   2   4 100971. 4643.09   9
   6   2   5 110299. 3901.59   7
   6   2   5 112910. 3820.30   6
   6   2   6 119466. 4037.13   7
   6   2   6 109470. 3770.87   6
   6   2   7 64816.6 2708.38   7
   6   2   7 60325.4 2475.06   6
   6   2   8 68115.3 2664.10   7
   6   2   8 63876.6 2396.77   6
   6   2   9 66151.0 2416.28   7
   6   2  10 44221.3 1557.85   7
   6   3  -6 26142.1 980.770  19
   6   3  -5 17333.8 1005.44  21
   6   3  -4 9575.07 924.958  22
   6   3  -4 8877.77 806.773  21
   6   3  -3 9975.83 1031.26  22
   6   3  -3 11256.9 974.955  21
   6   3  -2 3298.65 556.733   3
   6   3  -2 3144.62 620.111  22
   6   3  -1 4187.07 681.605   3
   6   3  -1 3520.96 643.594  22
   6   3   0 8756.74 963.991   3
   6   3   0 8559.99 824.021  24
   6   3   0 7284.00 873.027  22
   6   3   1 1709.63 377.813  24
   6   3   1 1672.20 416.259  22
  -6  -3  -2 755.807 312.780  33
   6   3   2 268.337 174.448  24
   6   3   2-361.271 572.203   9
   6   3   2 1434.73 409.758   6
   6   3   3 7763.53 775.114  23
   6   3   3 7404.59 859.284   6
   6   3   3 6866.22 1018.47   9
   6   3   4 31655.2 1600.50  23
   6   3   4 29807.7 2065.37   9
   6   3   4 28449.0 1712.70   6
   6   3   5 9746.71 967.388   7
   6   3   5 9638.25 826.859  23
   6   3   5 9081.37 938.826   6
   6   3   6 18190.1 1347.40   7
   6   3   7 58382.1 2548.03   7
   6   3   8 49679.6 2229.70   7
   6   3   9 28309.3 1478.18   7
   6   3   9 28256.0 1365.98   6
   6   3  10 32454.5 1346.95   7
   6   4  -5 58909.8 1972.32  19
   6   4  -5 58574.9 1957.70  21
   6   4  -4 64921.5 2499.65  22
   6   4  -4 67923.8 2384.34  21
   6   4  -3 71000.9 2889.42  22
   6   4  -3 66240.4 2556.82  21
   6   4  -2 80133.3 3309.03  22
   6   4  -1 52631.2 2558.99  22
   6   4   0 47323.1 2139.36  24
   6   4   0 45195.6 2283.15  22
   6   4   1 32804.6 1758.72  24
   6   4   1 30604.5 1784.08  22
   6   4   2 30188.3 1762.07  24
   6   4   2 34025.3 1893.40   6
   6   4   3 64190.2 2615.72  23
   6   4   3 65240.3 2779.99   6
   6   4   4 18703.3 1264.53  23
   6   4   4 18252.0 1352.17   6
   6   4   5 688.196 254.454  23
   6   4   6 8484.44 805.972  23
   6   4   7 12772.8 1097.97   7
   6   4   7 14403.4 1008.95  23
   6   4   8 83.3788 125.430  23
   6   4   8 162.791 187.678   7
   6   4   9 6983.60 698.774   7
   6   4  10 5495.28 513.984   7
   6   4  10 5184.84 473.228   6
   6   5  -5 31889.8 1185.50  19
   6   5  -4 63580.5 2279.17  19
   6   5  -4 60069.3 2078.02  21
   6   5  -3 45142.6 2169.98  19
   6   5  -3 48058.8 2107.86  22
   6   5  -3 40601.2 1793.77  21
   6   5  -2 58833.4 2807.05  19
   6   5  -2 66994.5 2811.92  22
   6   5  -2 62557.0 2422.81  21
   6   5  -1 121775. 4426.12  19
   6   5  -1 132979. 4454.79  22
   6   5  -1 127833. 3975.81  21
   6   5   0 140840. 4448.74  24
   6   5   0 144310. 4736.96  22
   6   5   1 110069. 3788.20  24
   6   5   1 112666. 3951.60  22
   6   5   2 64530.3 2528.84   5
   6   5   2 61100.2 2687.55  24
   6   5   3 66639.4 2530.62   5
   6   5   3 63045.2 2904.10  24
   6   5   3 69237.3 2856.30  23
   6   5   3 67871.3 2853.16   6
   6   5   4 77291.7 2719.46   5
   6   5   4 73965.6 2979.90  23
   6   5   4 77282.4 3120.15   6
   6   5   5 62918.8 2642.56  23
   6   5   6 69756.3 2768.73  23
   6   5   7 44684.9 2038.50  23
   6   5   8 26062.2 1387.68  23
   6   5   9 17175.3 968.368  23
   6   5  10 12982.1 785.727   6
   6   6  -4 9797.92 672.577  19
   6   6  -3 25143.9 1240.05  22
   6   6  -3 25138.9 1184.79  20
   6   6  -3 25801.7 1413.90  19
   6   6  -2 11749.9 1081.88  19
   6   6  -2 12547.0 1018.35  22
   6   6  -1 18938.2 1431.42  19
   6   6  -1 20342.1 1429.70  22
   6   6   0 68014.2 2821.72  19
   6   6   0 76193.1 3049.80  22
   6   6   1 115164. 3782.97   5
   6   6   1 113845. 3934.06  24
   6   6   1 118107. 4090.37  22
   6   6   2 74994.8 2768.39   5
   6   6   2 68380.8 2930.31  24
   6   6   3 61373.1 2417.00   5
   6   6   3 57167.5 2724.38  24
   6   6   3 62219.9 2780.71  23
   6   6   4 90392.3 3013.55   5
   6   6   4 80546.8 3527.74  24
   6   6   4 88665.1 3498.62  23
   6   6   5 68218.0 2469.16   5
   6   6   5 67327.4 3295.81  24
   6   6   5 70226.7 3014.38  23
   6   6   5 68677.1 3019.35   6
   6   6   6 83518.2 3822.28  24
   6   6   6 83075.1 3284.13  23
   6   6   7 91697.5 3374.34  23
   6   6   8 61034.2 2517.52  24
   6   6   8 49652.9 2192.19  23
   6   6   9 39052.0 1629.15  23
   6   6  10 29300.5 1122.21  23
   6   6  10 35056.7 1344.05   6
   6   7  -3 3477.25 374.944  20
   6   7  -3 3892.97 450.570  19
   6   7  -2-10.2368 230.624  19
   6   7  -2 661.211 246.191  20
   6   7  -1 5160.55 606.715  22
   6   7  -1 4938.19 656.179  19
   6   7   0 597.335 269.111  19
   6   7   0 689.729 273.849  22
   6   7   1 1127.71 400.217   5
   6   7   1 525.397 293.253  22
   6   7   2 7593.01 814.419   5
   6   7   2 7397.37 871.693  24
   6   7   3 13523.5 1061.95   5
   6   7   3 12898.9 1163.81  24
   6   7   4 35602.8 1734.53   5
   6   7   4 34709.2 2010.34  24
   6   7   4 36177.3 2154.09  23
   6   7   5 49761.2 2033.61   5
   6   7   5 53960.9 2584.54  24
   6   7   5 46406.7 2564.72  23
   6   7   6 45649.8 2290.28  24
   6   7   6 38050.2 2285.57  23
   6   7   6 40316.8 2290.62   6
   6   7   7 59101.4 2387.74  24
   6   7   7 46714.9 2483.01  23
   6   7   8 34187.7 1802.14  23
   6   7   9 32915.4 1509.60  23
   6   7   9 36815.6 1634.65   6
   6   8  -2 21635.9 1036.12  20
   6   8  -2 22789.4 1113.00  19
   6   8  -1 15090.4 991.707  20
   6   8  -1 16862.0 1063.78  19
   6   8   0 3448.10 523.207  20
   6   8   0 4054.02 537.876  19
   6   8   1 15326.5 1134.08   5
   6   8   1 14577.9 1112.70  20
   6   8   2 18029.6 1255.54   5
   6   8   2 20400.0 1145.57   4
   6   8   2 18930.8 1271.45  22
   6   8   2 17566.5 1233.57  20
   6   8   3 5030.73 662.100   5
   6   8   3 4921.02 630.842  20
   6   8   4 2613.98 486.052   5
   6   8   4 2795.58 507.255  24
   6   8   5 372.168 264.994   5
   6   8   5 27.7568 165.811  24
   6   8   5 339.908 281.902  23
   6   8   6 1739.49 343.786   5
   6   8   6 1902.00 538.162  23
   6   8   7 5314.57 798.409  23
   6   8   8 6072.24 713.449  23
   6   8   9 6163.90 550.611  23
   6   9   0 41135.0 1705.67  20
   6   9   1 33130.9 1584.09  20
   6   9   2 60024.2 2316.71   5
   6   9   2 55496.3 2205.47  20
   6   9   3 32201.9 1657.34   5
   6   9   3 33519.8 1545.05  20
   6   9   4 14356.4 1046.16   5
   6   9   5 22641.9 1249.08   5
   6   9   6 30777.5 1332.67   5
   6   9   7 18158.8 1163.43  23
   6  10   3 66192.1 2333.68   5
   6  10   4 59608.1 2189.93   5
   6  10   5 44379.8 1695.23   5
  -7   3   1 1328.11 171.457  13
  -7   3   0 93.1692 71.8900  13
  -7   3   0 97.7268 79.8188  11
   7  -3   0 133.536 114.474   9
  -7   3  -1 7487.13 460.997  11
   7  -3   1 6454.71 514.784   9
  -7   3  -2 8586.33 490.800  11
   7  -3   2 7867.16 590.377   9
  -7   3  -3 6824.06 391.731  14
  -7   3  -3 7298.82 426.888  11
   7  -3   3 6785.18 517.586   9
  -7   3  -4 7851.35 402.816  11
  -7   2   3 29507.5 973.434  13
  -7   2   2 34318.9 1167.25  13
  -7   2   1 32082.8 1173.13  13
  -7   2   1 30492.1 1157.45  11
  -7   2   0 32582.2 1243.85  11
   7  -2   0 32098.8 1407.74   9
  -7   2  -1 21994.5 1000.54  11
   7  -2   1 22481.6 1215.91   9
  -7   2  -2 14736.1 717.622  14
  -7   2  -2 14189.1 771.144  11
   7  -2   2 14488.7 998.580   9
  -7   2  -3 5302.05 420.408  14
   7  -2   3 5522.66 629.730   9
  -7   2  -4 980.001 183.102  14
   7  -2   4 897.183 274.714   9
  -7   2  -5 121.965 87.2158  14
   7  -2   5 175.217 134.612   9
  -7   1   4 34917.5 1074.52  13
  -7   1   3 59440.6 1714.39  13
   7  -1  -3 54434.1 1749.90  21
  -7   1   2 55382.5 1762.22  13
  -7   1   1 47873.1 1671.90  11
   7  -1  -1 47754.6 1839.67   9
  -7   1   0 79386.9 2424.77  11
   7  -1   0 77878.6 2775.56   9
   7  -1   0 81535.3 2964.82   3
   7  -1   1 64713.9 2598.43   3
  -7   1  -1 66825.6 2166.78  11
   7  -1   1 66558.7 2638.64   9
   7  -1   2 47041.1 2089.51   3
  -7   1  -2 46889.0 1716.61  11
   7  -1   2 50915.1 2271.55   9
   7  -1   3 67417.2 2706.74   7
  -7   1  -3 67237.2 2048.28  14
   7  -1   3 69146.1 2742.37   9
   7  -1   4 69553.0 2681.04   7
  -7   1  -4 72237.0 2135.73  14
   7  -1   4 69527.2 2628.29   9
   7  -1   5 51467.6 2107.87   7
  -7   1  -5 54803.2 1693.62  14
   7  -1   5 49043.6 1946.86   9
   7  -1   6 16900.2 1019.81   7
  -7   1  -6 19334.9 816.160  14
   7  -1   7 8614.80 598.809   7
  -7   1  -7 9818.70 476.018  14
  -7   0   4 13883.7 634.063  13
   7   0  -4 12471.3 685.456  21
  -7   0   3 22869.1 982.012  13
  -7   0   2 51948.3 1783.24  13
   7   0  -1 48412.8 2256.32   3
   7   0   0 66950.1 2794.85   3
  -7   0   0 65348.5 2197.78  11
   7   0   0 68320.5 2723.44   9
   7   0   1 79968.5 3169.65   3
  -7   0  -1 84106.9 2620.47  11
   7   0   1 86306.4 3364.42   9
   7   0   2 39384.2 2048.88   3
   7   0   2 37760.0 2031.46   7
  -7   0  -2 39640.9 1598.18  11
   7   0   2 41241.3 2300.66   9
   7   0   3 50921.2 2318.19   3
   7   0   3 50375.3 2394.28   7
   7   0   3 55549.3 2728.57   9
   7   0   4 92721.2 3262.75   3
   7   0   4 96305.3 3463.77   7
   7   0   5 107688. 3583.63   7
   7   0   5 102535. 3501.11   9
   7   0   6 98041.8 3243.32   7
   7   0   7 59295.0 2146.73   7
   7   0   8 26517.7 1100.05   7
  -7  -1   4 2866.54 275.928  13
   7   1  -4 2919.84 372.510  21
  -7  -1   3 68.3138 101.335  13
  -7  -1   2 10616.8 711.933  13
   7   1  -2 9549.38 852.775  22
   7   1  -1 14528.6 1211.77   3
   7   1   0 2354.26 538.438   3
   7   1   0 2818.84 571.025   9
   7   1   1 12748.9 1189.77   3
   7   1   1 15049.9 1416.44   9
   7   1   2 42865.9 2238.64   3
   7   1   2 42454.2 2177.29   7
   7   1   2 43005.7 2634.90   9
   7   1   3 33313.2 1913.26   7
   7   1   3 37931.5 2520.47   9
   7   1   4 36418.3 1981.86   7
   7   1   4 45129.0 2592.77   9
   7   1   5 42763.6 2122.79   7
   7   1   5 48356.6 2393.85   9
   7   1   6 46806.9 2130.57   7
   7   1   7 45383.6 1959.54   7
   7   1   8 48707.5 1832.46   7
   7   2  -4 30958.7 1344.62  21
   7   2  -3 20831.6 1216.78  21
   7   2  -2 29959.9 1662.61  22
   7   2  -2 29769.4 1664.97   3
   7   2  -1 16686.2 1297.18   3
  -7  -2   1 17032.1 971.503  13
   7   2  -1 16561.0 1278.86  22
   7   2   0 7218.04 898.266   3
   7   2   0 6675.80 811.808  22
   7   2   1 13675.4 1257.88   3
   7   2   1 14153.0 1126.68  22
   7   2   1 12204.6 1363.56   9
   7   2   2 8993.96 1269.18   9
   7   2   3 273.078 237.913  24
   7   2   3 594.952 331.499   7
   7   2   3 525.478 642.400   9
   7   2   4 16453.8 1276.48   7
   7   2   4 18244.9 1341.41   6
   7   2   4 17050.3 1701.87   9
   7   2   5 5645.32 727.846   7
   7   2   5 6866.40 788.435   6
   7   2   5 6182.40 882.017   9
   7   2   6 596.540 280.326   7
   7   2   6 603.468 332.718   6
   7   2   7 5370.40 658.184   7
   7   2   7 5136.23 590.324   6
   7   2   8 8712.68 736.707   7
   7   2   8 8082.01 624.559   6
   7   2   9 10971.7 688.812   7
   7   3  -4 45570.9 1668.63  21
   7   3  -3 33680.7 1648.80  22
   7   3  -3 31251.3 1534.16  21
   7   3  -2 35990.6 1903.18  22
   7   3  -1 85470.6 3210.91   3
   7   3  -1 83526.5 3258.26  22
   7   3   0 103217. 3789.45   3
   7   3   0 101642. 3688.74  22
   7   3   1 73457.2 3081.69   3
   7   3   1 68112.2 2580.11  24
   7   3   1 65381.0 2770.36  22
   7   3   2 47393.5 2112.54  24
   7   3   2 44875.2 2123.67  22
   7   3   3 62071.0 2588.77  24
   7   3   3 61683.4 2461.34  22
   7   3   3 63954.1 2742.14   6
   7   3   4 40318.7 2094.14   6
   7   3   4 35167.4 2448.89   9
   7   3   5 10934.6 1045.01   6
   7   3   6 15529.2 1181.76   7
   7   3   6 15632.8 1197.28   6
   7   3   7 6323.47 708.805   7
   7   3   7 6096.74 693.772   6
   7   3   8 456.538 201.354   6
   7   3   8 964.899 282.271   7
   7   3   9 2925.75 380.391   7
   7   3   9 2882.89 330.861   6
   7   4  -4 33287.5 1367.17  19
   7   4  -4 35948.2 1343.75  21
   7   4  -3 34858.7 1747.02  19
   7   4  -3 39327.2 1741.69  22
   7   4  -3 36339.5 1579.93  21
   7   4  -2 39105.1 1959.68  22
   7   4  -2 33958.4 1687.68  21
   7   4  -1 65817.0 2841.98  22
   7   4   0 81546.1 3132.21   3
   7   4   0 78445.4 3189.63  22
   7   4   1 82805.1 3288.40   3
   7   4   1 77865.6 2948.47  24
   7   4   1 76564.7 3100.14  22
   7   4   2 76042.8 2998.10  24
   7   4   2 76904.0 3009.43  22
   7   4   3 81952.6 3333.64  24
   7   4   3 93264.1 3481.93   6
   7   4   4 99951.5 3969.91  24
   7   4   4 110301. 3860.35   6
   7   4   5 69736.1 2607.30  23
   7   4   5 68362.4 2857.99   6
   7   4   6 61102.2 2312.74  23
   7   4   6 63491.1 2643.33   6
   7   4   7 84217.5 3029.87   6
   7   4   8 36618.8 1654.63   7
   7   4   8 36809.9 1671.20   6
   7   4   9 13428.3 806.155   7
   7   4   9 15599.8 877.149   6
   7   5  -3 14184.8 966.303  19
   7   5  -3 13944.5 910.437  22
   7   5  -3 13945.4 831.580  21
   7   5  -2 9817.17 956.369  19
   7   5  -2 9890.31 917.613  22
   7   5  -2 9589.92 780.763  21
   7   5  -1 12928.1 1173.27  19
   7   5  -1 15780.2 1250.42  22
   7   5  -1 12889.6 994.378  21
   7   5   0 36321.6 2036.61  22
   7   5   1 36128.2 1914.85  24
   7   5   1 37265.6 2052.47  22
   7   5   2 43492.7 2216.13  24
   7   5   2 44500.7 2231.55  22
   7   5   3 34858.7 2082.22  24
   7   5   3 38817.4 2087.64   6
   7   5   4 35987.4 2266.88  24
   7   5   4 39000.5 2117.80   6
   7   5   5 61892.1 3293.88  24
   7   5   5 68174.7 2677.36  23
   7   5   5 67549.7 2869.62   6
   7   5   6 67846.5 2578.36  23
   7   5   6 65199.5 2771.82   6
   7   5   7 63434.7 2343.67  23
   7   5   7 66956.8 2631.33   6
   7   5   8 61745.0 2113.17  23
   7   5   8 70238.2 2483.27   6
   7   5   9 63155.3 2184.85  24
   7   5   9 61360.1 2085.44   6
   7   6  -3 9037.98 645.510  19
   7   6  -2 4856.32 559.407  22
   7   6  -2 3966.85 555.787  19
   7   6  -1 4734.00 636.187  22
   7   6  -1 4997.17 673.233  19
   7   6   0 273.828 283.113  22
   7   6   1 1201.02 408.494  22
   7   6   2 2534.65 557.429  24
   7   6   2 2366.16 510.332  22
   7   6   3 9971.96 1086.26  24
   7   6   4 5591.71 910.260  24
   7   6   4 6392.70 817.444   6
   7   6   5 3113.85 762.530  24
   7   6   5 3532.82 622.778  23
   7   6   5 3665.41 626.093   6
   7   6   6 12273.7 1397.20  24
   7   6   6 13628.3 1099.06  23
   7   6   6 15003.1 1225.75   6
   7   6   7 39206.8 2300.57  24
   7   6   7 34682.4 1697.38  23
   7   6   7 35672.1 1856.40   6
   7   6   8 32208.4 1706.48  24
   7   6   8 27565.4 1329.66  23
   7   6   8 28320.4 1490.40   6
   7   6   9 16322.9 852.287  24
   7   6   9 15559.8 783.735  23
   7   7  -2 44705.0 1527.88  20
   7   7  -1 31434.7 1448.67  22
   7   7  -1 31145.3 1460.94  20
   7   7   0 21169.5 1318.70  22
   7   7   1 21998.7 1455.97  22
   7   7   2 28470.7 1731.71  22
   7   7   3 14391.0 1256.34  24
   7   7   3 16123.0 1302.10  22
   7   7   4 6413.54 887.496  24
   7   7   5 1711.95 482.517  24
   7   7   5 1537.47 438.719  23
   7   7   6 783.447 336.959  24
   7   7   6-86.8638 257.084  23
   7   7   6 512.051 343.638   6
   7   7   7 18.8777 217.539   6
   7   7   7 142.705 220.097  24
   7   7   7 112.807 210.073  23
   7   7   8 52.6777 180.042   6
   7   7   8 298.109 197.279  24
   7   7   8 247.678 161.652  23
   7   8  -1 59956.2 1961.61  20
   7   8   0 35230.8 1609.19  20
   7   8   1 28581.2 1439.88  22
   7   8   1 23863.7 1421.59  20
   7   8   2 72564.3 2727.33  22
   7   8   2 65690.9 2632.19  20
   7   8   3 74833.6 2907.80  22
   7   8   3 67459.9 2561.82  20
   7   8   4 42364.8 2183.93  22
   7   8   5 47722.6 2217.92  24
   7   8   6 30008.1 1542.77  24
   7   8   7 12607.8 1040.82  23
   7   8   8 14141.7 905.896  23
   7   9   1 36044.3 1568.34  20
   7   9   2 38776.2 1687.92  20
   7   9   3 49097.7 1839.98  20
   7   9   4 44276.9 1940.53  22
   7   9   5 42452.7 1966.02  22
   7   9   6 77200.1 2765.57  22
  -8   1   1 11692.7 511.715  13
  -8   1   0 22184.7 818.916  13
  -8   1  -2 38162.3 1135.05  11
   8  -1   2 38620.9 1423.78   9
  -8   1  -3 34400.5 1036.27  11
   8  -1   3 37783.8 1358.93   9
   8  -1   4 40703.3 1354.79   9
  -8   0   2 173.284 57.9297  13
   8   0  -2 190.015 99.4653  21
  -8   0   1 706.414 143.440  13
  -8   0   0 39.0253 83.0781  13
   8   0   1 723.505 244.090   3
   8   0   2 4746.33 544.363   9
   8   0   2 3934.01 489.526   3
   8   0   3 4669.89 495.037   3
   8   0   3 4778.80 560.244   9
   8   0   4 11924.9 801.331   9
   8   0   5 20335.0 1033.78   7
   8   0   5 17738.5 866.162   9
   8   0   6 23415.6 1006.36   7
  -8  -1   2 23559.6 837.918  13
   8   1  -2 25019.3 1073.75  21
  -8  -1   1 19812.8 846.990  13
   8   1   0 6604.92 690.211   3
   8   1   1 14332.8 1044.76   3
   8   1   2 18352.0 1194.15   3
   8   1   2 19260.8 1293.64   9
   8   1   3 10380.3 869.603   3
   8   1   3 11884.4 1004.44   9
   8   1   4 3270.55 471.638   3
   8   1   4 2606.40 447.739   7
   8   1   4 2494.13 458.476   9
   8   1   5 93.4575 155.024   3
   8   1   5 204.641 205.553   7
   8   1   5-192.458 220.968   9
   8   1   6 369.412 191.457   7
   8   2  -3 48100.7 1501.22  21
   8   2  -2 41354.4 1567.04  21
   8   2  -1 57310.3 1953.75  22
  -8  -2   0 51673.8 1684.70  13
   8   2   0 50844.2 2137.73   3
   8   2   1 39057.0 1899.45   3
   8   2   2 70507.5 2747.82   3
   8   2   3 62159.0 2524.29   3
   8   2   4 28889.6 1569.65   3
   8   2   4 27627.3 1452.80   7
   8   2   5 17759.3 1101.19   7
   8   2   6 18460.5 1056.56   7
   8   2   6 17418.7 881.073  24
   8   2   7 18266.2 891.244   3
   8   2   7 17488.7 925.206   7
   8   2   7 17770.2 798.459  24
   8   3  -3 17039.9 779.869  21
   8   3  -2 8859.78 666.869  21
   8   3  -1 23044.7 1231.30  22
   8   3   0 90423.8 3088.63   3
   8   3   0 89226.4 2981.51  22
   8   3   1 81752.5 2995.04   3
   8   3   1 77849.9 2762.18  22
   8   3   2 53148.3 2353.74   3
   8   3   2 50921.8 2076.62  22
   8   3   3 64665.8 2651.83   3
   8   3   3 59753.5 2170.65  24
   8   3   4 63586.3 2281.01  24
   8   3   5 48168.3 1909.41  24
   8   3   6 42822.6 1718.30  24
   8   3   7 45346.6 1692.20   7
   8   3   7 51296.3 1755.46  24
   8   3   8 28343.0 1062.41  24
   8   4  -2 1411.84 283.020  22
   8   4  -2 1588.50 284.944  21
   8   4  -1 667.980 277.708  22
   8   4  -1 615.739 238.436  21
   8   4   0 2784.23 452.621   3
   8   4   0 3109.64 507.711  22
   8   4   1 17835.8 1243.96   3
   8   4   1 17771.8 1211.64  22
   8   4   2 35965.1 1888.36   3
   8   4   2 32972.5 1576.85  24
   8   4   2 33179.3 1687.10  22
   8   4   3 30843.8 1575.90  24
   8   4   3 31434.3 1585.63  22
   8   4   4 20725.4 1291.63  24
   8   4   4 19943.0 1179.48  22
   8   4   5 38043.3 1834.88  24
   8   4   5 38803.7 1854.01   6
   8   4   6 49316.6 2073.55  24
   8   4   6 47807.9 2010.48   6
   8   4   7 45636.2 1840.36  24
   8   4   7 45776.3 1805.88   6
   8   4   8 44158.3 1568.57  24
   8   4   8 42804.6 1527.75   6
   8   5  -2 11638.6 719.171  22
   8   5  -1 5147.46 577.175  22
   8   5  -1 4318.89 476.460  21
   8   5   0 1542.14 370.346  22
   8   5   0 1618.84 358.866  21
   8   5   1 4668.51 641.476  22
   8   5   2 9340.80 898.492   3
   8   5   2 9952.43 869.821  24
   8   5   2 10069.8 916.651  22
   8   5   3 74.4484 221.609   3
   8   5   3 443.108 263.980  24
   8   5   3 470.430 264.812  22
   8   5   4 716.790 304.158  24
   8   5   4 934.047 278.121  22
   8   5   5 1125.91 380.101  24
   8   5   5 717.912 252.883  22
   8   5   5 1143.29 365.926   6
   8   5   6 8516.36 903.348  24
   8   5   6 7098.37 725.572   6
   8   5   7 8150.16 804.972  24
   8   5   7 7194.40 664.640   6
   8   5   8 9734.20 700.733  24
   8   5   8 8414.03 621.436   6
   8   6  -1 35840.4 1476.32  22
   8   6   0 30572.7 1529.86  22
   8   6   1 20597.0 1312.18  22
   8   6   2 26244.0 1519.69  22
   8   6   3 24580.2 1528.42  24
   8   6   3 25307.0 1476.90  22
   8   6   4 16550.6 1294.97  24
   8   6   4 16275.4 1129.87  22
   8   6   5 26794.2 1738.28  24
   8   6   5 29052.1 1472.17  22
   8   6   6 13995.8 1212.10  24
   8   6   6 14697.0 1050.87   6
   8   6   7 278.990 267.512  24
   8   6   7 1036.48 295.945   6
   8   6   8 971.600 245.443  24
   8   6   8 1164.73 232.113   6
   8   7   0 46344.2 1710.79  22
   8   7   0 39908.2 1669.88  20
   8   7   1 47503.5 1984.56  22
   8   7   2 46306.5 2054.47  22
   8   7   3 50274.7 2185.27  22
   8   7   4 36551.4 1993.20  24
   8   7   4 39312.3 1860.87  22
   8   7   5 37289.3 2019.19  24
   8   7   5 35708.4 1715.86  22
   8   7   6 44184.0 2132.85  24
   8   7   7 33860.2 1566.02  24
   8   8   2 32041.6 1479.25  22
   8   8   2 26023.5 1384.69  20
   8   8   3 46583.4 1938.46  22
   8   8   3 33049.8 1525.99  20
   8   8   4 46300.2 2040.17  22
   8   8   5 40508.1 1850.39  22
   8   8   6 38383.1 1675.40  22
   9   2   1 24593.9 1046.95   3
   9   2   2 22238.4 1027.63   3
   9   2   3 39323.6 1456.51   3
   9   2   4 34766.6 1287.49   3
   9   3   1 4165.44 426.666   3
   9   3   2 7368.12 605.655   3
   9   3   3 11555.8 773.664   3
   9   3   4 12576.1 791.904   3
   9   3   5 6158.20 507.519   3
   9   4   1 9822.82 589.155  22
   9   4   1 10132.5 648.769   3
   9   4   2 1340.16 269.870   3
   9   4   2 1591.09 253.150  22
   9   4   3 796.557 247.535   3
   9   4   4 1762.18 336.153   3
   9   4   5 1014.58 244.189   3
   9   4   5 447.544 141.743  24
   9   4   6 202.574 127.283   3
   9   5   1 27134.6 1113.51  22
   9   5   2 44600.8 1589.07  22
   9   5   3 36168.0 1460.54   3
   9   5   3 33210.5 1328.14  22
   9   5   4 20437.9 1071.31   3
   9   5   4 21125.2 958.295  24
   9   5   4 19048.0 906.923  22
   9   5   5 25477.8 1177.97   3
   9   5   5 24663.7 1054.30  24
   9   5   6 16795.3 858.689   3
   9   6   2 23475.3 1067.00  22
   9   6   3 36570.3 1423.04  22
   9   6   4 45072.4 1578.58  22
   9   6   5 41563.0 1523.14  24
   0   0   0    0.00    0.00   0

TITL s17alj25 in P-1
REM P-1 (#2 in standard setting)
CELL 1.54184   7.571177   8.674387   9.263811  73.1536  74.1041  68.1377
ZERR    3.00   0.000433   0.000493   0.000435   0.0046   0.0047   0.0054
LATT  1
SFAC C H N O Sn
UNIT 21.00 54.00 6.00 3.00 3.00
TREF
HKLF 4
END
;
_shelx_hkl_checksum              21137
loop_
_space_group_symop_operation_xyz
'x, y, z'
'-x, -y, -z'
loop_
_atom_site_label
_atom_site_type_symbol
_atom_site_fract_x
_atom_site_fract_y
_atom_site_fract_z
_atom_site_U_iso_or_equiv
_atom_site_adp_type
_atom_site_occupancy
_atom_site_site_symmetry_order
_atom_site_calc_flag
_atom_site_refinement_flags_posn
_atom_site_refinement_flags_adp
_atom_site_refinement_flags_occupancy
_atom_site_disorder_assembly
_atom_site_disorder_group
Sn1 Sn 0.34543(3) 0.38646(2) 0.51699(2) 0.01721(11) Uani 1 1 d . . . . .
O1 O 0.5480(4) 0.1684(3) 0.6024(3) 0.0229(5) Uani 1 1 d . . . . .
N1 N 0.1586(5) 0.2119(4) 0.7661(4) 0.0235(6) Uani 1 1 d . . . . .
N2 N 0.3929(4) 0.5357(3) 0.6524(3) 0.0194(6) Uani 1 1 d . . . . .
C1 C 0.4942(5) 0.0261(4) 0.6947(4) 0.0213(7) Uani 1 1 d . . . . .
H1 H 0.456194 -0.025855 0.629509 0.026 Uiso 1 1 calc R U . . .
C2 C 0.6698(6) -0.1032(5) 0.7604(5) 0.0300(8) Uani 1 1 d . . . . .
H2A H 0.636474 -0.204314 0.823168 0.045 Uiso 1 1 calc R U . . .
H2B H 0.708069 -0.052819 0.824157 0.045 Uiso 1 1 calc R U . . .
H2C H 0.777533 -0.135259 0.676153 0.045 Uiso 1 1 calc R U . . .
C3 C 0.3239(6) 0.0770(5) 0.8245(4) 0.0242(7) Uani 1 1 d . . . . .
H3A H 0.283625 -0.023616 0.882736 0.029 Uiso 1 1 calc R U . . .
H3B H 0.365718 0.116336 0.895863 0.029 Uiso 1 1 calc R U . . .
C4 C 0.0208(6) 0.2972(6) 0.8868(5) 0.0356(9) Uani 1 1 d . . . . .
H4A H -0.082458 0.391786 0.841849 0.053 Uiso 1 1 calc R U . . .
H4B H 0.088329 0.340701 0.934263 0.053 Uiso 1 1 calc R U . . .
H4C H -0.035549 0.216043 0.964912 0.053 Uiso 1 1 calc R U . . .
C5 C 0.0562(6) 0.1487(5) 0.6954(5) 0.0317(8) Uani 1 1 d . . . . .
H5A H -0.052492 0.242904 0.657308 0.048 Uiso 1 1 calc R U . . .
H5B H 0.007209 0.061949 0.771701 0.048 Uiso 1 1 calc R U . . .
H5C H 0.145298 0.098986 0.609636 0.048 Uiso 1 1 calc R U . . .
C6 C 0.4655(6) 0.4438(5) 0.7958(4) 0.0269(8) Uani 1 1 d . . . . .
H6A H 0.512112 0.516431 0.829788 0.040 Uiso 1 1 calc R U . . .
H6B H 0.572205 0.340097 0.778217 0.040 Uiso 1 1 calc R U . . .
H6C H 0.360731 0.413854 0.875092 0.040 Uiso 1 1 calc R U . . .
C7 C 0.2191(6) 0.6804(5) 0.6830(5) 0.0291(8) Uani 1 1 d . . . . .
H7A H 0.251280 0.755970 0.725160 0.044 Uiso 1 1 calc R U . . .
H7B H 0.118169 0.638788 0.757230 0.044 Uiso 1 1 calc R U . . .
H7C H 0.171905 0.743009 0.587215 0.044 Uiso 1 1 calc R U . . .
loop_
_atom_site_aniso_label
_atom_site_aniso_U_11
_atom_site_aniso_U_22
_atom_site_aniso_U_33
_atom_site_aniso_U_23
_atom_site_aniso_U_13
_atom_site_aniso_U_12
Sn1 0.02146(16) 0.01557(15) 0.01257(15) -0.00105(9) -0.00431(9) -0.00428(10)
O1 0.0250(12) 0.0158(11) 0.0194(11) 0.0011(9) -0.0020(9) -0.0024(9)
N1 0.0255(15) 0.0227(14) 0.0196(15) -0.0020(12) -0.0036(12) -0.0069(12)
N2 0.0236(14) 0.0156(12) 0.0119(12) -0.0027(10) -0.0001(10) -0.0007(11)
C1 0.0301(18) 0.0134(14) 0.0169(15) 0.0011(12) -0.0071(13) -0.0043(13)
C2 0.032(2) 0.0262(18) 0.0245(18) 0.0004(14) -0.0091(15) -0.0024(16)
C3 0.0303(18) 0.0235(16) 0.0166(15) 0.0006(13) -0.0066(13) -0.0080(14)
C4 0.031(2) 0.037(2) 0.034(2) -0.0116(17) 0.0045(16) -0.0104(17)
C5 0.031(2) 0.034(2) 0.032(2) -0.0034(16) -0.0094(16) -0.0116(17)
C6 0.039(2) 0.0304(18) 0.0121(15) 0.0001(13) -0.0072(14) -0.0142(16)
C7 0.0298(19) 0.0212(16) 0.0266(18) -0.0092(14) 0.0077(15) -0.0034(15)
loop_
_atom_type_symbol
_atom_type_description
_atom_type_scat_dispersion_real
_atom_type_scat_dispersion_imag
_atom_type_scat_source
C C 0.0181 0.0091 'International Tables Vol C Tables 4.2.6.8 and 6.1.1.4'
H H 0.0000 0.0000 'International Tables Vol C Tables 4.2.6.8 and 6.1.1.4'
N N 0.0311 0.0180 'International Tables Vol C Tables 4.2.6.8 and 6.1.1.4'
O O 0.0492 0.0322 'International Tables Vol C Tables 4.2.6.8 and 6.1.1.4'
Sn Sn 0.0259 5.4591 'International Tables Vol C Tables 4.2.6.8 and 6.1.1.4'
loop_
_exptl_crystal_face_index_h
_exptl_crystal_face_index_k
_exptl_crystal_face_index_l
_exptl_crystal_face_perp_dist
3 0 5 0.0836
-3 0 -5 0.0570
1 5 -1 0.1224
-1 -5 2 0.1176
-3 3 1 0.0637
3 -3 -1 0.0947
0 5 1 0.1000
-5 -1 0 0.0884
-1 2 5 0.0685
1 4 5 0.0965
3 2 -4 0.1175
1 -2 -5 0.0957
3 -2 2 0.0887
5 0 2 0.1000
-4 2 -2 0.0594
-5 -1 -2 0.0858
-3 0 3 0.0752
-2 3 4 0.0634
4 2 -2 0.1160
0 0 -6 0.0766
loop_
_geom_angle_atom_site_label_1
_geom_angle_atom_site_label_2
_geom_angle_atom_site_label_3
_geom_angle
_geom_angle_site_symmetry_1
_geom_angle_site_symmetry_3
_geom_angle_publ_flag
O1 Sn1 N2 92.59(10) . . ?
O1 Sn1 N2 86.48(10) . 2_666 ?
N2 Sn1 N2 80.64(11) . 2_666 ?
O1 Sn1 N1 72.21(10) . . ?
N2 Sn1 N1 93.82(10) . . ?
N2 Sn1 N1 157.78(10) 2_666 . ?
C1 O1 Sn1 121.0(2) . . ?
C5 N1 C3 112.1(3) . . ?
C5 N1 C4 109.0(3) . . ?
C3 N1 C4 111.9(3) . . ?
C5 N1 Sn1 102.0(2) . . ?
C3 N1 Sn1 100.5(2) . . ?
C4 N1 Sn1 120.9(2) . . ?
C7 N2 C6 109.4(3) . . ?
C7 N2 Sn1 111.3(2) . . ?
C6 N2 Sn1 117.8(2) . . ?
C7 N2 Sn1 114.0(2) . 2_666 ?
C6 N2 Sn1 104.7(2) . 2_666 ?
Sn1 N2 Sn1 99.36(10) . 2_666 ?
O1 C1 C2 108.1(3) . . ?
O1 C1 C3 111.1(3) . . ?
C2 C1 C3 110.3(3) . . ?
O1 C1 H1 109.1 . . ?
C2 C1 H1 109.1 . . ?
C3 C1 H1 109.1 . . ?
C1 C2 H2A 109.5 . . ?
C1 C2 H2B 109.5 . . ?
H2A C2 H2B 109.5 . . ?
C1 C2 H2C 109.5 . . ?
H2A C2 H2C 109.5 . . ?
H2B C2 H2C 109.5 . . ?
N1 C3 C1 111.8(3) . . ?
N1 C3 H3A 109.3 . . ?
C1 C3 H3A 109.3 . . ?
N1 C3 H3B 109.3 . . ?
C1 C3 H3B 109.3 . . ?
H3A C3 H3B 107.9 . . ?
N1 C4 H4A 109.5 . . ?
N1 C4 H4B 109.5 . . ?
H4A C4 H4B 109.5 . . ?
N1 C4 H4C 109.5 . . ?
H4A C4 H4C 109.5 . . ?
H4B C4 H4C 109.5 . . ?
N1 C5 H5A 109.5 . . ?
N1 C5 H5B 109.5 . . ?
H5A C5 H5B 109.5 . . ?
N1 C5 H5C 109.5 . . ?
H5A C5 H5C 109.5 . . ?
H5B C5 H5C 109.5 . . ?
N2 C6 H6A 109.5 . . ?
N2 C6 H6B 109.5 . . ?
H6A C6 H6B 109.5 . . ?
N2 C6 H6C 109.5 . . ?
H6A C6 H6C 109.5 . . ?
H6B C6 H6C 109.5 . . ?
N2 C7 H7A 109.5 . . ?
N2 C7 H7B 109.5 . . ?
H7A C7 H7B 109.5 . . ?
N2 C7 H7C 109.5 . . ?
H7A C7 H7C 109.5 . . ?
H7B C7 H7C 109.5 . . ?
loop_
_geom_bond_atom_site_label_1
_geom_bond_atom_site_label_2
_geom_bond_distance
_geom_bond_site_symmetry_2
_geom_bond_publ_flag
Sn1 O1 2.047(2) . ?
Sn1 N2 2.216(3) . ?
Sn1 N2 2.350(3) 2_666 ?
Sn1 N1 2.720(3) . ?
O1 C1 1.412(4) . ?
N1 C5 1.460(5) . ?
N1 C3 1.464(5) . ?
N1 C4 1.467(5) . ?
N2 C7 1.470(4) . ?
N2 C6 1.471(4) . ?
C1 C2 1.527(5) . ?
C1 C3 1.529(5) . ?
C1 H1 1.0000 . ?
C2 H2A 0.9800 . ?
C2 H2B 0.9800 . ?
C2 H2C 0.9800 . ?
C3 H3A 0.9900 . ?
C3 H3B 0.9900 . ?
C4 H4A 0.9800 . ?
C4 H4B 0.9800 . ?
C4 H4C 0.9800 . ?
C5 H5A 0.9800 . ?
C5 H5B 0.9800 . ?
C5 H5C 0.9800 . ?
C6 H6A 0.9800 . ?
C6 H6B 0.9800 . ?
C6 H6C 0.9800 . ?
C7 H7A 0.9800 . ?
C7 H7B 0.9800 . ?
C7 H7C 0.9800 . ?
loop_
_geom_torsion_atom_site_label_1
_geom_torsion_atom_site_label_2
_geom_torsion_atom_site_label_3
_geom_torsion_atom_site_label_4
_geom_torsion
_geom_torsion_site_symmetry_1
_geom_torsion_site_symmetry_2
_geom_torsion_site_symmetry_3
_geom_torsion_site_symmetry_4
_geom_torsion_publ_flag
Sn1 O1 C1 C2 -171.0(2) . . . . ?
Sn1 O1 C1 C3 -49.9(4) . . . . ?
C5 N1 C3 C1 74.8(4) . . . . ?
C4 N1 C3 C1 -162.4(3) . . . . ?
Sn1 N1 C3 C1 -32.8(3) . . . . ?
O1 C1 C3 N1 55.0(4) . . . . ?
C2 C1 C3 N1 174.9(3) . . . . ?
loop_
_exptl_oxdiff_crystal_face_indexfrac_h
_exptl_oxdiff_crystal_face_indexfrac_k
_exptl_oxdiff_crystal_face_indexfrac_l
_exptl_oxdiff_crystal_face_x
_exptl_oxdiff_crystal_face_y
_exptl_oxdiff_crystal_face_z
2.9976 0.0012 4.9962 -0.8489 -0.5349 0.0255
-2.9976 -0.0012 -4.9962 0.8489 0.5349 -0.0255
0.9983 4.9927 -0.9976 0.3011 0.3331 0.8848
-0.9983 -4.9923 1.9971 -0.4733 -0.3121 -0.9187
-2.9981 2.9968 1.0023 -0.1095 1.0014 0.2427
2.9981 -2.9968 -1.0023 0.1095 -1.0014 -0.2427
-0.0009 4.9935 1.0019 -0.0474 0.5884 0.7520
-4.9958 -0.9978 0.0018 -0.0453 0.9530 -0.4821
-0.9995 1.9992 4.9990 -0.8152 0.5453 0.0799
0.9985 3.9961 4.9990 -0.7571 0.3457 0.5243
2.9972 1.9953 -3.9985 0.7510 -0.4970 0.6449
0.9995 -1.9992 -4.9990 0.8152 -0.5453 -0.0799
2.9980 -1.9971 1.9967 -0.3822 -0.8249 -0.1872
4.9960 -0.0002 1.9968 -0.3241 -1.0245 0.2572
-3.9972 1.9973 -1.9963 0.3781 1.0382 0.1222
-4.9958 -0.9984 -1.9973 0.2991 0.9110 -0.4143
-2.9976 0.0016 2.9999 -0.5288 0.7029 -0.2966
-1.9989 2.9977 4.0004 -0.6221 0.8511 0.2060
3.9964 1.9959 -1.9999 0.4106 -0.6683 0.6421
-0.0000 -0.0021 -5.9971 1.0333 -0.1260 0.2033
