#------------------------------------------------------------------------------
#$Date: 2021-10-07 02:09:25 +0300 (Thu, 07 Oct 2021) $
#$Revision: 269803 $
#$URL: file:///home/coder/svn-repositories/cod/cif/7/70/85/7708515.cif $
#------------------------------------------------------------------------------
#
# This file is available in the Crystallography Open Database (COD),
# http://www.crystallography.net/
#
# All data on this site have been placed in the public domain by the
# contributors.
#
data_7708515
loop_
_publ_author_name
'Qiu, Haotian'
'Xia, Ming'
'Cai, Wenbing'
'Yang, Zhihua'
'Liu, Yanli'
'Mutailipu, Miriding'
'Pan, Shilie'
_publ_section_title
;
 BaZn<sub>3</sub>(BO<sub>3</sub>)<sub>2</sub>F<sub>2</sub>: a new
 beryllium-free zincoborate with a KBBF-type structure.
;
_journal_issue                   38
_journal_name_full
'Dalton transactions (Cambridge, England : 2003)'
_journal_page_first              13216
_journal_page_last               13219
_journal_paper_doi               10.1039/d1dt02356j
_journal_volume                  50
_journal_year                    2021
_chemical_formula_moiety         'B2 Ba1 F2 O6 Zn3'
_chemical_formula_sum            'B2 Ba F2 O6 Zn3'
_chemical_formula_weight         489.07
_space_group_crystal_system      trigonal
_space_group_IT_number           147
_space_group_name_Hall           '-P 3'
_space_group_name_H-M_alt        'P -3'
_atom_sites_solution_primary     dual
_audit_creation_date             2021-07-02
_audit_creation_method
;
Olex2 1.3
(compiled 2020.11.12 svn.r5f609507 for OlexSys, GUI svn.r6272)
;
_audit_update_record
;
2021-07-07 deposited with the CCDC.	2021-08-26 downloaded from the CCDC.
;
_cell_angle_alpha                90
_cell_angle_beta                 90
_cell_angle_gamma                120
_cell_formula_units_Z            1
_cell_length_a                   4.8900(5)
_cell_length_b                   4.8900(5)
_cell_length_c                   7.7146(10)
_cell_measurement_reflns_used    2631
_cell_measurement_temperature    300.0
_cell_measurement_theta_max      27.43
_cell_measurement_theta_min      4.81
_cell_volume                     159.76(3)
_computing_cell_refinement       'SAINT V8.38A (Bruker, 2018)'
_computing_data_reduction        'SAINT V8.38A (Bruker, 2018)'
_computing_molecular_graphics    'Olex2 1.3 (Dolomanov et al., 2009)'
_computing_publication_material  'Olex2 1.3 (Dolomanov et al., 2009)'
_computing_structure_refinement  'XL  (Sheldrick, 2008)'
_computing_structure_solution    'SHELXT 2014/5 (Sheldrick, 2014)'
_diffrn_ambient_temperature      300.0
_diffrn_measured_fraction_theta_full 1.000
_diffrn_measured_fraction_theta_max 1.000
_diffrn_measurement_device_type  'Bruker APEX-II CCD'
_diffrn_measurement_method       '\f and \w scans'
_diffrn_radiation_type           MoK\a
_diffrn_radiation_wavelength     0.71073
_diffrn_reflns_av_R_equivalents  0.0471
_diffrn_reflns_av_unetI/netI     0.0156
_diffrn_reflns_Laue_measured_fraction_full 1.000
_diffrn_reflns_Laue_measured_fraction_max 1.000
_diffrn_reflns_limit_h_max       6
_diffrn_reflns_limit_h_min       -6
_diffrn_reflns_limit_k_max       6
_diffrn_reflns_limit_k_min       -6
_diffrn_reflns_limit_l_max       10
_diffrn_reflns_limit_l_min       -10
_diffrn_reflns_number            4094
_diffrn_reflns_point_group_measured_fraction_full 1.000
_diffrn_reflns_point_group_measured_fraction_max 1.000
_diffrn_reflns_theta_full        25.242
_diffrn_reflns_theta_max         27.428
_diffrn_reflns_theta_min         2.640
_diffrn_source_current           1.4
_diffrn_source_power             0.07
_diffrn_source_voltage           50.0
_diffrn_standards_number         0
_exptl_absorpt_coefficient_mu    17.239
_exptl_absorpt_correction_T_max  0.7455
_exptl_absorpt_correction_T_min  0.5259
_exptl_absorpt_correction_type   multi-scan
_exptl_absorpt_process_details
;
SADABS-2016/2 (Bruker,2016/2) was used for absorption correction.
wR2(int) was 0.0913 before and 0.0514 after correction.
The Ratio of minimum to maximum transmission is 0.7054.
The \l/2 correction factor is Not present.
;
_exptl_crystal_colour            'clear light colourless'
_exptl_crystal_colour_lustre     clear
_exptl_crystal_colour_modifier   light
_exptl_crystal_colour_primary    colourless
_exptl_crystal_density_diffrn    5.083
_exptl_crystal_description       block
_exptl_crystal_F_000             222
_exptl_crystal_size_max          0.17
_exptl_crystal_size_mid          0.14
_exptl_crystal_size_min          0.12
_refine_diff_density_max         0.434
_refine_diff_density_min         -0.287
_refine_diff_density_rms         0.100
_refine_ls_extinction_coef       0.087(4)
_refine_ls_extinction_expression Fc^*^=kFc[1+0.001xFc^2^\l^3^/sin(2\q)]^-1/4^
_refine_ls_extinction_method     'SHELXL-2016/6 (Sheldrick 2016)'
_refine_ls_goodness_of_fit_ref   1.218
_refine_ls_hydrogen_treatment    undef
_refine_ls_matrix_type           full
_refine_ls_number_parameters     24
_refine_ls_number_reflns         250
_refine_ls_number_restraints     0
_refine_ls_restrained_S_all      1.218
_refine_ls_R_factor_all          0.0102
_refine_ls_R_factor_gt           0.0098
_refine_ls_shift/su_max          0.000
_refine_ls_shift/su_mean         0.000
_refine_ls_structure_factor_coef Fsqd
_refine_ls_weighting_details
'w=1/[\s^2^(Fo^2^)+(0.0088P)^2^+0.0560P] where P=(Fo^2^+2Fc^2^)/3'
_refine_ls_weighting_scheme      calc
_refine_ls_wR_factor_gt          0.0245
_refine_ls_wR_factor_ref         0.0245
_reflns_Friedel_coverage         0.000
_reflns_number_gt                243
_reflns_number_total             250
_reflns_threshold_expression     'I > 2\s(I)'
_cod_data_source_file            d1dt02356j2.cif
_cod_data_source_block           1
_cod_original_cell_volume        159.76(4)
_cod_database_code               7708515
_shelx_shelxl_version_number     2016/6
_shelx_space_group_comment
;
The symmetry employed for this shelxl refinement is uniquely defined
by the following loop, which should always be used as a source of
symmetry information in preference to the above space-group names.
They are only intended as comments.
;
_olex2_refinement_description
;
;
_shelx_res_file
;
TITL 1_a.res in P-3
    1.res
    created by SHELXL-2016/6 at 10:46:35 on 28-Dec-2020
REM Old TITL 1_b.res in P3
REM SHELXT solution in P-3
REM R1 0.067, Rweak 0.009, Alpha 0.021, Orientation as input
REM Formula found by SHELXT: Ba F8 Zn3
CELL 0.71073 4.89 4.89 7.7146 90 90 120
ZERR 1 0.0005 0.0005 0.001 0 0 0
LATT 1
SYMM -Y,+X-Y,+Z
SYMM +Y-X,-X,+Z
SFAC B Ba F O Zn
UNIT 2 1 2 6 3

L.S. 10
PLAN  5
TEMP 26.85
CONF
list 4
fmap 2
MORE -1
ACTA
REM <olex2.extras>
REM <HklSrc "%.\\1.hkl">
REM </olex2.extras>

WGHT    0.008800    0.056000
EXTI    0.087387
FVAR       0.99833
BA1   2    1.000000    0.000000    1.000000    10.16667    0.01051    0.01051 =
         0.01120    0.00000    0.00000    0.00525
ZN1   5    0.000000    0.000000    0.500000    10.16667    0.00744    0.00744 =
         0.00815    0.00000    0.00000    0.00372
ZN2   5    0.666667    0.333333    0.712588    10.33333    0.00733    0.00733 =
         0.01125    0.00000    0.00000    0.00366
B1    1    0.333333    0.666667    0.673486    10.33333    0.01018    0.01018 =
         0.00517    0.00000    0.00000    0.00509
O1    4    0.295668    0.368683    0.670633    11.00000    0.00864    0.00826 =
         0.01515   -0.00160   -0.00201    0.00404
F1    3    0.666667    0.333333    0.967902    10.33333    0.01664    0.01664 =
         0.01229    0.00000    0.00000    0.00832
HKLF 4




REM  1_a.res in P-3
REM R1 =  0.0098 for     243 Fo > 4sig(Fo)  and  0.0102 for all     250 data
REM     24 parameters refined using      0 restraints

END

WGHT      0.0088      0.0560

REM Highest difference peak  0.434,  deepest hole -0.287,  1-sigma level  0.100
Q1    1   0.0569  0.3541  0.6638  11.00000  0.05    0.43
Q2    1   0.6667  0.3333  1.0865  10.33333  0.05    0.42
Q3    1   1.0000  0.0000  1.2245  10.33333  0.05    0.34
Q4    1   0.6667  0.3333  0.8559  10.33333  0.05    0.34
Q5    1   0.4029  0.3434  0.6824  11.00000  0.05    0.29
;
_shelx_res_checksum              53570
_shelx_hkl_file
;
   0  -1   0 1153.68   54.49
   0  -1   0 1215.28   43.60
  -1   1   0 1130.99   59.89
   1   0   0 1094.49   51.29
   1   0   0 1265.97   43.30
   1   0   0 1157.48   43.40
   1   0   0 1200.08   44.70
   1   0   0 1196.78   44.90
  -1   1   0 1169.78   46.90
  -1   1   0 1269.27   45.20
  -1   1   0 1215.28   44.20
   1  -1   0 1151.48   46.80
   0   1   0 1160.18   45.50
   0   1   0 1296.27   43.80
   0   1   0 1239.18   54.99
   1  -1   0 1109.69   59.39
   1  -1   0 1169.38   44.90
  -1   0   0 1224.08   44.70
  -1   0   0 1142.89   43.30
  -1   0   0 1135.79   51.69
   1   1   0 9036.90  318.17
   1  -2   0 9546.04  343.47
  -1  -1   0 7253.27  316.47
  -1   2   0 9677.63  342.37
   2  -1   0 7519.45  332.67
   0  -2   0  823.92   50.59
  -2   2   0  795.72   37.30
   2   0   0  811.22   33.00
  -2   2   0  701.73   56.19
  -2   2   0  801.82   32.10
   2   0   0  832.42   45.80
   0  -2   0  831.32   34.60
  -2   2   0  803.22   33.40
   2  -2   0  821.52   37.20
   2  -2   0  815.52   32.20
  -2   0   0  783.72   32.60
   0   2   0  830.52   31.30
   0   2   0  835.72   34.90
   2  -2   0  809.62   33.40
  -2   0   0  806.92   30.30
   0   2   0  801.32   50.29
   2  -2   0  767.92   58.79
   1   2   0  474.05   34.10
   1   2   0  445.56   20.70
   2  -3   0  456.45   51.79
   2  -3   0  429.26   19.80
   2  -3   0  442.06   25.60
   1   2   0  448.66   18.30
  -3   1   0  457.85   22.00
  -3   1   0  425.26   42.80
  -3   1   0  450.45   18.00
  -3   1   0  425.66   18.60
   1   2   0  452.05   17.90
  -3   1   0  468.55   23.30
   3  -1   0  410.96   23.20
  -1  -2   0  456.25   20.20
   3  -1   0  439.56   42.20
  -2   3   0  448.36   21.00
  -2   3   0  455.85   20.10
  -2   3   0  372.86   51.19
  -1  -2   0  428.66   33.50
  -2   3   0  432.86   26.10
   2   1   0 1786.52   63.49
   2   1   0 1780.12   75.49
  -3   2   0 1782.22   73.09
  -3   2   0 1714.63   68.89
   1  -3   0 1662.53   71.49
   2   1   0 1770.52   76.89
   1  -3   0 1780.42  104.19
   2   1   0 1777.42   66.69
  -3   2   0 1708.83  103.49
  -3   2   0 1718.93   65.79
   2   1   0 1706.33   64.09
   3  -2   0 1706.03  104.09
  -2  -1   0 1744.13   63.89
  -2  -1   0 1785.62   64.39
  -1   3   0 1681.33   99.89
   3  -2   0 1781.72   66.29
  -1   3   0 1750.22   66.09
  -1   3   0 1699.63   72.39
   3  -2   0 1615.14   68.19
  -1   3   0 1712.93   66.09
  -2  -1   0 1786.12   64.29
   3  -2   0 1699.93   72.59
  -3   3   0 9609.84  343.47
  -3   3   0 8804.02  386.26
   0  -3   0 8985.30  369.36
   0  -3   0 9818.72  337.47
   3   0   0 9999.00  337.67
   3   0   0 9243.28  355.66
  -3   3   0 8876.81  333.07
   3   0   0 7748.62  359.56
   3  -3   0 8646.04  334.87
   3  -3   0 9434.86  392.76
   3  -3   0 8754.32  341.37
  -3   0   0 9682.73  333.57
  -3   0   0 7855.91  333.87
   0   3   0 9308.27  331.47
   0   3   0 9577.14  338.47
   0   3   0 9458.25  369.36
   0   3   0 9812.82  331.97
   1   3   0  309.07   14.10
  -4   1   0  253.67   43.60
   1   3   0  313.97   38.20
   3  -4   0  354.96   60.59
   1   3   0  296.27   17.80
  -4   1   0  308.87   13.30
   3  -4   0  312.47   23.50
   1   3   0  298.47   14.20
  -4   1   0  287.97   18.70
  -3   4   0  281.57   16.90
  -1  -3   0  290.97   37.30
   4  -1   0  343.67   45.80
   4  -1   0  286.87   17.60
  -1  -3   0  303.57   16.90
  -3   4   0  303.67   24.30
  -3   4   0  328.87   56.69
   4  -1   0  341.97   21.30
  -4   2   0 5240.08  210.48
   2   2   0 5395.66  204.48
  -4   2   0 5170.18  257.07
  -4   2   0 5734.43  205.58
   2  -4   0 6237.28  277.67
  -4   2   0 5813.62  215.28
   2   2   0 5642.24  203.78
   2   2   0 5991.20  218.48
   2  -4   0 6151.48  217.98
  -2   4   0 5819.22  218.38
  -2  -2   0 6080.29  203.88
   4  -2   0 5393.86  257.87
   4  -2   0 5151.18  209.68
   4  -2   0 5098.39  214.18
  -2   4   0 5096.19  213.28
  -2   4   0 5939.21  208.48
  -2   4   0 6028.30  269.67
   3   1   0  858.31   44.40
  -4   3   0  805.12   44.50
   1  -4   0  867.51   42.90
   1  -4   0  856.31   81.19
  -4   3   0  819.62   39.20
  -4   3   0  803.32   80.59
  -4   3   0  855.91   36.00
   3   1   0  871.21   33.40
   3   1   0  883.11   37.10
  -1   4   0  913.71   44.50
  -1   4   0  856.61   35.50
   4  -3   0  826.82   44.70
  -1   4   0  844.92   75.29
   4  -3   0  969.90   87.49
   4   0   0  359.56   40.90
   4   0   0  349.27   19.70
  -4   4   0  291.97   64.69
  -4   4   0  338.27   18.90
  -4   4   0  342.37   20.50
   4   0   0  358.36   49.10
  -4   4   0  320.67   27.00
   0  -4   0  348.17   22.00
   0   4   0  347.37   16.90
   0   4   0  322.67   49.80
  -4   0   0  355.16   18.30
   0   4   0  343.17   17.40
  -4   0   0  339.27   14.40
  -4   0   0  349.07   19.10
   4  -4   0  346.37   69.49
   4  -4   0  354.36   26.90
   1   4   0 4037.60  186.18
   1   4   0 3813.42  143.19
   1   4   0 3603.14  145.59
  -5   1   0 3954.30  149.09
   4  -5   0 3853.11  245.78
   4  -5   0 3716.83  159.48
   1   4   0 3704.33  148.79
  -5   1   0 3811.22  151.58
  -5   1   0 3812.72  140.49
  -4   5   0 3851.21  162.28
  -1  -4   0 3892.31  147.29
  -4   5   0 3703.33  226.68
  -4   5   0 3879.51  148.79
   5  -1   0 4002.60  191.68
   5  -1   0 3846.52  149.09
  -4   5   0 4347.56  161.08
  -1  -4   0 3601.84  182.38
   2   3   0  486.35   22.20
  -5   2   0  494.05   21.20
  -5   2   0  467.15   20.30
   3  -5   0  580.14   87.79
   2   3   0  496.45   39.60
  -5   2   0  455.75   73.99
   2   3   0  486.45   21.40
   2   3   0  501.55   20.90
  -5   2   0  414.26   28.70
   3  -5   0  504.55   34.50
   5  -2   0  450.35   31.70
   5  -2   0  442.86   67.89
  -3   5   0  468.25   34.60
  -3   5   0  482.75   25.10
  -3   5   0  504.15   25.10
   5  -2   0  443.46   26.20
  -3   5   0  546.65   78.09
  -5   3   0  230.08   13.50
  -5   3   0  226.58   17.10
   3   2   0  236.78   11.50
   2  -5   0  150.68   55.49
   2  -5   0  226.88   22.10
   3   2   0  243.28   11.90
   3   2   0  234.28   14.00
  -2   5   0  231.58   56.39
  -2   5   0  216.18   15.60
   5  -3   0  248.58   17.40
   5  -3   0  237.68   58.89
  -2   5   0  236.98   14.40
   5  -3   0  233.58   22.60
   1  -5   0 3334.07  136.39
  -5   4   0 3193.08  206.38
  -5   4   0 2983.70  129.59
   1  -5   0 3654.63  205.58
  -5   4   0 3184.08  141.59
  -5   4   0 3402.56  132.49
   4   1   0 3415.86  128.39
   5  -4   0 3373.86  213.18
  -1   5   0 3499.45  193.48
  -1   5   0 3462.55  125.99
   5  -4   0 3227.68  131.69
  -1   5   0 3466.75  139.79
  -1   5   0 3375.56  126.29
   5  -4   0 3271.97  140.99
  -1   5   0 3548.55  132.29
  -5   5   0  163.68   16.90
   0  -5   0  110.69   56.39
   5   0   0  192.08   15.90
   5   0   0  208.18   37.30
   5   0   0  248.58   45.50
   0  -5   0  183.48   18.60
  -5   5   0  204.98   16.50
  -5   5   0  270.67   79.49
  -5   5   0  164.88   26.30
   0   5   0  162.18   14.30
   5  -5   0  278.37   84.29
   5  -5   0  232.68   27.80
   0   5   0  164.38   51.39
   0   5   0  186.38   11.00
   0   5   0  181.88   13.40
   0   5   0  190.28   21.50
  -5   0   0  188.58   11.20
   2   4   0  615.64   58.59
   2   4   0  612.64   27.90
   2   4   0  596.14   27.70
  -6   2   0  579.64   25.20
  -6   2   0  608.74   37.40
   4  -6   0  589.04   45.90
   4  -6   0  682.73  130.19
  -4   6   0  578.24   34.50
   6  -2   0  525.15   90.69
   6  -2   0  577.84   34.40
  -4   6   0  649.54   32.80
  -4   6   0  546.85  108.79
  -4   6   0  637.94   48.90
  -6   3   0 2730.73  102.99
   3  -6   0 2970.60  219.68
   3   3   0 2954.30  106.09
  -6   3   0 2624.84  103.79
   3   3   0 2727.33  103.69
  -6   3   0 2970.80  297.07
   3   3   0 2801.82  102.19
   3  -6   0 2839.12  122.49
  -3   6   0 2571.44  108.59
   6  -3   0 2516.85  111.29
  -3   6   0 2549.54  211.98
  -3   6   0 2742.93  125.19
  -3   6   0 2759.42  107.59
  -6   4   0  268.27   31.90
   4   2   0  230.08   16.30
  -6   4   0  276.27   17.50
  -6   4   0  282.57   84.69
   2  -6   0  380.16  107.09
  -6   4   0  261.87   20.70
   6  -4   0  245.98   21.30
  -2   6   0  260.47   16.20
   6  -4   0  228.78   90.69
  -2   6   0  246.88   34.10
  -2   6   0  179.88   73.29
   6  -4   0  245.58   30.60
  -2   6   0  264.07   17.60
  -2   6   0  229.28   21.40
   0   0  -1    9.30    4.70
   0   0   1   11.40    4.10
   0   0   1    6.50    1.50
   1  -1  -1  140.49    9.30
   0   1  -1  169.28    6.90
   1  -1  -1  136.29    7.40
  -1   0  -1  139.59    6.80
   0   1  -1  113.69   16.70
   1  -1  -1  128.59   19.50
  -1   0  -1  147.49    7.00
   0   1  -1  139.59    6.40
  -1   0  -1  141.19   11.50
   1   0   1  148.19    7.00
  -1   1   1  146.79    9.50
   0  -1   1  143.29   19.20
   0  -1   1  143.79    6.60
   0  -1   1  156.08    9.00
  -1   1   1  134.19   20.50
   1   0   1  147.89    6.70
   1   0   1  137.49   11.70
   1   0   1  150.88    5.90
  -1   1   1  143.49    7.40
   1   0  -1 2609.84  114.89
  -1   1  -1 2496.75  112.59
   0  -1  -1 2753.12   96.19
   0  -1  -1 2626.84  107.59
   1   0  -1 2477.15   94.29
   0   1   1 2563.14  107.59
  -1   0   1 2460.15   94.09
   1  -1   1 2502.75  112.49
   1  -1   1 2576.64   97.39
  -1   0   1 2600.34   97.39
   0   1   1 2744.03   96.19
  -1   2  -1   29.60    5.50
  -1   2  -1   22.80    2.60
   2  -1  -1   11.80   10.90
   2  -1  -1   36.10    6.10
  -1   2  -1   22.30   12.60
   2  -1  -1   21.80    3.70
  -2   1   1   20.10   13.60
  -2   1   1   24.20    2.50
   1   1   1   26.50    5.20
   1   1   1   27.30    2.00
   1  -2   1   38.40    6.20
   1  -2   1   13.10   12.20
  -2   1   1   17.80    4.10
   1   1   1   20.60    1.60
   3  -2  -1  459.05   26.80
  -1   3  -1  480.55   47.50
  -1   3  -1  473.05   26.70
   3  -2  -1  473.55   59.79
  -1   3  -1  492.25   21.40
  -1   3  -1  462.35   20.90
   3  -2  -1  451.15   23.00
   1  -3   1  447.46   25.70
  -3   2   1  465.85   20.80
  -3   2   1  480.55   23.30
  -3   2   1  468.45   27.10
   1  -3   1  488.45   50.09
   2   1   1  481.75   20.00
   1  -3   1  483.35   20.50
  -3   2   1  448.66   51.39
   2   1   1  496.65   18.40
   2  -2  -1 3709.33  175.78
   0   2  -1 3738.93  134.59
  -2   0  -1 3421.66  143.99
   0   2  -1 3886.71  139.89
   2  -2  -1 3418.16  136.89
   0   2  -1 3839.52  164.08
  -2   0  -1 3768.92  134.99
  -2   0  -1 3613.44  135.99
   0   2  -1 3885.91  134.99
   2  -2  -1 3668.13  141.69
  -2   2   1 3705.53  174.28
   2   0   1 3929.31  135.99
   2   0   1 3356.56  148.39
  -2   2   1 3621.54  136.89
   0  -2   1 3643.34  163.38
  -2   2   1 3560.64  142.59
   0  -2   1 3743.83  139.19
   2   0   1 3801.22  133.29
   2   0   1 3774.42  135.39
   1  -2  -1 1938.81   98.59
   1   1  -1 1961.90   89.19
  -2   1  -1 1829.42   71.79
   1   1  -1 1890.51   67.79
  -2   1  -1 1703.73   89.39
   1   1  -1 1807.42   71.09
   1  -2  -1 1887.31   73.39
   1  -2  -1 1852.91   68.79
  -2   1  -1 1879.21   67.89
   1   1  -1 1896.21   67.69
  -2   1  -1 1791.22   70.09
  -1   2   1 1865.11   68.89
  -1  -1   1 1817.82   70.59
   2  -1   1 1727.63   71.59
   2  -1   1 1791.32   68.09
  -1   2   1 1841.62   96.19
   2  -1   1 1838.02   90.49
  -1  -1   1 1903.11   66.99
  -1   2   1 1827.62   68.69
  -1  -1   1 1834.12   67.69
  -1  -1   1 1843.92   88.59
  -1   2   1 1870.41   73.79
   2  -1   1 1768.32   69.59
   2   0  -1  739.73   50.09
   2   0  -1  706.13   28.10
   0  -2  -1  715.13   46.50
   0  -2  -1  699.13   30.80
   2   0  -1  775.22   53.99
  -2   2  -1  678.53   53.49
  -2   2  -1  710.83   33.70
  -2   2  -1  747.63   28.80
   2   0  -1  683.43   30.20
   2  -2   1  687.33   33.40
   0   2   1  725.23   27.70
  -2   0   1  728.03   31.60
  -2   0   1  700.53   31.90
   0   2   1  695.73   26.80
   0   2   1  713.23   31.10
  -2   0   1  720.03   26.90
   2  -2   1  746.03   57.69
   2  -2   1  645.94   29.60
   2  -2   1  718.03   28.80
   0   2   1  729.43   46.70
  -2   0   1  741.13   27.60
  -2   0   1  727.43   27.10
  -2   3  -1 2611.84   98.59
  -2   3  -1 2667.03  141.89
   3  -1  -1 2434.96  100.59
   3  -1  -1 2624.64  135.69
  -2   3  -1 2707.13   99.99
   3  -1  -1 2460.25  104.09
  -1  -2  -1 2625.84   97.59
  -1  -2  -1 2696.83  108.19
  -2   3  -1 2790.12  106.99
  -3   1   1 2367.36  133.39
  -3   1   1 2492.55   97.59
  -3   1   1 2633.84  103.79
   1   2   1 2666.53  112.19
   2  -3   1 2708.43  106.19
  -3   1   1 2635.44   96.89
   1   2   1 2700.63   97.79
   1   2   1 2613.04   96.19
   2  -3   1 2688.93   98.59
   2  -3   1 2764.32  146.09
   1   2   1 2671.83   95.79
  -2   4  -1  258.17   21.60
   4  -2  -1  286.87   17.70
   4  -2  -1  248.88   20.90
  -2   4  -1  365.66   56.79
   4  -2  -1  152.28   40.40
  -2   4  -1  301.27   16.00
   2  -4   1  296.17   15.00
  -4   2   1  180.58   52.59
   2   2   1  290.47   12.60
  -4   2   1  280.37   13.90
   2   2   1  288.57   13.00
   2  -4   1  255.47   51.39
   2  -4   1  276.17   21.70
  -4   2   1  276.47   15.00
  -2   5  -1  135.39   21.80
   5  -3  -1  191.48   58.29
  -2   5  -1  142.49   51.39
   5  -3  -1  173.18   21.20
  -2   5  -1  166.88   11.80
   2  -5   1  174.18   19.50
   3   2   1  160.88    9.80
  -5   3   1  151.18   11.10
  -5   3   1  164.78   19.60
  -5   3   1  213.78   63.39
   3   2   1  151.08    8.40
   2  -5   1  135.39   53.29
  -5   3   1  161.38   11.80
  -1   4  -1 1232.68   91.19
  -1   4  -1 1082.99   46.10
  -1   4  -1 1133.49   45.20
   4  -3  -1 1106.39   60.29
   4  -3  -1 1234.78  102.49
  -1   4  -1 1136.89   46.20
  -1   4  -1 1169.38   55.39
   1  -4   1 1192.28   94.09
  -4   3   1 1188.08   50.19
   1  -4   1 1143.49   53.59
   3   1   1 1107.09   45.50
  -4   3   1 1218.98  100.09
  -4   3   1 1069.39   46.10
  -3   0  -1   28.20    3.80
   3  -3  -1   15.60    3.80
   0   3  -1   23.40    6.10
   0   3  -1   23.20    3.40
   0   3  -1   25.00    3.40
   0   3  -1   42.70   18.80
   3  -3  -1   19.80   25.80
   3  -3  -1   12.30    5.30
   0  -3   1   27.90    6.40
   3   0   1   17.10    3.50
   3   0   1   36.80   13.70
  -3   3   1   25.40    4.80
   0  -3   1  -10.00   15.50
   3   0   1   23.60    2.30
   0  -3   1   23.10    2.70
  -3   3   1   36.40   24.40
  -3   3   1   14.10    2.90
  -3   1  -1  189.88   28.30
   1   2  -1  186.78    9.30
   1   2  -1  198.28   12.90
   2  -3  -1  186.58   15.20
  -3   1  -1  190.88    8.60
   1   2  -1  206.98    9.60
  -3   1  -1  202.58   13.00
   2  -3  -1  181.28   11.00
   1   2  -1  214.58   29.80
  -3   1  -1  217.98   12.40
   2  -3  -1  190.38   37.50
  -2   3   1  187.28   10.70
   3  -1   1  149.29   26.70
   3  -1   1  190.28    9.40
   3  -1   1  196.38   11.50
  -1  -2   1  191.48   12.10
   3  -1   1  195.18   13.20
  -2   3   1  167.38   14.90
  -2   3   1  250.07   41.20
  -2   3   1  186.18   11.00
  -1  -2   1  160.08   26.70
   2   1  -1 1547.35   83.29
   2   1  -1 1558.04   58.59
  -3   2  -1 1500.45   62.39
  -3   2  -1 1535.05   66.19
  -3   2  -1 1637.44   98.09
   1  -3  -1 1614.04   97.09
  -3   2  -1 1508.85   59.49
   1  -3  -1 1494.25   65.39
   2   1  -1 1647.74   58.79
   3  -2   1 1504.65   61.99
  -1   3   1 1618.24   66.99
  -2  -1   1 1581.04   58.49
  -1   3   1 1642.04   95.59
   3  -2   1 1564.74   96.19
  -1   3   1 1587.74   60.19
  -1   3   1 1628.04   59.69
  -2  -1   1 1631.14   61.79
   3  -2   1 1528.45   66.29
   3  -2   1 1520.85   59.89
   3   0  -1   65.19   24.50
   0  -3  -1   91.59   24.50
  -3   3  -1   47.20    8.90
   3   0  -1   59.69    6.50
  -3   3  -1   24.80   21.90
  -3   3  -1   60.79    5.70
   3   0  -1   43.10   19.80
  -3   3  -1   57.49    6.30
   0  -3  -1   52.39    7.10
  -3   0   1   65.69    4.30
  -3   0   1   59.29    8.20
   0   3   1   61.39    4.80
   3  -3   1   34.80    7.50
   3  -3   1   75.39   30.60
   3  -3   1   58.19    5.50
   0   3   1   56.39    7.40
   0   3   1   37.30   17.40
   0   3   1   57.69    3.80
  -3   0   1   65.39    7.40
  -3   4  -1   23.90   27.90
  -1  -3  -1   20.70   16.10
  -3   4  -1    3.90    6.10
  -3   4  -1    5.50    3.00
   4  -1  -1  -17.50   23.30
  -1  -3  -1   10.40    3.40
   4  -1  -1    5.00    3.30
  -4   1   1    6.00    1.80
   3  -4   1   13.20    7.00
   1   3   1  -16.20   15.00
   3  -4   1   54.79   34.90
  -4   1   1    2.90    1.40
  -4   1   1    3.00    1.60
   1   3   1   10.30    4.00
   1   3   1   12.10    2.50
   1   3   1    8.00    2.40
  -4   1   1    7.90    5.20
   3  -4   1    2.50    1.70
  -3   5  -1 1063.59   45.00
  -3   5  -1 1026.70   56.09
   5  -2  -1  898.91   92.89
   5  -2  -1  969.40   46.90
  -3   5  -1 1082.39  106.29
  -3   5  -1  989.70   44.50
   5  -2  -1  898.71   51.39
   2   3   1 1022.80   39.40
  -5   2   1 1132.39  104.99
   3  -5   1  983.20   54.19
  -5   2   1 1012.70   40.50
   2   3   1 1021.70   38.50
  -5   2   1  984.20   39.50
  -5   2   1  870.01   50.29
   3  -5   1  892.51  112.29
   6  -3  -1   63.49   70.89
  -3   6  -1   16.80   16.10
  -3   6  -1   35.90   68.79
   6  -3  -1   31.80    8.50
  -3   6  -1   50.49    8.30
  -3   6  -1   26.20    8.80
  -3   6  -1   35.50    8.00
   6  -3  -1   37.20   15.80
  -6   3   1   16.20   74.29
  -6   3   1   34.20    6.20
   3   3   1   36.40    5.60
   3  -6   1   17.20   14.20
   3  -6   1   13.70   80.49
  -6   3   1   47.50   15.00
  -2   6  -1  560.34   28.30
  -2   6  -1  601.64   60.29
  -2   6  -1  621.54  107.99
   6  -4  -1  565.24   45.70
   6  -4  -1  623.54  121.29
   6  -4  -1  494.15   32.90
  -2   6  -1  471.95   30.10
  -2   6  -1  511.35   31.40
   2  -6   1  560.34  105.09
   2  -6   1  587.64   60.89
   4   2   1  550.24   25.30
  -6   4   1  539.75   28.30
  -6   4   1  582.54   29.00
  -6   4   1  471.75  107.89
  -6   4   1  612.44   45.20
   5  -4  -1   80.49   16.00
  -1   5  -1   72.49    8.30
  -1   5  -1   78.39    7.70
  -1   5  -1   85.59   43.50
  -1   5  -1   80.79   10.00
  -1   5  -1   79.99   15.70
   5  -4  -1   77.79   11.00
   5  -4  -1   17.20   58.79
  -5   4   1   82.99    9.80
  -5   4   1   67.39    9.40
  -5   4   1   57.59   13.80
   1  -5   1   31.70   55.09
  -5   4   1  108.79   59.99
   4   1   1   83.79    8.10
   1  -5   1   62.49   12.40
   4  -4  -1    2.10    7.70
  -4   0  -1    5.50    2.50
   0   4  -1    3.10    5.50
   0   4  -1    1.40   27.70
   0   4  -1    6.40    2.80
   4  -4  -1  -22.10   39.80
  -4   0  -1    5.00    3.10
   0   4  -1    0.10    2.90
   0  -4   1    5.60    4.90
   4   0   1   -5.10   21.60
  -4   4   1    3.00    7.40
   4   0   1    4.00    2.70
  -4   4   1    2.10    2.60
  -4   4   1    9.80    3.90
  -4   4   1   40.20   40.70
   4   0   1   -0.50   15.50
  -4   1  -1 1048.70   45.00
   1   3  -1 1053.29   40.70
   3  -4  -1  973.00   43.80
   1   3  -1 1076.79   40.70
   3  -4  -1  986.70   51.49
  -4   1  -1  863.51   70.29
  -4   1  -1 1019.20   38.20
   3  -4  -1 1042.60   99.39
   1   3  -1 1022.10   70.79
   4  -1   1 1004.40   46.00
   4  -1   1  971.70   40.20
  -3   4   1 1080.09   53.89
  -1  -3   1  984.40   44.60
  -1  -3   1 1168.48   77.99
   4  -1   1 1013.60   72.39
   4  -1   1 1000.40   43.80
  -3   4   1  937.41   89.09
  -3   4   1 1051.89   44.20
  -4   2  -1   42.50    4.30
   2   2  -1   55.89   17.80
   2   2  -1   44.00    4.20
  -4   2  -1   45.30   24.90
  -4   2  -1   45.30    6.40
   2  -4  -1   19.90   28.50
   2   2  -1   34.10    4.10
  -4   2  -1   48.00    9.20
   2  -4  -1   56.89   10.80
   2   2  -1   54.29    7.80
   4  -2   1   15.60   24.20
  -2   4   1   33.40   29.10
   4  -2   1   45.40    7.20
   4  -2   1   33.60    4.40
  -2   4   1   61.09   12.00
  -2   4   1   48.10    5.20
   4  -2   1   54.89   10.10
  -2  -2   1   43.90    5.80
   3   1  -1  139.69    8.30
  -4   3  -1  127.99   10.90
   1  -4  -1  122.39   13.30
  -4   3  -1  109.59    8.50
  -4   3  -1  133.49   40.40
   1  -4  -1  150.08   42.00
   3   1  -1  139.49   10.50
   3   1  -1   87.79   25.30
   3   1  -1  180.68   31.10
  -4   3  -1  120.89   14.90
  -3  -1   1  138.19    9.90
  -1   4   1  127.59    8.00
  -3  -1   1  134.49    7.20
   4  -3   1  122.09   37.70
   4  -3   1  128.69    9.20
   4  -3   1  121.59   14.60
  -1   4   1  141.79   14.70
  -1   4   1  131.39   34.50
  -3  -1   1  128.59    9.80
   0  -4  -1  832.82   42.10
  -4   4  -1  952.10   42.10
   4   0  -1  888.11   41.40
  -4   4  -1  878.81   90.89
  -4   4  -1  934.31   50.39
   4   0  -1  872.41   70.69
   4   0  -1  873.11   83.49
   4  -4   1  876.11   39.10
   0   4   1  849.12   73.19
   0   4   1  908.11   37.60
   0   4   1  886.91   37.00
   4  -4   1 1193.28  106.89
  -4   0   1  945.41   41.10
  -4   0   1  919.61   42.30
   0   4   1  914.01   35.40
  -4   0   1  894.71   35.40
   4  -4   1  922.81   49.40
  -1  -4  -1   50.09   29.30
  -4   5  -1   11.90    5.90
  -4   5  -1   25.20    6.40
  -1  -4  -1   15.50    5.60
   5  -1  -1   26.00    7.90
   5  -1  -1   -4.30   43.10
  -4   5  -1   38.00   48.70
  -4   5  -1   25.00   11.70
   5  -1  -1   38.50   35.20
  -5   1   1   19.90    3.50
  -5   1   1   16.30    7.10
   1   4   1    8.20    6.10
   1   4   1   -6.70   26.60
   4  -5   1   25.70   60.79
   4  -5   1   16.80   10.60
   1   4   1   23.00    4.80
  -5   1   1    9.60    8.10
   1   4   1   22.20    4.50
   6  -2  -1   45.10   10.40
  -4   6  -1   98.29   23.90
  -4   6  -1   65.19   11.60
   6  -2  -1   94.09   65.39
  -4   6  -1   81.79   10.40
  -4   6  -1   33.50   73.39
  -6   2   1   86.59   17.30
  -6   2   1   77.79    7.20
   2   4   1   78.99    8.40
  -6   2   1   74.79   15.90
   2   4   1   75.79    8.50
   4  -6   1  152.48   95.89
   4  -6   1   67.29   19.10
   0   5  -1 1086.69  109.49
   0   5  -1 1051.59   47.80
   0   5  -1 1094.19   62.89
   0   5  -1 1156.08   46.30
   5  -5  -1 1197.48  146.99
   0   5  -1 1297.37   56.09
   5  -5  -1 1183.28   65.09
   5  -5  -1 1040.80   52.19
  -5   5   1 1108.99   51.79
  -5   5   1 1075.69   49.90
   0  -5   1 1194.48  119.69
  -5   5   1  992.20  129.69
   5   0   1 1119.99   49.30
  -5   5   1 1024.00   63.89
   0  -5   1 1118.79   55.09
   4  -5  -1  106.39   19.50
  -5   1  -1   80.09   11.20
   1   4  -1   92.59   13.30
   4  -5  -1   40.60   64.39
   1   4  -1  106.39   38.30
   1   4  -1   90.49    8.30
   1   4  -1   87.89    8.80
  -1  -4   1   46.50   41.40
  -4   5   1   77.79    9.30
   5  -1   1   97.29   34.80
  -4   5   1   50.79   13.10
  -1  -4   1   94.69   12.20
  -4   5   1   90.39   11.90
   5  -1   1   82.49   10.00
  -4   5   1  100.09   66.09
   2   3  -1   90.79    7.40
   2   3  -1   96.39   26.70
   2   3  -1   83.89   11.50
   3  -5  -1  117.39   59.49
   3  -5  -1  118.99   17.90
   2   3  -1   95.89    8.30
  -5   2  -1   77.69   10.80
  -5   2  -1  104.79   43.00
  -5   2  -1   97.69   13.50
  -5   2  -1   89.79    6.00
   5  -2   1   33.80   39.50
   5  -2   1   85.09   10.00
   5  -2   1  110.49   15.30
  -3   5   1   92.09    9.00
  -3   5   1   76.29   16.00
  -2  -3   1   88.79    9.10
  -3   5   1  101.59   48.90
  -5   3  -1 1701.23   66.19
   3   2  -1 1685.83   64.89
   3   2  -1 1707.33   68.89
   3   2  -1 1752.62   87.49
   2  -5  -1 1768.42  138.39
   3   2  -1 1677.43   93.09
   3   2  -1 1693.23   64.99
  -5   3  -1 1580.34   79.19
  -5   3  -1 1466.35  123.69
   2  -5  -1 1741.93   79.09
  -5   3  -1 1736.93   72.69
  -3  -2   1 1732.73   63.99
  -2   5   1 1741.03   67.29
  -2   5   1 1476.25  126.79
  -3  -2   1 1801.72   64.59
  -2   5   1 1644.54   71.89
   5  -3   1 1609.54   71.09
   5  -3   1 1682.33   78.29
  -5   4  -1   99.99   11.10
   1  -5  -1   70.09   13.50
  -5   4  -1   93.79    9.70
   4   1  -1   83.99   28.20
   1  -5  -1   98.89   49.20
   4   1  -1   82.09   10.20
  -5   4  -1   44.40   52.89
  -5   4  -1   79.99   15.20
  -1   5   1  -16.70   35.50
  -1   5   1   85.19    6.80
   5  -4   1   62.09   14.10
   5  -4   1  132.59   59.49
  -1   5   1   96.99   16.30
   5  -4   1   82.39   11.00
  -4  -1   1   83.89    7.50
  -4  -1   1   86.59    5.90
  -1   5   1   88.49   11.50
  -4  -1   1   76.39    7.10
  -5   5  -1   75.69   10.60
   5   0  -1   70.59   10.90
  -5   5  -1  113.89   71.79
   5   0  -1   70.79   50.09
   0  -5  -1   90.49   14.90
  -5   5  -1  108.29   20.50
   0  -5  -1   12.60   48.30
  -5   0   1   81.19    6.00
   0   5   1   83.69   14.60
   0   5   1   72.99    9.90
   0   5   1   62.29   46.00
   5  -5   1  -58.99   66.89
  -5   0   1   69.39    9.70
   5  -5   1   61.59   17.20
  -5   0   1   66.09   10.10
   0   5   1   63.59    8.80
  -6   2  -1  477.95   33.70
   2   4  -1  421.66   56.59
   4  -6  -1  465.15   39.50
   2   4  -1  397.26   22.00
   4  -6  -1  465.25  115.19
   2   4  -1  381.36   25.30
   2   4  -1  446.16   23.10
   6  -2   1  512.75   46.90
  -4   6   1  435.66   25.10
  -4   6   1  532.85   44.20
   6  -2   1  424.96   27.20
  -4   6   1  387.16   28.00
   6  -2   1  492.35   82.09
  -4   6   1  485.35  105.39
  -2  -4   1  385.36   25.20
   3   3  -1   25.20   22.30
  -6   3  -1   45.80   14.40
   3  -6  -1   83.19   80.59
   3   3  -1   47.10    7.50
   3  -6  -1   32.60   14.30
   3   3  -1   38.00   21.60
  -6   3  -1   40.90    5.80
  -6   3  -1   43.80    6.10
   3   3  -1   39.70    6.80
  -6   3  -1   86.39   67.79
   3   3  -1   43.70    8.00
  -3   6   1   54.29   18.20
   6  -3   1  137.09   68.39
  -3   6   1   36.50    9.50
  -3   6   1   66.89   63.49
  -3   6   1   51.99    8.10
   6  -3   1   38.70   15.40
   6  -3   1   31.90   10.30
  -6   4  -1   -0.50   12.40
  -6   4  -1   14.90    6.40
   2  -6  -1   11.40   13.40
   2  -6  -1   79.49   75.69
   4   2  -1   12.20    6.60
  -6   4  -1    4.30    5.50
   4   2  -1    8.80    6.70
  -2   6   1  -24.50   67.79
  -2   6   1    6.70    4.20
   6  -4   1    3.90    8.60
   6  -4   1   11.80   14.00
  -2   6   1  -11.20    8.50
  -2   6   1    1.30   12.90
   6  -4   1   50.59   72.39
   0   0  -2  231.38   10.30
   0   0  -2  212.68   23.80
   0   0  -2  232.18   12.80
   0   0   2  228.28    9.50
   0   0   2  239.08   12.90
   0   0   2  232.58   10.30
   1  -1  -2 5588.34  231.28
  -1   0  -2 5116.89  213.78
   1   0   2 5587.84  216.88
   0  -1   2 5654.13  227.58
  -1   1   2 5551.14  230.58
   0  -1  -2 5344.67  203.68
  -1   1  -2 4715.63  203.88
   1   0  -2 5271.17  215.18
   0  -1  -2 4994.40  205.68
   1  -1   2 4752.62  205.38
  -1   0   2 4651.03  224.98
  -1   2  -2 2763.72   99.59
  -1   2  -2 2713.13  105.19
   2  -1  -2 2787.32  106.49
  -1  -1  -2 2651.33  107.79
   2  -1  -2 2615.44  135.69
  -1   2  -2 2580.54  131.79
  -1  -1  -2 2767.82  107.39
  -1   2  -2 2707.13   98.19
   2  -1  -2 2570.94  101.29
   1  -2   2 2645.64   99.09
  -2   1   2 2740.63  136.29
  -2   1   2 2676.53   99.99
  -2   1   2 2534.55  105.09
   1  -2   2 2701.63  133.09
   1  -2   2 2822.32  105.19
   1   1   2 2526.95   98.69
   1   1   2 2696.13   98.79
  -1   3  -2 4261.97  147.79
   3  -2  -2 4075.89  158.38
  -1   3  -2 4103.69  196.18
  -1   3  -2 4113.99  157.18
   3  -2  -2 4354.76  206.48
  -1   3  -2 4117.49  148.99
   3  -2  -2 3705.43  151.18
  -3   2   2 3677.03  156.88
   2   1   2 4206.48  146.49
  -3   2   2 3752.72  198.68
   1  -3   2 4047.09  196.28
  -3   2   2 3750.02  148.69
   1  -3   2 4071.49  156.58
   1  -3   2 4182.48  148.59
  -2   0  -2 2803.62  104.79
   0   2  -2 2920.31  103.79
  -2   0  -2 2771.12  104.59
   2  -2  -2 2816.72  111.89
  -2   0  -2 2826.82  116.29
   0   2  -2 2561.24  135.69
   0   2  -2 2892.51  110.19
   2  -2  -2 2754.92  146.79
   2  -2  -2 2727.33  106.09
   0   2  -2 2906.91  104.49
  -2   2   2 2871.21  112.69
  -2   2   2 2554.44  141.99
   0  -2   2 2821.72  109.89
   0  -2   2 2757.32  137.49
   2   0   2 2817.12  118.99
   2   0   2 2832.82  102.49
   2   0   2 2816.52  103.99
   0  -2   2 2881.41  103.99
   2   0   2 2943.81  104.89
   1  -2  -2  377.46   16.30
   1  -2  -2  374.26   20.80
   1   1  -2  380.56   38.30
   1   1  -2  376.86   16.10
  -2   1  -2  367.06   15.50
  -2   1  -2  377.16   14.30
  -2   1  -2  319.77   32.10
   1   1  -2  369.06   15.70
   1  -2  -2  348.07   38.00
   1   1  -2  371.66   20.20
  -2   1  -2  351.06   17.20
  -2   1  -2  370.56   19.40
   2  -1   2  372.46   15.80
  -1  -1   2  370.36   38.00
  -1   2   2  399.36   21.50
  -1  -1   2  376.36   15.60
  -1   2   2  340.67   37.10
  -1  -1   2  380.36   19.90
  -1  -1   2  379.86   15.60
   2  -1   2  372.06   34.00
   2  -1   2  360.86   19.20
   0  -2  -2 7290.57  275.87
  -2   2  -2 6274.97  281.37
   2   0  -2 6747.42  289.67
   2   0  -2 6310.97  281.57
   2   0  -2 6223.58  247.58
  -2   2  -2 6799.52  252.77
   0   2   2 6684.83  273.47
  -2   0   2 6789.82  252.27
   0   2   2 7465.55  250.27
   2  -2   2 6709.23  284.87
  -2   0   2 7063.99  252.17
  -2   3  -2 3073.49  118.59
   3  -1  -2 2891.41  154.58
  -2   3  -2 2835.12  110.49
  -2   3  -2 2905.31  109.29
  -2   3  -2 2780.22  152.48
  -1  -2  -2 2833.42  121.09
   3  -1  -2 2813.02  111.99
  -1  -2  -2 2829.52  117.29
   1   2   2 3166.58  108.39
   1   2   2 2888.41  108.79
   2  -3   2 2781.52  116.59
  -3   1   2 2946.31  108.09
   2  -3   2 2891.81  157.98
   2  -3   2 3031.70  109.49
   1   2   2 2938.61  125.99
  -2   4  -2  265.87   15.50
   4  -2  -2  201.18   46.30
  -2   4  -2  276.07   13.70
  -2   4  -2  259.47   50.69
   4  -2  -2  250.27   21.60
  -2   4  -2  312.17   23.40
   2  -4   2  233.38   54.09
   2  -4   2  275.07   14.50
   2  -4   2  266.27   21.70
  -4   2   2  245.48   21.30
  -4   2   2  255.07   14.00
   2   2   2  272.27   11.50
  -4   2   2  246.78   14.70
  -4   2   2  180.98   43.30
   5  -3  -2 3294.37  214.28
  -2   5  -2 3305.07  130.69
   5  -3  -2 3367.76  144.09
  -2   5  -2 3378.06  202.88
  -2   5  -2 3540.95  131.39
   5  -3  -2 3292.77  135.29
  -2   5  -2 3451.65  128.49
  -5   3   2 3379.16  128.99
   2  -5   2 3666.03  214.88
   2  -5   2 3427.16  129.19
  -5   3   2 3579.04  144.69
  -5   3   2 3381.06  130.69
   2  -5   2 3431.46  142.19
  -5   3   2 3241.38  206.18
  -1   4  -2 1865.01  124.59
   4  -3  -2 1811.72   83.19
   4  -3  -2 1994.50  139.69
  -1   4  -2 1794.82   81.29
  -1   4  -2 1894.11   72.09
  -4   3   2 1816.02  133.99
   1  -4   2 1836.82   70.59
   1  -4   2 1771.62  127.59
   3   1   2 1834.02   69.59
  -4   3   2 1831.92   83.59
  -4   3   2 1792.72   71.99
   1  -4   2 1807.12   80.09
   0   3  -2  309.37   14.70
   0   3  -2  317.17   15.50
   0   3  -2  304.57   20.70
   3  -3  -2  290.87   17.40
  -3   0  -2  307.67   16.30
   0   3  -2  268.57   43.40
   3  -3  -2  285.47   22.10
  -3   0  -2  323.97   21.70
   3  -3  -2  408.26   64.69
  -3   0  -2  334.17   14.70
   3   0   2  309.17   15.40
   3   0   2  312.87   13.00
  -3   3   2  318.97   23.60
   3   0   2  344.97   28.90
   0  -3   2  312.87   14.50
   0  -3   2  380.56   52.19
  -3   3   2  301.67   16.10
  -3   3   2  307.57   17.40
   3   0   2  305.17   14.80
   0  -3   2  316.77   20.50
  -3   3   2  293.27   52.59
  -3   1  -2 5230.88  194.68
  -3   1  -2 4927.51  225.88
   1   2  -2 5616.14  196.78
   2  -3  -2 5511.95  255.37
   1   2  -2 5328.77  234.98
  -3   1  -2 5223.58  199.18
   2  -3  -2 5778.12  206.88
   2  -3  -2 5379.36  198.48
   1   2  -2 5239.58  196.18
  -1  -2   2 5537.45  195.28
  -2   3   2 5757.72  251.57
  -2   3   2 5751.02  208.08
  -2   3   2 5684.83  198.58
  -2   3   2 5539.55  198.28
  -1  -2   2 5400.16  196.08
   3  -1   2 5153.78  225.88
  -1  -2   2 4917.51  231.98
  -1  -2   2 4892.51  208.88
   2   1  -2 2150.88   79.99
   1  -3  -2 2175.28   87.59
  -3   2  -2 2066.79   80.49
  -3   2  -2 2125.69   83.99
   2   1  -2 2170.38   80.59
   2   1  -2 2072.09   91.69
   1  -3  -2 2323.87  123.99
   2   1  -2 2248.08  119.59
   3  -2   2 2078.09  119.39
   3  -2   2 2193.48   81.09
   3  -2   2 2034.80   87.09
  -2  -1   2 2143.29   78.49
  -2  -1   2 2099.89   86.69
  -2  -1   2 2179.58   79.89
  -1   3   2 2137.89  120.19
  -1   3   2 2152.58   80.09
  -1   3   2 2276.67   88.89
  -1   3   2 2097.19   81.19
   3   0  -2  248.28   41.70
   3   0  -2  217.78   14.40
   0  -3  -2  215.08   35.90
  -3   3  -2  198.68   12.00
   3   0  -2  250.17   43.90
   3   0  -2  216.08   11.90
  -3   3  -2  225.08   13.90
  -3   3  -2  205.78   17.90
   0  -3  -2  218.18   14.90
   3  -3   2  212.88   17.80
  -3   0   2  224.08    9.90
  -3   0   2  217.08   10.10
  -3   0   2  219.68   10.90
   3  -3   2  244.08   47.70
   0   3   2  212.28   15.00
   0   3   2  215.28   11.20
  -3   0   2  231.68   16.80
   0   3   2  194.88   34.20
   4  -1  -2 2941.41  174.48
  -1  -3  -2 2853.91  129.19
  -3   4  -2 3116.99  124.29
  -3   4  -2 2945.91  111.49
  -3   4  -2 2937.41  113.39
   4  -1  -2 2714.33  162.58
  -1  -3  -2 2759.32  124.59
  -3   4  -2 2946.91  173.08
   4  -1  -2 2772.52  114.79
  -4   1   2 3031.20  119.19
   1   3   2 3023.40  137.09
   3  -4   2 2880.91  121.49
   1   3   2 2893.11  107.79
   1   3   2 2918.61  107.99
   3  -4   2 3082.19  178.08
   1   3   2 3010.10  110.69
  -4   1   2 2926.51  107.99
  -4   1   2 2999.50  120.69
  -4   1   2 2876.81  108.79
   3  -4   2 2951.60  111.19
  -4   1   2 2801.42  108.59
  -3   5  -2 1071.89  113.09
   5  -2  -2 1380.46  123.19
  -3   5  -2 1281.37   57.89
   5  -2  -2 1172.18   56.19
  -3   5  -2 1292.17   66.69
  -3   5  -2 1198.38   49.90
   3  -5   2 1247.78   52.09
  -5   2   2 1209.88   49.99
   2   3   2 1253.47   46.90
  -5   2   2 1233.28   61.69
   3  -5   2 1215.98   63.59
   2   3   2 1251.97   47.60
   3  -5   2 1184.58  122.09
  -5   2   2 1228.68   49.10
  -3   6  -2  146.89   18.70
   6  -3  -2  164.68   80.89
  -3   6  -2  152.18   14.10
  -3   6  -2  265.97   85.39
  -3   6  -2  167.08   29.30
  -3   6  -2  138.89   13.90
   6  -3  -2  150.58   17.70
   3   3   2  153.08   11.30
  -6   3   2  164.68   12.50
   3  -6   2  184.18  103.39
  -6   3   2  116.69   22.50
  -6   3   2  137.09   12.30
   3  -6   2  150.48   25.20
   6  -4  -2 1274.07   91.09
  -2   6  -2 1010.00   64.09
   6  -4  -2  887.51   57.79
  -2   6  -2 1101.89  141.09
   6  -4  -2  983.70  139.49
  -2   6  -2  873.41   50.09
  -2   6  -2 1072.19   47.00
   2  -6   2 1071.09   78.59
   2  -6   2  925.51  145.69
  -6   4   2 1123.09   78.79
  -6   4   2 1063.49  154.38
  -6   4   2 1060.19   47.20
  -1   5  -2  261.67   16.10
  -1   5  -2  260.77   63.99
  -1   5  -2  274.87   26.20
  -1   5  -2  261.37   15.70
  -1   5  -2  263.67   17.50
   5  -4  -2  292.17   78.19
   5  -4  -2  276.27   28.60
   5  -4  -2  247.78   19.60
   1  -5   2  242.48   23.90
   1  -5   2  203.38   63.69
  -5   4   2  256.37   28.20
  -5   4   2  222.38   70.19
   4   1   2  263.17   14.40
   4  -4  -2 2836.12  180.68
   0   4  -2 2541.15  150.68
   0   4  -2 2429.06   95.79
   0   4  -2 2552.94   95.09
   4  -4  -2 2540.75  109.99
  -4   4   2 2514.75   99.79
   4   0   2 2468.45  109.49
   0  -4   2 2579.74  104.19
   4   0   2 2459.35   92.29
  -4   4   2 2585.04  111.99
  -4   4   2 2317.57  164.68
   0  -4   2 2376.46  152.38
   4   0   2 2387.76   95.79
  -4   1  -2 2522.35  138.59
   1   3  -2 2927.21  107.39
   3  -4  -2 2481.85  171.28
   1   3  -2 2831.62  151.08
   1   3  -2 2860.91  106.79
  -4   1  -2 2910.61  111.09
  -4   1  -2 2968.20  111.19
   3  -4  -2 2780.22  110.09
   4  -1   2 2868.31  140.09
  -3   4   2 2869.41  170.48
   4  -1   2 2944.31  106.19
  -3   4   2 2933.61  110.09
   4  -1   2 2783.62  109.29
  -3   4   2 2866.01  109.39
   4  -1   2 2837.22  111.69
  -1  -3   2 2902.41  113.19
  -4   2  -2  617.84   26.80
   2   2  -2  702.43   59.29
  -4   2  -2  584.34   64.29
  -4   2  -2  668.73   34.60
   2  -4  -2  758.52   98.49
   2   2  -2  650.93   27.40
   2   2  -2  640.24   27.60
   2   2  -2  661.43   35.60
   2  -4  -2  641.84   36.70
  -4   2  -2  682.73   32.10
  -2  -2   2  656.03   27.00
   4  -2   2  645.44   34.80
   4  -2   2  648.14   62.59
  -2   4   2  678.43   38.50
  -2  -2   2  688.63   62.69
   4  -2   2  642.24   28.00
  -2   4   2  515.55   70.79
   4  -2   2  657.23   30.70
  -2   4   2  656.03   28.70
  -2  -2   2  673.23   31.90
   1  -4  -2 3019.60  165.58
   3   1  -2 2695.53  151.08
  -4   3  -2 2837.42  119.69
   1  -4  -2 2957.10  117.69
   3   1  -2 2922.11  109.09
  -4   3  -2 2859.61  109.49
   3   1  -2 3248.38  158.78
  -4   3  -2 2706.53  163.98
  -4   3  -2 2860.41  113.79
  -1   4   2 3072.79  163.58
  -3  -1   2 2950.40  113.79
  -1   4   2 2909.41  107.69
  -3  -1   2 2848.11  107.69
   4  -3   2 2895.91  168.28
  -1   4   2 3123.29  120.09
   4  -3   2 2764.02  119.29
  -3  -1   2 2962.20  114.89
  -1   4   2 2926.91  109.99
   4  -3   2 2802.62  109.99
  -4   4  -2 2287.97  100.89
   4   0  -2 2167.18  134.59
  -4   4  -2 2350.56  156.98
   4   0  -2 2563.34  150.78
   4   0  -2 2274.87   92.39
  -4   4  -2 2003.50   90.29
  -4   4  -2 2406.76  100.89
   0  -4  -2 2401.76   97.49
   4  -4   2 2328.77   88.79
  -4   0   2 2183.18   98.19
   0   4   2 2284.47  129.79
   0   4   2 2245.68   86.69
   4  -4   2 2141.39   98.99
  -4   0   2 2232.88   85.29
  -4   0   2 2337.97   93.79
   4  -4   2 2476.75  161.98
  -4   5  -2  286.17   75.29
  -1  -4  -2  283.47   33.90
  -4   5  -2  262.27   18.20
   5  -1  -2  245.58   19.80
  -4   5  -2  263.47   28.40
   5  -1  -2  211.88   61.79
   4  -5   2  224.08   26.40
  -5   1   2  248.78   22.00
   1   4   2  262.87   13.90
  -5   1   2  249.58   13.40
   1   4   2  262.07   43.90
   1   4   2  250.27   16.60
   1   4   2  237.98   13.90
  -5   1   2  274.17   25.20
   4  -5   2  269.37   16.40
   4  -5   2  229.88   71.69
  -4   6  -2 1287.57   55.89
  -4   6  -2 1260.27  150.38
   6  -2  -2 1079.99  143.89
  -4   6  -2 1227.98   72.79
  -4   6  -2 1165.88   50.59
  -4   6  -2 1120.89   55.09
   6  -2  -2 1400.26  146.49
   6  -2  -2 1157.18   58.79
  -6   2   2 1304.47   67.79
  -6   2   2 1179.18   45.80
   2   4   2 1140.19   47.80
   2   4   2 1155.08   47.30
   4  -6   2 1246.08   70.39
  -6   2   2 1141.69   50.79
   4  -6   2 1529.55  177.08
  -6   2   2 1212.78   63.29
   5  -5  -2  938.11   56.79
   0   5  -2  952.10   58.99
   0   5  -2  733.73   95.39
   5  -5  -2  819.52   43.20
   0   5  -2  800.42   39.20
   5  -5  -2 1118.29  178.98
   0   5  -2  798.22   37.50
   5   0   2  907.91   39.90
   0  -5   2  906.11   65.19
  -5   5   2  788.42   40.70
   0  -5   2  599.04   97.39
  -5   5   2  848.52   56.49
  -5   5   2  922.61  122.39
  -5   1  -2  141.39   13.10
   1   4  -2  145.69   18.70
   1   4  -2  127.19   10.60
   1   4  -2  137.29   11.70
   4  -5  -2  115.69   68.59
   4  -5  -2  137.19   13.30
   4  -5  -2  198.18   25.60
  -4   5   2  207.78   73.39
  -4   5   2  139.89   13.60
   5  -1   2  166.58   40.40
  -4   5   2  131.19   12.10
   5  -1   2  139.89   12.30
   5  -1   2  127.39   14.60
  -1  -4   2  115.09   14.40
  -4   5   2  131.69   21.80
   2   3  -2 2442.16   93.29
   2   3  -2 2528.75  138.89
  -5   2  -2 2541.45  101.89
   2   3  -2 2269.37  100.19
   3  -5  -2 2483.15  180.08
  -5   2  -2 2202.38  144.09
  -5   2  -2 2431.06   99.39
   3  -5  -2 2432.56  107.79
   5  -2   2 2394.46  102.19
   5  -2   2 2609.94   94.09
  -2  -3   2 2447.96  140.39
  -3   5   2 2383.66  165.78
  -3   5   2 2394.86   96.49
  -2  -3   2 2498.85   97.79
  -3   5   2 2537.85   95.99
   5  -2   2 2391.26   97.39
  -5   3  -2  979.60  104.39
  -5   3  -2 1094.69   50.59
   3   2  -2 1060.69   44.10
   2  -5  -2 1037.30  113.09
   3   2  -2 1073.19   81.29
   2  -5  -2 1111.19   56.19
   3   2  -2 1235.38   94.19
  -5   3  -2 1115.19   55.29
  -2   5   2 1195.68  106.29
  -3  -2   2 1029.90   46.40
  -3  -2   2 1102.09   48.60
  -2   5   2 1105.19   58.49
   5  -3   2 1108.69   45.80
   5  -3   2 1081.89   55.79
   5  -3   2 1014.10   48.60
  -2   5   2 1052.69   44.40
  -2   5   2 1064.59   46.90
   5  -3   2  987.20  106.09
  -5   4  -2  301.27   75.99
   4   1  -2  198.08   48.20
   4   1  -2  247.58   18.50
   1  -5  -2  269.07   22.60
   4   1  -2  245.58   17.40
  -5   4  -2  229.88   15.60
  -5   4  -2  228.08   29.20
   4   1  -2  383.06   59.59
  -5   4  -2  245.68   18.30
  -1   5   2  230.38   23.20
  -1   5   2  224.98   16.10
  -1   5   2  265.37   59.89
  -4  -1   2  240.88   17.70
  -4  -1   2  231.28   12.50
   5  -4   2  261.17   26.40
  -4  -1   2  257.27   17.70
   5  -4   2  262.67   15.90
   0  -5  -2 2219.38  151.48
   5   0  -2 2629.84  165.78
   5   0  -2 2325.17   96.89
  -5   5  -2 2453.85   97.19
   5   0  -2 2518.55  153.08
  -5   5  -2 2366.76  110.19
  -5   5  -2 2162.28  176.58
  -5   0   2 2266.97   87.39
   5  -5   2 2431.86   93.09
   5  -5   2 2507.45  196.48
   0   5   2 2228.08  104.59
   0   5   2 2424.46  150.38
  -5   0   2 2091.69  100.39
   0   5   2 2285.57   89.59
   5  -5   2 2337.17  107.99
  -5   0   2 2306.27   95.09
   0   5   2 2240.58   90.59
   4  -6  -2  642.74   47.50
  -6   2  -2  566.04   88.59
  -6   2  -2  671.73   37.80
   2   4  -2  586.24   37.70
   2   4  -2  597.74   30.90
   2   4  -2  531.75   71.09
  -4   6   2  672.83   51.69
  -4   6   2  581.14  120.79
   6  -2   2  659.13   40.80
  -4   6   2  653.33   33.10
   6  -2   2  627.24   34.80
  -2  -4   2  653.63   33.40
  -4   6   2  617.94   37.20
   6  -2   2  619.54   89.39
  -6   3  -2  143.89    9.50
  -6   3  -2  141.89    9.30
   3  -6  -2  102.49   19.10
   3   3  -2  166.18   16.80
   3   3  -2  221.08   57.09
   3   3  -2  138.29   41.30
  -6   3  -2  138.49   21.10
   3  -6  -2  189.08   94.69
  -6   3  -2  136.69   15.30
   3   3  -2  132.29   11.90
  -6   3  -2   31.90   70.49
   6  -3   2  156.28   22.20
   6  -3   2  120.49   16.00
  -3   6   2  133.69   11.80
  -3   6   2  115.89   22.60
  -3   6   2   99.69   70.19
  -3   6   2  117.19   15.00
   6  -3   2  280.17  125.79
   4   2  -2 1407.86   92.49
   4   2  -2 1339.27   62.79
   4   2  -2 1442.16   99.09
   2  -6  -2 1651.63  177.78
  -6   4  -2 1457.45   66.39
   4   2  -2 1464.45   64.09
  -6   4  -2 1414.16   58.79
   2  -6  -2 1457.45   73.19
  -6   4  -2 1125.49  165.98
  -2   6   2 1400.36  137.89
  -2   6   2 1471.95   76.99
   6  -4   2 1543.05  164.78
  -2   6   2 1407.66   63.39
   0   0  -3 6886.51  286.57
   0   0   3 6912.21  285.17
  -1   0  -3  324.57   17.20
  -1   0  -3  288.07   30.80
   0   1  -3  308.17   14.30
   0   1  -3  330.27   19.00
   1  -1  -3  358.76   40.50
   0   1  -3  301.07   13.30
  -1   0  -3  312.27   13.40
   1  -1  -3  354.16   48.00
   0   1  -3  332.67   42.40
  -1   1   3  310.37   19.40
   0  -1   3  314.67   18.50
   0  -1   3  355.16   38.00
  -1   1   3  302.87   14.80
   1   0   3  292.47   13.60
   0  -1   3  298.97   13.30
   1   0   3  312.87   16.70
   1   0   3  312.87   12.20
   1   0   3  334.97   34.00
  -1   1   3  291.77   18.90
   0  -1  -3  631.74   53.89
   1   0  -3  714.33   60.29
   1   0  -3  697.03   34.80
  -1   1  -3  720.63   29.00
  -1   1  -3  733.63   33.80
  -1   1  -3  749.23   55.39
   1   0  -3  655.13   29.30
  -1   1  -3  726.03   27.70
   0  -1  -3  815.52   56.29
  -1   0   3  736.63   35.10
   1  -1   3  817.62   56.99
  -1   0   3  730.23   28.50
  -1   0   3  740.43   29.60
   0   1   3  696.83   33.40
   1  -1   3  716.83   33.60
   1  -1   3  722.83   29.20
   1  -1   3  729.73   27.60
  -1   0   3  740.43   58.39
   0   1   3  722.03   29.20
   0   1   3  737.73   33.50
  -1  -1  -3 1900.61   91.49
   2  -1  -3 1968.10  114.99
   2  -1  -3 2060.09  123.49
  -1   2  -3 1774.32  106.79
  -1   2  -3 1862.11   77.99
  -1  -1  -3 1952.30   96.89
  -1   2  -3 1937.01   71.69
  -1   2  -3 1898.71   70.09
   1   1   3 1874.11   73.39
  -2   1   3 1785.52   78.79
   1  -2   3 1898.41   71.49
   1   1   3 1893.11   69.89
  -2   1   3 1856.21   79.39
   1  -2   3 1765.22  106.79
   1  -2   3 1836.32   77.79
   1   1   3 1877.41   73.09
  -2   1   3 1893.91   72.39
   3  -2  -3  719.23   41.90
  -1   3  -3  805.22   41.60
  -1   3  -3  922.51   77.19
  -1   3  -3  844.92   32.80
  -1   3  -3  773.12   34.00
   3  -2  -3  770.72   36.50
  -3   2   3  774.62   35.00
   2   1   3  942.21   31.90
  -3   2   3  846.42   43.40
   1  -3   3  808.02   33.80
  -3   2   3  838.52   79.39
   1  -3   3  707.63   40.00
   1  -3   3  810.82   72.69
  -2   0  -3  640.44   44.60
   2  -2  -3  668.93   66.29
   2  -2  -3  704.73   36.50
   0   2  -3  649.14   34.30
  -2   0  -3  678.53   28.60
   0   2  -3  679.73   28.70
   0   2  -3  769.22   64.19
   2  -2  -3  671.13   30.20
   0   2  -3  697.03   27.70
  -2   0  -3  680.33   30.30
   2   0   3  684.83   27.00
   0  -2   3  702.83   34.80
  -2   2   3  773.12   67.19
   2   0   3  690.93   29.90
  -2   2   3  684.13   36.20
   0  -2   3  671.23   60.29
   1  -2  -3 1650.53   64.59
   1   1  -3 1735.93  106.29
  -2   1  -3 1760.92   62.19
   1  -2  -3 1891.01   72.69
  -2   1  -3 1603.74   92.39
  -2   1  -3 1670.03   66.19
   1   1  -3 1756.82   63.99
   1  -2  -3 1972.30  108.19
   1   1  -3 1710.33   64.99
  -2   1  -3 1688.33   69.09
  -2   1  -3 1686.13   63.79
   1   1  -3 1577.44   70.69
  -1  -1   3 1726.13   64.49
   2  -1   3 1666.83   68.79
  -1  -1   3 1628.24  100.89
  -1  -1   3 1696.83   63.89
  -1  -1   3 1687.43   70.69
   2  -1   3 1697.53   93.99
  -1   2   3 1642.24   71.39
  -1   2   3 1744.93  103.29
   2  -1   3 1618.64   64.09
   2   0  -3  234.58   47.40
  -2   2  -3  263.77   18.40
  -2   2  -3  248.88   39.40
   2   0  -3  268.97   13.90
  -2   2  -3  271.67   14.70
  -2   2  -3  271.27   11.80
   0  -2  -3  238.88   37.20
   2   0  -3  227.88   42.70
   0  -2  -3  300.77   39.90
   2  -2   3  272.57   18.30
  -2   0   3  266.97   18.80
   2  -2   3  315.27   44.60
   0   2   3  254.07   16.40
   0   2   3  251.57   16.60
  -2   0   3  276.37   13.50
   2  -2   3  280.37   13.70
   0   2   3  244.38   36.00
  -2   0   3  275.77   12.90
  -2   3  -3  675.63   29.90
   3  -1  -3  809.22   79.29
  -2   3  -3  638.94   64.89
   3  -1  -3  675.53   32.70
  -1  -2  -3  657.43   48.10
  -2   3  -3  699.13   31.40
  -1  -2  -3  714.03   44.20
   3  -1  -3  674.43   70.19
  -2   3  -3  663.53   28.00
  -2   3  -3  696.93   37.80
   1   2   3  709.33   30.10
   2  -3   3  687.63   29.90
   1   2   3  705.43   30.90
  -3   1   3  682.93   37.20
   2  -3   3  783.72   70.99
   2  -3   3  715.33   37.70
  -3   1   3  719.23   39.50
  -3   1   3  664.23   29.80
  -2   4  -3 1116.39   48.30
  -2   4  -3 1162.58   57.89
  -2   4  -3 1097.89   97.69
  -2   4  -3 1256.77   51.29
   4  -2  -3 1105.69  103.19
   2  -4   3 1074.79   55.89
   2  -4   3 1111.89   46.60
  -4   2   3 1069.09   46.10
  -4   2   3 1085.19   56.69
  -4   2   3 1142.39   47.50
   2   2   3 1132.19   42.10
   2  -4   3 1226.78  106.49
   5  -3  -3   68.69   11.00
  -2   5  -3   77.19    8.50
  -2   5  -3  102.79   11.60
  -2   5  -3  111.29   10.40
  -2   5  -3   91.79   55.79
   5  -3  -3  125.09   62.59
   2  -5   3   44.80   59.89
  -5   3   3   73.69    8.90
   2  -5   3   92.49   16.50
  -5   3   3  172.78   63.69
  -5   3   3  111.39   10.50
   2  -5   3   98.09   12.80
   4  -3  -3   79.69   14.60
  -1   4  -3  119.69   16.60
  -1   4  -3  132.59   46.10
   4  -3  -3   94.39   48.70
   1  -4   3  122.99   42.80
  -4   3   3  114.59    9.80
  -4   3   3   81.39   41.30
   1  -4   3  142.39   16.40
  -4   3   3  109.39    9.70
   1  -4   3  108.59    8.20
  -4   3   3  102.49   16.80
  -3   0  -3 2386.06  103.79
  -3   0  -3 2521.05   92.29
   0   3  -3 2398.26   92.49
   3  -3  -3 2524.45  104.59
   3  -3  -3 2604.64  160.08
   0   3  -3 2450.05  142.59
   3  -3  -3 2402.06   95.29
   0   3  -3 2430.86   91.19
  -3   0  -3 2444.86   92.89
   0   3  -3 2422.36  100.99
   0  -3   3 2013.00  134.49
  -3   3   3 2257.77  103.39
   3   0   3 2491.05   89.49
   0  -3   3 2494.45  100.59
  -3   3   3 2466.25   93.59
   3   0   3 2487.65   91.99
   3   0   3 2514.75  114.39
   0  -3   3 2323.97   91.09
  -3   3   3 2318.67  151.18
  -3   1  -3  123.19   11.00
  -3   1  -3  164.78   29.60
  -3   1  -3  123.19    6.50
   1   2  -3  123.39    8.30
   2  -3  -3  114.39   13.80
   1   2  -3  151.48   35.40
   1   2  -3  124.59    7.70
   2  -3  -3  197.38   43.80
  -3   1  -3  130.69    9.50
   2  -3  -3  118.29    8.90
   1   2  -3  117.99   12.60
  -1  -2   3  137.69    7.80
   3  -1   3  130.99    7.60
  -2   3   3  103.19   32.30
  -1  -2   3  140.59   12.80
  -1  -2   3  125.79   32.40
   3  -1   3  128.29   11.90
   3  -1   3  143.99   28.90
  -1  -2   3  125.99    7.40
  -2   3   3  124.79   13.90
  -3   2  -3   92.79    6.50
   2   1  -3  100.19    7.20
   1  -3  -3   90.99   11.10
  -3   2  -3  104.49    8.50
   2   1  -3   90.29   10.80
   1  -3  -3   88.19    5.80
  -3   2  -3   83.69    4.90
   1  -3  -3   97.99   32.00
   2   1  -3   67.99   28.10
   3  -2   3   85.39   10.90
  -2  -1   3  100.79    6.90
  -1   3   3   54.59   24.30
   3  -2   3   63.59   28.00
  -2  -1   3   85.09   30.40
  -2  -1   3   82.09    6.00
  -2  -1   3   77.19   10.10
  -1   3   3   83.99   10.90
   3  -2   3   84.09    6.50
  -3   3  -3 2365.36   94.09
  -3   3  -3 2430.46   91.49
   3   0  -3 2383.16   91.79
  -3   3  -3 2247.88  100.29
   0  -3  -3 2458.95  127.79
   0  -3  -3 2594.94   97.19
   3   0  -3 2473.55  155.58
  -3   3  -3 2384.76   88.89
   3   0  -3 2497.85  144.59
   3  -3   3 2493.45   91.79
  -3   0   3 2371.56   89.99
   3  -3   3 2231.68  145.39
   0   3   3 2422.76  130.59
   0   3   3 2375.96   96.09
  -3   0   3 2394.96   99.59
  -3   0   3 2397.26   99.99
   3  -3   3 2267.67   99.79
  -3   0   3 2349.76   89.69
  -3   4  -3  121.89   18.60
   4  -1  -3   63.39   47.70
  -3   4  -3   91.39    9.10
  -1  -3  -3   87.19   20.40
  -3   4  -3   90.89   42.70
  -3   4  -3   86.19    8.50
   4  -1  -3   75.69   11.80
  -1  -3  -3   90.59   25.30
  -3   4  -3   81.39    6.60
   4  -1  -3  142.79   47.40
   3  -4   3   80.29    7.70
   1   3   3   92.79    8.40
  -4   1   3   64.09   11.90
   1   3   3   84.69    9.20
  -4   1   3   78.69    6.70
  -4   1   3   79.49    6.70
  -4   1   3  108.09   15.50
   3  -4   3   67.69   12.10
   3  -4   3   42.40   43.70
  -4   1   3   85.19    7.10
  -3   5  -3  113.39    9.90
  -3   5  -3  136.09   59.69
  -3   5  -3  106.09   11.90
  -3   5  -3  135.79   12.00
   5  -2  -3  106.19   13.60
  -3   5  -3  140.39   22.60
   5  -2  -3  239.68   64.69
   5  -2  -3  127.59   77.79
  -5   2   3  105.09    9.30
  -5   2   3  131.69   20.70
  -5   2   3  112.19   19.20
   3  -5   3  105.49   18.40
   3  -5   3  115.89   10.00
   3  -5   3   51.69   58.59
  -5   2   3  128.49   10.00
   2   3   3  120.09    7.30
  -3   6  -3  567.34   49.60
  -3   6  -3  599.64   31.00
  -3   6  -3  624.74   33.20
   6  -3  -3  730.33  131.29
   6  -3  -3  578.54   37.60
   3  -6   3  653.23   31.10
   3  -6   3  746.83  137.09
  -6   3   3  596.94   48.30
  -6   3   3  620.24   30.30
   3  -6   3  569.14   47.50
  -6   3   3  615.14   30.10
  -1   5  -3  640.84   29.70
  -1   5  -3  621.84   34.60
  -1   5  -3  621.94   31.80
   5  -4  -3  596.14   45.10
  -1   5  -3  582.14   89.79
   5  -4  -3  604.34  104.19
  -1   5  -3  628.14   42.70
   1  -5   3  702.43   42.60
   1  -5   3  631.34   28.70
  -5   4   3  619.24   44.90
   1  -5   3  584.54  140.19
  -5   4   3  414.26  100.69
  -5   4   3  647.44   32.30
   0   4  -3  200.88   53.79
   4  -4  -3  102.39   18.00
   0   4  -3  129.39    9.40
   4  -4  -3   25.40   49.00
   0   4  -3  104.09   10.30
   0   4  -3  132.79   17.70
  -4   4   3   98.09   18.20
   4   0   3  121.79    7.10
   0  -4   3  130.89   18.20
   0  -4   3  117.59    8.10
   0  -4   3  140.69   51.19
  -4   4   3  128.59   56.59
  -4   1  -3  424.46   50.29
   3  -4  -3  380.26   73.99
   1   3  -3  373.26   56.79
   3  -4  -3  414.56   30.00
   1   3  -3  416.56   19.50
  -4   1  -3  414.36   22.30
  -4   1  -3  409.66   23.00
   3  -4  -3  401.46   22.00
   1   3  -3  404.86   20.20
  -3   4   3  479.05   75.89
   4  -1   3  407.06   18.50
   4  -1   3  394.56   23.30
  -1  -3   3  407.36   25.90
  -1  -3   3  360.96   61.79
  -1  -3   3  402.76   17.80
   4  -1   3  382.56   49.30
  -3   4   3  427.46   32.00
  -4   2  -3 1171.08   55.09
   2  -4  -3 1245.88   58.99
   2   2  -3 1293.57   97.49
  -4   2  -3 1191.48   46.40
  -4   2  -3 1172.98   51.69
  -4   2  -3 1184.98   44.40
  -4   2  -3 1017.00   89.09
   2   2  -3 1196.78   47.40
   2  -4  -3 1162.38  107.79
   2   2  -3 1130.49   49.90
   2  -4  -3 1157.48   48.20
   4  -2   3 1232.98   50.69
   4  -2   3 1026.00   87.49
  -2  -2   3 1384.76   46.30
  -2  -2   3 1206.18   54.49
  -2   4   3 1139.99   58.99
  -2   4   3 1324.27  102.09
  -2  -2   3 1144.59   46.90
   4  -2   3 1162.08   55.29
   3   1  -3  428.56   21.60
  -4   3  -3  389.76   28.00
   3   1  -3  454.85   66.79
   3   1  -3  471.85   67.29
  -4   3  -3  423.26   23.80
   1  -4  -3  430.36   64.29
   1  -4  -3  432.26   27.70
  -4   3  -3  415.06   17.80
  -4   3  -3  417.26   20.20
  -4   3  -3  290.97   59.39
  -3  -1   3  429.26   26.20
  -3  -1   3  393.06   16.60
   4  -3   3  440.06   29.00
   4  -3   3  399.16   68.49
   4  -3   3  415.36   20.80
  -3  -1   3  418.36   26.90
  -1   4   3  400.06   62.69
  -1   4   3  406.86   20.80
  -3  -1   3  426.16   19.20
   0  -4  -3  316.67   52.59
  -4   4  -3  287.87   25.90
  -4   4  -3  295.37   14.60
   4   0  -3  367.86   66.89
   4   0  -3  334.37   70.19
  -4   4  -3  310.17   17.50
   0  -4  -3  311.07   21.40
   4   0  -3  284.07   20.30
  -4   4  -3  301.77   19.70
  -4   4  -3  261.07   62.19
  -4   0   3  291.27   13.00
   4  -4   3  372.76   74.19
  -4   0   3  251.97   22.30
   0   4   3  319.67   55.69
   4  -4   3  269.27   24.80
  -4   0   3  292.07   14.90
   0   4   3  270.37   15.80
   4  -4   3  313.57   17.30
  -4   0   3  301.37   23.50
  -4   5  -3  871.71   53.49
  -4   5  -3  835.62  118.19
  -4   5  -3  946.61   43.50
  -4   5  -3  845.92   40.30
  -4   5  -3  859.11   36.80
  -1  -4  -3  802.32   47.30
   5  -1  -3  855.41   46.90
   5  -1  -3  740.53  111.09
   1   4   3  831.62   35.50
  -5   1   3  875.21   36.50
   1   4   3  845.22   38.70
  -5   1   3  919.51   50.99
  -5   1   3  895.91   49.00
   1   4   3  802.62   37.70
  -5   1   3  865.81   34.60
   4  -5   3  851.71  120.19
   4  -5   3  867.41   39.50
   4  -5   3  865.71   52.59
  -5   1   3  866.51   34.20
   1   4   3  856.81   36.10
   5  -5  -3  222.08   19.90
   0   5  -3  243.78   74.09
   5  -5  -3  206.68   30.40
   0   5  -3  207.18   26.90
   0   5  -3  219.88   15.80
   0   5  -3  205.48   18.40
   5  -5  -3  121.29   94.89
  -5   5   3  223.68  101.19
  -5   5   3  228.98   33.20
   0  -5   3  240.88   84.89
   0  -5   3  215.28   25.30
  -5   5   3  194.18   19.60
   1   4  -3  761.82   46.50
   1   4  -3  978.10  102.59
   4  -5  -3  843.52   53.19
  -5   1  -3  858.11   38.80
   1   4  -3  769.62   36.30
   4  -5  -3  814.32   40.50
   4  -5  -3  777.02  120.19
   1   4  -3  855.91   38.20
  -4   5   3  977.00  124.49
   5  -1   3  852.11   40.10
   5  -1   3  871.11   35.20
  -4   5   3  835.22   40.40
  -4   5   3  987.10   81.49
  -1  -4   3  833.32   44.80
   5  -1   3  734.63   76.09
  -1  -4   3  810.82   99.09
  -5   2  -3  223.68   20.50
   2   3  -3  241.38   15.30
   2   3  -3  261.87   56.09
  -5   2  -3  240.68   58.69
   3  -5  -3  257.77   25.90
  -5   2  -3  254.47   18.10
   2   3  -3  265.37   23.40
   3  -5  -3  126.89   67.69
   2   3  -3  227.98   14.00
  -2  -3   3  214.88   18.90
   5  -2   3  226.88   13.60
   5  -2   3  177.08   51.39
   5  -2   3  254.47   21.60
  -3   5   3  256.57   66.19
  -3   5   3  242.68   17.30
  -2  -3   3  286.17   60.49
  -5   3  -3  317.67   21.20
  -5   3  -3  317.67   16.50
   3   2  -3  297.47   17.90
   2  -5  -3  290.77   72.49
  -5   3  -3  330.17   14.20
   2  -5  -3  355.56   28.30
   3   2  -3  316.37   59.79
  -5   3  -3  292.97   25.70
  -5   3  -3  239.38   65.59
  -2   5   3  223.28   60.89
   5  -3   3  297.97   61.59
   5  -3   3  319.87   17.60
  -3  -2   3  314.57   15.70
  -2   5   3  299.77   19.20
  -3  -2   3  289.17   23.10
  -2   5   3  303.37   28.20
  -3  -2   3  289.67   21.30
   5  -3   3  305.17   26.20
   4   1  -3  593.14   85.69
   1  -5  -3  615.44   91.29
   1  -5  -3  672.93   39.80
  -5   4  -3  648.24   27.60
   4   1  -3  634.54   31.60
   4   1  -3  626.54   35.40
  -5   4  -3  690.63   96.39
  -5   4  -3  652.03   30.90
  -5   4  -3  667.13   35.30
  -5   4  -3  635.14   43.60
   4   1  -3  631.14   87.89
  -4  -1   3  706.83   38.30
  -4  -1   3  666.93   35.90
  -1   5   3  656.53   40.90
   5  -4   3  662.13   31.30
  -4  -1   3  683.33   28.50
  -1   5   3  584.14   31.30
   5  -4   3  615.74   96.89
   5  -4   3  674.63   49.40
  -1   5   3  629.94   87.39
   5   0  -3   79.79   15.10
  -5   5  -3   77.09   11.90
   5   0  -3  113.79   67.39
  -5   5  -3   88.59   11.80
  -5   5  -3   68.79    7.80
   0  -5  -3  107.99   56.89
   5   0  -3   64.09   70.19
  -5   5  -3  117.49   24.40
  -5   5  -3  -84.29   69.99
   5  -5   3  -32.30   77.99
  -5   0   3   86.39   15.80
   0   5   3   71.39    8.50
   0   5   3   71.09   14.40
  -5   0   3   68.49    7.20
   0   5   3   66.19    9.90
   5  -5   3   63.09   17.20
   0   5   3  -52.39   48.80
   5  -5   3   76.89    9.60
  -5   0   3   74.39   15.50
   3   3  -3  596.74   31.00
   3  -6  -3  632.14   57.89
  -6   3  -3  650.53  109.89
   3  -6  -3  704.03  132.59
  -6   3  -3  577.04   25.00
   3   3  -3  574.24   79.99
  -6   3  -3  658.33   36.00
  -6   3  -3  597.04   23.60
  -6   3  -3  558.14   42.40
  -3   6   3  446.16  104.29
   6  -3   3  667.03   30.20
   6  -3   3  500.75   97.59
  -3  -3   3  622.44   35.60
  -3   6   3  564.04   48.40
  -3  -3   3  566.94   32.50
  -3   6   3  568.34   36.10
   0   0  -4 4795.12  180.88
   0   0  -4 5012.30  229.38
   0   0  -4 4879.01  187.88
   0   0   4 5139.69  226.58
   0   0   4 4668.63  180.98
   0   0   4 5076.99  179.48
   0   0   4 5087.79  187.98
  -1   0  -4  258.47   17.30
   0   1  -4  228.28   42.70
  -1   0  -4  225.18   36.30
   0   1  -4  269.37   13.80
  -1   0  -4  287.17   13.20
   1  -1  -4  256.17   45.00
   0   1  -4  282.37   19.40
   0   1  -4  270.97   12.60
   1  -1  -4  375.96   53.79
   0  -1   4  263.87   18.50
   0  -1   4  302.37   45.80
  -1   1   4  266.97   19.00
   1   0   4  288.17   13.50
  -1   1   4  285.77   14.60
   0  -1   4  264.27   13.70
   0  -1   4  276.17   12.60
   1   0   4  237.98   37.00
   1   0   4  263.47   17.20
   1   0   4  274.57   11.60
  -1   1   4  292.67   20.70
   1   0  -4 4098.29  158.08
   1   0  -4 4072.69  149.99
  -1   1  -4 4058.89  193.98
  -1   1  -4 3942.91  147.29
  -1   1  -4 3909.81  155.78
  -1   1  -4 3769.52  148.89
   1   0  -4 4187.98  204.68
   0  -1  -4 4061.69  189.78
   1  -1   4 4045.50  147.19
  -1   0   4 4117.89  150.08
   1  -1   4 3939.21  190.68
  -1   0   4 4234.88  148.49
   1  -1   4 4047.70  155.98
  -1   0   4 3989.90  157.58
   0   1   4 4088.79  149.49
   1  -1   4 4157.78  149.49
   0   1   4 4013.50  155.88
  -1   0   4 4185.08  200.48
   2  -1  -4 3906.91  211.08
  -1   2  -4 4152.78  147.89
   2  -1  -4 4461.85  211.68
  -1  -1  -4 3922.01  182.98
  -1   2  -4 3970.60  200.68
  -1   2  -4 3995.00  149.59
  -1   2  -4 4079.29  158.08
  -1  -1  -4 3896.51  181.38
  -2   1   4 4222.68  150.98
  -2   1   4 4013.70  159.28
   1  -2   4 3879.81  197.68
   1  -2   4 4171.18  149.88
   1   1   4 3888.01  148.29
   1  -2   4 4067.59  158.08
   1  -2   4 4094.79  147.69
   1   1   4 3536.35  155.38
  -2   1   4 4326.47  161.08
  -1   3  -4   37.90    4.70
  -1   3  -4    4.30   26.50
   3  -2  -4   29.20   36.10
  -1   3  -4   44.90    5.70
  -2  -1  -4   37.40   14.60
  -2  -1  -4   40.70   15.10
   3  -2  -4   82.39   39.00
  -2  -1  -4   45.90    3.90
   3  -2  -4   50.79    8.20
  -1   3  -4   28.40    8.80
   2   1   4   38.10    3.90
  -3   2   4   44.50    5.90
  -3   2   4   30.80    9.10
   1  -3   4   37.70    4.80
   1  -3   4   59.19   29.40
  -3   2   4   39.30   10.00
   2   1   4   43.60    6.10
   1  -3   4   35.80    8.80
   2   1   4   51.89    6.90
  -2   0  -4 5570.14  243.98
  -2   0  -4 4494.85  165.98
   0   2  -4 4559.04  166.78
   2  -2  -4 4479.15  234.98
   0   2  -4 4343.07  221.48
  -2   0  -4 4418.26  169.98
   2  -2  -4 4186.78  167.78
   2  -2  -4 4930.71  231.78
   0   2  -4 4443.96  175.18
   0   2  -4 4481.15  164.98
  -2   2   4 4542.55  177.28
   0  -2   4 4272.27  216.78
   2   0   4 4527.35  200.88
   2   0   4 4633.34  169.78
   2   0   4 4343.57  164.68
   0  -2   4 4585.54  166.38
  -2   2   4 4331.27  176.38
   0  -2   4 4531.95  165.08
   0  -2   4 4502.15  175.08
   1   1  -4 6858.81  252.47
   1  -2  -4 6998.30  315.47
   1  -2  -4 7370.86  311.37
   1   1  -4 7140.29  254.27
   1   1  -4 6660.43  262.57
  -2   1  -4 6792.12  252.57
   1  -2  -4 6870.31  253.57
   1   1  -4 6976.30  315.27
  -2   1  -4 6288.97  291.57
  -2   1  -4 6742.03  259.97
  -2   1  -4 7012.80  250.57
  -1  -1   4 6935.51  252.57
  -1   2   4 7243.28  263.37
  -1   2   4 7229.08  263.27
  -1  -1   4 7113.49  253.87
  -1  -1   4 7185.88  310.17
  -1   2   4 7229.08  254.67
  -1  -1   4 7242.08  262.67
   2  -1   4 6471.35  294.37
   2  -1   4 6623.84  259.27
  -2   2  -4   23.10    4.10
  -2   2  -4   11.20   21.50
   0  -2  -4   21.10    2.30
   0  -2  -4   17.90   22.80
  -2   2  -4   28.40    7.50
   2   0  -4   48.40   29.40
   0  -2  -4    0.60   18.50
  -2   2  -4   23.40    2.90
   0   2   4   24.50    5.80
   0   2   4   25.20    6.60
   2  -2   4   18.70   21.80
   2  -2   4   23.90    4.20
   2  -2   4   12.20    4.90
  -2   0   4   26.10    3.80
  -2   0   4   31.90    5.10
  -2   0   4   30.80    8.60
  -2   3  -4 3289.77  124.89
  -2   3  -4 3328.77  185.98
  -1  -2  -4 3404.66  155.58
   3  -1  -4 3196.28  188.08
  -2   3  -4 3251.77  127.19
   3  -1  -4 3561.54  204.08
  -2   3  -4 3493.95  138.19
  -1  -2  -4 3375.66  158.48
   2  -3   4 3357.46  127.19
  -3   1   4 3355.16  137.79
  -3   1   4 3290.77  125.99
   2  -3   4 3598.04  188.68
  -3   1   4 3446.26  139.59
   1   2   4 3416.66  129.39
   2  -3   4 3355.26  136.89
   1   2   4 3488.85  130.19
  -3   1   4 3443.46  127.89
   1   2   4 3343.07  125.09
  -2   4  -4 3261.77  131.39
   4  -2  -4 3708.43  224.88
   4  -2  -4 3757.02  214.88
  -2   4  -4 3304.17  202.78
  -2   4  -4 3607.34  136.19
  -2   4  -4 3593.44  147.09
  -4   2   4 4017.00  158.38
   2  -4   4 3552.14  206.68
  -4   2   4 3313.57  132.89
   2   2   4 3420.76  129.49
  -4   2   4 3536.95  134.59
   2  -4   4 3415.06  133.29
   2  -4   4 3618.64  146.59
   2   2   4 3516.25  127.69
  -4   2   4 3511.75  147.79
   5  -3  -4   18.80    7.90
   5  -3  -4   22.10   64.69
  -2   5  -4   16.00    6.20
  -2   5  -4    3.10   12.70
  -2   5  -4   26.80    6.80
  -2   5  -4   11.90    5.30
  -2   5  -4   24.20   54.89
   2  -5   4  -99.39   61.09
  -5   3   4   15.10    6.30
  -5   3   4   -7.20   14.10
  -5   3   4   23.70    5.70
  -5   3   4   17.10   14.50
   2  -5   4   18.90    4.90
   2  -5   4   34.30   14.10
  -1   4  -4 1793.12  140.59
  -1   4  -4 1900.11   85.79
   4  -3  -4 1952.80  153.88
   3   1   4 1804.32   67.89
  -4   3   4 1741.83   73.09
  -4   3   4 1854.41   74.69
  -4   3   4 1601.34  137.79
   1  -4   4 1828.32   71.79
  -4   3   4 1838.42   87.29
   1  -4   4 1698.13  140.09
   1  -4   4 1871.41   83.99
   3  -3  -4 3042.00  126.59
   0   3  -4 3153.38  176.98
   0   3  -4 2930.81  113.39
  -3   0  -4 2997.80  112.89
  -3   0  -4 2792.72  131.89
  -3   0  -4 2985.30  114.39
   3  -3  -4 3166.28  188.68
   3  -3  -4 2824.92  115.29
   0   3  -4 3013.50  123.89
  -3   3   4 2945.11  114.89
   0  -3   4 2942.51  122.59
   0  -3   4 2915.01  170.18
   0  -3   4 2972.30  112.19
  -3   3   4 3120.69  127.69
   3   0   4 3056.69  144.59
   3   0   4 3051.09  110.39
   3   0   4 3052.59  113.89
  -3   3   4 2740.83  175.08
  -3   1  -4  129.39   12.40
   2  -3  -4  118.79   15.60
  -3   1  -4  132.29    9.90
   1   2  -4  123.09    8.20
  -3   1  -4  122.89    7.00
   1   2  -4  128.09   14.50
   2  -3  -4  168.58   46.50
   2  -3  -4  142.29   11.70
  -3   1  -4  135.89   31.20
   1   2  -4  134.79    9.50
   1   2  -4  138.79   36.90
   3  -1   4  143.39   13.60
   3  -1   4  127.09    8.10
  -2   3   4  114.29   40.80
  -2   3   4  102.69   16.90
  -1  -2   4   97.09   37.40
  -1  -2   4  115.49    8.10
  -1  -2   4  134.69    8.30
  -1  -2   4  137.89   14.60
   3  -1   4   85.19   28.90
  -3   2  -4 2645.84  101.79
   2   1  -4 2723.63  179.38
  -3   2  -4 2587.74   98.09
   1  -3  -4 2628.64   97.19
  -3   2  -4 2340.87  114.79
   2   1  -4 2686.73  109.79
   2   1  -4 2566.04   99.49
  -3   2  -4 2661.03   95.69
   1  -3  -4 2641.54  210.48
  -1   3   4 2437.76  158.38
  -2  -1   4 2607.24   97.99
  -2  -1   4 2677.13   98.19
   3  -2   4 2546.95  146.09
   3  -2   4 2741.53   99.19
  -2  -1   4 2637.74  108.09
  -1   3   4 2664.43  108.89
   3  -2   4 2349.46  105.79
  -2  -1   4 3185.88  230.18
   3   0  -4 3131.89  182.68
   3   0  -4 3235.08  120.89
  -3   3  -4 3213.18  130.69
  -3   3  -4 3186.88  116.89
  -3   3  -4 3074.09  122.49
  -3   3  -4 2583.94  187.38
   0  -3  -4 3084.49  168.98
   3   0  -4 3243.58  190.48
  -3   3  -4 3257.07  119.89
  -3   0   4 3322.67  119.09
   3  -3   4 3324.77  120.29
   3  -3   4 3034.00  178.88
   0   3   4 3265.57  126.69
   3  -3   4 3148.89  129.99
  -3   0   4 3194.58  130.89
  -3   0   4 3215.98  118.59
  -3   0   4 2822.42  133.49
  -3   4  -4  382.86   30.60
  -1  -3  -4  409.96   47.40
   4  -1  -4  339.97   69.19
   4  -1  -4  276.07   71.99
   4  -1  -4  347.87   23.10
  -3   4  -4  394.26   68.19
  -3   4  -4  415.56   22.90
  -4   1   4  367.26   18.60
   3  -4   4  487.55   78.89
  -4   1   4  354.46   29.80
  -4   1   4  377.56   18.80
  -4   1   4  372.96   19.30
   3  -4   4  367.76   29.20
   1   3   4  337.37   20.20
   5  -2  -4 1430.36   68.49
   5  -2  -4 1657.43  149.39
  -3   5  -4 1468.95  144.49
  -3   5  -4 1489.25   60.79
  -3   5  -4 1519.15   79.29
  -3   5  -4 1575.24   66.49
   5  -2  -4 1630.24  170.78
  -5   2   4 1550.04   61.19
  -5   2   4 1528.25   62.49
   3  -5   4 1502.25   77.39
  -5   2   4 1557.34   77.59
  -5   2   4 1448.76   61.29
   2   3   4 1496.65   57.19
  -5   2   4 1532.45   78.59
   3  -5   4 1546.45  152.48
   2   3   4 1563.84   58.49
  -1   5  -4 1836.32   76.69
  -1   5  -4 1732.93   73.39
  -1   5  -4 1809.42   91.19
  -1   5  -4 2485.45  205.58
   5  -4  -4 2326.67  190.38
   5  -4  -4 1744.23   80.49
   1  -5   4 1893.01  180.38
   1  -5   4 1757.22   72.99
  -5   4   4 1828.62   77.49
  -5   4   4 2066.99   87.79
   4   1   4 1843.42   68.59
   1  -5   4 1860.51   88.79
  -5   4   4 1983.50   96.59
  -5   4   4 1612.44  162.98
   0   4  -4  246.28   63.19
  -4   0  -4  286.67   16.70
   4  -4  -4  331.87   79.99
   0   4  -4  273.37   26.30
   0   4  -4  255.67   17.10
   4  -4  -4  265.77   27.50
   0   4  -4  253.67   15.40
  -4   4   4  262.97   18.50
   0  -4   4  256.47   14.50
   0  -4   4  339.17   71.49
  -4   4   4  334.67   80.49
  -4   4   4  261.67   28.70
   0  -4   4  294.87   25.30
   4   0   4  275.57   38.70
   4   0   4  268.67   13.10
  -4   1  -4 1433.26   99.59
   1   3  -4 1639.74   64.69
   1   3  -4 1660.33   66.19
   3  -4  -4 1611.44  143.89
   3  -4  -4 1654.53   67.89
  -4   1  -4 1711.23   68.39
  -4   1  -4 1711.93   69.89
   1   3  -4 1569.84  123.49
   3  -4  -4 1643.24   79.19
  -1  -3   4 1673.33   63.79
  -1  -3   4 1691.13  129.49
   4  -1   4 1658.03   63.69
   4  -1   4 1683.23   70.09
   4  -1   4 1719.83  107.39
  -1  -3   4 1607.44   75.09
  -3   4   4 1411.06  131.99
  -3   4   4 1611.04   80.49
   2   2  -4 2549.15   99.59
   2  -4  -4 2814.02  102.69
  -4   2  -4 2563.54  102.89
  -4   2  -4 2619.34   96.99
   2   2  -4 2721.43  104.09
  -4   2  -4 2620.74   94.39
   2   2  -4 2536.25  164.88
  -4   2  -4 2303.37  146.89
   2  -4  -4 2775.42  112.49
   2  -4  -4 2616.54  175.38
  -4   2  -4 2578.14  107.19
   4  -2   4 2547.65  107.29
  -2  -2   4 2502.15   97.79
  -2   4   4 2517.25  164.98
   4  -2   4 2568.54   98.59
  -2  -2   4 2508.45  160.18
  -2  -2   4 2496.15  107.49
  -2  -2   4 2597.14   96.69
   4  -2   4 2489.85  149.39
  -2   4   4 2543.95  126.19
   3   1  -4   99.99   10.30
  -4   3  -4  105.69   45.70
  -4   3  -4   98.99    8.60
   3   1  -4   54.39   42.00
  -4   3  -4   85.29    6.00
  -4   3  -4  100.99   16.00
   1  -4  -4  104.19   18.50
   3   1  -4  150.58   54.39
   1  -4  -4  130.79   47.40
   4  -3   4   86.59    8.10
   4  -3   4  106.09   16.70
   4  -3   4  156.28   48.00
  -1   4   4  118.49   42.90
  -3  -1   4  106.69    7.70
  -3  -1   4   83.89    6.30
  -4   4  -4 1342.17   71.99
  -4   4  -4 1501.75   64.09
   4   0  -4 1634.64  134.09
   4   0  -4 1444.06   65.89
  -4   4  -4 1570.04   58.89
   0  -4  -4 1494.85  107.89
  -4   4  -4 1412.06  127.99
  -4   4  -4 1392.16   60.29
   0  -4  -4 1420.66  114.49
   4   0  -4 1762.52  149.09
   4  -4   4 1494.35   60.69
   4  -4   4 1432.76   72.29
  -4   0   4 1476.55   56.69
  -4   0   4 1468.45   58.09
  -4   0   4 1413.36   69.99
  -4   0   4 1467.55   70.69
  -4   0   4 1400.26   56.29
   4  -4   4 1407.06  131.79
   0   4   4 1506.35   66.59
   0   4   4 1425.36   65.59
  -4   5  -4 1496.75   80.59
  -4   5  -4 1612.34   68.49
  -4   5  -4 1563.94   61.59
   5  -1  -4 1731.43  164.68
  -4   5  -4 1322.87  144.59
  -4   5  -4 1427.96   64.89
   5  -1  -4 1583.94   71.89
  -5   1   4 1623.34   81.19
   1   4   4 1475.45   63.19
  -5   1   4 1539.95   60.09
  -5   1   4 1560.54   60.59
  -5   1   4 1533.85   61.69
   1   4   4 1452.05   59.59
   1   4   4 1467.45   62.49
   4  -5   4 1565.84   64.79
   1   4   4 1573.04   61.39
   4  -5   4 1742.03  168.38
  -5   1   4 1632.74   78.99
   4  -5   4 1548.65   79.49
   5  -5  -4 1311.87   79.69
   5  -5  -4 1947.21  207.28
   0   5  -4 1490.95   77.89
   0   5  -4 1608.64  160.18
   5  -5  -4 1426.96   66.69
   0   5  -4 1329.97   67.49
   0  -5   4 1359.86  161.78
  -5   5   4 1405.16   65.09
  -5   5   4 1403.96  179.08
   0  -5   4 1475.35   57.59
   0  -5   4 1492.85   74.19
   5   0   4 1526.65   56.19
   1   4  -4 1806.42  146.99
   1   4  -4 1796.82   76.09
   1   4  -4 1859.61   74.49
   4  -5  -4 1784.02  183.98
  -5   1  -4 2011.10   93.69
   4  -5  -4 2049.40   95.49
   1   4  -4 1743.43  103.29
   4  -5  -4 1804.92   78.59
  -5   1  -4 1871.41   76.59
  -1  -4   4 1901.31  160.08
  -1  -4   4 1871.41   85.79
   5  -1   4 1749.32   76.59
   5  -1   4 1944.41   72.89
  -4   5   4 2241.18  176.68
  -1  -4   4 1885.81   71.29
   2   3  -4   56.49    9.20
  -5   2  -4   55.99    9.60
  -5   2  -4   60.29   12.10
   2   3  -4   57.69    8.00
  -5   2  -4   71.99   50.79
   3  -5  -4   73.99   17.70
   2   3  -4   35.70   48.60
   3  -5  -4   58.89    8.70
   2   3  -4   55.89   14.50
   3  -5  -4    1.70   67.99
  -2  -3   4  -46.20   50.59
  -3   5   4   71.69   15.90
   5  -2   4   54.79    6.90
   5  -2   4   30.70   48.30
  -3   5   4   49.50   14.10
  -2  -3   4   46.90    4.20
  -2  -3   4   51.89   11.50
   5  -2   4   57.09   12.90
  -3   5   4   85.29   59.59
  -5   3  -4 2095.59  154.38
   3   2  -4 2328.37  165.48
  -5   3  -4 2181.28   84.79
  -5   3  -4 2319.87   99.29
   2  -5  -4 2364.56  207.28
  -5   3  -4 2268.77   92.39
  -5   3  -4 2286.47   81.89
   3   2  -4 2194.68   87.59
   2  -5  -4 2239.48  100.49
  -2   5   4 2134.29   88.69
  -2   5   4 2211.88  102.59
  -3  -2   4 2200.78   84.89
   5  -3   4 2219.18   87.09
  -3  -2   4 2146.29   94.59
   5  -3   4 2116.69   97.99
   5  -3   4 2080.89  154.98
  -2   5   4 2190.18  166.08
   4   1  -4 2084.99  163.08
  -5   4  -4 1922.61   80.69
   4   1  -4 1777.72   75.79
   1  -5  -4 1690.83  148.79
   4   1  -4 2326.67  173.68
  -5   4  -4 1736.23   88.39
  -5   4  -4 1711.13  155.58
  -5   4  -4 1813.62   70.39
   4   1  -4 1964.00   98.59
   1  -5  -4 1779.72   86.49
   5  -4   4 2045.70  163.78
   5  -4   4 1866.51   89.19
  -1   5   4 1577.34  143.59
  -4  -1   4 1868.41   92.29
  -1   5   4 1801.42   75.19
  -4  -1   4 1849.31   72.09
  -4  -1   4 1890.51   84.69
   0  -5  -4   81.69   57.49
  -5   5  -4   31.30    7.00
  -5   5  -4   76.19   87.39
   5   0  -4  -20.10   78.49
   5   0  -4   18.50   11.40
   5   0  -4  -16.80   85.59
  -5   5  -4   28.00   10.60
   0  -5  -4  131.19   69.89
  -5   5  -4   43.10    9.50
  -5   5  -4   35.70   20.40
   0   5   4   37.30   15.10
   5  -5   4  -34.70   84.29
   5  -5   4   15.80   16.20
   5  -5   4   33.50    7.20
  -5   0   4   34.60   14.50
   0   5   4   33.70   13.10
  -5   0   4   20.90   13.60
  -5   0   4   21.90    5.00
   0   0  -5  831.92   79.19
   0   0  -5  809.32   42.10
   0   0  -5  782.42   34.60
   0   0   5  986.10   79.29
   0   0   5  854.41   42.50
   0   0   5  859.01   33.10
   0   0   5  809.82   37.20
   1  -1  -5   29.50   25.90
   1  -1  -5   48.40   41.00
  -1   0  -5   48.40    4.70
   0   1  -5   50.79    4.40
   0   1  -5   30.50   29.60
   0   1  -5   32.50    7.40
   0   1  -5   45.30    5.50
   1   0   5   41.10    3.40
   0  -1   5   56.99   10.30
  -1   1   5   44.30    5.30
   1   0   5   48.50    4.90
   1   0   5   42.10    8.80
   1   0   5   25.30   22.40
  -1   1   5   44.60    8.80
  -1   1   5   42.50    8.50
   0  -1   5   61.29   30.10
   0  -1   5   44.50    5.00
  -1   1  -5 2633.14  151.08
  -1   1  -5 2434.16   95.59
  -1   1  -5 2552.54   97.99
  -1   1  -5 2678.73  106.99
   0  -1  -5 2556.94  152.18
   1   0  -5 2724.83  109.19
   0  -1  -5 2828.42  149.79
   1   0  -5 2574.14  159.78
   1   0  -5 2492.15   98.79
   1  -1   5 2662.13  106.69
  -1   0   5 2479.35   96.89
   1  -1   5 2664.03  146.99
   1  -1   5 2579.04   95.69
  -1   0   5 2617.44   99.29
   0   1   5 2577.04  106.39
   0   1   5 2639.74   98.59
  -1   0   5 2884.61  157.88
   1  -1   5 2549.65   98.29
  -1   0   5 2482.25  107.39
  -1  -1  -5   27.70   24.30
   2  -1  -5  -18.50   32.20
  -1   2  -5    7.30    2.20
  -1   2  -5    8.10    3.00
  -1   2  -5   -2.00   28.10
   2  -1  -5    3.10   29.60
  -1  -1  -5   -2.00   19.50
  -1   2  -5    0.50    4.60
   1  -2   5    5.10    1.90
   1   1   5    8.80    2.60
  -2   1   5    3.30    5.30
   1  -2   5   -0.50   26.90
   1   1   5    4.00    4.60
   1  -2   5   18.60    4.00
  -2   1   5    6.00    2.80
  -2   1   5    2.20    4.90
   1  -2   5   14.20    7.00
   3  -2  -5   30.30    5.70
  -1   3  -5   23.00    3.90
  -2  -1  -5   34.40   22.20
  -2  -1  -5   31.20    3.70
  -1   3  -5   89.29   39.60
  -1   3  -5   16.10    4.40
  -1   3  -5   27.00    9.90
  -2  -1  -5    9.40   21.80
   3  -2  -5   40.70   51.89
   3  -2  -5   28.30   33.50
   1  -3   5   25.30    4.40
  -3   2   5   31.00   10.50
   1  -3   5   20.60    7.40
   2   1   5   24.70    6.20
  -3   2   5   52.99   15.00
   2   1   5   29.00    6.40
   2   1   5   32.00    4.20
   1  -3   5   77.29   42.40
  -3   2   5   35.70    6.20
   0   2  -5 1512.55   70.39
   0   2  -5 1621.94  121.49
   0   2  -5 1506.55   61.19
   2  -2  -5 1623.04  120.99
   0   2  -5 1520.25   59.19
  -2   0  -5 1562.64   66.19
  -2   0  -5 1515.25   59.99
  -2   0  -5 1463.05   95.99
   2  -2  -5 1510.25  122.49
   2  -2  -5 1463.95   62.29
   0  -2   5 1586.44   70.59
   2   0   5 1526.55   55.99
   2   0   5 1534.75   65.69
   0  -2   5 1516.15  110.69
   2   0   5 1553.14   59.49
  -2   2   5 1570.24   62.39
  -2   2   5 1393.36   70.39
   0  -2   5 1494.45   60.69
   0  -2   5 1530.55   59.09
   2   0   5 1628.34  102.99
  -2   2   5 1548.95   72.59
  -2   1  -5  387.66   18.60
   1   1  -5  452.05   73.99
   1   1  -5  416.66   20.40
   1   1  -5  428.76   28.30
   1  -2  -5  427.76   66.69
   1  -2  -5  407.96   61.69
  -1  -1   5  403.66   18.60
  -1  -1   5  385.96   27.00
   2  -1   5  453.85   60.19
  -1  -1   5  346.27   58.89
  -1  -1   5  420.06   20.00
  -1   2   5  395.66   20.40
   2  -1   5  390.76   19.20
   2  -1   5  412.76   16.60
  -1   2   5  377.26   26.40
  -1   2   5  402.66   27.50
  -2   2  -5  239.18   13.80
  -2   2  -5  290.77   53.49
   0  -2  -5  173.18   54.09
  -2   2  -5  246.98   11.90
   2   0  -5  260.97   15.10
   2   0  -5  213.58   58.29
   0  -2  -5  191.18   45.20
   2  -2   5  257.27   14.20
   0   2   5  263.27   20.20
   0   2   5  236.78   19.20
   2  -2   5  254.17   20.90
  -2   0   5  243.68   14.30
  -2   0   5  245.78   13.30
   2  -2   5  256.27   49.90
  -2   0   5  214.88   25.40
   0   2   5  260.57   14.20
  -2   3  -5 1592.34   61.19
  -1  -2  -5 1572.84  103.79
  -2   3  -5 1558.84   74.29
   3  -1  -5 1391.56  138.79
  -1  -2  -5 1718.23  141.99
  -2   3  -5 1549.45  121.79
   3  -1  -5 1579.04  138.49
   1   2   5 1546.65   67.59
   2  -3   5 1578.84   73.99
   2  -3   5 1633.34   64.09
  -3   1   5 1466.25   73.99
   2  -3   5 1690.33  125.79
  -3   1   5 1729.33   77.99
  -3   1   5 1543.45   62.39
  -3   1   5 1591.84   64.59
   1   2   5 1630.34   62.29
  -2   4  -5  161.98   10.80
  -2   4  -5  140.59   12.80
   4  -2  -5  128.99   70.29
  -2   4  -5  169.38   23.30
   4  -2  -5  276.07   73.19
  -2   4  -5  314.47   70.69
   4  -2  -5  146.89   14.70
   2  -4   5  165.38   68.59
   2   2   5  159.38    9.80
   2  -4   5  159.88   21.30
  -4   2   5  163.38   12.60
   2   2   5  168.58   10.80
  -4   2   5  167.28   21.40
  -4   2   5  111.39   19.60
   2  -4   5  178.68   12.50
   5  -3  -5  244.38   92.09
  -2   5  -5  243.38   19.80
   5  -3  -5  237.68   22.00
  -2   5  -5  204.08   28.70
  -2   5  -5  292.17   20.00
  -2   5  -5  248.48   16.30
   5  -3  -5  164.08   94.29
  -2   5  -5  293.57   90.69
  -5   3   5  260.87   18.50
  -5   3   5  324.87   34.70
  -5   3   5  259.77   34.00
   2  -5   5  329.47   97.79
   2  -5   5  262.77   31.60
   2  -5   5  245.88   16.50
   3   2   5  267.77   13.10
  -1   4  -5  907.71   43.30
   4  -3  -5  992.50   46.90
  -1   4  -5  955.60   41.00
   4  -3  -5 1083.59  130.29
  -1   4  -5  924.21  117.59
   4  -3  -5  932.11  130.79
   1  -4   5  947.61  116.39
   1  -4   5 1059.89   55.89
   1  -4   5 1026.90   42.60
  -4   3   5  922.41   56.69
  -4   3   5  980.50   57.79
   3   1   5  961.20   38.90
   0   3  -5  237.08   22.70
  -3   0  -5  225.78   13.60
   3  -3  -5  235.58   65.99
   3  -3  -5  221.78   15.90
  -3   0  -5  182.08   36.00
   3  -3  -5  272.67   67.79
  -3   0  -5  239.48   17.20
   0   3  -5  179.08   55.09
  -3   3   5  229.78   24.60
  -3   3   5  267.17   39.00
  -3   3   5  222.48   15.40
   0  -3   5  217.28   12.60
   3   0   5  229.08   16.20
   3   0   5  231.48   12.30
   3   0   5  279.07   46.00
   0  -3   5  210.38   21.80
   0  -3   5  233.88   13.70
   0  -3   5  254.57   55.99
  -3   1  -5  196.08   10.00
   2  -3  -5  187.38   12.60
   1   2  -5  169.28   13.30
  -3   1  -5  158.98   39.60
   1   2  -5  182.38   15.00
  -3   1  -5  173.08   16.70
  -3   1  -5  183.88   12.60
   1   2  -5  219.98   56.69
   2  -3  -5  102.19   46.40
   1   2  -5  176.08   19.50
   3  -1   5  223.68   43.40
  -2   3   5  173.28   20.20
  -2   3   5  178.88   12.70
  -1  -2   5  202.48   19.90
   3  -1   5  197.58   11.30
  -1  -2   5  132.69   45.90
  -2   3   5  168.98   19.20
  -1  -2   5  189.38   11.00
  -1  -2   5  187.38   11.50
   1  -3  -5 1351.06  105.29
   2   1  -5 1122.29   48.00
   2   1  -5 1317.17  113.79
   1  -3  -5 1089.69   44.90
  -3   2  -5 1149.89   43.30
  -3   2  -5 1116.69   55.19
  -3   2  -5 1132.59   46.10
   2   1  -5 1064.39   57.29
  -3   2  -5 1165.98   49.60
   3  -2   5 1182.18   46.90
  -2  -1   5 1120.79   45.80
  -2  -1   5 1140.19   46.60
  -1   3   5 1097.49   56.29
   3  -2   5 1093.29   54.49
   3  -2   5 1035.20   91.39
  -2  -1   5 1229.98  107.49
  -2  -1   5 1168.18   57.49
   0  -3  -5  262.67   58.69
  -3   3  -5  305.87   18.70
   3   0  -5  374.66   78.09
  -3   3  -5  282.67   13.80
  -3   3  -5  265.87   16.00
  -3   3  -5  287.97   24.80
   3   0  -5  304.67   69.39
   3   0  -5  298.27   18.00
  -3   3  -5  345.97   68.29
  -3   0   5  303.17   26.10
  -3   0   5  283.67   15.90
   3  -3   5  243.78   57.79
  -3   0   5  287.77   15.40
  -3   0   5  252.87   23.70
   0   3   5  299.87   23.10
   3  -3   5  274.27   16.20
   3  -3   5  261.67   24.20
  -3   4  -5   30.60   12.70
   4  -1  -5   49.40   57.99
   4  -1  -5   56.09    9.80
  -3   4  -5  -29.40   46.80
  -3   4  -5   34.10    6.50
  -1  -3  -5   64.59   36.80
  -1  -3  -5   22.30   27.70
   4  -1  -5   40.80   62.29
  -4   1   5   46.20   14.80
   3  -4   5   38.00    6.40
   1   3   5   36.80    8.30
   1   3   5   46.80    6.10
   3  -4   5   96.89   17.70
   1   3   5   34.20   10.40
  -4   1   5   36.90    5.60
   3  -4   5   18.30   50.79
  -4   1   5   48.10    7.00
  -4   1   5   44.70   13.70
  -3   5  -5  667.13   32.00
   5  -2  -5  650.63   40.10
  -3   5  -5  616.84   40.00
   5  -2  -5  833.32  122.89
  -3   5  -5  772.02   38.00
   5  -2  -5  522.55  114.79
  -3   5  -5  927.61  129.29
  -5   2   5  704.63   32.40
   3  -5   5  734.43   50.19
  -5   2   5  691.23   50.89
   2   3   5  700.03   27.90
   2   3   5  739.33   30.70
  -5   2   5  646.64   33.50
   3  -5   5  690.63  119.59
  -5   2   5  783.72   34.80
  -5   2   5  719.83   49.90
   3  -5   5  712.03   34.40
  -1   5  -5   32.30    8.90
   5  -4  -5   25.20   10.20
  -1   5  -5   50.59   19.90
  -1   5  -5   38.50   10.90
   5  -4  -5   21.30   96.69
  -1   5  -5   26.80   76.99
   4   1   5   46.40    5.50
   1  -5   5   79.29   19.60
  -5   4   5   16.10    9.80
   1  -5   5   37.10    6.30
  -5   4   5   25.20   17.30
  -5   4   5   43.30   19.80
  -5   4   5   46.10    9.50
   1  -5   5   73.09   86.09
   4  -4  -5   38.10    9.00
  -4   0  -5   29.60    6.10
   0   4  -5   20.30   13.60
   0   4  -5   35.70    8.00
   0   4  -5   40.40   67.19
   4  -4  -5   91.89   75.19
   0   4  -5   28.30    6.00
   4   0   5   45.40    7.00
  -4   4   5   16.40    7.10
   4   0   5   41.40    5.40
   0  -4   5    4.30   57.39
   4   0   5   57.99   34.90
  -4   4   5   30.10    6.20
  -4   4   5   27.50   62.39
  -4   4   5   27.60   13.50
   0  -4   5   29.10    6.00
   0  -4   5   28.20   12.50
   1   3  -5 1501.25   65.59
   3  -4  -5 1660.23  153.38
   1   3  -5 1507.45  136.29
   1   3  -5 1652.33   64.09
  -4   1  -5 1513.95  107.29
  -4   1  -5 1584.34   66.59
   1   3  -5 1631.34   78.19
   3  -4  -5 1532.15   66.99
  -4   1  -5 1672.63   70.19
  -3   4   5 1796.52  146.59
   4  -1   5 1569.84   62.99
  -1  -3   5 1522.15  130.89
  -1  -3   5 1695.83   63.69
  -1  -3   5 1557.24   62.99
  -1  -3   5 1652.23   76.99
   4  -1   5 1614.04   69.99
  -3   4   5 1630.34   86.69
   4  -1   5 1598.44  113.99
  -4   2  -5   39.50    5.30
   2  -4  -5   33.30    5.70
   2   2  -5   30.20   11.30
   2   2  -5  -10.50   50.99
  -4   2  -5   38.60    3.20
  -4   2  -5   25.30   40.40
   2   2  -5   41.00    7.40
  -4   2  -5   56.79   11.40
  -4   2  -5   49.90    9.00
   2  -4  -5  130.09   54.49
   2   2  -5   37.80    6.20
  -2  -2   5    3.40   48.00
  -2  -2   5   39.60    5.60
   4  -2   5   44.00    5.90
  -2  -2   5   51.49   12.60
   4  -2   5   38.00   11.00
   4  -2   5   68.59   39.50
  -2   4   5  100.59   48.00
  -2  -2   5   33.00    4.90
   3   1  -5   74.59   56.39
  -4   3  -5   38.00    7.80
  -4   3  -5   38.50    6.20
  -4   3  -5    4.70   42.70
   3   1  -5   62.19   55.89
   1  -4  -5   22.00   49.20
  -4   3  -5   25.00    3.80
   1  -4  -5  -11.10   47.50
  -4   3  -5   39.00   10.80
  -1   4   5   17.30    9.00
  -1   4   5   34.90   10.70
   4  -3   5   25.70    5.00
   4  -3   5   56.59   13.60
  -3  -1   5   19.80    4.40
   4  -3   5   58.79   47.20
  -3  -1   5   17.00    9.60
  -3  -1   5   31.30   10.80
  -3  -1   5   26.20    4.60
  -4   4  -5 1193.08  128.09
   0  -4  -5 1134.19  105.39
   4   0  -5 1385.66  136.69
  -4   4  -5 1333.67   58.99
  -4   4  -5 1301.87   69.09
   0  -4  -5 1327.27  125.09
   0   4   5 1228.18   60.89
  -4   0   5 1285.17   51.99
   0   4   5 1295.27   62.19
   4  -4   5 1074.79  132.39
  -4   0   5 1250.47   52.59
  -4   0   5 1335.67   67.59
   4  -4   5 1291.27   68.19
  -4   0   5 1332.37   67.59
  -4   5  -5   60.09    8.10
  -1  -4  -5   29.50   41.70
  -4   5  -5   25.40   76.89
  -1  -4  -5   72.89   28.10
  -4   5  -5   58.89   22.10
   5  -1  -5   31.60  100.19
   5  -1  -5   46.30   12.10
  -4   5  -5   37.90   10.10
   5  -1  -5   50.09   87.69
  -4   5  -5   56.69   11.00
  -5   1   5   51.49   17.10
   4  -5   5   34.10   16.60
  -5   1   5   79.99   19.90
   4  -5   5   55.49   82.99
  -5   1   5   52.39    7.20
  -5   1   5   37.60    6.80
   1   4   5   38.70    8.80
   4  -5   5   38.70    6.90
   1   4  -5   98.09   12.20
   1   4  -5  107.89   13.80
  -5   1  -5  117.79   16.00
   4  -5  -5   11.70  100.19
   1   4  -5  143.09   24.30
   4  -5  -5  106.09   14.40
  -5   1  -5  105.59   12.20
   1   4  -5  216.78   84.79
  -5   1  -5   46.90   41.00
   5  -1   5  127.59   16.20
  -4   5   5   90.99   21.60
  -4   5   5  106.29   14.70
  -1  -4   5  111.19    8.80
  -4   5   5  251.77   90.79
   5  -1   5  117.59    9.60
  -1  -4   5   15.10   77.19
   5  -1   5  125.09   55.99
  -1  -4   5  111.39   20.20
   2   3  -5   67.29   18.50
   2   3  -5   66.29    9.30
  -5   2  -5   61.39   13.60
  -5   2  -5   60.79    9.70
   2   3  -5   63.69   18.40
  -5   2  -5   50.49   59.39
   2   3  -5   87.69   69.29
   3  -5  -5   71.89   10.30
   3  -5  -5  106.39  100.09
  -2  -3   5   67.49   68.89
  -3   5   5   69.79   12.40
  -2  -3   5   61.59    7.60
   5  -2   5   26.00   58.99
   5  -2   5   64.29    7.70
  -2  -3   5   62.09    6.00
  -3   5   5   66.39   67.19
  -3   5   5   69.09   18.80
   5  -2   5   63.89   13.50
   2  -5  -5  400.26  103.09
   3   2  -5  565.64  135.69
  -5   3  -5  541.95   86.79
  -5   3  -5  625.74   41.20
  -5   3  -5  631.04   34.20
  -5   3  -5  601.64   24.00
   3   2  -5  600.44   32.30
  -5   3  -5  613.14   27.50
  -3  -2   5  576.64   24.60
   5  -3   5  448.66   92.69
  -3  -2   5  602.44   27.90
  -2   5   5  630.44   45.40
   5  -3   5  614.24   29.50
  -2   5   5  545.45   31.80
  -2   5   5  587.04   99.89
   5  -3   5  557.74   39.90
  -5   4  -5  -53.79   71.19
   4   1  -5   57.59   12.50
   4   1  -5   79.39   87.09
  -5   4  -5   43.30   10.50
   1  -5  -5  -28.90   79.09
   4   1  -5  -59.69   76.79
   1  -5  -5  -28.60   71.19
  -5   4  -5   71.89   19.90
  -5   4  -5   60.69    9.90
  -1   5   5   51.89   10.80
   5  -4   5   39.60   14.40
  -1   5   5   43.40   15.20
  -4  -1   5   50.29    4.90
  -1   5   5   40.50   14.20
  -4  -1   5   36.10   14.40
  -4  -1   5   37.20   15.90
  -4  -1   5   51.39    7.40
   5  -4   5   41.10    7.30
   5  -4   5   -9.40   80.79
   0   0  -6 3452.95  131.49
   0   0  -6 3248.88  141.19
   0   0  -6 3763.42  204.88
   0   0   6 3636.24  132.29
   0   0   6 3492.65  128.99
   0   0   6 3484.55  141.79
   1  -1  -6 3744.13  214.28
   0   1  -6 3827.12  148.99
   1  -1  -6 3878.61  205.88
   0   1  -6 3465.65  136.49
  -1   0  -6 3755.32  135.69
  -1   0  -6 3306.17  146.59
   0   1  -6 3533.25  206.18
   0  -1   6 3572.54  146.79
   1   0   6 3657.93  145.09
   0  -1   6 3608.14  133.99
   1   0   6 3491.95  192.28
   1   0   6 3701.73  132.89
  -1   1   6 3822.22  149.39
   1   0   6 3620.64  136.09
  -1   1   6 3613.74  134.39
  -1   1   6 3677.53  137.49
   0  -1   6 3562.94  199.78
   0  -1   6 3608.64  136.69
  -1   1   6 3403.36  146.49
   1   0  -6  537.45   26.60
  -1   1  -6  541.55   25.70
   1   0  -6  538.95   34.90
   0  -1  -6  527.05   79.69
  -1   1  -6  595.64   35.10
   1   0  -6  737.13   97.39
   0  -1  -6  547.65   73.89
  -1   1  -6  537.65   76.39
  -1   0   6  548.15   26.70
  -1   0   6  644.44   84.69
   0   1   6  540.85   26.10
   0   1   6  570.04   23.70
   0   1   6  561.14   34.00
  -1   0   6  551.14   35.20
   1  -1   6  560.54   23.50
   1  -1   6  507.15   71.49
   1  -1   6  546.25   33.70
  -1   0   6  580.34   24.80
   2  -1  -6 1497.85  129.09
  -1  -1  -6 1502.95  111.29
  -1   2  -6 1579.14  122.29
   2  -1  -6 1439.96  121.59
  -1   2  -6 1351.36   66.19
  -1   2  -6 1316.37   53.09
  -1  -1  -6 1448.16  101.39
  -1   2  -6 1387.76   56.09
   1  -2   6 1342.27   65.99
  -2   1   6 1373.96   57.09
   1   1   6 1368.26   54.99
   1   1   6 1263.77   61.79
   1  -2   6 1294.47  110.89
  -2   1   6 1303.47   66.19
   1  -2   6 1372.36   53.09
  -2   1   6 1382.26   54.49
  -2   1   6 1391.36   68.79
   1   1   6 1349.16   51.79
  -1   3  -6 3450.95  210.78
   3  -2  -6 3393.86  223.68
  -2  -1  -6 3163.58  170.38
  -2  -1  -6 3394.26  125.99
  -1   3  -6 3318.37  142.79
   3  -2  -6 3580.04  219.38
   3  -2  -6 3367.16  134.59
  -3   2   6 3684.13  147.59
   2   1   6 3287.27  134.29
   2   1   6 3361.36  133.49
   1  -3   6 3310.97  129.39
  -3   2   6 3361.06  144.09
   2   1   6 3401.76  127.49
   1  -3   6 3295.97  204.58
  -3   2   6 3484.25  131.59
   1  -3   6 3550.34  143.89
   2   1   6 3320.87  123.09
   2  -2  -6  475.95   84.69
  -2   0  -6  364.06   19.00
   0   2  -6  367.66   28.80
   2  -2  -6  432.06   75.79
   0   2  -6  422.16   74.09
  -2   0  -6  265.87   54.49
   0  -2   6  339.67   27.70
   2   0   6  353.06   58.49
   0  -2   6  360.76   18.10
   2   0   6  402.76   19.30
  -2   2   6  348.77   28.70
  -2   2   6  372.56   21.00
   2   0   6  460.05   32.80
  -2   2   6  363.36   30.60
   2   0   6  398.66   15.70
   0  -2   6  410.66   70.29
   1  -2  -6 1221.98  114.59
  -2   1  -6 1185.38   48.00
   1   1  -6 1162.08   49.20
   1   1  -6 1075.29   59.19
   1  -2  -6 1171.08  106.39
   1   1  -6 1215.78  116.89
  -2   1  -6 1073.49   70.59
   2  -1   6 1144.49   44.40
  -1  -1   6 1177.18   59.39
   2  -1   6 1111.29   56.09
   2  -1   6 1225.58   48.40
  -1   2   6 1116.59   58.09
  -1   2   6 1121.19   58.79
  -1  -1   6 1185.58   46.90
  -1   2   6 1207.38   49.70
  -1  -1   6 1055.29  101.89
   2  -1   6 1186.08   95.89
  -1  -1   6 1254.97   49.30
  -2   2  -6 3151.78  130.39
   0  -2  -6 2992.50  182.48
   2   0  -6 3252.47  207.18
   0  -2  -6 3333.97  179.58
  -2   2  -6 3802.52  231.18
  -2   2  -6 3170.48  118.69
  -2   2  -6 3100.19  115.49
  -2   0   6 3172.98  132.29
   2  -2   6 2725.23  177.98
  -2   0   6 3115.69  117.59
   0   2   6 2913.51  127.69
   2  -2   6 2815.82  128.29
   2  -2   6 3107.89  118.99
  -2   0   6 3204.78  119.89
   0   2   6 3084.69  118.89
   0   2   6 3379.26  139.09
   3  -1  -6  206.98   67.99
  -2   3  -6  246.58   24.90
  -1  -2  -6  217.28   53.89
   3  -1  -6  134.39   65.39
  -2   3  -6  338.37   74.09
  -3   1   6  278.47   16.90
   2  -3   6  271.37   16.20
   1   2   6  260.17   15.00
  -3   1   6  257.17   27.40
  -3   1   6  272.97   26.40
   2  -3   6  252.27   62.99
  -3   1   6  252.77   15.00
   2  -3   6  230.58   24.00
   1   2   6  271.27   21.90
  -2  -2  -6  801.52   60.29
   4  -2  -6 1018.10  132.59
  -2   4  -6  826.02   36.10
  -2   4  -6  935.61   54.29
   4  -2  -6  627.64  118.89
  -2   4  -6  829.52  117.09
  -2   4  -6  843.82   39.80
   4  -2  -6  787.32   42.50
  -4   2   6  883.31   53.89
   2  -4   6  869.11   38.80
  -4   2   6  884.91   40.00
   2   2   6  847.52   36.20
  -4   2   6  788.32   53.99
   2  -4   6  684.13  105.89
   2  -4   6  805.72   50.89
   2   2   6  770.72   38.00
   2   2   6  818.62   38.40
  -4   2   6  876.01   37.40
  -2   5  -6 1269.27   76.49
   5  -3  -6 1641.94  187.88
  -2   5  -6 1471.15   63.39
  -2   5  -6 1268.67  166.48
   5  -3  -6 1529.25   84.59
   5  -3  -6  963.20  171.38
  -5   3   6 1245.18   59.39
  -5   3   6 1361.66   79.89
   2  -5   6 1207.08   74.89
   3   2   6 1332.07   53.39
  -5   3   6 1395.66   60.19
  -5   3   6 1422.86   80.39
   2  -5   6 1310.27   57.99
   4  -3  -6  366.76   96.59
   4  -3  -6  389.56   26.30
  -1   4  -6  389.66   24.50
  -1   4  -6  333.87   85.49
  -1   4  -6  390.26   21.40
   4  -3  -6  411.46   98.09
  -4   3   6  423.36   24.50
   3   1   6  426.56   19.90
   3   1   6  410.86   21.40
   1  -4   6  404.06   22.00
   1  -4   6  406.76   43.60
  -4   3   6  410.56   38.20
  -4   3   6  441.66   39.20
   3   1   6  375.06   21.60
   1  -4   6  405.16   87.59
  -3   0  -6 1621.94  108.29
   0   3  -6 1653.33   64.79
   0   3  -6 1815.12  152.38
  -3   0  -6 1648.24   71.49
   0   3  -6 1535.05   67.19
  -3   0  -6 1642.24   65.69
   3  -3  -6 1524.05  147.99
   3  -3  -6 1535.65  153.48
   0  -3   6 1641.04   65.99
  -3   3   6 1635.64   81.89
   3   0   6 1587.54   64.09
   0  -3   6 1617.04   79.29
  -3   3   6 1666.83   68.79
   0  -3   6 1606.84   64.29
   0  -3   6 1627.74  145.69
   3   0   6 1608.14   69.99
  -3   3   6 1702.23   82.99
   3   0   6 1732.43  119.89
   2  -3  -6 2368.86   92.49
  -3   1  -6 2181.98  143.79
   2  -3  -6 2428.46  176.58
  -3   1  -6 2414.86  115.29
   1   2  -6 2168.38  171.38
  -3   1  -6 2405.56   88.49
   1   2  -6 2182.28  105.69
   2  -3  -6 2578.84  172.68
  -3   1  -6 2335.07   92.79
  -1  -2   6 2347.57  104.19
  -2   3   6 2410.96  106.49
  -1  -2   6 2321.57  161.88
  -2   3   6 2262.07  104.89
   3  -1   6 2282.07  144.19
   3  -1   6 2391.66   90.69
  -1  -2   6 2369.66   91.39
  -1  -2   6 2240.88   89.59
  -2   3   6 2414.26   93.59
  -3   2  -6  654.23   40.30
   1  -3  -6  651.13   29.80
   1  -3  -6  611.14   88.99
  -3   2  -6  729.53   34.50
  -3   2  -6  687.03   28.00
  -3   2  -6  677.53   30.80
  -3   2  -6  799.42   87.49
   2   1  -6  816.72  113.59
  -2  -1   6  729.33   32.20
  -1   3   6  745.03   43.60
   3  -2   6  696.33   40.60
  -2  -1   6  657.23   42.50
  -1   3   6  724.63   33.00
   3  -2   6  693.23   31.70
  -2  -1   6  621.04   94.89
  -2  -1   6  688.73   30.80
   3  -2   6  558.14   79.89
   3   0  -6 1650.93  144.99
  -3   3  -6 1546.35  136.59
  -3   3  -6 1612.34   68.39
   0  -3  -6 1514.65  121.29
   3   0  -6 1585.24  151.08
  -3   3  -6 1617.64   77.69
   0  -3  -6 1335.57  130.39
  -3   3  -6 1825.92   69.89
   3   0  -6 1516.15   66.49
  -3   3  -6 1589.44   61.39
   0   3   6 1590.24   74.19
  -3   0   6 1550.64   77.49
  -3   0   6 1623.64   65.19
  -3   0   6 1654.23   63.99
  -3   0   6 1572.64   78.39
   3  -3   6 1594.54   65.29
   3  -3   6 1649.33  136.99
   0   3   6 1429.76   72.29
   0   3   6 1556.54   64.59
   3  -3   6 1597.04   76.89
   4  -1  -6 1617.94   73.19
  -3   4  -6 1641.54   83.59
   4  -1  -6 1658.13  169.88
  -3   4  -6 1695.43   70.99
  -1  -3  -6 1582.74  108.69
  -1  -3  -6 1534.85  117.79
  -3   4  -6 1579.94   63.39
  -3   4  -6 1381.66  146.79
   4  -1  -6 1908.31  211.08
  -4   1   6 1589.54   82.99
   1   3   6 1645.94   64.99
   1   3   6 1593.34   70.99
   3  -4   6 1650.53   81.99
   3  -4   6 1351.26  146.49
  -4   1   6 1760.52   93.29
   1   3   6 1474.05   69.49
  -4   1   6 1622.44   66.79
   3  -4   6 1647.44   67.19
  -4   1   6 1556.24   65.19
   5  -2  -6  198.08  115.29
   5  -2  -6  217.98   24.70
  -3   5  -6  260.37   17.20
  -3   5  -6  225.38   22.50
  -3   5  -6  236.18   19.80
  -3   5  -6  284.87   97.49
   5  -2  -6  191.08  112.39
  -5   2   6  247.68   16.50
   3  -5   6  233.28  104.09
   3  -5   6  237.28   17.30
  -5   2   6  228.58   17.20
   3  -5   6  248.18   34.10
   2   3   6  252.57   15.00
   0   4  -6 1439.46   61.59
   0   4  -6 1507.55  157.68
  -4   0  -6 1270.17   74.99
   4  -4  -6 1351.46  173.68
   4  -4  -6 1467.25   66.49
  -4   0  -6 1407.76   75.49
   0   4  -6 1350.96   63.59
   0   4  -6 1437.36   78.89
  -4   0  -6 1549.94   61.69
   4  -4  -6 1711.53  181.68
  -4   4   6 1603.14   83.29
   4   0   6 1570.94   59.29
  -4   4   6 1611.84   65.89
   0  -4   6 1556.04   61.39
   4   0   6 1381.96   62.69
   0  -4   6 1471.25   76.89
   0  -4   6 1464.65  166.48
   4   0   6 1587.04  116.59
  -4   1  -6  206.88   20.50
   3  -4  -6  213.58   92.09
   1   3  -6  186.58   14.00
   3  -4  -6  306.47   82.89
   1   3  -6  258.57   85.79
  -4   1  -6  207.68   56.69
   1   3  -6  145.79   22.70
   1   3  -6  199.78   16.90
  -4   1  -6  178.58   14.30
  -3   4   6  180.38   15.00
  -1  -3   6  173.78   87.09
  -1  -3   6  218.48   25.20
   4  -1   6  209.58   20.00
   4  -1   6  161.88   55.49
   4  -1   6  193.48   12.60
  -1  -3   6  170.28   12.00
  -3   4   6  206.58   28.00
  -4   2  -6  880.61   94.49
  -4   2  -6  893.61   37.40
   2  -4  -6  914.71  116.29
   2   2  -6  916.51  131.59
   2   2  -6  883.81   41.90
   2   2  -6  890.01   54.49
   2  -4  -6  896.61   39.20
   2  -4  -6  792.92  118.19
  -4   2  -6  925.01   43.40
  -4   2  -6  916.31   54.09
   4  -2   6  905.51   49.80
  -2  -2   6  956.80   39.20
   4  -2   6  911.31   39.70
  -2  -2   6  864.71   52.29
  -2   4   6  911.91   41.90
  -2  -2   6  900.21   38.80
  -2   4   6  926.71   55.09
  -2   4   6  853.41   53.29
  -2  -2   6  807.02  113.19
   4  -2   6  698.13   97.39
  -4   3  -6 2396.56   96.19
   3   1  -6 2114.49  201.68
   1  -4  -6 2137.59  171.98
  -4   3  -6 2281.17   86.39
  -4   3  -6 2219.88  103.89
  -4   3  -6 2216.28   90.09
   3   1  -6 2584.54  189.38
   3   1  -6 2312.67   93.49
  -4   3  -6 1985.60  158.78
   4  -3   6 2295.17  104.29
   4  -3   6 2313.47   91.39
  -3  -1   6 2297.17  105.69
  -1   4   6 2443.26   92.39
   4  -3   6 2303.37  169.38
  -3  -1   6 2328.77   89.69
  -1   4   6 2379.46  104.79
  -1   4   6 2219.18  103.99
  -3  -1   6 2400.36   90.09
  -4   4  -6  169.08   11.80
  -4   4  -6  149.69   78.09
   4   0  -6  278.97   83.19
  -4   4  -6  185.98   28.20
  -4   4  -6  161.08   15.40
  -4   4  -6  204.78   17.60
   0  -4  -6   75.09   59.49
   4   0  -6  118.59   91.59
   0  -4  -6   39.30   69.89
  -4   0   6  190.38   26.60
   4  -4   6  174.48   25.80
   0   4   6  153.48   21.80
   0   4   6  199.58   14.20
   4  -4   6  251.27   83.99
   4  -4   6  187.88   14.40
  -4   0   6  183.08   12.70
   0   4   6  168.88   22.60
  -4   0   6  154.48   12.40
   3  -5  -6 1903.01  198.18
   2   3  -6 1359.76   71.59
  -5   2  -6 1667.33   75.29
  -5   2  -6 1754.92  153.08
   2   3  -6 1454.35   81.99
   2   3  -6 1424.76  160.08
  -5   2  -6 1596.84   68.49
   3  -5  -6 1811.22  193.58
   5  -2   6 1602.64   63.79
  -2  -3   6 1585.74   61.39
  -3   5   6 1631.44   67.39
  -3   5   6 1428.66   67.99
   5  -2   6 1543.15  147.09
  -2  -3   6 1469.55   77.99
   5  -2   6 1439.06   74.29
  -2  -3   6 1540.95   62.69
  -3   5   6 1535.45  104.89
  -2  -3   6 1405.36  162.18
  -5   3  -6   80.69   10.60
   3   2  -6  106.89   16.60
   2  -5  -6   81.49   96.89
  -5   3  -6  115.49   78.39
  -5   3  -6   99.99    6.60
   2  -5  -6  226.38  106.29
   3   2  -6   65.79   86.39
  -5   3  -6   94.69   13.10
  -3  -2   6   96.69    8.30
  -2   5   6   67.89   22.10
  -3  -2   6  103.09   10.00
  -3  -2   6  117.39   21.90
   5  -3   6   98.59   10.60
   5  -3   6   31.10   80.69
   0   0  -7 1399.76  125.79
   0   0  -7 1140.69   49.00
   0   0  -7 1149.89   59.99
   0   0   7 1302.57  112.39
   0   0   7 1155.38   46.20
   0   0   7 1147.79   49.30
   0   0   7 1117.59   59.29
   1  -1  -7  -97.59   42.90
  -1   0  -7    2.80    3.20
   1  -1  -7   17.80   40.40
  -1   0  -7   -9.20   39.70
   0   1  -7   -1.10    8.20
   0   1  -7    7.70    4.20
   0   1  -7   50.59   47.00
  -1   0  -7    9.20    6.10
  -1   1   7    7.40    8.00
  -1   1   7    7.30    2.70
   1   0   7   34.90   36.50
   0  -1   7   19.80   40.50
   0  -1   7    2.40    8.40
  -1   1   7    7.80    3.10
  -1   1   7   -1.40    7.80
   0  -1   7    5.90    3.20
   1   0   7   10.50    4.00
   0  -1   7    4.80    2.50
   1   0   7   -0.60    6.40
   1   0   7   14.10    2.80
  -1   1  -7    4.70    3.80
  -1   1  -7   -4.50    6.70
   0  -1  -7   44.00   44.40
  -1   1  -7  -28.40   37.80
   1   0  -7    4.10    7.10
   1   0  -7  -41.60   45.40
   1   0  -7   -0.40    3.50
   0  -1  -7   -9.80   35.00
   1  -1   7    2.90    1.70
   1  -1   7    1.60    7.00
   0   1   7    1.10    2.60
  -1   0   7    8.40   41.90
  -1   0   7    8.00    4.00
   0   1   7   -6.60    7.00
   1  -1   7   -0.60    1.90
   1  -1   7  -23.30   35.20
  -1   0   7    3.20    2.40
  -1   0   7    1.60    7.60
  -1  -1  -7  870.41   93.59
  -1   2  -7  958.30   52.79
   2  -1  -7  987.20  121.89
  -1  -1  -7  935.41   96.99
   2  -1  -7 1131.79  136.29
  -1   2  -7 1114.19  115.29
  -2   1   7  851.81   40.10
   1  -2   7  750.82  102.99
   1   1   7  848.32   47.30
   1  -2   7  870.81   39.40
   1  -2   7  829.02   35.90
  -2   1   7  917.21   53.59
  -2   1   7  857.71   40.50
  -2   1   7  823.72   49.90
   1  -2   7  899.61   50.99
   1   1   7  843.22   38.40
   1   1   7  867.41   34.90
   3  -2  -7   28.60   65.09
  -2  -1  -7   57.89   44.30
   3  -2  -7   75.69   80.59
  -1   3  -7   26.60   74.29
  -2  -1  -7  -44.70   40.50
  -2  -1  -7   30.30    4.80
  -1   3  -7   43.90    8.90
  -1   3  -7   45.60    6.60
  -1   3  -7   45.20   15.20
   3  -2  -7   30.00    7.70
   2   1   7   31.30   10.30
   2   1   7   25.50    9.40
   1  -3   7   35.20    7.00
   1  -3   7   69.69   58.49
  -3   2   7   33.00   13.70
  -3   2   7   34.60    6.00
   1  -3   7   43.00   14.70
  -3   2   7   20.90   13.70
   2   1   7   32.80    3.40
  -3   2   7   22.50    6.10
   2   1   7   25.70    5.30
  -2   0  -7  -18.90   39.60
   2  -2  -7   54.59   54.79
   0   2  -7   54.59    8.70
   0   2  -7   56.79   15.10
   2  -2  -7   72.89   66.49
   0   2  -7   86.79   56.79
   0   2  -7   32.70    5.20
  -2   0  -7   43.60   12.20
  -2   0  -7   49.30    6.40
   2   0   7   51.69    4.10
   0  -2   7   29.80    5.40
   0  -2   7   54.79   14.10
  -2   2   7   45.10    7.60
   2   0   7   49.50    7.50
  -2   2   7   61.49   15.90
   0  -2   7   34.40   58.99
   2   0   7   39.80   10.10
  -2   2   7   54.49   14.10
   0  -2   7   36.30    5.10
   2   0   7   69.29   45.30
  -2   1  -7 1793.72   73.39
   1   1  -7 1967.20   90.49
   1   1  -7 2179.38  170.08
   1  -2  -7 1546.35  146.29
  -2   1  -7 1861.51  141.69
  -2   1  -7 1777.52   84.89
   1  -2  -7 2036.50  148.49
   2  -1   7 1873.71   70.29
  -1   2   7 1853.51   75.99
  -1  -1   7 1862.01   75.49
   2  -1   7 2060.99  140.69
  -1  -1   7 1859.11   75.29
   2  -1   7 1873.21   85.59
   2  -1   7 1848.81   74.59
  -1   2   7 1909.11   88.79
  -1  -1   7 1976.70  218.08
  -1  -1   7 1852.61   88.29
  -2   2  -7   75.49    9.70
  -2   2  -7   56.59    6.20
   2   0  -7   69.69   10.00
   0  -2  -7   36.30   44.50
   0  -2  -7   66.59   58.19
  -2   2  -7   31.40   10.80
   2   0  -7   80.99   59.39
   2   0  -7  100.59   61.89
  -2   2  -7   92.69   52.49
  -2   0   7   58.99    8.70
   0   2   7   60.79    7.60
  -2   0   7   60.29    6.50
   2  -2   7   65.09    7.50
   2  -2   7   78.89   43.70
  -2   0   7   72.59   15.80
   0   2   7   40.50   10.90
   0   2   7   68.89   14.00
   2  -2   7   59.29   15.10
   3  -1  -7    5.60   60.09
  -2   3  -7    7.20   11.60
  -1  -2  -7   79.49   54.69
  -2   3  -7  -10.30   57.09
   3  -1  -7    2.50   70.09
  -2   3  -7   24.50    6.90
  -1  -2  -7   -3.80   43.50
  -2   3  -7   12.00    4.00
   2  -3   7   13.70   11.00
  -3   1   7   24.90   13.00
   1   2   7   20.60    4.80
   1   2   7   19.40   10.50
  -3   1   7   30.70    5.70
   1   2   7   19.80    9.50
  -3   1   7   16.80   14.10
  -3   1   7   21.70    6.10
   1   2   7   20.30    3.60
   2  -3   7  -49.99   53.19
   4  -2  -7 1019.40  161.18
  -2  -2  -7  941.61   89.69
  -2   4  -7  847.02   47.60
  -2   4  -7  987.10  148.09
   4  -2  -7  972.40   49.50
  -2   4  -7  984.30   41.70
   4  -2  -7 1277.67  163.68
  -4   2   7 1026.50   46.00
   2   2   7  979.50   42.10
   2   2   7  971.40   53.19
   2  -4   7 1044.30  145.09
   2  -4   7  964.80   44.10
   2  -4   7  811.82   56.79
  -4   2   7 1003.70   62.19
   2   2   7  939.81   46.80
  -4   2   7  989.10   63.09
  -4   2   7  999.70   42.80
   4  -3  -7    4.50    8.60
  -1   4  -7    0.70   15.10
   4  -3  -7  187.88   93.59
  -1   4  -7    3.70    5.70
   4  -3  -7  -67.79   99.29
  -1   4  -7   -5.80    8.80
  -1   4  -7 -119.29   85.09
  -3  -1  -7    4.90   33.60
  -3  -1  -7  -28.40   33.50
  -4   3   7    8.60    5.40
   1  -4   7  -11.70   93.89
   3   1   7   -0.40    8.40
   1  -4   7   -6.10   15.70
   3   1   7    3.50    8.20
  -4   3   7  -15.90   16.70
   3   1   7   -1.00    3.90
   1  -4   7    3.20    3.50
  -4   3   7   14.20   17.20
  -3   0  -7  738.43   41.20
   3  -3  -7  738.33   37.30
  -3   0  -7  620.34   82.89
  -3   0  -7  718.73   33.60
   0   3  -7  742.33   33.30
   3  -3  -7  635.24  112.99
   3  -3  -7  658.93  125.89
   0   3  -7  718.93   36.50
   0   3  -7  935.11  129.19
  -3   3   7  659.53   65.99
   0  -3   7  735.63   32.40
   3   0   7  734.73   33.00
   3   0   7  713.23   40.00
   0  -3   7  716.63   34.20
  -3   3   7  758.52   36.80
   3   0   7  649.24   91.19
   0  -3   7  667.33  106.79
   0  -3   7  620.24   57.49
   1   2  -7    9.50    6.60
   2  -3  -7   46.20   65.59
   2  -3  -7    0.50   60.79
  -3   1  -7   10.40    4.30
  -3   1  -7  -13.40   48.40
  -3   1  -7   13.50    4.30
   1   2  -7   24.50   65.39
   1   2  -7  -10.10   10.80
   2  -3  -7   16.50    5.60
   3  -1   7   14.00   12.10
  -1  -2   7    4.30    3.00
  -2   3   7    6.00    4.00
  -2   3   7   16.50   12.00
   3  -1   7  -15.50   41.60
   3  -1   7    7.70    3.70
  -1  -2   7    5.40    3.60
  -2   3   7  -10.10   10.10
  -1  -2   7   12.00   12.00
  -1  -2   7  -69.49   53.89
  -3   2  -7    1.50    9.30
   2   1  -7   -3.90   12.00
  -3   2  -7   -0.40    4.10
   1  -3  -7   -1.60    6.00
   2   1  -7    0.80   66.89
  -3   2  -7   -2.70    3.00
   2   1  -7   13.90    6.70
  -3   2  -7   17.40   52.59
   1  -3  -7  126.49   66.69
  -1   3   7    0.80    3.40
  -2  -1   7   20.80   64.99
   3  -2   7   -2.60    2.70
  -2  -1   7    8.20    3.50
  -1   3   7  -12.40    8.90
  -2  -1   7    2.90   11.40
   3  -2   7  -13.30    8.00
   3  -2   7   26.40   47.30
  -1   3   7   -0.90   11.30
   3   0  -7  884.91  125.09
  -3   3  -7  880.91   52.59
  -3   3  -7  869.81   42.40
   0  -3  -7  985.60  110.99
   3   0  -7  848.32  138.49
   0  -3  -7  931.01  115.99
   3   0  -7  763.02   40.50
  -3   3  -7  779.92  118.99
   0   3   7  746.53   46.80
   3  -3   7  839.32  107.49
  -3   0   7  852.81   39.10
  -3   0   7  839.82   37.30
   0   3   7  874.21   38.90
   0   3   7  744.43   47.40
   3  -3   7  843.42   51.59
  -3   0   7  828.02   53.79
  -3   0   7  913.91   53.69
  -3   4  -7   24.10    8.10
  -1  -3  -7   57.79   54.69
   4  -1  -7  157.78   96.69
   4  -1  -7   18.80   10.80
  -3   4  -7   11.90    5.90
   4  -1  -7  164.88   84.59
  -3   4  -7   14.30   15.80
  -3   4  -7   14.90    8.30
  -3   4  -7  -50.89   89.99
   1   3   7  -11.00   11.50
  -4   1   7   11.40   17.80
   1   3   7   42.90   11.70
  -4   1   7   17.10    4.90
  -4   1   7   19.40   15.40
   3  -4   7   14.40    5.00
   3  -4   7   18.90   17.50
   3  -4   7   51.49   83.19
  -4   1   7   15.40    6.00
   1   3   7   27.20    6.50
   1   3  -7    9.80    6.80
   3  -4  -7 -169.68   91.49
  -4   1  -7    8.80   57.59
  -4   1  -7    2.00    4.70
   1   3  -7   16.70   16.70
   3  -4  -7    7.70    7.40
   1   3  -7    5.40   10.20
   1   3  -7   59.39   84.29
  -4   1  -7    5.70   10.70
   3  -4  -7   -6.20   91.89
  -1  -3   7  103.19   90.99
   4  -1   7  -39.30   62.79
   4  -1   7    5.40    4.20
  -1  -3   7   -6.10   14.70
  -3   4   7   -3.00   16.80
  -1  -3   7   10.40    4.40
  -3   4   7    4.10    5.00
  -3   4   7   -8.50   16.00
  -1  -3   7    3.10    3.80
   4  -1   7   -3.80   10.60
   2   2  -7  663.53  124.89
   2  -4  -7  630.84   31.10
  -4   2  -7  642.94   29.10
   2  -4  -7  476.25  113.89
   2   2  -7  638.34   35.60
   2   2  -7  613.84   47.90
  -4   2  -7  428.86  106.49
  -4   2  -7  663.23   34.80
   2  -4  -7  625.54  116.39
   4  -2   7  652.83   31.50
  -2  -2   7  564.34  113.89
  -2   4   7  664.63   33.70
  -2   4   7  646.24   47.10
  -2  -2   7  656.83   30.60
   4  -2   7  570.44   93.79
  -2   4   7  677.83   48.80
  -2  -2   7  659.13   31.00
  -2  -2   7  651.73   47.40
   3   1  -7    6.60    9.90
   1  -4  -7  -38.60   73.99
   1  -4  -7   30.70   88.09
  -4   3  -7    6.20   13.20
  -4   3  -7    6.80    5.30
  -4   3  -7    0.90    3.80
   3   1  -7   -3.10   89.49
  -4   3  -7    0.00   77.09
  -4   3  -7   12.90    7.00
   3   1  -7  -55.69   72.09
   4  -3   7   14.50   15.10
  -1   4   7   -0.90   14.20
   4  -3   7    5.70    4.20
  -1   4   7    3.10   13.40
  -3  -1   7   12.20   15.40
   4  -3   7  -92.79   67.59
  -3  -1   7    8.20    4.30
  -3  -1   7    5.70    3.60
  -1   4   7    3.60    4.70
  -3  -1   7   -7.20   14.70
   0   0  -8  389.16   32.40
   0   0  -8  363.56   88.39
   0   0  -8  368.26   21.80
   0   0   8  397.16   18.90
   0   0   8  252.17   71.19
   0   0   8  362.46   31.50
   0   0   8  385.56   21.90
   1  -1  -8  282.67   86.09
  -1   0  -8  239.48   67.29
  -1   0  -8  193.28   23.50
   0   1  -8  214.08   25.70
   1  -1  -8  190.28   71.69
   0   1  -8  128.09   72.99
   1   0   8  186.18   65.19
   1   0   8  187.98   23.00
   0  -1   8  194.38   11.90
   0  -1   8  195.98   24.80
   1   0   8  188.58   14.00
   1   0   8  206.18   11.20
   0  -1   8  160.48   13.60
  -1   1   8  187.08   25.90
  -1   1   8  208.28   27.10
   0  -1   8  177.68   67.79
  -1   1   8  181.48   12.00
  -1   1   8  197.08   14.80
   1   0  -8 3662.03  158.98
   0  -1  -8 3475.25  233.68
  -1   1  -8 3567.14  235.78
  -1   1  -8 3590.74  142.49
  -1   1  -8 3822.32  158.78
   0  -1  -8 4111.19  232.48
   1   0  -8 3771.32  252.67
   1  -1   8 3821.82  228.88
   0   1   8 3766.82  139.49
   0   1   8 3723.53  157.28
   1  -1   8 3708.83  138.79
   0   1   8 3831.42  143.89
  -1   0   8 4027.10  161.18
  -1   0   8 3731.93  144.19
  -1   0   8 3772.62  140.59
  -1   0   8 3662.53  236.58
   1  -1   8 3759.82  143.49
   1  -1   8 3429.36  155.48
  -1   2  -8  978.30  134.69
  -1  -1  -8 1027.80  110.09
  -1  -1  -8  861.71  117.89
  -1   2  -8  957.20   57.49
  -1   2  -8  876.31   42.80
   2  -1  -8 1060.59  137.29
   2  -1  -8 1042.80  146.99
   1   1   8  871.21   52.39
   1   1   8  913.01   42.30
   1  -2   8 1092.69  126.89
   1  -2   8  940.91   43.30
   1  -2   8  916.51   39.20
   1  -2   8  912.51   56.69
  -2   1   8  909.11   40.70
   1   1   8  981.80   38.20
  -2   1   8  992.20   59.49
  -2   1   8  975.20   57.09
  -2   1   8 1008.50   44.90
  -2  -1  -8   97.19    8.80
  -2  -1  -8   64.99   66.49
   3  -2  -8   63.59   84.59
  -1   3  -8   34.60   82.89
   3  -2  -8  107.79   95.09
  -2  -1  -8  114.79   60.49
   3  -2  -8   83.19   18.60
  -1   3  -8  114.49   11.40
  -1   3  -8  103.19   23.60
  -1   3  -8  107.99   14.60
   2   1   8   90.39   16.50
   2   1   8  111.19   10.80
   1  -3   8   97.69   10.70
   1  -3   8   68.79   19.60
  -3   2   8  112.99   10.30
   2   1   8  108.59    6.80
  -3   2   8  100.69   22.80
   1  -3   8   25.90   74.09
  -3   2   8  124.49   12.70
   2   1   8  108.59   18.70
  -3   2   8   90.49   21.10
   2  -2  -8 2857.91  220.68
   0   2  -8 2561.34  109.99
   2  -2  -8 3403.76  221.48
  -2   0  -8 2622.04  191.18
  -2   0  -8 2761.42  108.59
   0   2  -8 2652.63  125.59
  -2   0  -8 2711.23  120.39
   0   2  -8 3155.58  227.48
   0  -2   8 2714.23  106.39
   2   0   8 2820.42  103.19
   2   0   8 2825.42  120.89
   2   0   8 2640.34  181.78
  -2   2   8 2959.40  128.69
   2   0   8 2737.43  108.59
   0  -2   8 2737.23  109.89
  -2   2   8 2853.21  107.09
   0  -2   8 2946.11  127.29
  -2   2   8 2842.72  111.29
   0  -2   8 2668.53  196.58
   1   1  -8  466.35   39.30
   1  -2  -8  454.85   93.49
   1   1  -8  618.74  116.99
  -2   1  -8  518.25   95.19
  -2   1  -8  441.76   35.10
   1   1  -8  471.95   27.50
   1  -2  -8  483.85  103.19
  -2   1  -8  477.45   24.40
   2  -1   8  458.15   24.90
   2  -1   8  485.85   20.90
  -1   2   8  487.15   38.90
  -1  -1   8  522.65   98.79
   2  -1   8  459.05   36.10
  -1  -1   8  490.05   39.20
  -1  -1   8  449.26   25.50
   2  -1   8  454.15   87.99
  -1   2   8  466.85   26.00
  -1   2   8  467.45   22.70
  -1   2   8  476.65   37.30
  -1  -1   8  449.16   23.00
   2   0  -8  287.67   21.80
   0  -2  -8  305.87   87.59
   2   0  -8  472.65  110.29
  -2   2  -8  278.77   78.49
   2   0  -8  232.08   79.19
  -2   2  -8  318.27   31.80
  -2   0   8  321.47   20.10
   2  -2   8  332.77   33.00
   2  -2   8  249.38   73.49
   2  -2   8  278.37   19.90
  -2   0   8  292.47   17.60
   0   2   8  303.47   19.40
   2  -2   8  323.17   15.90
   0   2   8  287.17   28.50
  -2   0   8  310.87   32.80
   0   2   8  332.97   30.70
   0   2   8  324.77   16.30
  -2   3  -8 2928.31  218.18
   3  -1  -8 2733.33  232.48
  -2   3  -8 2494.95  137.59
  -1  -2  -8 2508.35  174.68
   3  -1  -8 2893.41  221.68
  -1  -2  -8 2433.56  191.68
  -2   3  -8 2546.15   99.59
  -2   3  -8 2306.47  103.29
   1   2   8 2535.75  116.59
   2  -3   8 2644.94  104.09
   1   2   8 2656.43  103.09
   1   2   8 2727.13   98.09
  -3   1   8 2641.34  101.99
  -3   1   8 2675.73  133.09
   2  -3   8 2741.83  142.99
   2  -3   8 2791.72  202.38
   1   2   8 2482.25  113.29
  -3   1   8 2728.93  105.69
   0   3  -8  306.97   20.00
   0   3  -8  290.27   24.90
  -3   0  -8  309.57   19.20
  -3   0  -8  334.67   30.40
   0   3  -8  291.37  110.49
  -3   0  -8  240.38   80.59
   3  -3  -8  310.47  118.09
   3  -3  -8  380.66  111.79
   3  -3  -8  291.77   23.60
   0   3  -8  281.97   35.70
   0  -3   8  325.47   18.30
   3   0   8  374.46   20.30
  -3   3   8  320.97   40.20
  -3   3   8  354.96   22.70
  -3   3   8  317.07   38.30
   0  -3   8  310.77   99.99
   0  -3   8  333.17   20.50
   3   0   8  271.77   82.99
   0  -3   8  334.77   37.90
   3   0   8  307.77   28.30
   2  -3  -8  192.78  107.49
  -3   1  -8  277.17   97.59
   1   2  -8  253.27   32.30
   2  -3  -8  174.68   96.59
  -3   1  -8  244.78   17.70
   1   2  -8  214.58   95.99
   1   2  -8  262.47   22.30
   3  -1   8  283.67   17.60
  -2   3   8  218.98   30.50
  -1  -2   8  249.18   33.20
  -1  -2   8  237.28   17.00
  -1  -2   8  240.58   15.40
   3  -1   8  307.47   76.29
  -1  -2   8  304.27   96.79
  -2   3   8  201.48   28.60
  -2   3   8  273.57   18.80
  -3   2  -8 2374.36   94.49
   2   1  -8 2199.88   93.59
  -3   2  -8 2314.27   89.69
  -3   2  -8 2222.18  183.88
   1  -3  -8 2290.17   88.79
   2   1  -8 2220.38  109.49
  -3   2  -8 2179.58  105.19
   2   1  -8 2360.36  216.68
   1  -3  -8 2396.36  187.38
   1  -3  -8 1678.63  268.47
   3  -2   8 2284.87   91.29
  -1   3   8 2352.76  107.79
  -1   3   8 2203.78  105.69
  -2  -1   8 2234.88   91.39
   3  -2   8 2066.39  177.68
  -2  -1   8 2133.29  107.59
   3  -2   8 2258.87  105.19
  -1   3   8 2376.46   92.59
  -2  -1   8 2241.78   88.99
   3   0  -8  194.08  100.49
   0  -3  -8  282.27   84.69
   0  -3  -8  382.76  102.39
  -3   3  -8  344.87   36.70
  -3   3  -8  335.47   23.20
  -3   3  -8  254.97   15.80
  -3   3  -8  265.87   20.50
  -3   3  -8  224.08   94.39
  -3   0   8  306.77   20.00
  -3   0   8  272.47   17.70
   3  -3   8  313.17   19.60
   0   3   8  223.08   28.20
   0   3   8  288.27   19.30
   3  -3   8  264.77   33.40
  -3   0   8  274.57   33.90
  -3   0   8  299.57   38.50
   3  -3   8  241.98   91.09
   0   3   8  308.97   32.60
   0   0  -9   47.30   77.29
   0   0  -9    7.00    6.40
   0   0  -9    5.00   11.90
   0   0   9   12.10    3.90
   0   0   9   20.30    5.80
   0   0   9  -69.29   66.99
   0   0   9   26.20   15.40
   1  -1  -9  463.35  122.09
   0   1  -9  482.75   41.30
  -1   0  -9  434.46   37.10
   0   1  -9  521.95  119.59
   0   1  -9  429.06   27.30
  -1   0  -9  381.36   99.89
   1  -1  -9  625.14  115.19
   0  -1   9  447.06   25.60
  -1   1   9  353.86   35.70
  -1   1   9  475.25   41.30
   0  -1   9  431.76   40.10
   0  -1   9  429.96   22.00
   1   0   9  423.86   25.00
   0  -1   9  504.35  104.79
  -1   1   9  433.86   25.90
  -1   1   9  446.46   22.50
   1   0   9  454.75   39.60
   1   0   9  439.66   20.90
   1   0   9  437.96   94.09
   0  -1  -9   82.19   89.69
   1   0  -9  122.99   15.30
  -1   1  -9  109.89   20.80
   1   0  -9  168.48  103.89
   1   0  -9  172.38   28.50
  -1   1  -9   57.69   91.79
   0  -1  -9  179.18  109.29
  -1   0   9  139.79   13.60
   0   1   9  175.48   28.00
   0   1   9  156.98   10.70
   0   1   9  146.89   16.70
   0   1   9   95.89   19.10
   1  -1   9  241.58   83.09
   1  -1   9  146.89   13.40
   1  -1   9  133.69    9.90
   1  -1   9  142.19   24.80
  -1   0   9  153.48   24.50
  -1   0   9  155.78   11.40
  -1   2  -9   61.59   19.90
  -1  -1  -9    6.50   87.59
  -1  -1  -9  103.09   68.69
  -1   2  -9  -22.10   93.39
   2  -1  -9   54.69   89.19
   2  -1  -9    7.80  101.79
  -1   2  -9   31.10   10.00
   1  -2   9   46.40    6.50
   1  -2   9   37.70   18.70
   1   1   9   56.99   18.20
   1   1   9   47.00    6.30
   1  -2   9   46.00   82.79
   1   1   9   21.20   15.20
   1   1   9   48.50    8.10
  -2   1   9   31.80   17.00
   1  -2   9   43.90    8.00
  -2   1   9   51.09    7.30
  -2   1   9   49.30    9.10
  -2   0  -9   95.09   21.80
  -2   0  -9  104.39   18.70
   0   2  -9   85.99   15.60
  -2   0  -9   88.99   90.39
   2  -2  -9   88.59   90.89
   2  -2  -9   72.49  106.29
   0   2  -9  -21.70  103.59
   2   0   9  128.39   23.90
   2   0   9   95.99    7.50
  -2   2   9   92.19    9.70
   2   0   9   14.20   72.39
   2   0   9   95.89   10.90
  -2   2   9  103.39   22.80
  -2   2   9   63.89   22.40
   0  -2   9   90.99   11.00
   0  -2   9   96.19    9.40
   0  -2   9  106.79   24.10
   0  -2   9  133.39   87.09
  -2   2   9   90.29   12.00
   1  -2  -9  160.88   84.59
   1  -2  -9  162.58   98.59
  -2   1  -9   58.69   17.90
   1   1  -9   85.09   99.09
  -2   1  -9  112.19   12.80
   1   1  -9   63.09   14.50
  -2   1  -9   91.59   82.69
  -1  -1   9   61.39    9.40
   2  -1   9   96.99    7.60
  -1  -1   9  102.19   83.89
  -1   2   9   91.49   23.20
  -1  -1   9   99.29   23.80
   2  -1   9   79.89   10.30
  -1   2   9   88.79    8.90
  -1   2   9   58.79   16.90
   2  -1   9  186.28   84.39
   2  -1   9   59.59   18.90
  -1  -1   9   80.79    8.80
  -1   2   9   95.49   11.70
  -2   2  -9  361.16   24.50
   2   0  -9  270.87  104.99
   2   0  -9  281.67  125.69
   2   0  -9  377.96   28.60
   0  -2  -9  363.06   99.69
   0  -2  -9  293.07  124.79
  -2   2  -9  462.05   42.20
  -2   2  -9  541.35  136.49
   2  -2   9  421.06   42.00
  -2   0   9  415.56   25.00
   0   2   9  387.76   27.20
   0   2   9  379.26   19.80
   0   2   9  393.36   36.20
   0   2   9  317.67   36.80
   2  -2   9  293.57   98.79
   2  -2   9  396.36   23.70
  -2   0   9  317.47   38.50
  -2   0   9  454.45   54.79
  -2   0   9  415.06   22.10
   0   0 -10 1361.26  107.39
   0   0 -10 1057.19  179.78
   0   0  10 1256.37   98.59
   0   0  10 1154.28   54.59
   0   0  10 1142.79   49.40
   0   0   0    0.00    0.00




_computing_structure_solution     'SHELXT 2014/5 (Sheldrick, 2014)'
_computing_structure_solution     'SHELXT 2014/5 (Sheldrick, 2014)'
_computing_structure_solution     'SHELXT 2014/5 (Sheldrick, 2014)'
_computing_structure_solution     'SHELXT 2014/5 (Sheldrick, 2014)'
;
_shelx_hkl_checksum              11765
_olex2_submission_special_instructions 'No special instructions were received'
loop_
_space_group_symop_operation_xyz
'x, y, z'
'-y, x-y, z'
'-x+y, -x, z'
'-x, -y, -z'
'y, -x+y, -z'
'x-y, x, -z'
loop_
_atom_site_label
_atom_site_type_symbol
_atom_site_fract_x
_atom_site_fract_y
_atom_site_fract_z
_atom_site_U_iso_or_equiv
_atom_site_adp_type
_atom_site_occupancy
_atom_site_site_symmetry_order
_atom_site_calc_flag
_atom_site_refinement_flags_posn
_atom_site_refinement_flags_adp
_atom_site_refinement_flags_occupancy
_atom_site_disorder_assembly
_atom_site_disorder_group
Ba1 Ba 1.000000 0.000000 1.000000 0.01074(13) Uani 1 6 d S T P . .
Zn1 Zn 0.000000 0.000000 0.500000 0.00768(15) Uani 1 6 d S T P . .
Zn2 Zn 0.666667 0.333333 0.71259(6) 0.00863(13) Uani 1 3 d S T P . .
B1 B 0.333333 0.666667 0.6735(5) 0.0085(7) Uani 1 3 d S T P . .
O1 O 0.2957(3) 0.3687(3) 0.67063(17) 0.0108(3) Uani 1 1 d . . . . .
F1 F 0.666667 0.333333 0.9679(3) 0.0152(4) Uani 1 3 d S T P . .
loop_
_atom_site_aniso_label
_atom_site_aniso_U_11
_atom_site_aniso_U_22
_atom_site_aniso_U_33
_atom_site_aniso_U_23
_atom_site_aniso_U_13
_atom_site_aniso_U_12
Ba1 0.01051(13) 0.01051(13) 0.01120(19) 0.000 0.000 0.00525(7)
Zn1 0.00744(19) 0.00744(19) 0.0082(3) 0.000 0.000 0.00372(9)
Zn2 0.00733(15) 0.00733(15) 0.0113(2) 0.000 0.000 0.00366(8)
B1 0.0102(11) 0.0102(11) 0.0052(19) 0.000 0.000 0.0051(5)
O1 0.0086(6) 0.0083(6) 0.0151(8) -0.0016(5) -0.0020(5) 0.0040(5)
F1 0.0166(6) 0.0166(6) 0.0123(11) 0.000 0.000 0.0083(3)
loop_
_atom_type_symbol
_atom_type_description
_atom_type_scat_dispersion_real
_atom_type_scat_dispersion_imag
_atom_type_scat_source
B B 0.0013 0.0007 'International Tables Vol C Tables 4.2.6.8 and 6.1.1.4'
Ba Ba -0.3244 2.2819 'International Tables Vol C Tables 4.2.6.8 and 6.1.1.4'
F F 0.0171 0.0103 'International Tables Vol C Tables 4.2.6.8 and 6.1.1.4'
O O 0.0106 0.0060 'International Tables Vol C Tables 4.2.6.8 and 6.1.1.4'
Zn Zn 0.2839 1.4301 'International Tables Vol C Tables 4.2.6.8 and 6.1.1.4'
loop_
_geom_angle_atom_site_label_1
_geom_angle_atom_site_label_2
_geom_angle_atom_site_label_3
_geom_angle
_geom_angle_site_symmetry_1
_geom_angle_site_symmetry_3
_geom_angle_publ_flag
O1 Ba1 O1 180.0 5_657 2_655 ?
O1 Ba1 O1 123.62(4) 2_655 4_657 ?
O1 Ba1 O1 56.38(4) 2_655 1_655 ?
O1 Ba1 O1 56.38(4) 2_655 3_655 ?
O1 Ba1 O1 123.62(4) 2_655 6_657 ?
O1 Ba1 O1 123.62(4) 5_657 1_655 ?
O1 Ba1 O1 56.38(4) 3_655 1_655 ?
O1 Ba1 O1 56.38(4) 5_657 4_657 ?
O1 Ba1 O1 56.38(4) 6_657 4_657 ?
O1 Ba1 O1 180.0 6_657 3_655 ?
O1 Ba1 O1 123.62(4) 3_655 4_657 ?
O1 Ba1 O1 180.0 1_655 4_657 ?
O1 Ba1 O1 123.62(4) 5_657 3_655 ?
O1 Ba1 O1 56.38(4) 5_657 6_657 ?
O1 Ba1 O1 123.62(4) 6_657 1_655 ?
F1 Ba1 O1 61.01(5) 4_757 5_657 ?
F1 Ba1 O1 100.07(5) 1_655 6_657 ?
F1 Ba1 O1 79.93(5) 4_757 4_657 ?
F1 Ba1 O1 61.01(5) 4_657 4_657 ?
F1 Ba1 O1 118.99(5) 4_657 1_655 ?
F1 Ba1 O1 116.09(5) 1_545 1_655 ?
F1 Ba1 O1 100.07(5) 1_545 5_657 ?
F1 Ba1 O1 116.09(5) . 3_655 ?
F1 Ba1 O1 63.91(5) 4_767 1_655 ?
F1 Ba1 O1 79.93(5) 1_655 3_655 ?
F1 Ba1 O1 79.93(5) 4_767 5_657 ?
F1 Ba1 O1 100.07(5) 4_657 3_655 ?
F1 Ba1 O1 61.01(5) 1_655 1_655 ?
F1 Ba1 O1 100.07(5) . 4_657 ?
F1 Ba1 O1 100.07(5) 4_757 1_655 ?
F1 Ba1 O1 61.01(5) . 2_655 ?
F1 Ba1 O1 118.99(5) 1_655 4_657 ?
F1 Ba1 O1 116.09(5) 1_655 2_655 ?
F1 Ba1 O1 63.91(5) 4_757 3_655 ?
F1 Ba1 O1 116.09(5) 4_757 6_657 ?
F1 Ba1 O1 118.99(5) 4_757 2_655 ?
F1 Ba1 O1 63.91(5) . 6_657 ?
F1 Ba1 O1 63.91(5) 1_545 4_657 ?
F1 Ba1 O1 61.01(5) 4_767 6_657 ?
F1 Ba1 O1 63.91(5) 1_655 5_657 ?
F1 Ba1 O1 118.99(5) 1_545 6_657 ?
F1 Ba1 O1 79.93(5) . 1_655 ?
F1 Ba1 O1 79.93(5) 4_657 6_657 ?
F1 Ba1 O1 116.09(5) 4_767 4_657 ?
F1 Ba1 O1 61.01(5) 1_545 3_655 ?
F1 Ba1 O1 118.99(5) . 5_657 ?
F1 Ba1 O1 100.07(5) 4_767 2_655 ?
F1 Ba1 O1 116.09(5) 4_657 5_657 ?
F1 Ba1 O1 79.93(5) 1_545 2_655 ?
F1 Ba1 O1 118.99(5) 4_767 3_655 ?
F1 Ba1 O1 63.91(5) 4_657 2_655 ?
F1 Ba1 F1 119.246(15) 4_757 4_657 ?
F1 Ba1 F1 60.754(14) 4_757 1_655 ?
F1 Ba1 F1 180.0 4_757 . ?
F1 Ba1 F1 60.754(14) . 4_767 ?
F1 Ba1 F1 119.245(14) 4_767 4_657 ?
F1 Ba1 F1 60.755(14) 1_545 4_657 ?
F1 Ba1 F1 60.754(14) 4_757 1_545 ?
F1 Ba1 F1 180.0 4_657 1_655 ?
F1 Ba1 F1 119.246(15) . 1_655 ?
F1 Ba1 F1 119.245(14) 1_545 1_655 ?
F1 Ba1 F1 60.755(14) 4_767 1_655 ?
F1 Ba1 F1 119.246(15) . 1_545 ?
F1 Ba1 F1 119.246(15) 4_757 4_767 ?
F1 Ba1 F1 60.754(14) . 4_657 ?
F1 Ba1 F1 180.0 4_767 1_545 ?
Ba1 Zn1 Ba1 180.0 1_455 1_454 ?
O1 Zn1 Ba1 128.52(4) 4_556 1_455 ?
O1 Zn1 Ba1 128.52(4) 3 1_454 ?
O1 Zn1 Ba1 128.52(4) 5_556 1_455 ?
O1 Zn1 Ba1 128.52(4) 6_556 1_455 ?
O1 Zn1 Ba1 128.52(4) 2 1_454 ?
O1 Zn1 Ba1 51.48(4) . 1_455 ?
O1 Zn1 Ba1 51.48(4) 5_556 1_454 ?
O1 Zn1 Ba1 51.48(4) 3 1_455 ?
O1 Zn1 Ba1 128.52(4) . 1_454 ?
O1 Zn1 Ba1 51.48(4) 4_556 1_454 ?
O1 Zn1 Ba1 51.48(4) 6_556 1_454 ?
O1 Zn1 Ba1 51.48(4) 2 1_455 ?
O1 Zn1 O1 85.30(5) 4_556 5_556 ?
O1 Zn1 O1 85.30(6) . 3 ?
O1 Zn1 O1 94.70(6) 4_556 2 ?
O1 Zn1 O1 85.30(6) 6_556 5_556 ?
O1 Zn1 O1 85.30(6) . 2 ?
O1 Zn1 O1 85.30(6) 3 2 ?
O1 Zn1 O1 94.70(6) 6_556 2 ?
O1 Zn1 O1 85.30(6) 4_556 6_556 ?
O1 Zn1 O1 94.70(6) . 6_556 ?
O1 Zn1 O1 180.0 . 4_556 ?
O1 Zn1 O1 180.0 5_556 2 ?
O1 Zn1 O1 94.70(6) 4_556 3 ?
O1 Zn1 O1 94.70(6) . 5_556 ?
O1 Zn1 O1 180.0 6_556 3 ?
O1 Zn1 O1 94.70(6) 3 5_556 ?
Ba1 Zn2 Ba1 85.858(11) . 1_455 ?
Ba1 Zn2 Ba1 85.858(11) . 1_565 ?
Ba1 Zn2 Ba1 85.858(11) 1_565 1_455 ?
O1 Zn2 Ba1 57.62(4) 3_665 1_565 ?
O1 Zn2 Ba1 143.44(4) 3_665 1_455 ?
O1 Zn2 Ba1 92.44(4) 3_665 . ?
O1 Zn2 Ba1 57.62(4) . 1_455 ?
O1 Zn2 Ba1 143.44(4) 2_655 1_565 ?
O1 Zn2 Ba1 57.62(4) 2_655 . ?
O1 Zn2 Ba1 143.44(4) . . ?
O1 Zn2 Ba1 92.44(4) . 1_565 ?
O1 Zn2 Ba1 92.44(4) 2_655 1_455 ?
O1 Zn2 O1 117.26(2) 2_655 3_665 ?
O1 Zn2 O1 117.26(2) 2_655 . ?
O1 Zn2 O1 117.26(2) 3_665 . ?
O1 Zn2 F1 99.64(4) . . ?
O1 Zn2 F1 99.63(4) 3_665 . ?
O1 Zn2 F1 99.64(4) 2_655 . ?
F1 Zn2 Ba1 51.855(7) . . ?
F1 Zn2 Ba1 51.855(7) . 1_455 ?
F1 Zn2 Ba1 51.855(7) . 1_565 ?
O1 B1 O1 119.974(10) 2_665 . ?
O1 B1 O1 119.975(10) 3_565 2_665 ?
O1 B1 O1 119.975(10) 3_565 . ?
Zn1 O1 Ba1 95.47(5) . 1_455 ?
Zn2 O1 Ba1 89.79(5) . 1_455 ?
Zn2 O1 Zn1 107.47(6) . . ?
B1 O1 Ba1 112.85(17) . 1_455 ?
B1 O1 Zn1 125.89(15) . . ?
B1 O1 Zn2 117.24(9) . . ?
Ba1 F1 Ba1 119.245(14) . 1_455 ?
Ba1 F1 Ba1 119.245(14) 1_565 1_455 ?
Ba1 F1 Ba1 119.245(14) . 1_565 ?
Zn2 F1 Ba1 95.01(5) . 1_455 ?
Zn2 F1 Ba1 95.01(5) . 1_565 ?
Zn2 F1 Ba1 95.01(5) . . ?
loop_
_geom_bond_atom_site_label_1
_geom_bond_atom_site_label_2
_geom_bond_distance
_geom_bond_site_symmetry_2
_geom_bond_publ_flag
Ba1 O1 3.0316(14) 5_657 ?
Ba1 O1 3.0316(14) 2_655 ?
Ba1 O1 3.0316(14) 3_655 ?
Ba1 O1 3.0316(14) 1_655 ?
Ba1 O1 3.0316(14) 4_657 ?
Ba1 O1 3.0316(14) 6_657 ?
Ba1 F1 2.8341(4) 4_757 ?
Ba1 F1 2.8341(4) 4_767 ?
Ba1 F1 2.8341(4) 1_655 ?
Ba1 F1 2.8341(4) 1_545 ?
Ba1 F1 2.8341(4) 4_657 ?
Ba1 F1 2.8341(4) . ?
Zn1 O1 2.1135(13) 4_556 ?
Zn1 O1 2.1135(13) 2 ?
Zn1 O1 2.1135(13) 5_556 ?
Zn1 O1 2.1135(13) 6_556 ?
Zn1 O1 2.1135(13) 3 ?
Zn1 O1 2.1135(13) . ?
Zn2 O1 1.9338(14) 2_655 ?
Zn2 O1 1.9338(14) 3_665 ?
Zn2 O1 1.9338(14) . ?
Zn2 F1 1.970(2) . ?
B1 O1 1.3745(13) 3_565 ?
B1 O1 1.3745(13) 2_665 ?
B1 O1 1.3745(13) . ?
loop_
_geom_torsion_atom_site_label_1
_geom_torsion_atom_site_label_2
_geom_torsion_atom_site_label_3
_geom_torsion_atom_site_label_4
_geom_torsion
_geom_torsion_site_symmetry_1
_geom_torsion_site_symmetry_2
_geom_torsion_site_symmetry_3
_geom_torsion_site_symmetry_4
_geom_torsion_publ_flag
O1 B1 O1 Ba1 115.2(3) 2_665 . . 1_455 ?
O1 B1 O1 Ba1 -68.0(3) 3_565 . . 1_455 ?
O1 B1 O1 Zn1 47.6(4) 3_565 . . . ?
O1 B1 O1 Zn1 -129.2(2) 2_665 . . . ?
O1 B1 O1 Zn2 -170.3(2) 3_565 . . . ?
O1 B1 O1 Zn2 12.9(4) 2_665 . . . ?
