#------------------------------------------------------------------------------
#$Date: 2021-09-30 02:11:58 +0300 (Thu, 30 Sep 2021) $
#$Revision: 269383 $
#$URL: file:///home/coder/svn-repositories/cod/cif/7/70/84/7708468.cif $
#------------------------------------------------------------------------------
#
# This file is available in the Crystallography Open Database (COD),
# http://www.crystallography.net/
#
# All data on this site have been placed in the public domain by the
# contributors.
#
data_7708468
loop_
_publ_author_name
'Klap\"otke, Thomas M.'
'Kofen, Moritz'
'Stierstorfer, J\"org'
_publ_section_title
;
 &#x000D; N-Functionalisation of 5,5&#x2032;-bistetrazole providing
 2,2&#x2032;-di(azidomethyl)bistetrazole: a melt-castable metal-free green
 primary explosive
;
_journal_name_full               'Dalton Transactions'
_journal_paper_doi               10.1039/D1DT02731J
_journal_year                    2021
_chemical_formula_moiety         'C4 H6 N8 O2'
_chemical_formula_sum            'C4 H6 N8 O2'
_chemical_formula_weight         198.17
_chemical_name_common            2,2-dihydroxymethyl-5,5-bitetrazole
_chemical_name_systematic        2,2-dihydroxymethyl-5,5-bitetrazole
_space_group_IT_number           14
_space_group_name_Hall           '-P 2yn'
_space_group_name_H-M_alt        'P 1 21/n 1'
_symmetry_cell_setting           monoclinic
_symmetry_Int_Tables_number      14
_symmetry_space_group_name_Hall  '-P 2yn'
_symmetry_space_group_name_H-M   'P 1 21/n 1'
_atom_sites_solution_hydrogens   difmap
_atom_sites_solution_primary     difmap
_audit_creation_date             2020-06-19
_audit_creation_method           SHELXL-2018/3
_audit_update_record
;
2021-07-06 deposited with the CCDC.	2021-09-10 downloaded from the CCDC.
;
_cell_angle_alpha                90
_cell_angle_beta                 98.503(10)
_cell_angle_gamma                90
_cell_formula_units_Z            2
_cell_length_a                   4.5207(5)
_cell_length_b                   7.9263(9)
_cell_length_c                   11.5245(12)
_cell_measurement_reflns_used    1388
_cell_measurement_temperature    107(2)
_cell_measurement_theta_max      31.2460
_cell_measurement_theta_min      3.1090
_cell_volume                     408.41(8)
_computing_cell_refinement       'CrysAlisPro 1.171.40.81a (Rigaku OD, 2020)'
_computing_data_collection       'CrysAlisPro 1.171.40.81a (Rigaku OD, 2020)'
_computing_data_reduction        'CrysAlisPro 1.171.40.81a (Rigaku OD, 2020)'
_computing_molecular_graphics    'Diamond 2.1c, Crystal Impact GbR'
_computing_publication_material  'Encifer 1.5.1, CCDC 2014'
_computing_structure_refinement  'SHELXL-2018/3 (Sheldrick, 2018)'
_computing_structure_solution    SIR-92
_diffrn_ambient_temperature      107(2)
_diffrn_detector                 'CCD plate'
_diffrn_detector_area_resol_mean 15.9809
_diffrn_detector_type            Sapphire3
_diffrn_measured_fraction_theta_full 1.000
_diffrn_measured_fraction_theta_max 1.000
_diffrn_measurement_details
;
List of Runs (angles in degrees, time in seconds):

  # Type    Start    End  Width  t~exp~   \w     \q     \k     \f   Frames
#--------------------------------------------------------------------------
  1  \w   -108.00 -39.00   1.00   25.00    --  -28.86-178.00 120.00   69
  2  \w      6.00 100.00   1.00   25.00    --   29.64  57.00-150.00   94
  3  \w      6.00 100.00   1.00   25.00    --   29.64  57.00  60.00   94
  4  \w    -20.00  74.00   1.00   25.00    --   29.64 -99.00 -30.00   94
  5  \w     42.00 112.00   1.00   25.00    --   29.64-178.00-150.00   70
  6  \w    -35.00  97.00   1.00   25.00    --   29.64  19.00  30.00  132
;
_diffrn_measurement_device       'four-circle diffractometer'
_diffrn_measurement_device_type  'Xcalibur, Sapphire3'
_diffrn_measurement_method       '\w scans'
_diffrn_orient_matrix_UB_11      -0.0633183000
_diffrn_orient_matrix_UB_12      -0.0784146000
_diffrn_orient_matrix_UB_13      0.0130051000
_diffrn_orient_matrix_UB_21      0.0483817000
_diffrn_orient_matrix_UB_22      -0.0363680000
_diffrn_orient_matrix_UB_23      -0.0502275000
_diffrn_orient_matrix_UB_31      0.1371288000
_diffrn_orient_matrix_UB_32      -0.0233332000
_diffrn_orient_matrix_UB_33      0.0343271000
_diffrn_radiation_monochromator  graphite
_diffrn_radiation_probe          x-ray
_diffrn_radiation_type           MoK\a
_diffrn_radiation_wavelength     0.71073
_diffrn_reflns_av_R_equivalents  0.0237
_diffrn_reflns_av_sigmaI/netI    0.0435
_diffrn_reflns_av_unetI/netI     0.0187
_diffrn_reflns_Laue_measured_fraction_full 1.000
_diffrn_reflns_Laue_measured_fraction_max 1.000
_diffrn_reflns_limit_h_max       5
_diffrn_reflns_limit_h_min       -5
_diffrn_reflns_limit_k_max       9
_diffrn_reflns_limit_k_min       -9
_diffrn_reflns_limit_l_max       14
_diffrn_reflns_limit_l_min       -14
_diffrn_reflns_number            3697
_diffrn_reflns_point_group_measured_fraction_full 1.000
_diffrn_reflns_point_group_measured_fraction_max 1.000
_diffrn_reflns_theta_full        25.242
_diffrn_reflns_theta_max         26.370
_diffrn_reflns_theta_min         3.130
_diffrn_source                   'fine-focus sealed X-ray tube'
_exptl_absorpt_coefficient_mu    0.133
_exptl_absorpt_correction_T_max  1.00000
_exptl_absorpt_correction_T_min  0.80549
_exptl_absorpt_correction_type   multi-scan
_exptl_absorpt_process_details
;
CrysAlisPro 1.171.40.81a (Rigaku Oxford Diffraction, 2020)
Empirical absorption correction using spherical harmonics,
implemented in SCALE3 ABSPACK scaling algorithm.
;
_exptl_crystal_colour            colorless
_exptl_crystal_density_diffrn    1.611
_exptl_crystal_description       block
_exptl_crystal_F_000             204
_exptl_crystal_size_max          0.392
_exptl_crystal_size_mid          0.166
_exptl_crystal_size_min          0.141
_refine_diff_density_max         0.240
_refine_diff_density_min         -0.167
_refine_diff_density_rms         0.039
_refine_ls_extinction_method     none
_refine_ls_goodness_of_fit_ref   1.052
_refine_ls_hydrogen_treatment    refall
_refine_ls_matrix_type           full
_refine_ls_number_parameters     76
_refine_ls_number_reflns         834
_refine_ls_number_restraints     0
_refine_ls_restrained_S_all      1.052
_refine_ls_R_factor_all          0.0387
_refine_ls_R_factor_gt           0.0313
_refine_ls_shift/su_max          0.000
_refine_ls_shift/su_mean         0.000
_refine_ls_structure_factor_coef Fsqd
_refine_ls_weighting_details
'w=1/[\s^2^(Fo^2^)+(0.0399P)^2^+0.1263P] where P=(Fo^2^+2Fc^2^)/3'
_refine_ls_weighting_scheme      calc
_refine_ls_wR_factor_gt          0.0766
_refine_ls_wR_factor_ref         0.0811
_reflns_Friedel_coverage         0.000
_reflns_number_gt                727
_reflns_number_total             834
_reflns_threshold_expression     'I > 2\s(I)'
_cod_data_source_file            d1dt02731j2.cif
_cod_data_source_block           px233
_cod_original_sg_symbol_H-M      'P 21/n'
_cod_database_code               7708468
_shelx_space_group_comment
;
The symmetry employed for this shelxl refinement is uniquely defined
by the following loop, which should always be used as a source of
symmetry information in preference to the above space-group names.
They are only intended as comments.
;
_shelx_estimated_absorpt_t_min   0.950
_shelx_estimated_absorpt_t_max   0.981
_shelx_res_file
;
TITL v1_a.res in P2(1)/n
    shelx.res
    created by SHELXL-2018/3 at 10:32:40 on 19-Jun-2020
CELL  0.71073   4.5207   7.9263  11.5245   90.000   98.503   90.000
ZERR     2.00   0.0005   0.0009   0.0012    0.000    0.010    0.000
LATT   1
SYMM  1/2 - X, 1/2 + Y, 1/2 - Z
SFAC  C    H    N    O
UNIT  8 12 16 4
MERG   2
MORE -1
SHEL 1000 0.8
EQIV $2 -x, -y+1, -z+1
HTAB C2 N3_$2
EQIV $3 x+1/2, -y+1/2, z+1/2
HTAB O1 N4_$3
FMAP   2
PLAN    5
SIZE     0.141   0.166   0.392
ACTA
HTAB    2.00000
BOND   $H
CONF
LIST   4
L.S.   4
TEMP  -166.15
WGHT    0.039900    0.126300
FVAR       1.47658
O1    4    0.444566    0.504000    0.709589    11.00000    0.03316    0.03008 =
         0.02803   -0.00254   -0.00097   -0.00090
N2    3    0.245393    0.274936    0.593730    11.00000    0.02512    0.02352 =
         0.01968    0.00200    0.00013    0.00281
N1    3    0.453889    0.155582    0.613255    11.00000    0.02569    0.02543 =
         0.02035    0.00149    0.00114    0.00363
N4    3    0.190814    0.139675    0.433906    11.00000    0.02835    0.02506 =
         0.02314    0.00067   -0.00216    0.00263
N3    3    0.085526    0.269154    0.488179    11.00000    0.02934    0.02588 =
         0.02370    0.00075   -0.00294    0.00305
C1    1    0.413385    0.073863    0.512058    11.00000    0.02220    0.02272 =
         0.01916    0.00290    0.00084   -0.00196
C2    1    0.194774    0.401963    0.683520    11.00000    0.03031    0.02488 =
         0.02411   -0.00145    0.00300    0.00310
H2B   2    0.022809    0.467475    0.646137    11.00000    0.02692
H2A   2    0.149073    0.333720    0.748480    11.00000    0.02914
H1    2    0.554390    0.455345    0.778372    11.00000    0.06464
HKLF    4




REM  v1_a.res in P2(1)/n
REM wR2 = 0.0811, GooF = S = 1.052, Restrained GooF = 1.052 for all data
REM R1 = 0.0313 for 727 Fo > 4sig(Fo) and 0.0387 for all 834 data
REM 76 parameters refined using 0 restraints

END

WGHT      0.0401      0.1256

REM Instructions for potential hydrogen bonds
HTAB C2 N3_$2
HTAB O1 N4_$3

REM Highest difference peak  0.240,  deepest hole -0.167,  1-sigma level  0.039
Q1    1   0.5000  0.0000  0.5000  10.50000  0.05    0.24
Q2    1   0.2093  0.3250  0.6405  11.00000  0.05    0.18
Q3    1   0.3361  0.1024  0.4673  11.00000  0.05    0.18
Q4    1   0.5045  0.1378  0.5450  11.00000  0.05    0.17
Q5    1   0.1224  0.2462  0.5569  11.00000  0.05    0.15
;
_shelx_res_checksum              44791
_shelx_hkl_file
;
   0   0   2 1966.34   11.89
   0   0   2 1980.22   14.82
   0   0  -2 1995.28   10.08
   0   0  -2 2003.63   13.38
   0   0   3    2.79    2.05
   0   0  -3   -1.32    0.90
   0   0   3   -0.58    1.11
   0   0  -3    0.19    1.48
   0   0   4  259.20    7.90
   0   0  -4  260.32    7.16
   0   0   4  263.06    6.28
   0   0  -5    3.42    1.86
   0   0   5    1.01    2.09
   0   0   5   -0.65    1.52
   0   0  -6    1.34    1.81
   0   0   6    1.32    1.47
   0   0   6    2.64    2.17
   0   0  -7   -1.23    2.03
   0   0   7   -0.09    2.34
   0   0   7   -2.81    1.95
   0   0  -8    8.23    2.32
   0   0   8    7.66    2.58
   0   0   8    6.73    2.21
   0   0   9    3.23    2.34
   0   0   9    7.88    3.65
   0   0  -9    6.39    3.53
   0   0  10 1188.73   21.63
   0   0  10 1134.58   26.74
   0   0 -10 1150.93   24.59
   0   0  11    2.52    2.37
   0   0 -11    3.56    2.67
   0   0  11   -1.12    3.46
   0   0  12   26.11    4.37
   0   0 -12   26.50    4.99
   0   0  12   18.28    4.31
   0   0  13   -3.61    3.77
   0   0 -13   -0.83    2.70
   0   0  14    7.46    3.79
   0   0 -14    8.98    3.57
   0   0  15   -2.58    3.93
   0   0 -15    4.45    3.63
   0   0  16   30.55    6.84
   0   0 -16   32.34    6.33
   0   1   0    1.10    0.61
   0  -1   0    0.74    0.58
   0   1   0   -0.89    0.75
   0   1   1 1195.72    9.74
   0  -1  -1 1210.71   10.42
   0  -1   1 1206.04    7.15
   0   1   2 2515.04   17.15
   0  -1   2 2510.81   18.84
   0   1  -2 2530.47   17.18
   0  -1  -2 2502.23   17.08
   0  -1  -3 4040.55   24.02
   0   1  -3 3987.14   25.22
   0   1   3 4045.84   25.94
   0   1   3 4014.41   23.34
   0  -1   3 4056.97   28.16
   0   1   4  130.56    4.93
   0  -1  -4  126.89    4.79
   0   1  -4  135.16    5.51
   0  -1   4  118.92    5.83
   0  -1   5 1471.02   16.93
   0   1  -5 1484.36   19.13
   0   1   5 1491.42   17.49
   0  -1   5 1480.39   21.25
   0  -1  -5 1460.42   19.18
   0  -1  -5 1481.38   17.02
   0  -1   6  952.05   18.71
   0   1  -6  979.14   17.07
   0  -1   6  962.47   14.93
   0   1   6  972.71   15.40
   0  -1  -6  970.76   17.05
   0   1   6  990.43   18.28
   0  -1  -6  967.18   14.69
   0   1   7  399.10   10.73
   0  -1   7  392.61   10.36
   0  -1  -7  395.80   11.98
   0   1  -7  397.40   11.91
   0  -1   7  394.91   13.22
   0   1   7  396.54   12.71
   0  -1   8  386.29   14.17
   0   1   8  430.00   11.87
   0  -1  -8  413.02   13.00
   0   1  -8  409.42   13.07
   0   1   8  407.55   13.93
   0  -1   8  414.11   11.37
   0   1   9   -1.24    2.22
   0  -1  -9    3.69    2.89
   0  -1   9    0.76    3.08
   0   1   9    4.22    3.21
   0   1  -9   -1.33    2.67
   0   1  10    0.28    2.81
   0   1 -10    4.00    2.68
   0  -1  10   -1.06    3.35
   0  -1 -10    1.20    2.63
   0   1  10   -2.44    2.43
   0  -1 -11    2.21    2.71
   0   1 -11    3.32    3.30
   0   1  11    2.64    2.85
   0   1  11    3.32    2.75
   0  -1  11   -4.10    3.77
   0   1 -12  206.36   11.96
   0   1  12  199.21   12.66
   0  -1  12  190.00   12.48
   0  -1 -12  220.96   12.53
   0   1  12  216.87   10.63
   0  -1 -13   25.38    5.33
   0  -1  13   30.14    5.61
   0   1 -13   31.28    5.26
   0   1  13   26.73    5.33
   0  -1 -14    3.65    3.43
   0   1  14   -1.78    3.47
   0  -1  14   -2.36    3.44
   0   1 -14   -4.54    3.47
   0  -1  15   -1.86    3.64
   0   1 -15    9.88    4.71
   0  -1 -15    0.06    3.43
   0   1  15    9.10    4.57
   0  -1  16   55.27    8.63
   0  -1 -16   59.02    8.01
   0   1 -16   50.89    7.93
   0   1  16   54.79    8.00
   0   2   0  183.54    5.13
   0   2   0  172.73    5.24
   0  -2   0  174.81    4.98
   0  -2   0  174.69    3.99
   0  -2  -1  565.40    5.07
   0  -2  -1  540.67    9.43
   0   2   1  552.39    9.02
   0  -2   1  554.31    8.36
   0   2  -1  533.33    9.21
   0   2   1  538.09    9.25
   0  -2   1  543.38    7.84
   0  -2   2 4941.37   20.68
   0   2  -2 4959.48   29.58
   0  -2  -2 4886.21   30.20
   0  -2   2 4958.94   29.35
   0   2   2 4948.15   28.48
   0   2   3    2.93    1.77
   0  -2   3    4.13    2.14
   0  -2  -3    3.93    1.78
   0  -2   3    6.19    0.85
   0   2  -3    7.68    2.26
   0   2   4  664.33   12.76
   0  -2   4  665.42   13.70
   0   2  -4  665.95   12.76
   0  -2  -4  654.57   12.64
   0  -2   5  185.69    8.15
   0   2  -5  189.23    7.48
   0   2   5  182.53    6.85
   0  -2  -5  191.73    7.24
   0   2   5  202.21    7.96
   0  -2   6  294.16   11.03
   0   2  -6  295.67   10.01
   0   2   6  296.80    9.31
   0  -2  -6  289.47    9.31
   0   2   6  284.85   10.18
   0   2  -7  183.00    8.64
   0  -2  -7  190.75    8.89
   0   2   7  183.29    7.90
   0  -2   7  191.85    9.61
   0  -2  -7  186.55    7.95
   0   2   7  193.34    8.93
   0  -2   8  203.19   10.66
   0   2   8  222.63    9.04
   0   2  -8  210.80    9.86
   0   2   8  212.68   10.11
   0  -2  -8  215.39    9.95
   0  -2  -8  202.94    8.66
   0  -2  -9  376.95   13.77
   0   2  -9  341.29   13.16
   0   2   9  378.17   12.28
   0   2   9  367.87   13.93
   0  -2   9  345.91   14.45
   0   2  10    8.54    3.39
   0   2  10   12.95    3.35
   0  -2 -10   10.29    3.51
   0   2 -10    4.28    3.16
   0  -2  10    1.70    3.35
   0   2 -11  376.20   15.43
   0   2  11  384.80   13.86
   0   2  11  363.87   15.52
   0  -2  11  356.85   16.67
   0  -2 -11  358.90   15.18
   0   2 -12  101.61    8.68
   0  -2  12  122.66   10.41
   0   2  12  114.35    8.13
   0  -2 -12  105.28    8.81
   0   2  12   98.32    8.71
   0  -2  13   27.65    5.90
   0   2 -13   14.89    4.42
   0  -2 -13   27.84    5.61
   0   2  13   19.16    4.77
   0  -2  14   34.65    6.62
   0   2 -14   40.34    6.57
   0  -2 -14   39.02    6.30
   0   2  14   26.91    5.65
   0   2  15   14.72    4.41
   0  -2  15   11.79    5.01
   0   2 -15   15.33    5.19
   0  -2 -15   13.51    5.11
   0  -2  16    2.13    3.87
   0   2 -16    2.58    2.93
   0  -2 -16    0.98    3.02
   0   2  16    3.83    2.72
   0   3   0    0.83    1.86
   0   3   0   -0.80    1.99
   0  -3   0   -2.15    1.79
   0  -3   0   -0.89    1.12
   0  -3  -1  598.00    6.36
   0   3   1  587.94   11.74
   0   3  -1  592.55   11.68
   0   3  -1  590.00   11.65
   0  -3   1  606.43   10.41
   0   3   1  579.08   11.29
   0  -3  -1  598.04   11.86
   0  -3   1  589.78    9.96
   0  -3  -2   29.09    1.51
   0  -3   2   25.05    2.23
   0  -3   2   25.69    2.64
   0  -3  -2   22.24    2.80
   0   3  -2   20.11    2.79
   0   3   2   22.74    2.94
   0   3  -3  936.74   15.97
   0  -3  -3  948.74   16.41
   0   3   3  921.94   15.35
   0  -3   3  945.74   11.03
   0  -3   3  916.07   15.51
   0   3   4  588.91   12.97
   0  -3   4  557.06   13.47
   0   3  -4  571.71   13.26
   0  -3   4  574.55    7.64
   0  -3  -4  579.73   13.43
   0  -3  -5   57.19    4.76
   0  -3   5   51.25    1.86
   0   3  -5   55.49    4.79
   0   3   5   67.51    5.07
   0  -3   5   49.71    4.64
   0   3  -6  171.41    8.26
   0  -3   6  180.42    9.15
   0  -3  -6  178.26    8.24
   0   3   6  180.69    8.40
   0   3   6  168.51    7.84
   0  -3   7  486.28   15.62
   0   3  -7  486.22   14.44
   0   3   7  448.38   14.05
   0   3   7  469.11   13.25
   0  -3  -7  493.35   14.17
   0   3   8  541.88   15.57
   0  -3   8  517.77   17.24
   0  -3  -8  524.58   15.15
   0   3   8  526.35   14.64
   0   3  -8  528.79   15.97
   0   3   9   18.63    3.97
   0   3  -9   11.98    3.65
   0  -3  -9   15.27    3.16
   0   3   9   21.07    3.90
   0  -3  -9   16.78    3.97
   0  -3   9   11.51    4.10
   0   3  10  112.20    7.84
   0  -3  10  113.18    9.26
   0   3 -10  120.44    8.80
   0  -3 -10  113.49    8.51
   0   3  10  121.25    8.44
   0   3  11  118.70    8.30
   0  -3 -11  111.17    8.94
   0  -3  11  119.10   10.17
   0   3 -11  107.62    8.64
   0   3  11  135.01    9.42
   0   3  12  176.90   11.13
   0   3 -12  172.50   11.53
   0  -3 -12  189.71   11.98
   0  -3  12  161.70   12.15
   0   3  12  198.36   10.94
   0   3  13   22.77    4.61
   0   3 -13   18.72    4.98
   0  -3  13   18.13    5.17
   0  -3 -13   21.87    5.29
   0   3 -14    9.66    4.62
   0  -3 -14   10.40    4.57
   0   3  14   12.06    4.00
   0  -3  14    9.59    4.73
   0   3 -15   27.59    5.73
   0  -3  15   25.31    5.74
   0  -3 -15   21.87    5.56
   0   3  15   24.52    5.55
   0   3 -16   19.93    5.72
   0  -3 -16   14.69    5.12
   0   4   0   77.06    5.12
   0  -4   0   84.51    5.15
   0  -4   0   84.31    3.96
   0   4   0   87.67    5.55
   0   4   1   37.94    4.09
   0   4  -1   38.48    3.88
   0  -4  -1   36.39    3.86
   0  -4   1   36.38    3.37
   0   4   1   42.04    3.92
   0   4  -1   35.81    4.03
   0  -4   1   38.46    3.08
   0   4   2   55.29    4.52
   0   4  -2   58.93    4.73
   0  -4  -2   56.14    2.09
   0   4  -2   59.59    4.76
   0  -4   2   54.48    3.93
   0  -4   2   53.83    3.68
   0  -4  -2   53.81    4.57
   0   4  -3   49.33    4.54
   0  -4   3   47.20    3.28
   0  -4  -3   46.22    2.12
   0  -4   3   50.39    4.27
   0   4   3   48.42    4.33
   0  -4  -3   42.02    4.27
   0  -4   4  517.64   13.80
   0  -4  -4  486.64   13.87
   0   4   4  501.98   13.26
   0  -4  -4  489.52    8.05
   0  -4   4  509.63    9.40
   0   4  -4  490.46   13.57
   0   4  -5  266.25   10.64
   0  -4  -5  260.72   10.49
   0   4   5  274.61   10.50
   0  -4   5  255.49    5.86
   0  -4   5  274.89   10.85
   0  -4   6   17.70    1.28
   0   4  -6   21.14    3.88
   0  -4  -6   24.29    4.05
   0   4   6   23.56    3.93
   0  -4   6   17.65    3.56
   0  -4  -7    0.75    2.31
   0   4  -7   -0.27    2.61
   0   4   7    0.12    2.72
   0  -4   7   -1.59    2.79
   0   4   7    7.29    3.34
   0  -4   8   83.62    7.62
   0   4   8   73.30    6.44
   0   4   8   74.09    6.67
   0  -4  -8   80.09    6.79
   0   4  -8   82.94    7.21
   0   4   9    7.06    2.92
   0   4  -9   -0.22    2.72
   0  -4  -9    3.19    2.70
   0  -4   9    2.27    2.76
   0   4   9    5.20    3.42
   0  -4 -10  169.49   10.58
   0   4  10  155.33    9.22
   0   4 -10  160.29   10.60
   0  -4  10  152.44   10.99
   0   4  10  173.03   10.02
   0   4  11   16.14    4.24
   0  -4  11    2.70    3.12
   0   4 -11   10.42    3.90
   0   4  11   13.33    3.37
   0  -4 -11   12.97    4.49
   0   4  12   -1.41    2.17
   0   4  12    1.97    3.11
   0  -4 -12   -1.15    3.08
   0   4 -12    2.93    3.06
   0  -4  12   -2.39    3.25
   0   4 -13    4.27    3.26
   0  -4  13    7.43    3.78
   0  -4 -13    0.59    3.43
   0  -4 -14   49.55    7.16
   0   4 -14   38.99    6.79
   0  -4  14   37.95    7.08
   0   4 -15   76.24    9.29
   0  -4 -15   79.60    9.55
   0  -4  15   74.63   10.14
   0   5   0   -2.81    2.80
   0  -5   0   -0.18    1.01
   0  -5   0    0.03    1.96
   0   5   0    1.04    2.59
   0   5   1  810.58   17.33
   0  -5   1  754.63   13.86
   0  -5   1  784.81   16.06
   0   5  -1  798.21   17.82
   0   5  -1  788.61   17.31
   0   5   1  772.02   17.74
   0  -5  -1  793.18   17.51
   0   5  -2   25.35    3.92
   0  -5   2   31.70    3.35
   0  -5   2   23.41    2.89
   0   5   2   21.65    3.51
   0   5  -2   24.63    3.95
   0  -5  -2   23.41    3.57
   0   5   3  188.20    8.84
   0  -5   3  190.71    8.31
   0  -5  -3  188.42    9.31
   0  -5   3  182.98    7.19
   0   5  -3  183.81    9.24
   0  -5  -3  185.53    3.64
   0   5  -3  198.72    9.34
   0  -5   4  209.43    9.34
   0  -5  -4  216.97    4.62
   0  -5  -4  212.69   10.29
   0   5  -4  212.14    9.96
   0   5   4  226.06    9.99
   0  -5   4  211.19    7.24
   0  -5   5   59.47    5.62
   0   5   5   77.20    6.24
   0  -5  -5   66.16    6.19
   0   5  -5   68.55    6.31
   0  -5   5   69.24    3.88
   0  -5  -6   85.69    7.07
   0   5  -6   93.39    7.35
   0   5   6   82.10    6.62
   0  -5   6   89.74    7.29
   0   5   7   39.12    5.46
   0   5   7   33.01    5.19
   0  -5  -7   35.72    4.93
   0   5  -7   38.02    5.30
   0  -5   7   35.08    5.19
   0  -5   8    6.08    3.50
   0   5  -8    4.42    3.19
   0  -5  -8    3.78    2.92
   0   5   8    4.53    2.90
   0   5   8    4.99    3.50
   0   5  -9  254.80   13.49
   0  -5   9  231.03   13.20
   0   5   9  226.58   11.71
   0  -5  -9  230.33   12.44
   0   5   9  238.28   12.50
   0  -5 -10  203.11   12.06
   0   5  10  176.68   10.77
   0   5 -10  185.55   12.00
   0  -5  10  181.62   12.23
   0   5  11   -1.06    3.08
   0  -5 -11    5.51    4.13
   0   5 -11    0.27    3.08
   0  -5  11    7.01    4.14
   0   5 -12   39.19    6.44
   0  -5 -12   42.62    6.67
   0  -5  12   32.90    6.18
   0   5  12   40.22    6.06
   0  -5 -13   77.55    8.95
   0  -5  13   54.49    7.95
   0   5 -13   66.70    8.48
   0   5 -14    9.53    4.72
   0  -5  14    5.46    4.00
   0   5 -15   15.04    4.98
   0   6   0    2.40    2.86
   0  -6   0   -0.58    2.40
   0   6   0    2.39    3.17
   0  -6   0   -0.12    1.19
   0  -6   1   -0.74    2.36
   0   6   1   -3.03    2.97
   0  -6   1    0.32    1.39
   0   6  -1    5.35    3.08
   0   6  -1    4.75    3.19
   0  -6  -1    2.30    2.62
   0   6   1    3.03    3.04
   0  -6   2  425.34   12.08
   0  -6  -2  413.77   14.47
   0   6  -2  435.58   14.72
   0   6   2  427.61   14.23
   0  -6   2  417.35   12.63
   0   6  -2  418.98   14.78
   0  -6   3   19.29    2.95
   0   6   3   14.14    3.48
   0   6  -3   16.20    3.84
   0  -6  -3   18.89    4.09
   0  -6   3   13.88    2.72
   0   6  -3   20.78    4.05
   0   6  -4  144.49    9.38
   0   6   4  136.67    8.48
   0  -6   4  144.33    8.26
   0   6  -4  140.10    9.10
   0  -6  -4  130.09    9.03
   0  -6   4  151.42    7.06
   0   6   5   59.00    6.33
   0  -6   5   60.23    4.31
   0   6  -5   60.61    6.44
   0  -6   5   70.83    6.33
   0  -6  -5   64.92    6.68
   0  -6   6  355.69   14.54
   0   6  -6  359.44   14.93
   0   6   6  351.65   14.14
   0  -6  -6  374.43   15.44
   0  -6   7  264.67   13.25
   0   6  -7  265.74   13.48
   0   6   7  247.18   12.46
   0  -6  -7  244.92   12.91
   0  -6   8   16.20    3.84
   0   6  -8   17.25    4.55
   0   6   8   25.94    4.94
   0  -6  -8   21.47    4.59
   0   6   8   18.73    4.35
   0  -6  -9    4.95    3.70
   0   6   9   -2.55    3.91
   0   6   9    3.86    3.59
   0   6  -9    3.04    3.35
   0  -6   9    0.28    3.52
   0  -6  10   34.28    6.23
   0   6  10   28.08    5.47
   0   6 -10   43.10    6.50
   0  -6 -10   33.17    5.62
   0   6  10   30.24    5.69
   0  -6  11    2.72    3.39
   0   6  11   -3.70    4.41
   0   6 -11    4.90    2.97
   0   6 -12  217.51   14.49
   0   6  12  210.36   13.15
   0  -6 -12  237.50   14.71
   0  -6  12  218.19   15.12
   0  -6  13    5.43    3.01
   0   6 -13    3.61    3.50
   0  -6 -13    9.38    4.30
   0   6 -14    0.13    3.50
   0   7   0   -0.92    3.24
   0   7   0   -1.90    3.12
   0  -7   0   -3.33    2.35
   0   7   1  322.49   13.56
   0  -7   1  316.77   10.35
   0   7   1  305.88   13.84
   0  -7   1  315.44   12.63
   0   7  -1  308.42   13.39
   0  -7  -1  300.77   13.08
   0   7  -1  299.72   13.49
   0   7  -2    7.34    3.92
   0  -7  -2    8.84    3.53
   0  -7   2    7.52    2.86
   0   7   2   11.28    3.65
   0  -7   2    8.55    2.10
   0   7  -2    9.03    3.61
   0   7  -3   -0.57    3.51
   0  -7   3    2.22    1.96
   0  -7  -3    0.86    2.79
   0   7  -3    3.79    3.15
   0   7   3   -1.35    3.08
   0  -7   3    0.23    1.83
   0  -7   4   54.98    4.93
   0   7  -4   47.80    6.24
   0  -7   4   55.76    5.55
   0   7   4   68.00    6.66
   0  -7  -4   61.34    6.68
   0   7  -4   59.20    6.89
   0   7  -5  494.10   18.47
   0  -7  -5  490.54   18.45
   0  -7   5  502.28   16.82
   0   7   5  503.07   17.57
   0   7  -5  482.33   17.94
   0   7  -6   35.05    5.77
   0  -7  -6   27.48    4.93
   0   7  -6   30.33    5.44
   0  -7   6   32.23    4.85
   0   7   6   31.10    5.25
   0  -7   7    5.51    3.02
   0  -7  -7   -0.62    2.75
   0   7   7   10.59    4.19
   0   7  -7    3.25    3.29
   0   7   8   10.59    3.86
   0  -7  -8    4.93    2.90
   0   7   8   10.89    4.86
   0  -7   8    4.50    2.93
   0   7  -8    8.00    4.04
   0   7   9    6.23    3.86
   0  -7  -9   10.39    3.90
   0  -7   9   14.41    4.30
   0   7  -9   10.62    4.35
   0   7   9    8.00    4.82
   0  -7 -10   55.15    7.53
   0   7 -10   66.61    8.30
   0   7  10   57.47    7.62
   0   7  10   58.34    7.70
   0  -7  10   67.07    8.28
   0   7  11   29.19    5.82
   0   7  11   38.78    6.71
   0   7 -11   43.36    7.28
   0  -7  11   34.55    6.75
   0   7  12    3.06    4.08
   0   7 -12    3.84    4.45
   0  -7  12    5.47    4.75
   0   7 -13    7.15    4.09
   0  -7  13    8.23    4.95
   0   8   0  228.69   12.94
   0   8   0  225.31   12.49
   0  -8   0  204.48   11.40
   0   8   1  143.77   10.40
   0   8  -1  132.58   10.24
   0  -8   1  123.31    8.58
   0   8  -1  135.38   10.09
   0  -8  -1  143.69   10.09
   0   8   1  130.62    9.62
   0   8  -2   11.92    4.23
   0  -8  -2   14.37    4.08
   0   8  -2   15.00    4.36
   0   8   2   20.40    4.59
   0  -8   2   22.85    4.12
   0   8   3    8.01    3.60
   0  -8  -3   11.70    3.93
   0  -8   3    7.93    2.67
   0   8  -3   12.69    4.09
   0   8  -3    6.82    4.00
   0  -8  -4    0.94    3.02
   0   8  -4    7.96    4.23
   0   8  -4    3.02    3.12
   0  -8   5  118.67    8.66
   0   8  -5  100.69    9.35
   0   8  -5  102.96    9.37
   0  -8  -5   90.59    8.88
   0   8   5  100.29    8.84
   0   8  -6   25.56    5.61
   0   8  -6   38.29    6.37
   0   8   6   33.04    5.50
   0  -8  -6   36.66    6.17
   0  -8   6   33.34    5.16
   0   8  -7   71.74    8.41
   0  -8   7   72.27    7.56
   0  -8  -7   61.50    7.93
   0   8  -7   65.66    7.84
   0   8   7   64.52    7.47
   0   8  -8   65.72    8.22
   0  -8   8   66.54    7.83
   0   8   8   49.28    7.01
   0   8  -8   65.66    8.18
   0  -8  -8   65.83    8.05
   0  -8   9   95.07    9.74
   0   8  -9  101.85   10.39
   0   8   9   96.67    9.96
   0  -8  -9   92.64   10.14
   0   8   9   96.51    9.47
   0   8  -9   86.49    9.65
   0   8 -10    6.46    4.31
   0  -8  10    4.03    3.73
   0   8  10   13.65    5.55
   0   8  10    6.76    4.18
   0   8 -11   28.01    6.10
   0   8  11   25.12    5.99
   0  -8  11   25.23    6.05
   0   8  11   26.42    6.05
   0  -8  12    0.04    3.19
   0   8  12    1.01    4.53
   0   8 -12    8.19    3.72
   0  -9   0   -3.10    2.85
   0   9   0   -1.72    3.33
   0  -9  -1  375.71   16.81
   0   9   1  355.29   16.71
   0   9  -1  347.93   16.95
   0   9  -1  355.62   17.47
   0  -9   1  344.17   15.20
   0   9  -2   12.58    4.68
   0   9  -2   18.72    5.44
   0  -9   2   18.69    3.95
   0   9   2   10.05    4.28
   0  -9  -2   13.98    4.36
   0   9   3   14.18    4.27
   0   9  -3    0.80    3.59
   0  -9  -3   10.02    3.64
   0   9  -3   15.75    4.89
   0   9  -4    2.52    3.55
   0   9   4   -6.50    4.08
   0  -9  -4   -1.24    3.52
   0   9   5   27.48    5.60
   0   9  -5   22.14    5.37
   0  -9  -5   23.03    5.55
   0   9  -5   30.16    6.05
   0   9  -6  105.92   10.76
   0   9  -6  115.58   10.95
   0  -9  -6  118.05   10.89
   0   9   6  115.59   10.36
   0   9  -7    0.76    3.88
   0   9  -7    4.19    4.09
   0   9   7   -2.37    3.44
   0  -9  -7   -5.25    4.55
   0  -9  -8   13.79    4.68
   0   9  -8   16.16    5.69
   0   9   8   22.03    5.30
   0   9  -8   28.95    6.37
   0   9  -9  132.39   12.23
   0   9   9  155.30   12.58
   0   9   9  108.69   11.22
   0   9  -9  159.88   13.51
   0  -9  -9  124.29   12.24
   0   9 -10    4.28    4.04
   0   9  10   12.29    6.09
   0   9 -10   13.03    4.82
   0   9  10   11.62    4.88
   0  10   0   -4.76    4.30
   0 -10   0   -5.33    3.55
   0 -10  -1   13.18    4.19
   0 -10   1   17.55    4.44
   0  10  -1    9.99    4.37
   0  10   1    3.90    3.51
   0  10  -1   18.00    5.86
   0  10  -2  119.63   10.90
   0 -10  -2  130.45   11.20
   0  10   2  125.89   11.08
   0  10  -2  148.57   12.45
   0  10  -3   94.07   10.29
   0  10   3   75.83    8.71
   0  10  -3   96.18   10.33
   0 -10  -3   81.93    9.06
   0  10   4   14.24    4.23
   0 -10  -4   11.58    4.23
   0  10  -4   23.29    6.10
   0  10  -4   13.47    4.73
   0 -10  -5    9.88    4.44
   0  10  -5    4.62    4.44
   0  10   5   13.00    4.85
   0  10  -5    5.22    4.09
   0  10   6   32.20    6.13
   0 -10  -6   29.44    6.39
   0  10  -6   33.89    6.85
   0  10  -6   39.01    7.51
   0 -10  -7   23.36    5.86
   0  10  -7   25.71    5.99
   0  10   7   14.18    4.99
   0  10  -7    9.43    4.61
   0  10  -8   36.38    7.29
   0  10   8   46.60    7.25
   0  11   0    2.39    3.70
   0 -11   0    7.25    3.68
   0 -11  -1    4.88    3.39
   0  11  -1    4.86    3.73
   0  11   1    4.12    3.61
   0  11  -1    5.55    3.82
   0  11  -2    7.24    4.13
   0 -11  -2    4.15    3.97
   0  11  -2    2.17    4.06
   0  11   2   11.64    4.57
   0  11  -3   66.01    9.52
   0  11   3   84.55    9.88
   0 -11  -3   73.43    9.31
   0  11  -3   69.24    9.33
   0  11  -4   -0.50    3.48
   0  11   4    2.67    4.23
   0 -11  -4    3.06    3.37
   0  11  -4    2.41    3.60
   0  11   5   20.29    5.74
   0  11  -5    2.54    4.08
   1   0 -16    3.87    3.88
  -1   0  16   -5.62    4.12
   1   0 -15   -1.54    4.00
  -1   0  15   -4.41    4.81
  -1   0  14   -3.64    3.28
   1   0 -14   -2.48    3.17
   1   0 -13  342.93   16.40
  -1   0  13  359.26   18.42
  -1   0  12    3.81    4.14
   1   0 -12    1.77    3.48
   1   0 -11  313.54   14.19
  -1   0  11  311.97   15.60
  -1   0  10    9.51    4.55
   1   0 -10    1.37    3.15
  -1   0   9 1267.81   16.51
   1   0  -9 1259.13   24.89
  -1   0   8   -1.75    1.19
   1   0  -8    3.07    3.20
   1   0  -7    4.86    2.39
  -1   0   7    4.08    1.26
  -1   0   6    0.62    0.75
   1   0  -6   -1.92    2.34
   1   0  -5  356.49    9.92
   1   0  -4   -0.22    1.84
   1   0  -3  658.25   10.64
   1   0  -2    0.25    1.30
  -1   0   2    2.57    1.51
   1   0  -1 1845.83   11.79
   1   0  -1 1827.15   10.85
  -1   0   1 1837.30   10.97
  -1   0   0    1.57    0.61
   1   0   0    0.74    1.26
   1   0   0   -0.18    1.21
   1   0   0    1.55    0.97
   1   0   1 3637.73   22.23
   1   0   1 3708.18   22.51
   1   0   1 3634.93   23.56
   1   0   2   -1.75    1.82
  -1   0  -2    1.99    0.85
   1   0   2    0.77    1.59
   1   0   2    0.67    1.54
  -1   0  -2    3.21    1.38
  -1   0  -3 1621.12   13.60
   1   0   3 1635.34   18.41
   1   0   3 1647.25   18.95
  -1   0  -3 1637.95   14.96
  -1   0  -4    0.98    1.10
   1   0   4    0.30    1.82
   1   0   4    1.01    1.73
  -1   0  -4    1.11    1.08
  -1   0  -5  349.77    8.67
  -1   0  -5  334.58    7.21
   1   0   5  354.55   10.49
   1   0   5  358.63   10.49
   1   0   6   -0.14    1.79
  -1   0  -6    0.48    0.90
   1   0   6    0.77    2.15
  -1   0  -6    0.03    1.50
  -1   0  -7  322.93   10.20
   1   0   7  328.89   11.96
  -1   0  -7  310.37    7.73
   1   0   7  330.88   11.44
   1   0   8    3.32    2.63
  -1   0  -8   -0.62    2.00
   1   0   8    1.48    2.77
  -1   0  -8    0.72    1.06
   1   0   9   83.58    7.16
   1   0   9   81.11    6.89
  -1   0  -9   79.07    6.11
   1   0  10   -2.75    2.75
  -1   0 -10   -1.69    2.59
   1   0  10   -2.39    3.11
   1   0  11   85.65    7.73
  -1   0 -11   91.72    7.34
   1   0  11   85.94    8.22
   1   0  12   -3.84    3.37
   1   0  12   -0.23    3.39
  -1   0 -12   -0.19    2.35
   1   0  13   24.47    5.06
   1   0  13   26.38    5.26
  -1   0 -13   21.30    4.49
  -1   0 -14   -0.03    3.02
   1   0  14   -0.13    2.97
   1   0  14   -3.28    3.60
  -1   0 -15    0.36    2.64
   1   0  15   -0.93    3.10
   1   0  16   -0.43    2.83
   1  -1 -16   11.93    5.11
  -1  -1  16   14.17    5.21
  -1   1  16   14.13    5.22
  -1  -1  15    2.09    3.92
   1   1 -15   11.42    5.64
   1  -1 -15    3.38    4.08
  -1   1  15   -2.17    4.41
   1   1 -14  147.62   11.49
  -1   1  14  118.92   11.24
   1  -1 -14  120.18   10.55
  -1  -1  14  128.07   11.74
   1   1 -13   39.01    6.31
   1  -1 -13   46.53    6.90
  -1  -1  13   36.95    6.63
  -1   1  13   45.40    7.06
  -1  -1  12   28.42    5.73
  -1   1  12   32.56    6.21
   1  -1 -12   34.14    5.81
   1   1 -12   30.20    5.33
   1   1 -11  593.59   19.66
   1  -1 -11  611.48   19.83
  -1   1  11  611.84   21.58
  -1  -1  11  595.05   21.40
  -1  -1  10   73.41    7.97
  -1   1  10   87.84    5.11
   1   1 -10   82.81    7.31
   1  -1 -10   80.48    7.42
   1   1  -9  186.69    9.95
  -1  -1   9  182.02   11.20
  -1   1   9  196.39    7.03
   1  -1  -9  186.93   10.01
   1  -1  -8  132.76    8.01
   1   1  -8  129.34    8.11
  -1   1   8  146.45    5.65
  -1  -1   8  144.20    9.56
   1  -1  -7  163.66    8.18
   1   1  -7  169.65    8.42
  -1   1   7  173.81    5.59
   1  -1  -6 1183.36   19.48
  -1   1   6 1174.65   12.94
   1   1  -6 1128.08   19.49
   1  -1  -5   14.96    2.62
  -1   1   5   11.46    2.62
  -1   1   5   15.11    1.57
   1   1  -5   11.26    2.70
   1  -1  -4  542.72   11.07
  -1   1   4  546.27   11.40
   1   1  -4  558.67   11.75
   1  -1  -3 1758.10   17.40
  -1   1   3 1730.32   18.07
   1   1  -3 1756.47   18.59
   1   1  -2 6026.28   30.78
  -1   1   2 6006.88   29.84
   1   1  -1 9835.48   35.12
  -1   1   1 9999.00   34.65
   1  -1  -1 9817.74   40.02
   1   1   0   40.33    2.34
   1   1   0   43.99    2.62
   1  -1   0   43.55    3.03
   1  -1   0   40.64    2.97
  -1  -1   0   36.65    2.77
   1   1   0   44.84    2.34
  -1   1   0   39.52    2.34
   1   1   1 4336.19   21.04
  -1   1  -1 4367.98   13.78
  -1  -1  -1 4191.10   26.67
   1  -1   1 4362.58   28.07
   1   1   1 4300.65   22.46
   1   1   1 4199.86   26.15
   1  -1   1 4238.81   27.92
   1   1   1 4293.85   19.33
  -1  -1  -2  171.45    5.79
  -1   1  -2  184.88    3.86
   1  -1   2  170.15    6.32
   1  -1   2  188.36    6.21
   1   1   2  180.12    4.79
   1   1   2  177.66    5.24
   1  -1   2  180.98    6.46
   1   1   2  170.68    6.00
   1  -1   3  792.89   13.61
   1  -1   3  768.43   14.09
  -1   1  -3  793.45    9.84
  -1  -1  -3  771.25   12.11
   1   1   3  806.08   11.46
   1   1   3  778.08   13.61
  -1   1  -4    8.45    1.06
  -1  -1  -4    3.48    1.50
   1  -1   4    5.24    2.09
   1   1   4    4.64    1.59
   1  -1   4    8.13    2.44
   1   1   4    5.50    2.24
  -1   1  -4    9.20    1.61
  -1  -1  -5  342.40    8.71
   1   1   5  352.49    9.87
   1  -1   5  330.26   10.20
   1  -1   5  338.00   10.93
   1   1   5  347.62   10.46
  -1   1  -5  338.53    5.50
  -1   1  -5  353.91    8.82
  -1  -1  -6    1.78    2.00
  -1   1  -6    4.35    0.85
  -1   1  -6    2.40    1.69
   1   1   6    2.03    2.00
   1  -1   6    0.86    2.32
   1  -1   6    2.84    2.41
   1   1   6    2.72    2.43
  -1  -1  -6    0.79    1.46
   1   1   7   35.86    4.19
  -1  -1  -7   36.65    3.34
   1   1   7   39.52    4.70
  -1   1  -7   39.18    3.92
   1  -1   7   32.25    4.52
  -1  -1  -7   36.32    3.82
  -1   1  -7   33.23    1.83
   1  -1   7   42.06    4.81
   1   1   8  649.55   17.02
  -1  -1  -8  647.30   13.79
  -1   1  -8  641.32   15.62
   1  -1   8  625.60   16.58
  -1  -1  -8  646.59   15.78
   1  -1   8  623.83   18.10
   1   1   8  628.44   16.95
   1  -1   9   14.78    3.92
  -1  -1  -9   10.24    2.32
   1  -1   9    9.46    3.15
   1   1   9   12.94    3.48
   1   1   9    5.87    2.88
  -1   1  -9   12.58    3.33
  -1  -1  -9   15.93    3.37
  -1  -1 -10  170.77    9.48
   1  -1  10  178.00   10.10
   1   1  10  177.81   10.53
   1  -1  10  171.55   10.85
  -1   1 -10  165.70    9.31
   1   1  10  179.35   10.17
  -1  -1 -11    3.51    2.86
  -1   1 -11   12.60    3.68
   1  -1  11    7.84    4.03
   1   1  11    4.82    3.63
   1   1  11    7.35    3.26
   1  -1  11    7.31    3.84
  -1   1 -12  100.47    8.39
   1  -1  12  109.71    9.86
  -1  -1 -12  110.33    8.79
   1   1  12  106.60    8.91
   1   1  12   96.36    8.82
   1  -1  13    5.88    3.56
   1   1  13   11.68    4.81
   1   1  13    4.39    3.75
  -1  -1 -13    8.09    3.70
  -1   1 -13    4.33    3.65
  -1  -1 -14    4.35    2.67
   1  -1  14    6.85    4.26
   1   1  14    3.42    3.20
   1   1  14    1.02    3.13
  -1   1 -14    0.53    2.88
   1  -1  15    8.84    4.52
   1   1  15    3.47    2.70
  -1  -1 -15    1.54    2.86
   1  -1  16   29.57    6.84
   1   1  16   22.92    5.66
   1  -2 -16    6.70    4.33
  -1   2  16    6.94    4.44
  -1  -2  16   -1.79    4.32
   1   2 -16   -5.17    3.65
   1  -2 -15   31.68    6.35
  -1   2  15   15.66    5.25
  -1  -2  15   19.83    5.24
   1   2 -15   37.30    7.21
   1   2 -14   31.65    6.17
  -1   2  14   31.46    6.42
  -1  -2  14   28.83    6.41
   1  -2 -14   30.79    6.14
   1  -2 -13  111.91   10.00
  -1   2  13   98.47    9.65
   1   2 -13  104.86    9.80
  -1  -2  13  112.31   10.49
   1   2 -12   24.10    5.59
  -1  -2  12   19.24    5.33
  -1   2  12   22.94    5.02
   1  -2 -12   21.35    5.16
   1   2 -11   -3.26    3.57
  -1  -2  11    2.22    3.87
   1  -2 -11    2.24    3.01
  -1   2  10    1.79    1.73
  -1  -2  10    2.13    3.39
   1   2 -10   -2.09    3.13
   1  -2  -9   56.36    6.14
  -1  -2   9   48.53    6.19
  -1   2   9   52.73    4.23
   1   2  -9   47.82    5.65
   1  -2  -8    7.57    3.47
  -1   2   8    5.95    1.99
   1   2  -8    0.28    2.67
  -1  -2   8   11.15    4.23
   1  -2  -7  648.73   16.31
  -1  -2   7  634.81   17.56
  -1   2   7  640.41   12.05
   1   2  -7  645.61   16.59
  -1   2   7  628.56   16.45
  -1  -2   6  307.77   11.49
  -1   2   6  300.36   10.73
   1   2  -6  288.02   10.50
   1  -2  -6  296.96   10.24
  -1   2   6  300.74    7.78
  -1   2   5 1762.17   23.57
   1   2  -5 1727.95   23.56
  -1  -2   5 1705.96   24.21
  -1  -2   4   85.56    4.03
  -1   2   4   82.27    5.25
   1   2  -4   75.11    5.07
   1   2  -3 2070.29   22.69
  -1   2   3 2061.27   21.97
  -1  -2   3 2057.09   19.33
  -1   2   2 5604.29   34.11
  -1  -2   2 5666.33   32.47
   1   2  -2 5598.33   35.12
   1  -2  -2 5677.68   32.91
   1  -2  -1  999.86   13.75
   1   2  -1 1009.59   13.92
  -1   2   1  995.68   13.77
  -1  -2   1 1017.37   14.26
   1   2   0  109.02    3.19
   1  -2   0  106.47    4.86
   1   2   0  105.63    4.55
  -1   2   0   95.83    4.42
   1   2   0  103.97    3.29
   1  -2   0   97.72    4.82
  -1   2   0  107.18    3.74
  -1  -2   0  100.94    4.95
   1   2   1 1324.17   10.63
   1  -2   1 1359.82   17.69
  -1   2  -1 1328.01   12.41
   1   2   1 1358.39   15.39
   1   2   1 1356.00   11.44
   1  -2   1 1322.17   17.07
  -1  -2  -1 1307.94   17.15
  -1   2  -1 1337.49   16.09
  -1  -2  -2   47.15    3.82
   1  -2   2   38.52    3.63
   1   2   2   41.88    2.49
  -1   2  -2   42.86    2.58
   1  -2   2   38.91    3.74
   1   2   2   43.29    1.84
   1   2   2   36.99    3.47
  -1  -2  -3    5.91    1.90
   1   2   3    8.63    2.53
   1   2   3    9.15    1.26
   1   2   3    8.80    1.77
  -1   2  -3   12.41    1.77
   1  -2   3    8.64    2.36
   1  -2   4   28.79    3.90
  -1  -2  -4   39.76    3.68
   1   2   4   34.23    4.03
  -1   2  -4   34.26    2.97
   1   2   4   34.59    2.81
   1   2   5 2102.89   26.94
   1  -2   5 2112.00   28.96
  -1  -2  -5 2078.16   24.60
  -1   2  -5 2087.91   22.77
   1   2   5 2106.17   22.29
   1  -2   6   72.32    6.04
   1   2   6   81.08    6.13
   1   2   6   80.68    5.10
  -1  -2  -6   76.60    5.12
  -1   2  -6   80.24    5.12
  -1   2  -7  359.51   11.30
  -1  -2  -7  364.76   11.34
   1   2   7  369.56   12.62
   1  -2   7  359.12   13.62
   1   2   7  383.23   11.78
   1  -2   8   15.49    3.96
   1   2   8   24.34    4.23
  -1  -2  -8   18.91    3.24
  -1   2  -8   17.49    3.30
  -1  -2  -8   21.76    3.29
   1   2   8   25.53    3.68
   1   2   9  409.10   14.24
  -1  -2  -9  389.22   12.63
   1  -2   9  370.17   15.38
  -1   2  -9  402.41   13.69
  -1  -2  -9  399.61   13.87
   1   2   9  395.16   14.58
  -1  -2 -10   87.75    6.35
  -1  -2 -10   78.26    6.89
   1   2  10   97.41    8.08
   1  -2  10   81.71    7.80
  -1   2 -10   86.22    7.04
   1   2  10   91.07    7.41
  -1   2 -11   61.32    6.42
   1   2  11   49.45    5.91
   1  -2  11   47.17    6.50
  -1  -2 -11   46.46    5.90
   1   2  11   38.99    5.65
  -1  -2 -12   59.21    6.71
   1  -2  12   57.12    7.60
  -1   2 -12   55.47    6.32
   1   2  12   51.29    6.18
   1   2  12   58.97    7.02
   1   2  13    8.85    3.77
   1  -2  13    5.92    3.55
  -1   2 -13    6.59    3.50
   1   2  13    4.81    3.26
  -1  -2 -13   10.45    3.32
   1  -2  14   91.45   10.17
  -1   2 -14  107.40    9.52
   1   2  14   93.29    9.15
  -1  -2 -14  100.45    9.39
   1   2  14  105.84    9.75
   1  -2  15   42.52    7.52
  -1  -2 -15   54.70    7.39
  -1  -2 -16   21.67    5.16
  -1   3  16   -1.35    3.75
   1   3 -16   12.42    5.69
  -1  -3  15   47.78    8.18
  -1   3  15   37.80    7.03
   1   3 -15   38.24    7.19
   1  -3 -15   45.17    7.56
   1  -3 -14    1.28    3.16
  -1  -3  14    4.92    4.26
  -1   3  14    3.69    3.50
   1   3 -14    0.31    3.72
  -1  -3  13   14.72    4.19
   1  -3 -13   11.39    4.17
  -1   3  13   14.76    4.76
   1   3 -13   13.30    4.59
   1  -3 -12  163.35   11.47
  -1   3  12  170.78   12.15
  -1  -3  12  144.32   11.68
   1   3 -12  160.23   11.33
   1   3 -11   -1.88    3.39
   1  -3 -11    3.21    3.16
  -1  -3  11    0.22    3.35
   1   3 -10    2.73    2.98
  -1   3  10    5.96    2.63
  -1  -3  10    2.58    3.56
   1  -3 -10   11.61    4.05
   1   3  -9   99.75    8.04
  -1  -3   9   97.71    8.48
   1  -3  -9   89.87    7.56
  -1   3   9  100.48    6.19
  -1   3   8   31.35    3.63
  -1  -3   8   31.19    2.57
   1  -3  -8   36.48    5.02
  -1  -3   8   42.00    5.57
  -1   3   8   26.41    4.46
   1   3  -8   33.22    5.10
  -1   3   7   49.24    5.77
  -1   3   7   46.37    4.15
  -1  -3   7   37.05    5.03
  -1  -3   7   47.33    3.19
   1   3  -7   46.46    5.33
  -1   3   6   -1.50    2.90
  -1  -3   6    1.12    1.19
   1   3  -6   -0.41    2.72
  -1  -3   6    2.80    2.71
  -1   3   5  500.83   13.65
   1   3  -5  501.13   14.06
  -1  -3   5  490.86   10.24
  -1  -3   5  503.68   13.49
  -1   3   4  516.28   13.13
   1   3  -4  504.67   13.40
  -1  -3   4  502.12   12.26
  -1  -3   4  493.92   10.41
   1  -3  -3   -1.42    1.41
   1   3  -3   -2.24    2.40
  -1  -3   3   -0.01    1.43
  -1   3   3   -1.04    2.23
  -1  -3   3    0.86    1.52
   1   3  -2   58.08    4.54
  -1  -3   2   64.72    4.19
  -1  -3   2   60.76    3.46
   1  -3  -2   68.58    4.03
  -1   3   2   64.48    4.71
  -1  -3   1   11.92    2.40
  -1   3   1    3.97    2.09
   1  -3  -1   11.26    2.01
   1   3  -1   11.58    1.83
  -1  -3   1   12.51    1.42
   1   3  -1   13.95    2.73
  -1   3   0 2270.92   21.25
   1   3   0 2303.87   19.27
   1  -3   0 2300.71   22.95
   1  -3   0 2279.02   23.91
  -1  -3   0 2308.33   24.96
   1   3   0 2280.71   24.28
  -1   3   0 2302.84   24.33
   1   3   1    4.57    1.46
  -1   3  -1   -2.45    2.12
   1  -3   1    1.20    1.66
  -1   3  -1    1.32    1.41
   1   3   1    2.67    2.13
   1  -3   1   -1.23    1.79
  -1  -3  -1    0.37    1.83
   1   3   2 1328.44   18.80
   1   3   2 1306.36   15.35
   1  -3   2 1306.94   19.96
  -1   3  -2 1317.45   16.24
  -1   3  -2 1311.09   19.42
  -1  -3  -2 1331.19   19.94
   1  -3   2 1304.14   19.24
   1  -3   3  247.99    9.35
   1   3   3  253.72    4.53
   1   3   3  263.00    9.28
  -1  -3  -3  247.98    9.08
  -1   3  -3  244.01    7.51
   1   3   3  243.26    7.29
   1   3   4  387.05    7.48
   1  -3   4  396.66   12.51
  -1  -3  -4  386.53   11.62
   1   3   4  396.43   12.05
  -1   3  -4  364.01    9.83
   1   3   4  378.37    9.86
   1   3   5  153.31    8.14
   1   3   5  159.09    5.77
   1  -3   5  150.78    8.44
  -1  -3  -5  164.63    8.00
   1   3   5  158.10    7.08
  -1   3  -5  157.65    7.06
  -1   3  -6   24.00    3.35
   1   3   6   25.30    4.54
   1   3   6   26.27    2.88
   1  -3   6   23.18    4.50
  -1  -3  -6   26.99    3.82
  -1  -3  -7   25.00    3.78
  -1   3  -7   35.94    4.42
   1  -3   7   23.71    4.46
   1   3   7   25.36    3.26
   1   3   7   24.59    4.30
   1   3   8   54.33    4.89
  -1   3  -8   61.72    5.53
   1  -3   8   46.53    6.10
   1   3   8   54.03    6.02
  -1  -3  -8   55.58    5.44
  -1  -3  -9  123.67    8.36
   1  -3   9  124.11    9.60
  -1  -3  -9  130.19    8.20
  -1   3  -9  122.00    8.02
   1   3   9  124.40    8.75
   1   3   9  132.66    7.91
   1   3  10  599.32   17.65
  -1   3 -10  609.01   18.42
   1  -3  10  597.41   21.23
  -1  -3 -10  637.08   18.18
   1   3  10  614.18   19.25
  -1  -3 -10  623.52   19.07
   1   3  11   -5.25    4.12
  -1   3 -11    2.90    2.97
  -1  -3 -11    3.20    1.97
   1  -3  11    2.77    2.95
   1   3  11    3.38    2.75
  -1  -3 -11    0.35    2.81
   1   3  12   36.03    6.13
  -1  -3 -12   44.49    5.93
   1   3  12   41.50    5.39
   1  -3  12   38.77    6.81
  -1   3 -12   49.54    6.33
   1  -3  13    6.48    4.37
   1   3  13    4.99    3.75
  -1   3 -13    4.59    3.53
  -1  -3 -13    4.12    3.08
   1  -3  14    8.86    4.23
  -1  -3 -14    7.80    4.73
   1   3  14    5.52    4.06
   1  -3  15   10.54    4.33
  -1  -3 -15   30.36    6.15
  -1  -4  15    1.99    3.65
   1   4 -15    1.61    3.66
  -1   4  15   -1.08    3.07
  -1  -4  14   77.80   10.01
  -1   4  14   52.24    7.44
   1  -4 -14   79.74    9.17
   1   4 -14   77.65    9.35
  -1   4  13   37.49    6.51
  -1  -4  13   41.94    7.11
   1   4 -13   32.37    6.10
   1  -4 -13   32.94    6.02
   1  -4 -12   60.35    7.52
  -1  -4  12   45.76    7.01
   1   4 -12   45.19    6.88
   1  -4 -11    8.01    3.74
   1   4 -11    3.99    3.44
  -1  -4  11   -0.40    3.28
  -1   4  10   57.92    5.62
   1   4 -10   51.65    6.76
  -1  -4  10   48.09    6.70
  -1   4  10   57.86    6.84
   1  -4 -10   61.39    6.94
  -1   4   9    9.08    2.92
   1   4  -9   11.49    4.32
  -1   4   9    2.86    3.63
  -1  -4   9    7.37    3.04
   1  -4  -9    8.53    3.53
  -1   4   8  413.95   15.66
  -1   4   8  419.77   12.91
   1   4  -8  427.44   15.92
  -1  -4   8  437.09   16.18
   1   4  -7  199.02   10.79
  -1  -4   7  195.64   10.35
  -1  -4   7  206.68    6.63
  -1   4   7  193.49   10.41
  -1  -4   6  174.68    6.39
   1   4  -6  160.63    9.64
  -1  -4   6  167.08    8.95
  -1   4   6  176.08    9.46
  -1   4   5   21.75    4.09
   1  -4  -5   14.75    2.40
   1   4  -5   17.31    4.06
  -1  -4   5   13.25    2.88
  -1  -4   5   13.89    2.39
  -1  -4   4   12.11    2.53
   1  -4  -4   15.18    2.26
   1   4  -4    5.65    2.98
  -1   4   4   11.20    3.32
  -1  -4   4   14.22    2.39
   1  -4  -3 1755.78   20.72
   1   4  -3 1772.80   26.16
  -1   4   3 1820.67   25.93
  -1  -4   3 1749.68   22.07
  -1  -4   3 1755.11   21.40
   1   4  -2   63.27    5.25
  -1  -4   2   64.74    3.66
   1   4  -2   58.58    4.36
  -1  -4   2   65.64    4.73
   1  -4  -2   64.49    4.06
  -1   4   2   62.90    5.30
   1   4  -1  529.96   11.53
  -1   4   1  541.63   13.70
   1  -4  -1  529.20   11.38
   1   4  -1  544.61   13.79
  -1  -4   1  537.73    8.41
  -1  -4   1  561.40   13.24
  -1  -4   0   54.35    1.83
  -1   4   0   53.86    4.71
   1  -4   0   60.89    4.50
  -1   4   0   58.50    4.41
   1  -4   0   54.88    4.04
  -1  -4   0   56.74    4.75
   1   4   0   52.53    4.71
   1   4   0   55.31    3.83
   1   4   1   47.68    4.48
  -1  -4  -1   47.02    4.54
   1  -4   1   45.82    4.24
   1   4   1   41.95    3.44
  -1   4  -1   45.63    4.33
   1  -4   1   45.81    3.87
  -1   4  -1   41.80    3.69
  -1   4  -2  358.63   11.58
   1   4   2  313.63    8.90
  -1  -4  -2  343.53   11.47
   1   4   2  326.97   10.86
  -1   4  -2  324.80    9.64
   1  -4   2  338.46   10.99
   1   4   3    0.85    1.64
  -1   4  -3    0.89    1.90
   1  -4   3    2.26    2.58
  -1  -4  -3    1.32    2.45
   1   4   4  145.12    6.76
  -1   4  -4  141.48    6.98
   1   4   4  140.12    3.79
  -1  -4  -4  145.29    8.09
   1  -4   4  135.68    8.08
   1   4   5  608.35   14.44
   1   4   5  610.84   10.18
   1   4   5  591.60   16.59
  -1  -4  -5  592.33   16.51
  -1   4  -5  624.22   15.12
   1  -4   5  619.89   17.65
   1  -4   6  165.23    9.83
  -1   4  -6  194.01    8.98
   1   4   6  176.08    6.49
  -1  -4  -6  185.89    9.55
   1   4   6  171.49    9.42
   1   4   6  183.72    8.80
   1   4   7 1111.26   22.29
   1   4   7 1098.45   23.89
   1   4   7 1134.51   18.32
  -1   4  -7 1122.70   22.63
  -1  -4  -7 1133.98   24.05
   1  -4   7 1099.13   26.12
  -1  -4  -8    2.49    2.41
   1   4   8    7.66    2.19
  -1   4  -8    6.71    2.79
   1  -4   8    9.73    3.86
   1   4   9  313.44   14.02
  -1  -4  -9  360.72   14.69
   1  -4   9  329.56   15.92
  -1   4  -9  340.24   13.92
  -1  -4 -10   24.33    4.33
   1  -4  10   26.33    5.43
  -1  -4 -10   23.13    4.77
  -1   4 -10   22.81    4.33
   1   4  10   21.43    4.89
  -1   4 -11  122.12    9.29
   1  -4  11  122.38   10.54
  -1  -4 -11  119.01    9.06
  -1  -4 -11  138.46   10.01
   1   4  11  104.20    9.12
  -1  -4 -12    5.64    3.35
   1  -4  12   -1.42    3.12
   1   4  12    5.26    4.05
  -1   4 -12    5.17    3.43
   1  -4  13   24.68    5.56
   1   4  13   22.52    5.24
  -1  -4 -13   14.58    4.48
  -1  -4 -14   16.55    4.58
   1   4  14   12.14    4.40
   1  -4  14    6.45    4.04
  -1  -4 -15   51.78    7.69
   1   5 -15   -0.97    3.47
   1  -5 -14    1.14    3.03
   1   5 -14    8.27    4.72
  -1  -5  14    8.04    5.10
   1  -5 -13   55.71    7.44
  -1  -5  13   50.30    8.18
   1   5 -13   59.09    8.30
   1  -5 -12   10.51    4.55
  -1  -5  12   22.89    5.78
   1   5 -12    9.24    4.50
   1  -5 -11   91.36    8.88
  -1  -5  11   90.07    9.26
   1   5 -11   83.73    9.10
   1   5 -10    1.07    3.75
  -1   5  10   -1.29    2.73
   1  -5 -10    0.76    3.44
  -1  -5  10    2.22    3.55
  -1   5  10   -6.02    4.24
   1   5  -9  258.65   13.93
  -1   5   9  259.47   11.60
  -1   5   9  231.07   13.08
  -1  -5   9  251.01   13.46
  -1  -5   8    6.36    3.13
   1   5  -8    0.63    3.07
  -1   5   8    8.44    4.19
  -1  -5   7  380.93   14.62
  -1   5   7  423.92   15.88
   1   5  -7  411.26   16.09
   1  -5  -7  402.26   12.36
   1  -5  -6   53.83    4.39
  -1  -5   6   52.71    3.92
  -1  -5   6   48.83    5.19
   1   5  -6   48.82    6.22
  -1   5   6   58.38    6.24
   1   5  -5  177.75   10.22
  -1  -5   5  192.09    7.62
   1  -5  -5  198.74    7.75
  -1  -5   5  184.74    8.97
  -1   5   5  197.03   10.27
  -1  -5   4    3.74    1.86
   1  -5  -4    6.99    1.95
  -1  -5   4    2.18    1.96
   1   5  -4    2.05    2.80
  -1   5   4    3.30    3.07
  -1  -5   3   37.01    3.90
  -1   5   3   47.19    5.52
  -1  -5   3   44.35    3.75
   1   5  -3   43.73    4.64
   1  -5  -3   42.04    3.47
   1   5  -3   49.29    5.78
   1  -5  -2  298.68    8.88
   1   5  -2  293.42   11.86
  -1   5   2  309.44   11.83
  -1  -5   2  309.72   10.58
  -1  -5   2  301.32    8.14
   1   5  -2  318.33   10.73
   1  -5  -1   40.26    3.43
   1   5  -1   35.97    4.82
  -1   5   1   38.03    4.75
  -1  -5   1   36.32    2.44
   1   5  -1   37.28    4.12
  -1  -5   1   40.92    4.42
   1  -5   0  185.51    7.46
  -1  -5   0  182.80    3.95
   1  -5   0  179.00    7.99
  -1   5   0  183.87    8.41
  -1   5   0  189.25    9.19
   1   5   0  182.84    9.21
  -1  -5   0  192.04    9.13
   1   5   0  189.74    7.88
   1   5   1  205.91    9.89
  -1   5  -1  203.29    8.80
   1  -5   1  211.50    8.93
  -1  -5  -1  204.99    9.65
   1   5   1  220.80    8.45
  -1   5  -1  205.35    9.71
   1  -5   2  225.48    9.74
  -1  -5  -2  231.39   10.46
  -1   5  -2  218.42    9.19
   1   5   2  230.34   10.26
   1   5   2  223.60    8.64
  -1   5  -2  202.04    9.91
  -1  -5  -3  261.02   11.55
   1  -5   3  289.76   11.52
  -1   5  -3  265.25   10.23
  -1   5  -3  283.78   11.97
   1   5   3  292.22   10.06
  -1  -5  -4  245.71   11.60
   1   5   4  250.15    9.71
  -1   5  -4  248.79   10.19
   1  -5   4  229.16   10.86
  -1   5  -4  224.02   11.08
   1   5   5    5.03    3.77
  -1   5  -5   -0.99    2.17
   1  -5   5   -3.23    2.93
   1   5   5    4.68    2.45
  -1  -5  -5    2.43    2.80
  -1   5  -6    2.70    2.34
   1   5   6    0.71    3.32
   1   5   6   -1.51    2.71
   1  -5   6    0.46    2.85
  -1  -5  -6   -2.76    2.90
   1   5   7    6.35    4.01
   1   5   7    5.81    3.02
  -1   5  -7    1.12    2.66
   1  -5   7    5.59    3.25
  -1  -5  -7    1.47    2.81
   1   5   8  188.89   11.42
  -1   5  -8  208.27   11.13
  -1  -5  -8  221.54   12.04
   1  -5   8  201.41   12.59
   1   5   8  206.39   10.79
  -1  -5  -9    6.97    3.19
  -1   5  -9    4.93    3.06
   1   5   9    4.39    3.84
   1  -5   9    6.98    4.05
  -1   5 -10  114.89    9.06
   1   5  10  125.37   10.08
   1  -5  10  107.84   10.15
  -1  -5 -10  119.10    9.42
   1  -5  11   39.81    6.93
  -1  -5 -11   53.59    6.63
  -1   5 -11   47.17    6.39
   1   5  11   41.86    6.57
  -1  -5 -11   58.53    7.21
  -1   5 -12   17.39    4.72
   1  -5  12   10.79    4.42
  -1  -5 -12   14.07    3.90
   1   5  12   18.28    5.51
  -1  -5 -12   11.79    4.28
   1  -5  13   15.78    5.28
   1   5  13    9.70    4.52
  -1  -5 -13   21.36    5.61
   1   5  14   41.84    7.21
   1  -5  14   45.55    7.93
  -1  -5 -14   52.80    7.82
   1   6 -14    1.54    4.30
  -1  -6  14    1.07    3.73
   1   6 -13   -0.06    3.15
   1  -6 -13    0.81    3.06
  -1  -6  13   -7.33    4.45
   1   6 -12   11.96    5.38
  -1  -6  12   24.34    5.61
   1  -6 -12   13.46    4.49
  -1  -6  11   12.45    4.14
   1   6 -11   15.93    4.94
  -1   6  11   18.36    4.80
  -1   6  10    4.71    3.52
  -1  -6  10    3.70    2.79
   1   6 -10    2.40    3.93
  -1   6  10   -0.61    3.56
  -1   6   9    3.82    3.70
  -1  -6   9    5.99    3.25
   1   6  -9    2.10    3.83
  -1   6   9    7.79    3.81
  -1  -6   8    2.41    2.89
   1   6  -8    1.33    3.12
  -1   6   8   -1.64    3.44
   1   6  -7    3.77    4.17
  -1   6   7   -1.95    3.33
  -1  -6   7    2.71    2.43
   1   6  -6  164.59   10.75
  -1  -6   6  177.00    9.75
  -1  -6   6  169.28    7.61
  -1   6   6  178.65   10.98
   1   6  -5   26.81    4.86
  -1   6   5   28.23    4.93
  -1  -6   5   24.70    3.64
  -1  -6   5   29.84    3.55
  -1   6   4    0.06    3.16
   1  -6  -4    1.65    1.24
   1   6  -4    3.93    2.90
  -1  -6   4    2.35    1.74
  -1  -6   4    0.35    1.52
   1   6  -4   -2.09    3.01
  -1   6   3   26.52    4.95
   1  -6  -3   29.81    3.02
   1   6  -3   22.81    4.61
  -1  -6   3   23.23    3.60
  -1  -6   3   16.65    2.48
   1   6  -3   22.82    4.00
   1   6  -2  418.11   13.60
  -1  -6   2  432.89   10.27
  -1   6   2  415.00   15.02
  -1  -6   2  407.97   13.37
   1   6  -2  432.65   15.64
   1  -6  -2  417.47   10.80
   1   6  -1  203.81   10.91
  -1  -6   1  222.44   10.26
   1  -6  -1  217.16    8.09
  -1   6   1  195.11   10.50
   1   6  -1  214.23    9.69
  -1   6   0  243.00   10.85
   1  -6   0  251.09   10.04
   1   6   0  232.36   11.46
   1   6   0  240.19   10.05
  -1   6   0  227.36   11.18
  -1  -6   0  257.80   11.43
  -1   6  -1   10.08    4.12
   1   6   1    5.83    2.48
   1  -6   1   12.62    3.07
   1   6   1   10.89    3.86
  -1   6  -1   10.72    3.37
  -1  -6  -1    5.61    2.67
  -1   6  -2   59.60    5.68
   1  -6   2   72.59    5.97
  -1   6  -2   62.52    6.45
   1   6   2   70.76    6.75
  -1  -6  -2   75.57    6.97
   1   6   2   70.40    5.68
   1   6   3  594.93   15.80
  -1   6  -3  593.69   18.46
   1  -6   3  600.83   17.33
  -1  -6  -3  589.00   18.50
  -1   6  -3  588.96   16.82
   1  -6   4  108.20    7.99
  -1  -6  -4  117.99    8.68
  -1   6  -4  101.04    7.55
   1   6   4  117.40    7.51
  -1   6  -4  113.88    8.70
   1   6   5   -0.12    2.62
  -1   6  -5    3.13    3.51
   1  -6   5    3.57    3.12
  -1   6  -5    6.41    3.29
  -1  -6  -5    2.30    3.12
  -1   6  -6  144.45    9.29
   1   6   6  134.22    9.97
  -1  -6  -6  148.24   10.24
   1   6   6  150.59    9.02
   1  -6   6  138.35   10.01
  -1   6  -7   81.26    7.20
   1   6   7   68.43    6.49
   1   6   7   82.27    8.32
  -1  -6  -7  102.82    8.85
   1  -6   7   72.08    7.77
  -1   6  -8    2.32    2.36
   1   6   8    3.16    3.96
   1   6   8   -1.95    2.88
   1  -6   8    4.32    3.63
  -1  -6  -8    3.59    3.51
   1   6   9  259.25   13.33
   1  -6   9  282.08   15.87
  -1  -6  -9  273.87   14.82
   1   6   9  268.67   14.69
  -1   6  -9  284.57   14.14
  -1  -6 -10    5.78    3.52
   1   6  10    3.32    4.42
   1  -6  10    1.44    3.16
  -1   6 -10    7.44    3.35
   1  -6  11    4.64    3.26
  -1  -6 -11   19.66    4.92
  -1   6 -11   14.40    4.18
   1   6  11    7.66    4.33
   1  -6  12    1.10    3.69
  -1  -6 -12    4.62    3.12
   1   6  12    4.18    4.03
  -1  -6 -12   -4.72    3.43
   1   6  13   80.90    9.51
   1  -6  13  113.51   12.09
  -1  -6 -13  115.33   10.77
  -1  -7  13    0.18    3.81
   1   7 -13   -2.19    3.37
   1  -7 -12   82.90    9.35
  -1  -7  12   76.48    9.29
  -1   7  12   82.01    9.68
   1   7 -12   89.85   10.18
   1   7 -11   35.93    6.76
  -1  -7  11   36.70    6.27
  -1   7  11   37.24    6.79
  -1  -7  10   14.04    4.63
  -1   7  10   12.49    4.66
   1   7 -10    2.19    3.30
  -1   7  10    6.45    4.33
  -1  -7   9   -0.93    2.61
   1   7  -9   -0.18    3.38
  -1   7   9    2.14    3.20
  -1  -7   8   60.67    6.98
   1   7  -8   44.46    6.94
  -1   7   8   50.73    7.04
   1   7  -7   -1.19    3.38
  -1   7   7    6.08    3.82
  -1  -7   7    3.39    2.45
  -1   7   6    1.47    3.37
   1   7  -6    4.70    3.92
   1   7  -6    5.24    3.59
  -1  -7   6    1.26    1.84
  -1   7   5   77.60    7.79
   1   7  -5   70.48    7.16
  -1  -7   5   69.90    5.97
  -1  -7   5   82.72    6.17
   1   7  -5   67.14    7.46
   1   7  -4  242.90   13.29
  -1  -7   4  252.97   10.90
   1   7  -4  254.51   12.45
  -1   7   4  244.03   12.91
  -1   7   3   17.21    4.57
   1   7  -3   14.06    4.15
   1   7  -3   18.98    4.22
  -1  -7   3   16.87    3.65
   1   7  -2   46.03    5.65
   1   7  -2   42.86    5.83
  -1   7   2   47.53    6.24
  -1  -7   2   46.07    5.26
  -1   7   1   42.65    5.73
   1   7  -1   34.72    5.48
  -1  -7   1   41.82    5.24
   1   7  -1   40.39    5.03
   1   7   0  283.75   13.71
  -1  -7   0  302.70   13.40
  -1   7   0  289.85   13.00
   1   7   0  268.96   11.78
  -1   7   0  285.21   13.52
  -1   7  -1  134.63    9.07
  -1  -7  -1  130.00    9.24
   1   7   1  137.19    9.65
   1  -7   1  144.54    8.36
   1   7   1  132.63    8.31
  -1   7  -1  121.69    9.20
   1   7   2    1.83    2.34
   1   7   2    4.24    3.25
  -1   7  -2    3.69    3.79
   1  -7   2    1.86    2.15
  -1   7  -2    1.20    2.67
  -1  -7  -2    0.34    2.90
   1   7   3   -1.48    2.73
  -1   7  -3   -1.73    3.53
   1  -7   3    1.86    2.41
  -1   7  -3    0.01    2.63
  -1  -7  -3    5.46    3.38
   1  -7   4  502.15   17.47
  -1   7  -4  530.71   17.97
  -1  -7  -4  512.95   19.35
  -1   7  -4  494.34   18.59
   1   7   4  490.77   16.16
  -1   7  -5    1.33    3.35
   1  -7   5   -1.20    2.28
   1   7   5   -2.43    2.44
  -1  -7  -5   -1.19    3.25
  -1   7  -5   -2.93    2.63
   1  -7   6  401.50   17.26
  -1   7  -6  387.68   16.09
  -1   7  -6  371.76   17.21
  -1  -7  -6  422.37   18.15
   1   7   6  368.54   16.71
   1   7   6  389.56   15.20
   1  -7   7   44.74    6.57
   1   7   7   41.09    5.70
  -1   7  -7   44.43    6.06
   1   7   7   40.19    6.82
  -1   7  -7   45.90    6.79
  -1  -7  -7   58.85    7.48
  -1   7  -8   13.04    3.72
   1   7   8    6.76    3.23
  -1  -7  -8   13.78    4.17
   1   7   8    8.72    5.15
   1  -7   8   21.51    5.39
  -1   7  -9    6.55    3.96
   1   7   9    4.50    4.84
   1  -7   9    8.62    3.73
  -1  -7  -9    9.61    4.14
   1   7   9   10.80    3.87
  -1   7 -10   66.80    7.83
   1  -7  10   62.66    8.35
   1   7  10   68.70    8.62
  -1  -7 -10   65.39    8.22
   1  -7  11   48.11    8.24
   1   7  11   30.37    6.81
  -1  -7 -11   34.88    6.39
   1   7  12   14.05    6.01
   1  -7  12    8.66    4.46
  -1  -7 -12    6.70    3.72
   1   7  13   -5.22    4.63
  -1  -8  12   22.09    5.69
  -1   8  11   47.84    7.82
   1   8 -11   46.89    7.99
  -1  -8  11   45.94    7.16
  -1  -8  10   91.49    9.61
  -1   8  10   96.30    9.52
   1   8 -10  111.50   11.21
  -1   8  10   90.65    9.97
   1   8  -9    8.55    4.81
  -1   8   9   -0.61    4.54
   1   8  -8   85.53    9.11
   1   8  -8   57.21    8.23
  -1   8   8   83.29    9.28
  -1   8   7   30.33    5.69
   1   8  -7   28.88    5.99
   1   8  -7   28.27    6.19
   1   8  -6   60.94    7.90
  -1   8   6   62.72    7.75
   1   8  -6   42.46    6.44
   1   8  -5    6.00    3.21
  -1   8   5    6.49    3.69
   1   8  -4    7.48    3.48
   1   8  -4   10.01    4.31
  -1  -8   4    0.81    2.13
  -1   8   4    1.02    3.37
   1   8  -3   44.13    6.72
   1   8  -3   43.50    6.10
  -1   8   3   39.66    6.51
  -1  -8   3   43.08    5.39
  -1   8   2   85.09    8.14
  -1  -8   2   88.36    7.48
   1   8  -2   73.41    7.19
   1   8  -2   90.92    8.81
   1   8  -1   97.01    8.23
   1   8  -1   95.89    9.06
  -1  -8   1  114.46    8.76
  -1   8   1  108.87    9.48
   1   8   0  376.95   15.12
  -1   8   0  377.04   16.85
  -1   8   0  382.10   16.14
  -1  -8   0  360.83   15.66
   1   8   0  367.45   17.09
   1   8   1   33.86    5.13
  -1   8  -1   26.74    4.76
   1  -8   1   35.77    4.72
  -1  -8  -1   26.96    5.26
   1   8   1   27.85    5.69
  -1   8  -1   20.68    5.41
   1   8   2   19.51    4.23
  -1   8  -2   19.30    5.10
   1  -8   2    9.53    2.90
  -1   8  -2   15.53    4.27
  -1  -8  -2   10.73    4.06
  -1   8  -3  279.70   14.15
   1  -8   3  277.01   13.04
  -1  -8  -3  264.54   14.68
   1   8   3  268.93   12.93
  -1   8  -3  253.65   14.20
  -1   8  -4   82.32    8.75
  -1   8  -4   87.94    8.30
   1  -8   4   76.24    7.33
   1   8   4   80.15    7.50
  -1  -8  -4   88.43    8.88
   1   8   5   14.58    3.42
  -1   8  -5   13.33    4.03
  -1   8  -5   11.31    3.83
   1  -8   5   21.89    4.27
  -1  -8  -5   23.21    5.74
   1   8   6    6.18    2.92
  -1   8  -6   -0.84    3.63
   1  -8   6   -0.92    2.34
  -1   8  -6   -4.42    3.11
  -1  -8  -6   -0.75    3.48
   1   8   7  134.34    9.96
   1  -8   7  118.98   10.28
  -1  -8  -7  136.32   11.66
  -1   8  -7  132.90   11.69
  -1   8  -7  154.38   11.42
   1   8   7  133.83   11.61
   1   8   8    1.37    2.71
  -1  -8  -8   -3.26    3.69
   1   8   8   -0.17    3.86
  -1   8  -8    6.72    4.46
   1  -8   8    7.24    3.28
  -1   8  -8    2.81    2.86
  -1   8  -9   17.94    5.99
   1   8   9   11.26    5.06
   1  -8   9    7.73    4.06
  -1  -8  -9    6.89    4.12
   1   8   9   12.31    4.21
  -1   8  -9    5.17    3.37
   1   8  10    1.88    2.83
  -1   8 -10    5.22    3.74
   1   8  10   -0.81    4.73
   1  -8  10    5.92    4.03
  -1  -8 -10    4.44    4.23
   1  -8  11    2.44    3.04
   1   8  11   14.50    6.02
  -1  -8 -11    7.56    4.52
  -1   9  10   26.43    7.15
   1   9 -10   33.83    6.73
   1   9 -10   19.82    5.86
  -1   9  10   27.87    6.61
  -1   9   9    2.58    3.46
   1   9  -9   10.37    4.62
   1   9  -8   57.11    7.99
   1   9  -8   47.86    7.79
  -1   9   8   55.02    8.20
  -1   9   7   41.21    7.07
   1   9  -7   45.14    7.37
   1   9  -7   47.26    7.87
  -1   9   6   29.40    6.53
   1   9  -6   19.56    5.87
  -1   9   5   83.04    9.06
   1   9  -5   71.63    8.10
   1   9  -5   61.39    8.42
   1   9  -4    2.72    3.26
  -1   9   4   -3.41    3.90
   1   9  -4    5.01    2.81
  -1   9   3   48.21    7.11
   1   9  -3   42.78    6.37
   1   9  -3   41.97    6.95
  -1  -9   3   44.57    5.77
  -1  -9   2  184.48   11.53
   1   9  -2  192.96   13.44
  -1   9   2  171.03   12.41
   1   9  -2  201.10   12.53
  -1  -9   1   34.50    5.65
  -1   9   1   34.74    6.10
   1   9  -1   32.24    5.72
   1   9  -1   33.52    6.58
   1   9   0   32.92    6.11
   1   9   0   36.90    6.10
  -1   9   0   35.43    6.10
  -1  -9   0   27.93    5.17
   1   9   1   -1.43    2.70
  -1   9  -1   -5.21    4.01
   1   9   1   -0.66    3.20
  -1   9  -1    4.18    3.63
  -1  -9  -1    1.04    3.06
   1   9   2   21.54    4.80
  -1   9  -2   22.64    5.64
  -1   9  -2   10.46    3.84
  -1  -9  -2   17.17    4.37
  -1   9  -3   -0.44    3.61
  -1  -9  -3    3.61    3.25
   1   9   3    0.30    2.76
  -1   9  -3    7.07    4.13
  -1   9  -4    8.49    4.09
  -1   9  -4    9.42    3.79
  -1  -9  -4   11.86    4.05
   1   9   4   15.95    4.66
   1   9   5   55.41    6.79
  -1   9  -5   56.63    8.02
   1  -9   5   54.42    6.77
  -1   9  -5   45.14    6.84
  -1  -9  -5   51.71    7.71
  -1   9  -6   22.77    5.83
   1  -9   6   17.48    4.70
  -1   9  -6   12.85    4.45
  -1  -9  -6   18.45    5.34
   1   9   6   12.15    3.65
   1   9   7    4.24    5.12
  -1   9  -7   -1.74    4.50
   1  -9   7   -4.31    3.06
  -1  -9  -7    2.44    3.42
  -1   9  -7    5.65    3.55
   1   9   7    4.97    3.15
  -1   9  -8   31.70    7.30
   1   9   8   21.36    6.31
   1  -9   8   19.87    5.16
  -1  -9  -8   17.12    4.67
  -1   9  -8   17.27    4.86
  -1   9  -9    8.20    5.21
   1   9   9    0.01    4.04
   1  -9   9   -1.97    3.19
  -1  -9  -9    0.67    3.41
   1  -9  10   -2.94    3.06
  -1  10   8   74.98    9.64
   1  10  -8   67.54    9.11
   1  10  -7   58.78    8.08
   1  10  -7   72.45   10.20
   1  10  -6   -3.44    3.21
  -1  10   6   -1.16    3.87
   1  10  -6   -2.21    3.48
   1  10  -5   16.47    5.04
  -1  10   5    2.15    3.68
   1  10  -5   10.53    4.77
   1  10  -4   12.09    5.47
   1  10  -4    4.27    3.59
  -1  10   4   10.55    5.11
  -1  10   3    4.32    4.36
   1  10  -3   12.14    4.82
   1  10  -3    2.37    4.13
  -1  10   2   40.31    7.15
   1  10  -2   35.50    6.27
  -1 -10   2   31.00    5.74
   1  10  -2   41.81    7.55
  -1  10   1   36.68    7.12
   1  10  -1   38.83    6.27
   1  10  -1   39.31    7.16
  -1 -10   1   31.62    5.73
   1  10   0   46.93    6.72
  -1  10   0   29.50    6.18
   1  10   0   27.66    6.36
  -1 -10   0   51.60    7.53
   1  10   1   29.13    5.92
  -1  10  -1   39.97    7.47
  -1 -10  -1   29.17    5.69
   1  10   2   15.82    4.95
  -1  10  -2   10.57    4.41
  -1  10  -2   13.39    4.55
  -1 -10  -2   22.81    5.83
  -1  10  -3    7.01    4.14
  -1  10  -3   10.75    5.28
   1  10   3    0.15    3.15
  -1 -10  -3    8.06    4.75
   1  10   4   -5.79    3.69
  -1  10  -4   -3.84    3.74
  -1  10  -4    2.28    3.90
  -1 -10  -4   -4.18    4.53
  -1  10  -5   60.97    8.94
  -1 -10  -5   58.61    8.60
  -1  10  -5   62.62    8.67
  -1  10  -6    6.35    4.52
  -1 -10  -6   -3.87    4.77
  -1  10  -6    0.28    3.29
   1  11  -5    5.52    3.53
  -1  11   4  139.81   13.21
   1  11  -4  123.83   11.68
  -1  11   3   43.95    8.28
   1  11  -3   28.01    5.69
   1  11  -3   37.14    7.92
  -1  11   2   -4.00    4.80
   1  11  -2   -4.52    4.18
   1  11  -2   -3.97    4.17
   1  11  -1   40.95    7.08
  -1  11   1   40.35    7.66
   1  11  -1   41.40    8.00
  -1 -11   1   46.77    7.11
   1  11   0    6.50    3.83
  -1  11   0    7.34    4.23
  -1  11  -1    5.44    4.35
  -1 -11  -1    5.95    3.41
  -1 -11  -2   12.14    4.67
  -1  11  -2   23.89    6.24
  -1  11  -3    1.38    3.12
  -1 -11  -3    4.40    3.61
  -1  11  -4   40.42    7.30
  -1  11  -5   -1.29    3.60
  -2   0  16   34.12    7.66
   2   0 -16   56.88    8.93
  -2   0  15   -6.36    4.67
   2   0 -15   -4.63    4.93
  -2   0  14   -1.26    4.46
   2   0 -14   -4.04    4.41
  -2   0  13    9.64    4.80
   2   0 -13    8.17    4.57
   2   0 -12  208.24   12.90
   2   0 -11    4.17    3.35
   2   0 -10   49.98    6.01
   2   0  -9    2.41    3.17
   2   0  -8  807.10   19.43
   2   0  -7   -1.69    2.41
   2   0  -6   26.37    3.55
   2   0  -5    1.11    2.09
   2   0  -4    7.59    2.23
  -2   0   3   -0.27    1.30
   2   0  -3    1.52    1.44
   2   0  -2 1205.98   18.87
   2   0  -2 1222.31   12.55
   2   0  -2 1200.88   13.71
  -2   0   2 1187.22   12.80
  -2   0   1    1.59    0.85
   2   0  -1    0.44    1.94
   2   0  -1    0.28    1.19
   2   0  -1    1.54    0.95
   2   0   0  101.23    5.79
  -2   0   0  110.78    3.02
   2   0   0  113.33    2.72
   2   0   0  108.79    4.95
   2   0   1    0.04    1.95
  -2   0  -1    1.03    0.71
   2   0   1   -0.04    1.48
   2   0   1    1.15    1.63
  -2   0  -2  262.41    3.64
   2   0   2  273.81    8.82
  -2   0  -2  263.81    8.31
   2   0   2  255.67    9.06
   2   0   2  267.59    8.81
   2   0   3   -1.84    1.88
  -2   0  -3   -3.04    1.73
   2   0   3    2.24    1.90
  -2   0  -3   -0.48    0.61
   2   0   3   -1.38    1.99
   2   0   4 1476.97   23.22
   2   0   4 1455.70   23.08
   2   0   4 1464.77   22.46
  -2   0  -4 1458.55   19.65
  -2   0  -4 1453.59   14.55
   2   0   5   -1.79    2.84
  -2   0  -5    0.39    1.46
   2   0   5    0.37    1.88
  -2   0  -5   -0.65    1.08
  -2   0  -6 1062.24   16.04
   2   0   6 1078.75   21.61
  -2   0  -6 1028.05   16.75
   2   0   6 1028.37   21.98
  -2   0  -7    1.28    1.46
   2   0   7    0.25    3.07
   2   0   7    2.98    2.28
  -2   0  -7   -0.93    1.43
   2   0   8  365.71   14.78
   2   0   8  392.07   14.96
  -2   0  -8  385.75   11.77
   2   0   9    2.95    3.93
   2   0   9   -1.57    2.35
  -2   0  -9   -0.39    2.03
   2   0  10  459.11   17.92
   2   0  10  453.93   17.73
  -2   0 -10  480.82   15.09
   2   0  11    0.10    4.04
   2   0  11   -1.56    2.73
   2   0  12   58.14    7.65
   2   0  12   52.14    7.06
   2   0  13    0.79    4.23
   2   0  13    5.06    3.53
   2   0  14   50.91    7.84
   2   0  14   50.73    7.77
   2   0  15   -4.90    3.97
  -2  -1  16   18.25    5.53
  -2   1  16   11.88    4.98
   2   1 -16   21.17    6.30
   2  -1 -16   17.78    5.69
  -2  -1  15    0.37    3.88
  -2   1  15    8.97    4.92
   2   1 -15    4.48    3.93
   2  -1 -15    6.85    4.04
   2  -1 -14  115.91   10.77
  -2  -1  14  128.84   12.38
  -2   1  14  122.26   11.95
   2   1 -14  119.51   10.99
  -2  -1  13  131.65   12.04
   2   1 -13  116.80   10.15
   2  -1 -13  118.87   10.35
  -2  -1  12  147.13   12.23
   2   1 -12  153.61   11.15
   2  -1 -12  151.20   10.93
   2   1 -11  106.51    9.22
   2  -1 -11  118.78    9.34
   2   1 -10   35.79    5.46
   2  -1 -10   24.47    4.68
   2  -1  -9    0.62    3.04
   2   1  -9    3.59    3.26
   2   1  -8  114.62    7.95
   2  -1  -8  125.02    7.90
   2   1  -7  187.19    9.25
   2  -1  -7  179.67    8.73
   2  -1  -6   75.34    5.50
   2   1  -6   86.47    6.08
  -2   1   6   71.24    1.86
  -2   1   6   72.15    5.47
   2  -1  -5   71.63    4.90
   2   1  -5   67.65    4.97
  -2   1   5   78.18    5.17
  -2   1   4   97.87    5.44
   2   1  -4  108.06    2.41
   2  -1  -4  104.11    5.26
   2   1  -4  112.56    5.75
   2   1  -3  426.91    6.50
   2  -1  -3  436.24   12.27
   2   1  -3  425.51   10.09
   2  -1  -3  414.02    9.08
  -2   1   3  408.83    9.60
   2  -1  -2  144.80    6.89
   2   1  -2  147.21    5.55
   2  -1  -2  142.19    4.63
  -2   1   2  144.51    5.33
   2   1  -2  144.94    4.54
  -2   1   1    3.83    1.41
   2  -1  -1    1.55    1.96
   2   1  -1    4.05    1.79
   2  -1  -1    3.47    0.95
   2   1  -1    4.88    1.39
   2   1  -1    3.01    1.32
   2  -1   0  570.47   13.35
   2   1   0  544.18   11.97
   2   1   0  575.19   11.22
   2   1   0  566.03    8.66
  -2   1   0  562.54    9.38
   2   1   1   66.26    4.41
  -2   1  -1   62.68    3.34
   2  -1   1   63.32    4.23
   2  -1   1   67.01    4.89
   2  -1   1   63.50    4.92
   2   1   1   70.40    3.03
   2   1   1   65.73    4.30
  -2  -1  -1   63.65    4.61
   2  -1   2   66.74    5.11
   2   1   2   66.27    4.48
   2  -1   2   67.96    4.89
  -2  -1  -2   59.83    4.45
   2   1   2   70.00    4.13
   2  -1   2   68.83    4.95
   2   1   2   66.35    4.67
   2   1   3  514.42   12.42
   2  -1   3  534.69   13.44
   2  -1   3  528.69   14.00
  -2   1  -3  523.76    6.00
   2   1   3  520.66   11.66
   2  -1   3  529.37   13.80
  -2  -1  -3  524.33   12.66
   2   1   3  518.34   13.34
   2  -1   4  399.55   12.45
   2   1   4  389.55   10.81
   2  -1   4  383.46   12.59
   2  -1   4  352.80   11.84
  -2   1  -4  351.25    6.75
  -2   1  -4  358.64    9.13
  -2  -1  -4  378.82   10.91
   2   1   4  379.21   12.36
  -2  -1  -5   32.23    3.70
   2  -1   5   41.57    5.10
   2   1   5   35.26    5.04
   2  -1   5   36.77    4.46
   2   1   5   36.17    3.92
  -2   1  -5   36.51    3.02
  -2  -1  -5   33.90    2.97
  -2   1  -5   35.89    2.75
  -2  -1  -6    5.33    2.19
  -2   1  -6    6.05    1.52
   2  -1   6    7.20    3.42
   2   1   6    5.30    3.64
  -2   1  -6    6.63    1.75
   2  -1   6    7.51    2.93
   2   1   6    4.58    2.35
  -2  -1  -6    4.40    1.70
   2  -1   7  301.68   12.80
   2  -1   7  308.78   13.17
   2   1   7  324.25   12.15
   2   1   7  319.26   13.13
  -2   1  -7  317.58    9.66
  -2  -1  -7  319.35   10.55
  -2  -1  -7  313.18   10.01
  -2  -1  -8   10.02    2.61
  -2   1  -8    7.52    2.04
   2  -1   8    6.91    2.89
   2   1   8   11.20    3.11
   2   1   8    7.06    3.92
   2  -1   8    6.13    3.72
  -2  -1  -8   12.32    2.62
   2  -1   9   26.27    5.21
   2   1   9   27.65    5.55
   2  -1   9   26.43    4.66
   2   1   9   28.24    4.79
  -2   1  -9   29.74    3.77
  -2  -1  -9   23.18    3.70
  -2  -1 -10    3.87    2.08
   2   1  10    2.53    3.91
   2  -1  10    9.82    4.28
   2   1  10    7.10    3.23
   2  -1  11   40.07    6.58
   2   1  11   37.06    6.26
   2  -1  11   39.97    6.21
   2   1  11   39.45    5.74
   2   1  12   10.10    5.04
   2  -1  12    3.60    3.38
   2   1  12   11.91    4.05
   2  -1  13    2.99    3.70
   2   1  13    3.88    3.21
   2   1  13    2.43    3.79
   2   1  14   14.37    4.95
   2  -1  14   14.14    5.12
   2   1  14   13.13    4.30
   2   1  15   52.34    8.15
   2  -1  15   46.37    7.87
  -2   2  16   65.16    9.66
  -2  -2  15   22.19    6.46
  -2   2  15   21.04    6.17
   2   2 -15   30.36    6.37
   2  -2 -15   18.96    5.87
   2   2 -14   17.02    5.29
  -2  -2  14   21.13    5.66
  -2   2  14   31.71    7.22
   2  -2 -14   21.58    5.62
   2  -2 -13   -3.88    4.26
  -2  -2  13    3.81    4.19
   2   2 -13   -2.62    3.88
   2   2 -12    9.49    3.97
  -2  -2  12    9.71    4.93
   2  -2 -12    8.42    3.84
  -2  -2  11  157.07   12.05
   2   2 -11  147.02   10.51
   2  -2 -11  144.81   10.28
   2   2 -10   34.59    5.75
  -2  -2  10   31.26    6.27
   2  -2 -10   25.89    4.73
   2   2  -9   28.14    4.63
   2  -2  -9   36.47    5.12
   2   2  -8    3.20    2.99
  -2   2   8    5.32    3.35
   2  -2  -8    3.28    2.59
   2   2  -7  206.53   10.06
  -2   2   7  202.00    5.60
   2  -2  -7  193.96    9.16
  -2   2   7  197.88    9.74
   2  -2  -6  586.62   14.60
   2   2  -6  584.47   15.58
  -2   2   6  577.28   15.36
   2   2  -5  348.31   11.42
   2  -2  -5  341.75   10.35
  -2   2   5  331.51   11.06
   2  -2  -4  109.28    6.70
  -2   2   4   96.72    5.66
   2   2  -4   92.94    5.70
   2  -2  -4  101.14    5.30
   2  -2  -3  536.94   13.78
   2  -2  -3  546.05   10.82
  -2   2   3  539.41   12.24
   2   2  -3  560.38    9.33
   2   2  -3  540.41   12.62
  -2   2   2  108.74    5.41
  -2  -2   2  114.00    6.33
   2  -2  -2  115.98    6.46
   2   2  -2  110.16    5.60
   2   2  -2  109.27    4.68
   2   2  -1 1971.04   22.01
   2  -2  -1 2030.19   26.03
  -2  -2   1 1975.25   25.00
   2   2  -1 1998.03   21.27
   2   2  -1 2019.89   21.12
  -2   2   1 1992.58   21.60
   2   2  -1 1984.32   10.53
  -2   2   0  805.55   13.56
   2  -2   0  780.14   16.42
   2   2   0  814.10   12.98
  -2  -2   0  796.29   16.13
   2   2   0  827.40   14.64
   2   2   0  768.73   13.37
   2  -2   0  811.83   16.53
   2  -2   1  194.07    8.64
   2   2   1  198.50    6.79
   2  -2   1  208.12    8.81
   2   2   1  209.91    6.62
  -2  -2  -1  218.51    8.71
   2   2   1  201.06    7.88
  -2   2  -1  212.48    7.15
   2  -2   2  101.77    6.39
   2   2   2   98.08    4.99
   2   2   2  104.53    4.33
   2  -2   2   95.99    6.26
  -2   2  -2  105.54    5.37
  -2  -2  -2  103.63    6.31
  -2   2  -2  101.34    2.73
   2   2   2  109.22    6.37
   2  -2   3  782.86   18.01
   2   2   3  756.69   12.51
   2  -2   3  779.65   17.93
  -2  -2  -3  802.12   16.82
  -2   2  -3  766.32    9.02
   2   2   3  775.56   14.26
   2   2   3  790.56   17.24
  -2   2  -4  153.21    4.94
   2  -2   4  147.58    8.30
  -2  -2  -4  155.74    7.79
   2   2   4  155.48    6.27
   2   2   4  159.94    8.50
   2  -2   4  168.43    8.98
  -2   2  -5   77.31    4.09
   2   2   5   77.93    6.70
   2  -2   5   70.18    6.27
   2   2   5   85.44    5.10
  -2  -2  -5   83.64    5.99
  -2   2  -5   78.39    4.04
   2  -2   6   54.22    5.90
   2   2   6   51.18    4.37
   2   2   6   52.83    5.86
  -2   2  -6   53.13    3.13
  -2   2  -6   54.27    3.83
  -2  -2  -6   51.59    4.82
   2  -2   7  187.13   10.93
   2   2   7  203.14    9.06
  -2  -2  -7  194.76    9.26
  -2   2  -7  195.83    7.80
   2   2   7  193.27   10.79
   2  -2   8  191.18   11.34
   2   2   8  204.61    9.79
  -2  -2  -8  211.38    9.91
  -2   2  -8  210.01    8.81
  -2  -2  -8  198.97    9.15
   2   2   8  201.99   11.38
  -2  -2  -9  308.66   12.08
   2  -2   9  296.36   14.78
   2   2   9  307.90   12.78
  -2  -2  -9  328.71   12.50
   2   2   9  299.83   14.35
   2   2  10   67.63    6.66
   2  -2  10   54.97    7.07
   2   2  10   69.74    7.74
  -2  -2 -10   77.68    6.68
   2   2  11    6.55    4.52
   2  -2  11   18.02    4.86
   2   2  11   18.84    4.15
  -2  -2 -11    9.02    3.19
   2  -2  12    9.35    4.40
   2   2  12   18.28    5.60
   2   2  13   65.26    8.63
   2  -2  13   60.67    8.45
   2   2  14    3.30    5.03
   2  -2  14    5.43    4.01
   2   2  15   -0.65    4.32
  -2   3  16    9.10    4.67
  -2  -3  15    4.31    4.46
  -2   3  15    5.66    4.98
   2  -3 -15    7.25    4.31
   2   3 -15    2.00    4.01
   2   3 -14  126.16   11.44
  -2  -3  14  153.31   13.42
   2  -3 -14  136.45   11.53
  -2  -3  13    7.88    4.77
   2   3 -13    5.30    4.10
   2  -3 -13    8.53    4.17
   2   3 -12   41.49    6.48
  -2  -3  12   45.80    7.28
   2  -3 -12   41.08    6.41
  -2  -3  11    2.19    3.48
   2   3 -11    0.08    3.32
   2  -3 -11   -0.30    3.04
  -2  -3  10  147.88   11.21
   2   3 -10  134.40   10.06
   2  -3 -10  143.30    9.89
  -2  -3   9  543.54   19.53
  -2  -3   9  536.47   13.79
   2   3  -9  524.71   18.37
   2  -3  -9  512.82   17.11
  -2   3   9  532.40   18.25
  -2   3   8  182.27   10.54
  -2  -3   8  200.28   11.82
  -2   3   8  194.32    7.12
   2   3  -8  191.27   10.66
  -2  -3   8  197.82    8.51
   2  -3  -8  198.75   10.32
   2  -3  -7    2.39    2.48
   2   3  -7    6.19    3.38
  -2  -3   7    0.14    1.61
  -2   3   7   -1.46    3.02
  -2  -3   6   73.04    5.32
   2   3  -6   72.99    6.36
   2  -3  -6   63.34    5.30
  -2   3   6   65.15    6.09
  -2   3   5   43.00    4.90
   2  -3  -5   54.00    5.06
   2   3  -5   42.60    4.93
  -2  -3   5   45.59    4.27
   2  -3  -4 2057.85   27.96
   2   3  -4 2035.65   28.38
  -2  -3   4 2077.29   26.68
  -2   3   4 2074.08   27.74
   2  -3  -3  924.48   18.45
  -2   3   3  914.12   17.71
  -2  -3   3  928.96   18.01
   2   3  -3  943.87   18.32
   2   3  -2 1899.46   24.90
  -2  -3   2 1853.05   25.58
   2  -3  -2 1839.78   25.88
  -2   3   2 1833.26   24.40
   2   3  -1  221.30    7.30
  -2   3   1  227.65    8.49
  -2  -3   1  227.00    9.35
   2   3  -1  233.71    8.48
   2   3  -1  203.87    5.03
   2  -3  -1  223.31    9.19
   2  -3   0  165.97    8.05
   2   3   0  161.05    5.86
   2   3   0  158.74    4.03
   2  -3   0  161.60    8.23
  -2  -3   0  157.88    7.97
   2   3   0  156.87    6.84
   2   3   0  152.44    7.08
  -2   3   0  155.22    7.08
   2  -3   1 1017.64   19.98
   2   3   1  990.79   14.13
  -2   3  -1 1035.13   17.91
   2  -3   1 1009.12   20.42
  -2  -3  -1 1043.87   20.23
   2   3   1 1045.59   17.25
   2   3   1 1033.35   18.76
   2   3   1 1020.17   10.37
   2  -3   2  137.17    7.83
   2   3   2  133.20    5.20
  -2   3  -2  132.75    6.90
   2  -3   2  137.19    7.86
  -2  -3  -2  136.67    7.66
   2   3   2  121.72    6.17
  -2   3  -2  136.06    4.67
   2   3   2  136.03    7.37
   2   3   2  131.24    4.33
   2  -3   3  471.88   14.78
  -2   3  -3  482.41   13.33
   2   3   3  476.77    8.11
   2  -3   3  473.01   14.85
   2   3   3  476.12   14.20
  -2  -3  -3  479.77   14.27
  -2   3  -3  466.00    9.04
   2   3   3  457.46    9.95
  -2  -3  -4   51.13    5.20
   2   3   4   41.86    5.47
   2   3   4   45.36    2.97
   2  -3   4   53.28    5.75
  -2   3  -4   45.69    3.25
  -2  -3  -5    8.49    2.97
   2   3   5    5.12    1.47
   2  -3   5    5.70    3.15
   2   3   5    5.56    3.48
  -2   3  -5    5.21    1.73
   2  -3   6  235.77   12.22
   2   3   6  247.84    8.57
  -2  -3  -6  241.70   10.79
  -2   3  -6  235.13    8.39
   2   3   6  240.56   11.69
   2   3   7   52.60    4.50
   2   3   7   50.62    6.39
   2  -3   7   53.38    6.63
  -2   3  -7   43.91    4.26
  -2  -3  -7   51.77    5.57
   2  -3   8  477.81   18.71
   2   3   8  529.91   14.81
  -2  -3  -8  540.34   17.00
   2   3   8  517.76   18.25
   2   3   9   29.93    5.84
   2  -3   9   34.69    5.84
  -2  -3  -9   36.17    4.57
  -2  -3  -9   38.81    5.01
   2   3  10   16.18    5.32
   2  -3  10    9.29    3.57
  -2  -3 -10   13.46    3.55
  -2  -3 -10   16.10    3.37
   2   3  11    3.56    3.82
   2  -3  11   12.17    4.64
  -2  -3 -11    7.69    2.98
   2  -3  12    2.67    3.26
   2   3  12   -2.76    4.66
  -2  -3 -12   -1.19    2.81
   2  -3  13  185.00   14.27
   2   3  13  193.37   13.77
   2   3  14   25.41    6.72
   2  -3  14    8.97    4.86
  -2  -4  15    0.79    4.22
   2   4 -15    1.32    3.59
   2  -4 -15    3.82    3.65
  -2  -4  14   19.87    5.91
   2   4 -14   31.66    6.37
   2  -4 -14   37.72    6.68
   2   4 -13    1.69    3.59
  -2  -4  13    4.98    4.08
   2  -4 -13    0.41    3.17
  -2  -4  12   49.16    7.68
   2   4 -12   51.11    7.42
   2  -4 -12   49.72    6.77
  -2  -4  11    2.23    3.21
   2   4 -11    3.91    3.88
   2  -4 -11   -1.75    3.53
   2  -4 -10   44.04    6.08
  -2  -4  10   26.23    5.46
   2   4 -10   35.71    5.90
  -2   4  10   40.44    6.48
  -2   4   9    4.92    3.35
   2   4  -9    4.22    3.68
  -2  -4   9    1.39    3.42
   2  -4  -9    3.32    2.61
   2   4  -8  190.69   11.38
  -2  -4   8  184.92   11.04
  -2  -4   8  193.82    8.50
   2  -4  -8  181.88   10.24
  -2   4   8  176.57   10.89
   2  -4  -7  168.59    9.38
  -2  -4   7  171.35   10.09
  -2  -4   7  185.82    8.50
   2   4  -7  170.82   10.29
  -2   4   7  177.10   10.32
  -2   4   6    3.83    3.15
   2  -4  -6    0.66    2.09
   2   4  -6    5.64    3.30
  -2  -4   6    3.01    2.30
  -2  -4   6    2.59    2.85
  -2   4   5   39.06    5.10
   2  -4  -5   51.07    4.94
  -2  -4   5   50.26    5.24
  -2  -4   5   50.20    4.76
   2   4  -5   43.64    5.38
   2   4  -4 1711.92   28.02
  -2  -4   4 1696.57   24.06
   2  -4  -4 1742.27   26.60
  -2  -4   4 1748.84   25.92
  -2   4   4 1699.20   27.56
   2  -4  -3  249.91   10.05
  -2  -4   3  257.49    8.59
  -2  -4   3  249.89   10.10
   2   4  -3  246.15   10.53
  -2   4   3  245.58   10.49
   2  -4  -2   54.70    4.94
  -2   4   2   48.26    4.95
  -2  -4   2   44.66    4.75
  -2  -4   2   54.03    3.57
   2   4  -2   48.12    4.97
   2   4  -2   50.39    3.60
   2  -4  -1    2.86    2.01
  -2   4   1    1.26    2.32
   2   4  -1    4.39    1.42
  -2  -4   1    6.35    2.64
   2   4  -1    4.62    1.68
  -2  -4   1    8.31    1.48
   2   4  -1    4.79    2.75
   2  -4   0  205.48    9.39
   2   4   0  190.67    6.02
   2  -4   0  202.25    9.66
  -2  -4   0  197.24    3.73
  -2  -4   0  202.50    9.70
   2   4   0  203.19    8.91
   2   4   0  202.48    6.10
  -2   4   0  199.30    8.99
   2   4   1  145.78    4.90
   2  -4   1  142.39    8.23
  -2  -4  -1  158.76    8.76
  -2   4  -1  132.72    5.72
   2   4   1  134.31    7.21
   2   4   1  147.31    8.02
   2   4   1  134.84    4.94
  -2   4  -1  143.25    7.83
   2  -4   1  141.97    8.09
   2  -4   2  168.92    9.03
   2   4   2  144.63    4.64
   2  -4   2  155.34    8.91
  -2  -4  -2  158.82    8.85
   2   4   2  167.80    8.09
  -2   4  -2  148.09    6.04
   2   4   2  166.59    8.94
   2   4   2  150.84    5.51
  -2   4  -2  169.00    8.68
   2  -4   3  400.25   14.13
   2  -4   3  399.29   14.46
  -2  -4  -3  389.13   13.92
  -2   4  -3  399.24   10.04
   2   4   3  387.71   13.80
   2   4   3  401.33    9.61
  -2   4  -3  391.07   13.31
  -2  -4  -4    0.83    3.02
  -2   4  -4    4.00    2.89
   2   4   4   -3.97    3.37
   2  -4   4   -1.20    2.85
  -2   4  -4    2.98    1.57
   2   4   4    2.58    1.50
   2  -4   5  104.90    8.26
  -2  -4  -5  112.89    8.19
  -2   4  -5  117.81    6.17
   2   4   5  120.97    8.76
  -2   4  -6  443.83   12.49
   2  -4   6  449.60   17.26
  -2  -4  -6  455.35   16.07
   2   4   6  452.68   16.53
   2  -4   7  193.06   11.91
  -2  -4  -7  206.33   11.21
   2   4   7  176.04   11.34
   2   4   8  125.80    9.91
   2  -4   8  119.49   10.06
  -2  -4  -8  121.56    8.95
   2   4   9   23.12    5.50
   2  -4   9   28.73    5.72
  -2  -4  -9   23.85    4.18
   2   4  10    2.06    4.08
  -2  -4 -10    1.87    2.58
   2  -4  10    5.42    3.77
  -2  -4 -10    2.09    2.39
   2   4  11    7.44    4.68
  -2  -4 -11   20.09    4.21
   2  -4  11   15.47    4.95
   2  -4  12    5.24    4.13
  -2  -4 -12    4.08    2.77
   2   4  13    1.16    3.73
   2  -4  13    6.75    4.61
   2   4  14   79.20    9.84
   2   5 -14   34.95    7.06
  -2  -5  14   20.94    5.83
   2  -5 -14   27.35    6.28
   2   5 -13   23.29    5.75
  -2  -5  13    9.59    4.76
   2  -5 -13   18.33    5.64
  -2  -5  12   -5.12    3.79
   2   5 -12    0.40    3.72
   2  -5 -12   -2.40    3.21
  -2  -5  11   22.87    5.30
   2  -5 -11   32.56    5.64
   2   5 -11   24.00    5.66
  -2   5  11   17.17    5.41
  -2  -5  10    8.90    3.60
   2   5 -10   11.98    4.59
   2  -5 -10   10.11    3.66
  -2   5  10   14.75    4.37
   2  -5 -10   12.29    3.88
   2  -5  -9   15.66    3.87
  -2  -5   9   16.32    4.08
   2   5  -9   18.58    5.28
  -2   5   9   10.35    4.10
   2  -5  -9   11.79    3.91
   2  -5  -8    4.72    2.79
  -2  -5   8    3.96    2.53
   2   5  -8    5.34    3.43
  -2   5   8    8.98    4.22
   2  -5  -7   95.00    7.24
   2   5  -7  103.50    8.63
  -2  -5   7   89.83    7.50
  -2  -5   7   99.05    6.62
  -2   5   7  102.91    8.72
  -2   5   6    3.83    3.65
   2  -5  -6    0.89    2.03
  -2  -5   6    2.63    2.05
  -2  -5   6   -0.26    2.08
   2   5  -6   -1.41    3.59
   2  -5  -5  395.76   13.34
  -2  -5   5  387.42   12.71
  -2  -5   5  402.25   13.12
   2   5  -5  350.02   14.59
  -2   5   5  389.90   14.93
   2  -5  -4   79.83    6.02
  -2   5   4   74.82    6.76
  -2  -5   4   77.55    5.35
  -2  -5   4   93.00    6.61
   2   5  -4   84.29    7.37
  -2  -5   3    5.57    1.56
  -2   5   3   14.94    4.04
   2  -5  -3   12.40    2.92
  -2  -5   3    6.39    2.54
   2   5  -3   13.02    2.62
   2   5  -3   11.25    3.48
   2  -5  -2  404.23   13.16
  -2  -5   2  382.42    8.70
  -2  -5   2  383.24   13.56
   2   5  -2  379.04   13.74
  -2   5   2  391.29   14.06
   2   5  -2  402.45   10.94
   2  -5  -1  173.58    8.80
   2   5  -1  174.55    6.23
  -2  -5   1  160.21    9.22
   2   5  -1  166.76    9.15
  -2   5   1  161.56    9.21
   2   5  -1  170.79    6.89
   2  -5   0    5.47    2.45
  -2  -5   0   11.00    3.70
   2   5   0    6.05    1.87
  -2   5   0    8.42    2.94
   2  -5   0    6.51    2.89
   2   5   0    1.39    2.64
   2  -5   1  171.00    9.16
  -2  -5  -1  192.63   10.67
   2  -5   1  169.86    9.59
  -2   5  -1  181.10    7.86
   2   5   1  173.86    9.24
   2   5   1  194.39    7.08
  -2   5  -1  177.99    9.57
   2  -5   2  506.16   16.00
   2   5   2  546.45   11.98
   2  -5   2  552.27   17.20
  -2  -5  -2  517.75   17.00
   2   5   2  572.48   16.41
   2   5   2  530.13   16.64
  -2   5  -2  524.07   13.12
  -2   5  -2  559.73   16.84
  -2  -5  -3   60.84    6.46
   2   5   3   60.98    6.48
   2  -5   3   69.17    6.77
  -2   5  -3   55.69    6.00
  -2   5  -3   54.94    4.42
   2   5   3   70.85    4.61
   2   5   4  259.83    9.20
   2  -5   4  258.12   12.80
  -2  -5  -4  250.13   12.48
  -2   5  -4  238.05   11.96
  -2   5  -4  240.16    9.38
   2   5   4  251.77   12.45
   2  -5   5  774.81   22.63
  -2  -5  -5  838.82   22.76
  -2   5  -5  803.46   17.62
   2   5   5  791.84   22.22
   2   5   5  838.94   17.53
  -2   5  -5  828.55   22.52
   2  -5   6   27.72    5.21
   2   5   6   26.72    5.48
  -2  -5  -6   25.52    4.62
   2   5   7   94.81    9.02
   2  -5   7   95.01    9.00
  -2  -5  -7   88.60    8.20
   2  -5   8  276.18   15.34
  -2  -5  -8  272.66   14.07
   2   5   8  258.35   14.13
   2  -5   9   -4.77    4.23
   2   5   9    4.63    4.42
  -2  -5  -9    3.52    2.92
   2  -5  10   27.89    6.50
  -2  -5 -10   36.52    5.90
   2   5  10   31.25    6.37
   2   5  11   36.46    7.06
   2  -5  11   47.06    7.75
  -2  -5 -11   37.37    5.87
  -2  -5 -11   38.17    5.88
   2   5  12   26.37    6.44
  -2  -5 -12   25.38    5.10
   2   5  13    2.17    3.96
  -2  -6  14    7.53    4.35
  -2  -6  13   92.40   10.67
   2   6 -13   96.41   10.99
   2  -6 -13  100.14   10.22
  -2  -6  12    8.13    5.03
   2   6 -12    8.14    4.62
  -2   6  12    4.68    4.41
   2  -6 -12    5.95    4.15
  -2  -6  11   27.32    6.01
   2   6 -11   15.66    5.25
  -2   6  11   18.04    5.13
   2  -6 -11   31.18    5.60
   2   6 -10  168.72   12.66
  -2  -6  10  164.47   12.00
   2  -6 -10  178.92   11.95
  -2   6  10  190.29   13.31
  -2  -6   9    1.54    3.19
   2   6  -9   -4.45    4.08
  -2   6   9    0.25    3.46
  -2  -6   8   45.00    5.74
   2   6  -8   43.90    6.59
  -2   6   8   47.35    6.68
  -2   6   7    6.59    3.50
   2  -6  -7    5.83    2.43
  -2  -6   7   11.49    3.65
   2   6  -7   10.28    3.91
  -2   6   6   36.46    6.11
  -2  -6   6   31.00    4.09
   2  -6  -6   36.84    4.45
  -2  -6   6   37.01    4.68
   2   6  -6   30.15    5.70
  -2   6   5   23.96    5.42
  -2  -6   5   16.54    3.53
   2  -6  -5   18.37    3.34
   2   6  -5   17.49    3.70
  -2  -6   5   25.08    3.60
   2   6  -5   19.69    4.89
  -2   6   4   14.31    4.50
  -2  -6   4   11.02    2.98
   2  -6  -4   17.91    3.28
   2   6  -4   16.05    3.43
   2   6  -4   14.14    4.33
   2  -6  -3  139.87    8.06
   2   6  -3  128.76    7.53
  -2  -6   3  134.01    8.59
   2   6  -3  133.36    9.57
  -2   6   3  141.29    9.62
   2  -6  -2  671.09   17.48
  -2  -6   2  627.47   18.36
   2   6  -2  672.57   20.05
  -2   6   2  659.04   19.93
   2   6  -2  638.73   15.53
  -2  -6   1   52.02    6.00
   2  -6  -1   56.97    5.30
  -2   6   1   65.08    6.81
   2   6  -1   60.56    6.39
   2   6  -1   64.75    5.07
   2  -6   0  210.15   10.23
  -2  -6   0  206.18   11.12
   2   6   0  213.74   11.29
   2   6   0  223.58    8.89
  -2   6   0  202.77   11.17
   2  -6   1  133.07    8.40
   2  -6   1  128.78    8.88
  -2  -6  -1  146.85    9.71
  -2   6  -1  133.10    7.62
   2   6   1  131.28    9.02
   2   6   1  132.83    6.88
  -2   6  -1  119.96    8.71
  -2  -6  -2   25.03    5.03
   2   6   2   22.33    3.12
  -2   6  -2   23.04    5.02
   2  -6   2   16.41    3.63
   2   6   2   17.64    4.27
  -2   6  -2   18.71    3.19
   2   6   3  109.40    8.82
   2  -6   3   91.54    7.70
  -2  -6  -3  100.64    8.71
  -2   6  -3   89.12    6.42
   2   6   3   89.94    5.78
  -2   6  -3   87.17    7.91
   2   6   4  341.61   11.53
   2   6   4  312.73   14.84
   2  -6   4  354.13   15.49
  -2  -6  -4  338.41   15.36
  -2   6  -4  327.63   12.32
  -2   6  -4  309.23   14.54
  -2   6  -5   19.49    3.66
  -2   6  -5    6.85    3.48
   2   6   5    8.49    4.26
   2  -6   5    7.83    3.78
   2   6   5   12.32    2.70
  -2  -6  -5   15.71    4.37
  -2   6  -6   23.74    5.41
   2   6   6   25.69    5.30
   2  -6   6   17.20    4.36
  -2  -6  -6   25.21    5.34
  -2   6  -7   25.65    5.75
   2  -6   7   17.15    4.98
   2   6   7   20.59    5.65
  -2  -6  -7   16.94    4.53
   2   6   8  157.16   11.86
   2  -6   8  167.85   12.75
  -2  -6  -8  165.30   11.82
   2  -6   9   -2.18    3.15
  -2  -6  -9   -3.04    3.13
   2   6   9   -1.75    4.58
  -2  -6 -10   14.32    4.79
   2  -6  10    8.02    3.59
   2  -6  11   11.55    4.26
  -2  -6 -11    2.94    3.24
   2   6  11   10.46    4.80
   2   6  12   50.93    8.48
   2  -6  12   69.17    9.31
  -2  -6 -12   63.46    7.95
  -2  -7  13    6.86    4.27
  -2   7  12   60.59    9.12
  -2  -7  12   58.74    8.32
   2   7 -12   50.24    8.22
   2  -7 -12   51.05    7.43
  -2  -7  11    3.39    3.32
   2   7 -11    4.04    3.82
  -2   7  11    5.35    4.66
   2  -7 -11   -4.26    4.21
  -2  -7  10    4.30    3.39
   2   7 -10    7.43    4.22
  -2   7  10    1.83    4.32
   2   7  -9   -1.88    3.72
  -2   7   9   -1.25    3.50
   2   7  -8    7.07    3.77
  -2   7   8    0.58    3.95
   2   7  -7  260.26   15.22
  -2   7   7  238.78   14.33
  -2  -7   6    0.14    2.01
  -2   7   6    5.61    3.92
   2   7  -6    4.28    2.98
   2   7  -6    4.86    4.42
  -2  -7   5   19.61    3.97
  -2   7   5   10.54    4.00
   2   7  -5   23.56    4.13
   2   7  -5    8.76    4.28
  -2  -7   4   -0.62    2.34
  -2   7   4    1.39    3.55
   2   7  -4    1.83    2.50
   2   7  -4    3.44    4.26
  -2   7   3   49.05    6.86
   2   7  -3   50.16    5.41
  -2  -7   3   71.08    6.82
   2   7  -3   56.85    7.48
   2  -7  -3   67.12    5.87
   2  -7  -2  134.79    8.18
   2   7  -2  124.27    7.80
  -2  -7   2  137.26    9.56
   2   7  -2  120.98    9.66
  -2   7   2  141.73   10.33
  -2  -7   1   60.44    6.70
   2  -7  -1   52.35    5.28
  -2   7   1   49.87    6.37
   2   7  -1   55.06    6.73
   2   7  -1   54.11    5.34
   2  -7   0   78.29    6.54
  -2  -7   0   70.15    7.24
  -2   7   0   76.58    7.77
   2   7   0   57.43    6.84
   2   7   0   84.27    6.35
   2  -7   1  122.38    8.93
  -2  -7  -1  134.01   10.04
   2   7   1  122.83    9.59
   2   7   1  121.86    7.41
  -2   7  -1  118.08    9.52
   2   7   2   21.35    3.48
  -2   7  -2   28.95    5.30
   2  -7   2   27.31    4.95
   2   7   2   32.17    5.33
  -2   7  -2   33.23    4.66
  -2  -7  -2   31.84    5.47
  -2   7  -3  156.40   11.16
   2  -7   3  142.70   10.19
  -2  -7  -3  162.52   11.44
  -2   7  -3  143.78    8.93
   2   7   4    3.19    4.55
  -2   7  -4    0.13    3.48
   2  -7   4   -0.76    2.59
  -2   7  -4   -1.52    2.45
  -2  -7  -4    4.13    4.10
  -2   7  -5    1.28    3.37
   2   7   5    2.54    4.15
   2  -7   5   -1.03    3.57
  -2  -7  -5    9.38    4.37
  -2   7  -6   24.40    5.47
   2   7   6   24.38    5.91
   2  -7   6   16.14    3.88
  -2  -7  -6   29.05    5.74
  -2  -7  -7   51.69    7.44
  -2   7  -7   60.07    7.99
   2   7   7   56.89    8.23
   2  -7   7   57.89    7.70
  -2   7  -8    2.28    3.91
   2  -7   8    5.88    4.13
   2   7   8   11.60    5.50
  -2  -7  -8   -3.24    3.65
  -2   7  -9   -0.65    3.64
   2  -7   9    6.24    4.35
   2   7   9   10.51    5.47
  -2  -7  -9   10.89    4.79
   2   7  10   20.45    6.28
  -2   7 -10   13.15    4.99
   2  -7  10    9.83    4.46
  -2  -7 -10   18.24    5.43
  -2   7 -11   58.49    8.85
   2  -7  11   43.53    7.97
  -2  -7 -11   49.87    7.60
  -2  -7 -12   15.21    5.15
   2   8 -11   37.64    7.90
  -2   8  11   38.30    7.34
   2  -8 -11   43.13    7.35
   2   8 -10   -3.42    3.79
  -2   8  10   -2.05    4.58
   2   8  -9    8.97    3.90
   2   8  -9   24.23    6.59
  -2   8   9   31.63    6.53
   2   8  -8   13.55    5.29
   2   8  -8   18.96    4.61
  -2   8   8   25.00    6.45
  -2   8   7   40.64    6.68
   2   8  -7   35.88    6.45
   2   8  -7   32.51    5.55
  -2   8   6    7.92    4.40
   2   8  -6   -2.19    3.08
   2   8  -6    6.32    4.67
  -2   8   5   86.63    9.06
  -2  -8   5   77.93    7.29
   2   8  -5   83.74    9.26
   2   8  -5   74.62    7.29
  -2   8   4    2.86    4.01
   2   8  -4    8.18    3.41
   2   8  -4   14.67    5.44
  -2  -8   4   14.10    4.06
  -2   8   3   30.41    5.82
  -2  -8   3   25.20    5.10
   2   8  -3   28.99    4.61
   2   8  -3   21.51    5.55
   2   8  -2   95.01    7.61
  -2  -8   2   90.63    8.45
   2   8  -2  108.87   10.08
  -2   8   2   93.21    9.38
  -2  -8   1  100.73    9.00
   2   8  -1   93.00    9.17
  -2   8   1  102.11    9.56
  -2   8   0   -2.99    3.44
   2   8   0    1.23    3.68
  -2  -8   0   -0.83    2.89
  -2   8  -1   44.79    6.80
   2   8   1   31.30    5.81
  -2  -8  -1   33.06    6.06
  -2   8  -2    7.31    4.18
   2  -8   2    9.37    3.33
  -2   8  -2   13.79    3.78
  -2  -8  -2    9.82    4.48
  -2   8  -3   53.20    7.38
   2  -8   3   57.29    6.94
  -2   8  -3   65.48    6.93
  -2  -8  -3   64.85    8.10
   2   8   4   14.71    5.17
  -2   8  -4   10.75    4.12
   2  -8   4    8.85    3.33
  -2  -8  -4   12.80    4.70
   2   8   5   85.53    9.53
  -2   8  -5   91.39    9.66
   2  -8   5   79.47    8.75
  -2  -8  -5   83.95    9.78
  -2   8  -6   32.77    6.75
   2   8   6   37.03    7.10
   2  -8   6   34.10    6.17
  -2  -8  -6   32.08    6.58
  -2   8  -7    8.54    4.86
   2   8   7   14.15    5.73
   2  -8   7    1.26    3.37
  -2  -8  -7   -2.04    4.18
  -2   8  -8    7.50    4.61
   2  -8   8   13.02    5.26
   2   8   8   12.45    6.04
  -2  -8  -8    8.13    4.57
  -2   8  -9   -3.13    4.00
   2  -8   9   -3.06    3.12
   2   8   9    1.78    4.28
  -2  -8  -9    4.18    3.81
  -2  -8 -10    1.81    2.98
   2   9 -10   10.72    4.14
   2   9  -9    8.00    3.69
   2   9  -9   17.07    5.84
  -2   9   9    6.98    4.99
   2   9  -8   -0.15    2.97
   2   9  -8    6.26    4.04
  -2   9   8    2.32    4.27
  -2   9   7   26.15    6.14
   2   9  -7   12.73    4.54
   2   9  -7   20.29    5.86
  -2   9   6    0.80    3.61
   2   9  -6    2.85    3.23
   2   9  -6    3.29    4.46
  -2   9   5    9.37    5.12
   2   9  -5   -1.66    4.32
  -2   9   4   41.00    7.20
   2   9  -4   24.82    5.79
  -2  -9   4   37.79    5.92
  -2   9   3    1.65    3.78
   2   9  -3    0.90    3.41
  -2  -9   3    4.58    2.99
  -2   9   2    9.70    5.19
   2   9  -2    8.50    4.57
  -2  -9   2    3.92    3.23
   2   9  -1    4.26    4.59
  -2   9   1   -4.22    4.19
  -2  -9   1    0.35    2.90
  -2   9   0   39.23    7.06
   2   9   0   41.40    7.33
  -2  -9   0   40.35    6.64
  -2   9  -1    2.00    3.73
   2   9   1   15.34    5.11
  -2  -9  -1   16.11    4.64
   2  -9   2  163.78   11.51
  -2  -9  -2  167.17   12.91
  -2   9  -2  194.01   13.75
  -2   9  -3    4.12    4.10
   2  -9   3   -0.40    2.55
  -2  -9  -3    6.31    3.92
   2   9   4   54.62    8.30
  -2   9  -4   46.17    7.59
   2  -9   4   67.33    8.01
  -2  -9  -4   52.22    7.84
  -2   9  -5   89.53   10.29
   2   9   5   81.69    9.62
   2  -9   5   70.19    8.45
  -2  -9  -5   80.10    9.52
  -2   9  -6    5.50    4.24
   2   9   6    7.60    5.61
   2  -9   6   -0.30    2.99
  -2  -9  -6    3.41    3.43
  -2   9  -7   12.54    4.63
   2   9   7    5.17    5.75
   2  -9   7    9.73    4.49
  -2  -9  -7    1.54    3.77
   2  -9   8   -0.86    2.88
  -2  10   6   31.35    7.16
   2  10  -6   31.65    7.02
  -2  10   5   11.34    4.99
   2  10  -5   12.45    5.13
  -2  10   4   19.54    6.08
   2  10  -4   32.37    7.29
   2  10  -3    6.23    4.18
  -2 -10   3   11.03    3.90
  -2  10   2   16.55    5.59
   2  10  -2   17.66    5.81
  -2 -10   2   15.27    4.66
  -2  10   1    4.94    4.44
   2  10  -1   -2.80    3.60
  -2 -10   1   -5.50    3.39
  -2  10   0    2.36    4.55
   2  10   0   12.46    5.42
  -2 -10   0   11.28    5.59
  -2  10  -1   18.71    5.83
  -2 -10  -1   23.47    6.14
  -2  10  -2   22.90    6.40
  -2 -10  -2   16.50    5.12
  -2  10  -3   41.28    7.84
  -2 -10  -3   19.83    5.25
   2  10   4    1.15    4.54
  -2  10  -4    3.73    4.64
  -2 -10  -4   -0.99    3.99
  -2 -11   2   44.51    7.44
  -2 -11   1    5.99    3.64
  -2 -11   0   36.51    7.10
  -3   0  15   19.40    6.11
   3   0 -15   17.52    6.05
   3   0 -14   -1.17    3.50
   3   0 -13   34.97    6.30
   3   0 -12    0.62    2.88
   3   0 -11    4.76    3.52
   3   0 -10    0.00    2.68
   3   0  -9   11.62    3.38
   3   0  -8    0.03    2.54
   3   0  -7  171.58    9.00
   3   0  -6   -1.69    2.04
   3   0  -5   10.59    2.49
   3   0  -4    2.70    2.99
   3   0  -4    0.22    1.73
   3   0  -3   43.77    5.22
   3   0  -3   43.80    3.43
  -3   0   3   42.08    3.16
   3   0  -2    2.61    2.40
   3   0  -2    0.39    1.16
   3   0  -2   -0.28    1.30
  -3   0   2   -0.55    0.97
   3   0  -1  177.46    9.25
   3   0  -1  175.88    7.08
   3   0  -1  188.14    5.03
  -3   0   1  173.94    4.67
  -3   0   0    0.68    0.70
   3   0   0   -2.34    2.90
   3   0   0    0.97    1.65
   3   0   0    0.46    0.52
   3   0   1 1019.02   21.93
   3   0   1 1083.90   19.65
  -3   0  -1 1033.96   10.69
   3   0   2    1.51    2.48
  -3   0  -2   -1.69    0.95
   3   0   2   -2.06    2.48
   3   0   2   -1.57    1.86
  -3   0  -2   -2.14    2.18
   3   0   3  323.38   12.59
   3   0   3  329.55   12.29
   3   0   3  318.71   11.73
  -3   0  -3  313.66   11.34
  -3   0  -3  332.72    7.83
   3   0   4    2.14    2.55
   3   0   4   -0.66    3.23
  -3   0  -4    0.65    1.88
   3   0   4    1.84    2.32
   3   0   5   15.21    3.88
  -3   0  -5    6.31    2.39
   3   0   5    9.80    4.03
   3   0   5    7.99    3.08
  -3   0  -6    3.32    2.01
   3   0   6    0.53    3.47
   3   0   6   -0.27    2.12
   3   0   7  125.68    9.65
   3   0   7  129.65    8.90
  -3   0  -7  127.43    7.29
   3   0   8   -3.11    2.55
   3   0   8   -4.49    3.86
   3   0   9   -1.43    2.66
   3   0   9    3.75    4.23
   3   0  10    3.78    4.24
   3   0  10    0.09    2.50
   3   0  11   56.17    7.24
   3   0  11   44.65    7.70
   3   0  12   -0.85    3.95
   3   0  12   -3.97    3.28
   3   0  13  217.31   15.35
   3   0  13  173.59   13.40
  -3  -1  15   -2.98    3.25
   3   1 -15   -3.72    3.87
   3  -1 -15   -3.63    4.76
  -3  -1  14    6.28    4.89
   3   1 -14   -0.81    3.93
   3  -1 -14    3.56    3.21
   3   1 -13    7.20    4.17
   3  -1 -13   12.10    4.76
   3   1 -12   50.34    7.07
   3  -1 -12   46.46    6.62
   3   1 -11   17.31    4.72
   3  -1 -11   26.07    4.99
   3   1 -10   14.05    4.01
   3  -1 -10   24.34    4.89
   3   1  -9  122.61    8.95
   3  -1  -9  110.08    8.30
   3   1  -8   14.81    3.69
   3  -1  -8   10.08    3.24
   3   1  -7  256.58   11.21
   3  -1  -7  259.33   10.80
   3   1  -6   10.40    2.97
  -3   1   6    8.60    2.95
   3  -1  -6   13.56    3.07
   3  -1  -5   52.21    6.08
   3   1  -5   49.84    4.75
   3  -1  -5   46.80    4.21
  -3   1   5   45.69    4.42
   3   1  -4  614.05    9.43
   3  -1  -4  654.07   18.25
   3   1  -4  654.30   14.63
   3  -1  -4  647.26   13.44
  -3   1   4  640.55   13.97
   3   1  -3  144.20    5.37
   3  -1  -3  133.56    8.44
   3   1  -3  147.89    8.40
   3   1  -3  149.49    6.62
   3  -1  -3  150.15    5.88
  -3   1   3  136.62    6.13
   3  -1  -2   77.13    6.44
   3   1  -2   84.94    6.33
   3   1  -2   91.72    4.79
   3  -1  -2   81.31    3.78
  -3   1   2   82.05    4.45
   3   1  -2   80.27    4.53
   3  -1  -1  204.49    9.99
   3   1  -1  191.71    9.04
   3   1  -1  206.75    6.39
   3  -1  -1  203.73    4.46
  -3   1   1  196.93    6.48
   3   1  -1  197.50    7.59
   3   1   0   10.55    1.63
  -3   1   0   10.62    1.72
   3  -1   0    7.33    3.23
   3   1   0    7.04    2.48
   3   1   0   12.35    2.66
   3  -1   1    3.08    2.83
   3   1   1    2.26    2.10
  -3   1  -1    1.32    1.37
   3  -1   1   -1.96    2.26
   3  -1   1   -0.12    2.32
   3   1   1   -0.34    2.03
  -3  -1  -1   -0.32    2.54
   3  -1   2  527.73   16.37
   3   1   2  497.61   14.77
   3  -1   2  524.36   14.85
   3  -1   2  522.26   15.69
  -3   1  -2  534.07   10.86
  -3  -1  -2  525.84   15.18
   3   1   2  495.54   14.46
   3  -1   3  315.54   12.94
   3   1   3  332.71   12.27
   3  -1   3  324.31   12.27
   3   1   3  334.40   11.33
   3  -1   3  308.29   12.46
  -3  -1  -3  325.87   12.23
  -3   1  -3  320.95    9.06
   3   1   3  320.26   12.28
   3   1   4   40.10    4.64
   3  -1   4   33.67    4.89
  -3  -1  -4   32.42    4.23
   3   1   4   37.79    4.35
   3  -1   4   37.06    4.79
  -3   1  -4   33.52    3.87
   3   1   4   37.59    5.21
   3  -1   4   34.47    4.97
   3  -1   5  570.56   17.96
   3   1   5  602.04   16.37
   3  -1   5  603.61   18.29
  -3  -1  -5  610.00   16.67
  -3   1  -5  619.03   15.15
   3   1   5  591.73   18.56
   3  -1   5  616.66   19.04
   3  -1   6  215.12   11.84
   3   1   6  199.11    9.99
   3  -1   6  204.67   11.22
  -3  -1  -6  209.12    9.89
  -3   1  -6  207.55    8.81
   3   1   6  212.10   11.96
   3   1   7  463.37   17.97
   3  -1   7  467.63   17.83
   3   1   7  474.46   15.96
   3  -1   7  448.03   16.99
  -3  -1  -7  470.53   14.91
   3   1   8  114.03    9.73
   3  -1   8  119.96    9.88
   3   1   8  118.85    8.62
   3  -1   8  105.10    8.91
   3   1   9  103.28    9.60
   3   1   9   96.32    8.14
   3  -1   9   88.69    8.53
   3  -1   9   86.13    8.99
   3  -1  10   39.06    6.73
   3   1  10   36.57    6.95
   3   1  10   26.92    4.75
   3  -1  10   27.43    5.52
   3   1  11   65.47    7.60
   3  -1  11   63.15    8.04
   3   1  11   67.30    9.03
   3  -1  12   69.91    8.68
   3   1  12   67.28    9.15
   3   1  13   27.04    6.64
   3  -1  13   25.97    5.87
   3  -1  14   13.43    5.11
  -3  -2  15   98.30   11.55
   3  -2 -15  110.04   11.21
   3   2 -15   71.92    9.06
  -3  -2  14   13.67    5.86
   3   2 -14   12.41    4.94
   3  -2 -14    8.35    3.99
  -3  -2  13   34.02    7.73
   3   2 -13   35.24    6.35
   3  -2 -13   40.88    6.62
   3   2 -12    7.21    3.91
   3  -2 -12    8.81    4.30
   3   2 -11   88.14    8.63
   3  -2 -11   88.55    8.30
   3   2 -10  422.22   17.48
   3  -2 -10  439.16   16.80
   3   2  -9    7.38    3.20
   3  -2  -9    9.75    3.52
   3   2  -8   16.82    4.31
  -3   2   8   28.99    4.52
   3  -2  -8   26.03    4.27
   3   2  -7   28.08    4.40
  -3   2   7   35.39    4.92
   3  -2  -7   36.03    4.52
   3  -2  -6   80.71    7.51
   3   2  -6   72.79    6.15
   3  -2  -6   71.17    5.59
  -3   2   6   72.97    6.11
   3  -2  -5    3.90    2.72
   3   2  -5    0.17    2.15
   3  -2  -5    1.81    1.96
  -3   2   5    1.17    2.17
  -3   2   4   33.04    3.84
   3  -2  -4   30.24    4.77
   3   2  -4   30.32    3.82
   3   2  -4   37.79    2.83
   3  -2  -4   32.79    3.38
   3  -2  -3   78.20    6.77
   3   2  -3   81.25    6.40
   3   2  -3   88.24    5.73
   3  -2  -3   82.41    4.53
  -3   2   3   82.07    5.41
   3   2  -3   87.26    4.57
  -3   2   2   17.09    2.68
   3  -2  -2   16.75    3.74
   3   2  -2   18.82    3.44
  -3  -2   2   17.79    3.83
   3   2  -2   19.42    2.88
   3  -2  -2   19.03    2.05
   3   2  -2   17.40    2.49
   3  -2  -1  385.14   14.02
   3   2  -1  381.13   12.41
   3  -2  -1  366.45    6.45
   3   2  -1  359.52    9.70
  -3  -2   1  372.68   13.37
  -3   2   1  374.16   10.40
   3   2  -1  354.90   10.62
   3  -2   0  328.61   13.16
   3   2   0  337.65    8.95
  -3  -2   0  345.31   12.94
  -3   2   0  322.02    9.61
   3   2   0  349.59   11.22
   3   2   0  346.53   11.55
   3  -2   1  129.34    8.73
   3   2   1  133.50    7.35
   3  -2   1  116.09    8.18
   3   2   1  135.74    7.55
   3   2   1  125.10    5.43
  -3  -2  -1  137.51    8.37
  -3   2  -1  128.53    6.14
  -3   2  -2   44.68    3.84
   3   2   2   39.14    4.70
   3  -2   2   42.19    5.42
   3   2   2   42.31    4.40
  -3  -2  -2   46.49    5.07
   3  -2   2   39.26    5.11
   3  -2   3    0.17    2.97
   3   2   3    2.94    2.00
   3   2   3    3.61    2.70
  -3   2  -3    5.83    2.21
  -3  -2  -3   -1.68    2.55
   3   2   3    3.60    1.88
   3  -2   3    3.02    2.97
   3   2   4    8.40    2.77
   3  -2   4    9.16    3.32
   3   2   4    9.07    3.72
  -3  -2  -4   10.36    3.12
  -3   2  -4   11.87    2.57
   3   2   4   11.73    2.53
   3  -2   4   12.48    3.59
   3   2   5  356.65   11.77
   3  -2   5  352.64   14.76
  -3  -2  -5  363.58   13.60
  -3   2  -5  359.29   11.28
   3   2   5  337.03   14.38
   3   2   6  236.50   10.10
   3  -2   6  228.45   12.36
  -3  -2  -6  243.98   11.31
   3   2   6  257.67   13.20
  -3  -2  -7    4.35    2.94
   3   2   7    2.21    3.69
   3   2   7   -1.19    1.73
   3  -2   7    0.08    2.58
   3  -2   8   77.30    8.08
  -3  -2  -8   86.32    7.24
   3   2   8   79.77    8.77
   3  -2   9    1.47    2.95
   3   2   9    3.56    4.45
   3  -2  10    1.14    2.89
   3   2  10   -5.07    4.73
   3   2  11  105.22   10.41
   3  -2  11   99.14   10.06
   3   2  12   23.16    6.55
   3  -2  12   16.55    5.13
   3  -2  13   27.65    6.24
   3   2  13   35.99    7.20
  -3  -3  15   43.57    8.15
   3  -3 -15   40.20    7.46
   3   3 -14   13.25    4.99
  -3  -3  14   12.41    4.95
   3  -3 -14   19.75    5.51
  -3  -3  13   17.88    5.62
   3   3 -13   15.84    5.17
   3  -3 -13   29.01    6.08
  -3  -3  12   55.77    8.26
   3   3 -12   33.79    6.46
   3  -3 -12   44.60    6.68
  -3  -3  11   36.96    7.10
   3   3 -11   33.53    6.32
   3  -3 -11   41.72    6.35
  -3  -3  10    0.22    1.90
   3   3 -10    2.75    3.13
   3  -3 -10    0.17    2.81
  -3  -3   9   30.15    4.49
   3   3  -9   22.29    4.76
  -3   3   9   21.45    4.84
   3  -3  -9   26.85    4.52
   3  -3  -8   85.00    8.15
   3   3  -8   91.49    8.11
  -3  -3   8  100.88    7.50
   3  -3  -8   97.59    7.46
  -3   3   8   94.00    8.01
   3  -3  -7    4.45    3.08
  -3  -3   7    7.08    2.80
   3   3  -7   13.21    3.72
  -3   3   7   10.06    3.41
   3  -3  -7    6.71    2.72
   3  -3  -6  141.90    9.48
   3   3  -6  139.21    8.81
  -3  -3   6  157.36    9.06
   3  -3  -6  165.67    8.40
  -3   3   6  179.79    9.92
   3  -3  -5  379.32   14.73
   3   3  -5  374.20   13.52
  -3  -3   5  385.69   14.15
   3  -3  -5  383.89   11.70
  -3   3   5  386.61   13.51
  -3   3   4   18.40    3.50
   3  -3  -4   16.15    3.68
  -3  -3   4   19.02    3.97
   3   3  -4   17.82    2.50
   3   3  -4   14.31    3.17
   3  -3  -4   22.09    2.79
  -3   3   3   36.26    4.46
   3  -3  -3   32.81    4.80
   3   3  -3   37.05    4.62
  -3  -3   3   29.52    4.73
   3   3  -3   37.90    3.44
   3  -3  -3   39.10    3.39
   3   3  -3   38.17    4.39
   3  -3  -2  375.09   14.23
   3   3  -2  384.55   12.44
   3   3  -2  363.12   11.69
  -3  -3   2  380.52   13.95
   3  -3  -2  386.17    8.93
   3   3  -2  399.06   11.31
  -3   3   2  381.98   12.05
   3  -3  -1   91.98    7.62
   3   3  -1   91.35    6.04
   3   3  -1   93.27    5.83
  -3  -3   1   87.97    7.08
   3  -3  -1   81.53    3.69
   3   3  -1   82.31    5.73
  -3   3   1   83.51    5.86
   3  -3   0  325.00   13.53
   3   3   0  310.34   10.62
   3   3   0  306.61    9.99
  -3  -3   0  304.68   12.78
   3   3   0  312.17   11.20
  -3   3   0  313.50   10.89
   3  -3   1    1.12    2.90
   3   3   1    1.68    1.46
  -3   3  -1   -1.61    2.27
  -3  -3  -1    2.31    3.13
   3  -3   1    3.01    3.56
   3   3   1    2.08    1.60
   3   3   1    5.04    2.77
   3  -3   2  591.64   18.56
   3   3   2  566.50   14.26
   3  -3   2  563.34   18.34
  -3  -3  -2  569.49   17.65
   3   3   2  560.90   16.42
  -3   3  -2  584.19   14.98
   3  -3   3   35.97    5.32
   3   3   3   28.25    3.44
  -3  -3  -3   37.19    5.12
  -3   3  -3   35.58    4.12
   3  -3   3   32.08    5.04
   3   3   3   23.81    4.30
   3   3   4    7.92    2.39
   3  -3   4   11.57    3.83
  -3  -3  -4    9.04    3.24
  -3   3  -4    7.73    2.55
   3  -3   4    6.36    3.38
   3   3   4    5.29    3.06
   3   3   5   50.76    6.54
  -3  -3  -5   33.76    4.89
  -3   3  -5   39.42    4.80
   3  -3   5   30.76    5.04
   3   3   6   33.57    5.79
  -3  -3  -6   26.92    4.64
   3  -3   6   29.35    5.22
  -3  -3  -7   25.09    4.61
   3   3   7   17.25    4.82
   3  -3   7   19.87    4.59
   3  -3   8  176.04   12.17
  -3  -3  -8  171.18   10.60
   3   3   8  166.57   11.92
   3   3   9   56.16    8.32
   3  -3   9   49.00    7.01
  -3  -3  -9   54.03    6.45
   3  -3  10   22.40    5.60
   3   3  10   17.78    5.81
   3  -3  11   -1.43    3.64
   3   3  11   -6.14    5.46
   3  -3  12    2.14    3.29
   3   3  12    4.46    4.95
  -3  -4  14   24.16    6.89
   3   4 -14   44.33    7.82
   3  -4 -14   31.93    6.61
  -3  -4  13   88.73   10.46
   3  -4 -13  111.59   10.49
   3   4 -13   95.71   10.49
  -3  -4  12    0.84    4.28
   3   4 -12    0.45    3.69
   3  -4 -12   -2.90    2.81
   3  -4 -11    5.24    3.74
  -3  -4  11    2.39    4.04
   3   4 -11    1.88    3.37
   3  -4 -11   -3.11    3.47
   3  -4 -10    0.37    2.77
  -3  -4  10    4.10    3.95
   3   4 -10   -2.35    3.08
  -3   4  10    0.48    3.29
   3  -4 -10    1.38    2.83
   3  -4  -9   86.54    8.41
  -3  -4   9  102.56    9.68
  -3  -4   9   91.96    7.33
   3  -4  -9   90.00    7.74
  -3   4   9   94.72    8.79
   3   4  -9   80.62    8.35
   3  -4  -8   -2.98    3.25
  -3  -4   8    0.41    2.08
  -3  -4   8    5.74    3.81
   3   4  -8    4.55    3.43
  -3   4   8   -3.33    3.35
   3  -4  -8    3.33    2.72
   3  -4  -7   19.98    4.23
  -3  -4   7   36.91    4.84
   3   4  -7   38.22    5.68
  -3   4   7   40.88    5.84
   3  -4  -7   33.00    4.53
   3  -4  -6  322.34   14.28
  -3  -4   6  303.83   12.87
   3  -4  -6  302.02   11.75
  -3   4   6  298.03   13.38
   3   4  -6  303.63   13.56
   3  -4  -5  117.49    8.60
  -3  -4   5  116.00    8.14
   3   4  -5  115.86    8.42
   3  -4  -5  116.91    7.01
  -3   4   5  128.22    8.60
   3  -4  -4  505.18   17.09
  -3  -4   4  506.63   16.75
   3   4  -4  500.25   16.00
   3   4  -4  519.91   12.81
   3  -4  -4  516.62   13.46
  -3   4   4  524.89   16.24
   3  -4  -3  649.13   19.12
  -3  -4   3  656.15   19.09
   3   4  -3  670.01   17.85
   3   4  -3  684.30   15.36
  -3   4   3  682.75   18.05
  -3   4   2    6.48    2.90
   3   4  -2    2.01    2.40
   3  -4  -2    7.25    3.11
   3   4  -2    7.78    2.30
  -3  -4   2    7.66    3.53
   3   4  -2    4.58    2.15
   3  -4  -1  119.13    8.50
   3   4  -1  122.03    6.72
  -3  -4   1  132.99    8.90
   3   4  -1  130.59    7.79
   3   4  -1  113.81    7.24
  -3   4   1  124.23    7.83
   3   4   0   40.84    3.92
   3  -4   0   55.69    6.22
  -3   4   0   41.77    4.86
  -3  -4   0   47.57    5.78
   3   4   0   46.79    4.97
   3   4   0   40.33    4.40
   3   4   1   67.29    4.82
   3  -4   1   54.82    6.23
  -3  -4  -1   67.45    6.99
   3  -4   1   64.41    6.75
   3   4   1   68.32    5.66
   3   4   1   66.27    6.10
  -3   4  -1   68.79    6.09
   3  -4   2  114.35    8.85
   3  -4   2  109.50    8.85
  -3  -4  -2  110.87    8.62
   3   4   2   97.99    7.55
  -3   4  -2  111.55    7.59
   3  -4   3  403.14   16.41
   3  -4   3  473.38   17.67
  -3  -4  -3  446.21   16.47
   3   4   3  432.21   15.95
  -3   4  -3  450.11   14.99
   3  -4   4  198.35   11.82
   3  -4   4  183.00   11.48
  -3  -4  -4  187.41   11.18
   3   4   4  184.49   11.04
  -3   4  -4  203.42   10.57
  -3  -4  -5   -1.47    2.66
  -3   4  -5    4.18    2.99
   3  -4   5   -0.68    2.95
   3   4   5    0.23    3.93
   3  -4   6  122.52    9.97
  -3  -4  -6  127.58    9.44
   3   4   6  121.36    9.82
  -3   4  -6  133.81    9.57
   3  -4   7   67.42    7.87
  -3  -4  -7   77.51    7.82
   3   4   7   67.65    8.13
   3   4   8    2.79    3.84
   3  -4   8   -0.23    3.70
  -3  -4  -8   -3.23    2.89
   3   4   9    1.20    4.54
   3  -4   9    5.72    3.46
  -3  -4  -9    4.15    3.21
   3   4  10   -4.58    5.19
   3  -4  10    7.20    3.64
   3   4  11   16.27    5.62
   3  -4  11   19.92    5.82
   3  -4  12   95.49   10.76
   3   4  12   93.44   10.75
  -3  -5  14   74.59   10.13
  -3  -5  13   14.46    5.30
   3   5 -13   15.35    5.66
   3  -5 -13   30.47    6.22
   3  -5 -12    1.44    2.98
  -3  -5  12   -2.73    3.75
   3   5 -12   -0.41    3.47
   3  -5 -12    2.37    3.21
   3  -5 -11   28.19    5.78
  -3  -5  11   32.99    6.44
   3   5 -11   37.44    6.82
  -3   5  11   38.15    6.76
   3  -5 -11   28.46    5.51
   3  -5 -10    9.43    3.83
  -3  -5  10   10.32    3.96
   3   5 -10    0.28    3.47
  -3   5  10    6.77    4.10
   3  -5 -10    3.66    3.44
   3  -5  -9   31.45    5.29
  -3  -5   9   20.16    4.59
   3   5  -9   26.34    5.92
  -3   5   9   28.90    5.62
   3  -5  -9   28.08    5.16
   3  -5  -8    3.28    2.86
  -3  -5   8   -4.52    2.54
  -3  -5   8   -1.34    2.40
   3   5  -8    4.05    3.35
  -3   5   8    1.90    3.56
   3  -5  -8   -1.33    2.58
   3  -5  -7  138.36   10.02
  -3  -5   7  159.45   10.20
  -3  -5   7  140.33    9.20
   3   5  -7  139.50   10.51
   3  -5  -7  140.55    8.93
  -3   5   7  147.28   10.57
   3  -5  -6  298.82   13.87
  -3  -5   6  288.55   12.59
  -3  -5   6  290.60   12.99
   3   5  -6  280.23   13.93
   3  -5  -6  292.19   12.17
  -3   5   6  299.39   14.11
   3  -5  -5  546.88   18.54
  -3  -5   5  540.32   17.64
   3   5  -5  549.61   18.62
  -3   5   5  578.34   18.82
   3  -5  -4  247.57   12.24
  -3  -5   4  222.04   11.53
   3   5  -4  229.81    9.65
   3   5  -4  230.91   12.01
  -3   5   4  254.47   12.40
   3  -5  -3  397.28   15.43
  -3  -5   3  363.98   14.85
   3   5  -3  383.00   12.82
   3   5  -3  372.39   14.68
  -3   5   3  414.76   15.49
  -3   5   2    3.73    2.94
   3  -5  -2   -2.70    3.21
   3   5  -2    1.23    1.72
   3   5  -2   -1.01    1.91
  -3  -5   2   -1.90    2.90
   3   5  -2   -0.39    2.79
   3  -5  -1   14.98    3.81
  -3   5   1   15.60    4.01
  -3  -5   1   12.84    3.77
   3   5  -1   11.82    2.94
   3   5  -1   10.82    3.15
   3  -5   0   -2.76    2.95
  -3   5   0    2.28    2.94
  -3  -5   0    7.04    3.56
   3   5   0   -0.95    2.50
   3   5   0    2.09    2.58
   3  -5   1   35.59    5.51
  -3  -5  -1   32.85    5.30
  -3   5  -1   39.46    5.32
   3  -5   1   42.12    5.95
   3   5   1   40.42    5.39
   3   5   1   41.72    5.06
   3  -5   2    5.01    3.17
  -3  -5  -2    2.64    3.44
  -3   5  -2    4.86    2.99
   3  -5   2    8.97    3.66
   3   5   2    2.61    3.06
   3  -5   3  191.36   11.74
   3  -5   3  182.83   11.78
  -3  -5  -3  190.63   11.71
   3   5   3  181.76   11.24
  -3   5  -3  196.09   10.94
  -3  -5  -4   57.63    6.93
  -3   5  -4   57.07    6.66
   3  -5   4   57.69    7.07
   3   5   4   57.05    7.03
  -3  -5  -5   81.64    8.10
   3  -5   5   79.17    8.45
   3   5   5   93.03    9.10
  -3   5  -5   92.73    8.27
  -3  -5  -6   29.58    5.91
  -3   5  -6   24.96    5.02
   3  -5   6   27.43    5.69
   3   5   6   27.71    6.00
  -3   5  -7   17.61    4.88
   3  -5   7    4.85    3.29
   3   5   7   14.05    4.81
  -3  -5  -7    6.98    3.56
  -3   5  -8    5.35    3.37
   3  -5   8   -0.79    3.32
   3   5   8    5.37    4.37
  -3  -5  -8   10.19    4.05
   3   5   9    4.66    4.64
  -3   5  -9    2.97    2.80
   3  -5   9    5.87    4.15
  -3  -5  -9    0.52    2.94
   3   5  10   -3.26    4.70
   3  -5  10   -0.46    3.73
  -3  -5 -10   -0.05    3.25
   3   5  11   83.55   10.28
   3  -5  11   58.20    8.71
  -3  -6  13   -3.16    3.53
   3  -6 -13    1.60    3.47
  -3  -6  12   -4.40    4.57
   3   6 -12    7.41    4.53
  -3   6  12   -7.95    5.25
   3  -6 -12    2.86    2.63
  -3  -6  11   72.94    8.79
   3   6 -11   60.88    8.48
  -3   6  11   71.20    9.57
   3  -6 -11   68.28    8.17
   3   6 -10   20.71    6.06
  -3   6  10   10.31    4.44
   3  -6 -10   13.13    4.32
   3  -6  -9  162.60   11.39
   3   6  -9  158.72   12.41
   3  -6  -9  169.57   11.25
  -3   6   9  168.77   12.59
   3  -6  -8   17.27    4.13
   3   6  -8    7.80    4.45
  -3   6   8    8.63    4.21
   3  -6  -8    9.70    3.57
  -3   6   7    1.92    3.25
   3  -6  -7    0.43    2.30
  -3  -6   7    4.89    2.68
   3   6  -7    8.27    4.15
  -3   6   6    3.16    3.66
   3  -6  -6    5.33    2.84
  -3  -6   6    2.55    2.67
   3   6  -6    0.55    3.41
  -3   6   5   18.44    4.76
   3  -6  -5   21.91    4.08
  -3  -6   5   15.53    3.86
   3   6  -5   21.34    4.90
  -3   6   4   -3.08    3.88
   3  -6  -4    7.96    3.24
  -3  -6   4    2.85    2.54
   3   6  -4    5.04    3.29
  -3   6   3    6.75    3.53
   3  -6  -3    6.09    2.99
  -3  -6   3    8.76    3.68
   3   6  -3   10.35    3.64
  -3   6   2   33.13    5.52
   3  -6  -2   26.29    4.58
  -3  -6   2   40.16    5.82
   3   6  -2   24.98    4.35
   3   6  -2   32.69    5.26
   3  -6  -1   76.08    7.33
  -3  -6   1   69.14    7.22
   3   6  -1   81.25    7.19
   3   6  -1   71.52    7.10
  -3   6   1   84.94    7.96
   3  -6   0   10.05    3.29
  -3  -6   0    9.07    3.70
  -3   6   0   14.60    4.01
   3   6   0   13.79    4.26
   3   6   0    6.14    3.17
   3  -6   1  370.69   16.06
  -3  -6  -1  377.97   16.56
   3   6   1  382.46   15.26
   3   6   1  360.31   15.40
  -3   6  -1  375.80   15.89
   3  -6   2   11.20    3.93
  -3  -6  -2   19.42    4.63
  -3   6  -2    7.10    3.35
   3   6   2    7.84    3.66
   3  -6   2   12.66    4.35
  -3  -6  -3   12.19    3.77
  -3   6  -3   20.58    4.59
   3  -6   3   20.02    4.77
   3   6   3   14.32    4.32
  -3  -6  -4   11.78    3.99
  -3   6  -4    8.35    3.57
   3  -6   4   14.22    4.41
   3   6   4   14.17    4.09
  -3  -6  -5   11.53    3.82
  -3   6  -5    7.17    3.63
   3  -6   5    1.91    3.03
   3   6   5   13.15    5.32
   3  -6   6  179.20   13.15
  -3  -6  -6  185.54   12.94
   3   6   6  181.78   13.08
  -3   6  -6  175.42   12.41
  -3   6  -7   41.37    6.70
   3  -6   7   27.87    5.78
   3   6   7   40.56    7.08
  -3  -6  -7   27.96    6.02
  -3   6  -8   18.20    5.07
   3  -6   8   14.78    4.95
   3   6   8   20.93    6.11
  -3  -6  -8   27.12    5.91
  -3   6  -9    0.93    3.33
   3  -6   9    5.95    4.26
  -3  -6  -9    1.47    3.29
   3   6   9   11.80    5.37
   3   6  10   24.90    7.16
  -3   6 -10   30.29    6.21
   3  -6  10   40.64    7.80
  -3  -6 -10   28.25    5.95
  -3   6 -11    2.06    3.32
   3  -7 -12   55.06    7.70
   3   7 -11   -0.39    3.84
  -3   7  11    3.21    5.03
   3  -7 -11    5.59    4.13
   3   7 -10    3.53    3.97
  -3   7  10    8.09    5.08
   3  -7 -10    8.40    4.14
   3   7  -9    7.33    4.00
  -3   7   9    6.27    4.68
   3  -7  -9    2.03    2.90
   3   7  -8    7.64    4.22
  -3   7   8    8.15    3.66
  -3   7   7   78.39    8.98
   3   7  -7   74.19    8.80
  -3   7   6   43.91    6.67
  -3  -7   6   36.15    5.61
   3   7  -6   43.35    6.90
  -3   7   5   18.00    4.82
  -3  -7   5   17.91    4.32
   3  -7  -5   24.00    4.44
   3   7  -5   27.49    5.95
  -3   7   4   51.87    7.03
  -3  -7   4   41.98    5.87
   3  -7  -4   50.78    6.08
   3   7  -4   48.03    7.10
  -3   7   3    9.86    4.08
  -3  -7   3   12.45    4.00
   3  -7  -3   14.77    3.97
   3   7  -3    7.96    3.92
   3  -7  -2  107.12    8.68
  -3  -7   2   98.30    8.84
   3   7  -2  110.47    9.61
  -3   7   2  107.13    9.53
  -3  -7   1    2.14    3.29
   3  -7  -1    5.88    2.88
  -3   7   1    9.53    4.22
   3   7  -1    5.47    3.44
   3   7  -1    5.92    3.84
  -3  -7   0   54.11    6.98
   3  -7   0   68.31    7.37
  -3   7   0   53.38    7.13
   3   7   0   58.60    6.93
   3   7   0   66.04    7.41
  -3  -7  -1    4.49    2.98
   3  -7   1    6.45    2.92
  -3   7  -1    3.20    3.07
   3   7   1    1.47    3.02
   3   7   1   10.91    4.30
  -3  -7  -2    4.18    3.92
   3  -7   2    9.34    4.23
  -3   7  -2    2.41    3.32
   3   7   2    7.82    4.31
   3  -7   2    9.00    2.90
   3  -7   3  107.45    9.88
   3   7   3   92.20    9.25
  -3   7  -3  106.02    9.70
  -3  -7  -3   94.81    9.49
  -3  -7  -4    1.26    3.60
  -3   7  -4    5.93    4.23
   3  -7   4    4.13    3.97
   3   7   4    8.86    4.68
  -3   7  -5   63.67    8.17
   3  -7   5   50.17    7.48
   3   7   5   53.51    8.01
  -3  -7  -5   56.31    8.11
   3  -7   6  135.82   12.11
  -3  -7  -6  132.75   11.57
   3   7   6  127.19   11.79
  -3   7  -6  142.35   11.92
  -3   7  -7    1.44    3.32
   3  -7   7    6.06    4.39
   3   7   7   -3.07    5.20
  -3  -7  -7    5.53    4.14
  -3   7  -8    3.43    3.74
   3  -7   8    2.93    3.82
   3   7   8    1.01    5.16
  -3  -7  -8   -4.03    3.77
  -3   7  -9    3.19    3.24
   3  -7   9   17.56    5.87
   3   7   9   16.18    6.18
  -3  -7  -9   16.42    4.95
  -3  -7 -10   14.37    5.44
   3  -8 -10   -3.84    3.02
   3   8  -9    0.22    3.90
   3  -8  -9    8.04    3.50
   3   8  -8   21.29    6.17
  -3   8   8   29.59    6.39
  -3   8   7   11.97    4.46
   3   8  -7    4.03    4.15
  -3   8   6    8.32    4.40
  -3  -8   6    1.74    2.48
   3   8  -6    2.05    4.19
  -3   8   5   11.03    4.84
  -3  -8   5    1.81    2.63
   3   8  -5    9.34    4.54
  -3  -8   4    8.41    3.24
  -3   8   4   18.69    5.22
   3   8  -4   19.16    5.60
  -3  -8   3    9.93    3.82
  -3   8   3   -0.03    3.55
   3   8  -3    6.73    4.32
  -3  -8   2   19.13    5.12
  -3   8   2   17.87    5.24
   3   8  -2    9.28    4.61
  -3  -8   1    0.22    3.06
   3  -8  -1   -3.59    2.59
  -3   8   1    6.75    4.59
   3   8  -1    5.77    3.81
  -3  -8   0   12.72    4.79
   3  -8   0   13.15    3.88
  -3   8   0    5.32    4.14
   3   8   0   11.15    4.45
   3   8   0    5.38    3.72
  -3  -8  -1   59.86    7.86
  -3   8  -1   63.88    8.42
   3   8   1   57.19    7.65
   3   8   1   61.33    7.43
  -3   8  -2   22.02    5.20
   3   8   2   11.78    4.45
  -3  -8  -2   26.37    6.00
  -3   8  -3   38.26    7.01
   3   8   3   35.30    6.66
   3  -8   3   34.10    5.96
  -3  -8  -3   32.64    6.36
  -3   8  -4   35.81    6.61
   3  -8   4   53.51    7.74
   3   8   4   50.49    7.65
  -3  -8  -4   40.55    7.04
  -3   8  -5   10.36    5.44
   3  -8   5    6.89    4.50
   3   8   5   -5.16    5.44
  -3  -8  -5   -1.10    3.52
  -3   8  -6   24.27    6.42
   3  -8   6   38.26    6.68
   3   8   6   46.40    7.93
  -3  -8  -6   37.53    6.86
  -3   8  -7   57.27    8.68
   3  -8   7   36.07    6.81
   3   8   7   51.42    8.59
  -3  -8  -7   49.40    8.63
  -3   8  -8   47.63    8.18
  -3   9   7   14.50    6.08
   3   9  -7    5.70    4.71
  -3   9   6    0.36    3.42
   3   9  -6    6.19    4.84
  -3  -9   5    8.02    3.61
  -3   9   5   12.90    4.79
   3   9  -5   13.51    5.65
  -3  -9   4    1.25    3.10
   3   9  -4    3.07    3.41
  -3   9   3   23.21    6.24
   3   9  -3   24.36    6.31
  -3  -9   3   24.76    5.48
  -3   9   2    5.92    4.82
   3   9  -2    1.41    3.21
  -3  -9   2    1.70    3.17
  -3   9   1   13.24    4.61
   3   9  -1    9.68    4.62
  -3   9   0   82.86    9.91
   3   9   0   58.16    7.83
   3   9   0   53.05    7.90
  -3  -9   0   61.27    8.57
  -3   9  -1    2.55    4.14
   3   9   1    5.26    4.03
  -3  -9  -1    4.81    4.31
  -3   9  -2    8.06    4.84
   3   9   2   11.20    4.15
  -3  -9  -2   15.15    4.95
  -3   9  -3    1.78    4.06
   3   9   3   13.38    5.25
  -3  -9  -3    9.97    4.67
  -3   9  -4   23.12    6.62
   3  -9   4   27.03    6.05
   3   9   4   23.32    5.96
  -3  -9  -4   32.60    7.31
  -3   9  -5   -1.56    3.81
   3  -9   5    2.58    3.93
   3   9   5   -7.65    5.51
  -3  -9  -5   -3.64    4.39
   3  -9   6    4.18    3.12
   3  10  -3    7.15    4.97
  -3 -10   3    0.10    3.33
   3  10  -2   59.43    9.39
  -3 -10   2   54.56    7.87
  -3  10   1   -2.15    4.52
   3  10  -1    1.24    3.28
   3  10  -1    1.91    4.26
  -3 -10   1    7.21    4.23
  -3  10   0   13.93    4.77
   3  10   0   20.96    5.29
   3  10   0   20.10    5.41
  -3 -10   0    5.02    3.56
   3  10   1    7.96    4.05
  -3 -10  -1   11.12    4.71
   3  10   2   14.66    4.54
   4   0 -14   40.55    6.99
   4   0 -13   -1.12    2.86
   4   0 -12  274.30   15.35
   4   0 -11    4.81    3.48
   4   0 -10   59.27    6.98
   4   0  -9    2.48    2.50
   4   0  -8    3.97    2.79
   4   0  -7    0.97    3.82
   4   0  -7    5.01    2.68
   4   0  -6  376.20   16.87
   4   0  -6  370.34   12.97
   4   0  -5   -1.95    2.92
   4   0  -5    2.06    2.06
   4   0  -4    1.10    3.20
   4   0  -4    4.46    1.78
   4   0  -3    1.17    3.02
   4   0  -2  405.78   16.06
   4   0  -1   -0.09    2.67
   4   0  -1    1.92    1.87
   4   0   0   40.43    5.56
   4   0   0   41.37    4.71
   4   0   1   -0.76    2.66
   4   0   1   -0.90    2.40
   4   0   2   38.53    5.59
  -4   0  -2   41.66    5.42
   4   0   2   43.26    5.46
   4   0   3    1.12    2.77
  -4   0  -3   -1.77    2.31
   4   0   3    0.79    2.67
   4   0   4  849.86   24.09
   4   0   4  800.39   22.86
   4   0   4  818.57   22.32
  -4   0  -4  816.19   21.63
   4   0   5    3.61    3.23
  -4   0  -5    0.32    2.24
   4   0   5   -0.61    2.12
   4   0   5    0.00    3.92
   4   0   6   58.18    7.33
  -4   0  -6   55.64    5.84
   4   0   6   61.60    6.51
   4   0   7    4.86    4.44
   4   0   7    0.83    2.54
   4   0   8   33.48    5.56
   4   0   8   40.96    7.20
   4   0   9    1.48    2.99
   4   0   9    3.64    4.64
   4   0  10  269.70   17.02
   4   0  10  233.52   14.42
   4   0  11   -4.21    4.72
   4   1 -14   -2.13    3.53
   4  -1 -14   -1.48    3.51
   4   1 -13   41.46    6.94
   4  -1 -13   51.47    7.47
   4   1 -12   19.97    5.10
   4  -1 -12   17.89    4.68
   4   1 -11   28.10    5.43
   4  -1 -11   31.23    5.52
   4   1 -10   -0.70    2.54
   4  -1 -10   -3.21    2.99
   4   1  -9  145.61   10.00
   4  -1  -9  165.23   10.35
   4  -1  -8  135.24   11.09
   4   1  -8  127.37    9.04
   4  -1  -8  101.65    7.73
   4  -1  -7   55.22    7.16
   4   1  -7   47.01    5.38
   4  -1  -7   51.69    5.61
   4  -1  -6  111.55    9.73
   4   1  -6  124.30   10.11
   4   1  -6  125.37    7.96
   4  -1  -6  121.60    7.37
   4  -1  -5    6.72    3.84
   4   1  -5    3.60    3.52
   4   1  -5    2.90    2.10
   4  -1  -5    1.75    1.77
  -4   1   5    2.83    1.69
   4  -1  -4   21.27    4.86
   4   1  -4   27.67    4.90
   4   1  -4   24.20    3.43
   4  -1  -3   89.32    8.10
   4   1  -3   94.77    8.02
   4   1  -3   76.60    4.97
   4  -1  -2  107.75    8.68
   4   1  -2  108.82    8.40
   4   1  -2  103.01    6.24
   4   1  -1   73.95    5.68
   4  -1  -1   61.34    6.64
   4   1  -1   57.72    6.21
   4  -1   0  165.34   10.89
   4   1   0  181.93    9.25
   4   1   0  172.41   10.20
  -4  -1   0  170.64   10.33
   4  -1   1  243.26   12.98
   4   1   1  216.36   10.66
   4   1   1  236.21   12.09
  -4  -1  -1  228.33   11.65
   4  -1   2  130.22    9.69
   4   1   2  114.06    8.57
   4   1   2  127.09    8.62
  -4  -1  -2  119.16    8.62
   4   1   3   41.81    5.79
   4  -1   3   33.23    5.37
   4   1   3   37.94    5.10
   4  -1   3   36.17    5.52
  -4  -1  -3   35.27    5.20
   4  -1   3   36.37    5.42
  -4   1  -3   28.96    4.15
   4   1   4  223.38   12.14
   4  -1   4  229.40   13.24
   4   1   4  222.14   12.49
   4  -1   4  199.47   11.78
   4   1   4  239.41   11.52
   4  -1   4  226.98   12.48
  -4  -1  -4  224.34   11.80
  -4   1  -4  233.62   11.48
   4   1   5   69.10    7.24
   4  -1   5   63.12    7.38
   4   1   5   64.77    7.50
   4   1   5   68.22    6.53
   4  -1   5   58.34    6.75
  -4  -1  -5   71.73    7.15
  -4   1  -5   61.32    6.19
   4  -1   5   59.90    7.30
  -4  -1  -6   20.60    4.14
   4   1   6    9.33    4.63
   4   1   6   14.26    3.52
   4  -1   6   11.68    4.06
   4  -1   6    8.13    4.33
   4   1   7   49.50    7.34
   4   1   7   40.81    5.61
   4  -1   7   47.49    6.39
   4  -1   7   49.55    7.30
   4  -1   8   -3.46    3.99
   4  -1   8   -2.01    2.62
   4   1   8    1.78    4.50
   4  -1   9   69.91    8.18
   4   1   9   87.88   10.14
   4  -1  10    0.66    2.71
   4   1  10    5.06    4.89
   4   1  11   -6.02    5.73
   4  -1  11   -7.86    4.09
   4  -1  12   42.42    7.21
   4   2 -14   13.71    4.86
   4  -2 -14    8.82    3.73
   4   2 -13    0.54    3.07
   4  -2 -13    5.33    3.21
   4   2 -12   -5.15    3.82
   4  -2 -12    0.79    3.23
   4   2 -11    0.10    3.25
   4  -2 -11    1.10    3.29
   4  -2 -10    3.26    3.86
   4   2 -10    7.03    4.00
   4  -2 -10    9.75    3.35
   4  -2  -9   57.02    7.95
   4   2  -9   49.95    6.53
   4  -2  -9   53.50    6.15
   4  -2  -8   14.50    4.77
   4   2  -8    8.05    3.02
   4  -2  -8   12.14    3.19
   4  -2  -7    4.79    3.68
   4   2  -7    4.94    2.85
  -4   2   7    5.11    3.23
   4  -2  -7    5.16    2.40
   4  -2  -6    9.31    3.96
   4   2  -6    7.24    3.88
   4   2  -6    6.97    2.72
   4  -2  -6    4.88    2.04
  -4   2   6    7.30    2.97
   4  -2  -5   95.61    8.75
   4   2  -5  108.38    9.03
   4   2  -5  113.99    7.60
  -4   2   5  109.23    7.13
   4  -2  -4  304.61   14.67
   4   2  -4  298.51   13.89
   4   2  -4  313.39   11.57
  -4   2   4  318.24   11.39
   4  -2  -3   64.43    7.33
   4   2  -3   60.63    6.53
  -4  -2   3   67.16    7.35
   4   2  -3   70.23    5.33
  -4   2   3   62.40    4.97
  -4   2   2   38.88    3.81
   4  -2  -2   26.82    5.12
   4   2  -2   34.30    5.11
  -4  -2   2   39.88    5.83
   4   2  -2   42.84    4.27
   4   2  -2   36.26    3.70
   4  -2  -1  197.18   11.96
   4   2  -1  210.37   11.04
  -4  -2   1  197.48   11.57
   4   2  -1  221.49    9.91
   4  -2   0   18.63    4.40
   4   2   0   16.99    3.66
  -4  -2   0   17.79    4.36
   4   2   0   17.98    3.38
   4  -2   1  257.73   13.86
   4   2   1  301.79   13.13
  -4  -2  -1  278.50   13.44
   4   2   1  258.79   11.82
   4  -2   2   -1.73    2.94
   4   2   2    4.26    2.73
  -4  -2  -2   -1.14    2.92
   4   2   2    0.58    2.55
   4  -2   3  112.16    9.49
   4   2   3  110.65    8.23
   4  -2   3  107.53    9.16
  -4  -2  -3  112.31    8.88
   4   2   3  111.91    8.75
   4   2   4    1.70    2.62
   4  -2   4   -0.17    3.08
  -4  -2  -4    1.28    3.19
   4  -2   4   -0.57    2.92
  -4   2  -4   -0.21    2.21
   4   2   4    0.44    3.26
   4  -2   5   28.05    5.69
  -4  -2  -5   32.88    5.34
   4  -2   5   31.36    5.77
   4   2   5   22.77    5.22
   4  -2   6  272.62   14.84
  -4  -2  -6  281.37   13.82
   4   2   6  275.87   15.13
  -4  -2  -7    7.50    3.37
   4  -2   7    3.51    3.38
   4   2   7    4.86    4.28
   4   2   8   24.47    6.44
   4  -2   8   18.15    4.71
   4   2   9   27.48    6.44
   4  -2   9   22.47    5.46
   4   2  10   32.06    6.93
   4  -2  10   18.90    5.30
   4  -2  11   -3.69    4.31
   4   2  11   -1.54    4.64
   4  -3 -14   27.50    6.45
   4  -3 -14   24.00    5.82
   4  -3 -13    0.95    3.17
   4   3 -13    1.12    3.77
   4  -3 -13    3.08    2.97
   4  -3 -12    6.57    4.40
   4   3 -12    1.19    3.42
   4  -3 -12   -2.24    3.29
   4  -3 -11  112.25   11.06
   4   3 -11  114.13   10.53
   4  -3 -11   95.53    8.81
   4  -3 -10   11.64    4.39
  -4  -3  10   18.02    4.35
   4   3 -10   21.92    5.47
   4  -3 -10   16.68    4.30
   4  -3  -9    9.02    4.67
  -4  -3   9   12.28    4.21
   4   3  -9    3.50    3.04
  -4   3   9   15.65    4.18
   4  -3  -9    5.10    3.02
   4  -3  -8   -1.07    3.33
  -4  -3   8   13.11    3.93
   4   3  -8    5.07    3.24
  -4   3   8   10.93    3.84
   4  -3  -8    4.73    2.59
   4  -3  -7   90.27    8.99
   4   3  -7   85.13    7.88
  -4  -3   7   95.18    8.63
   4  -3  -7   81.08    6.48
  -4   3   7   84.23    7.55
   4  -3  -6   82.38    8.40
   4   3  -6   84.37    7.31
  -4  -3   6   79.37    7.86
  -4   3   6  106.84    7.93
   4  -3  -5   63.14    7.34
   4   3  -5   60.10    6.64
  -4  -3   5   59.94    7.29
   4   3  -5   73.16    6.62
  -4   3   5   73.64    6.37
  -4   3   4   -1.63    2.48
   4  -3  -4   -3.69    3.08
   4   3  -4   -2.12    2.28
  -4  -3   4    2.30    2.95
   4   3  -4    1.74    2.43
  -4   3   3   26.95    4.04
   4  -3  -3   29.12    5.06
   4   3  -3   31.22    4.94
  -4  -3   3   23.74    4.63
   4   3  -3   27.59    4.01
  -4   3   2   15.24    3.15
   4   3  -2   12.24    2.88
   4  -3  -2   10.93    3.83
   4   3  -2   15.31    3.65
  -4  -3   2    7.42    3.39
   4   3  -2   15.82    3.10
  -4   3   1   27.76    4.05
   4   3  -1   13.60    2.84
   4  -3  -1   28.42    5.10
   4   3  -1   14.93    3.55
  -4  -3   1   17.52    4.30
   4   3  -1   22.38    3.25
   4  -3   0  368.41   16.53
   4   3   0  400.66   14.58
  -4  -3   0  368.48   16.00
  -4   3   0  383.60   12.67
   4   3   0  379.72   14.05
   4   3   1   80.77    6.67
   4  -3   1   77.25    7.96
  -4  -3  -1   97.00    8.63
  -4   3  -1   77.70    5.93
   4   3   1   85.89    7.20
   4  -3   2  240.75   13.77
   4   3   2  230.54   11.13
  -4  -3  -2  240.42   13.09
   4   3   2  212.79   11.49
   4  -3   3   28.32    5.37
   4   3   3   23.78    4.15
   4   3   3   21.21    4.67
  -4  -3  -3   35.85    5.73
   4  -3   3   26.64    5.64
   4  -3   4  213.86   13.34
   4  -3   4  187.11   12.50
  -4  -3  -4  213.65   12.44
   4   3   4  204.39   12.58
   4  -3   5   -0.34    3.37
  -4  -3  -5   11.25    4.08
   4   3   5    6.75    3.97
   4  -3   5    3.06    3.06
  -4  -3  -6   82.44    7.91
   4   3   6   97.10    9.46
   4  -3   6   79.82    8.64
  -4  -3  -7   24.42    4.89
   4  -3   7   28.92    5.69
   4   3   7   25.49    6.19
  -4  -3  -8    0.81    2.52
   4  -3   8    2.83    3.84
   4   3   8    0.58    4.27
   4  -3   9    5.50    3.73
   4   3   9    8.97    4.92
   4  -3  10   51.19    7.78
   4   3  10   64.65    9.02
   4  -3  11   57.71    8.48
   4  -4 -13   15.24    4.86
  -4  -4  13   17.65    6.10
   4   4 -13   20.28    5.62
   4  -4 -13   20.22    5.02
   4  -4 -12   53.34    7.93
  -4  -4  12   66.77    9.46
   4   4 -12   38.03    7.30
   4  -4 -12   57.67    7.62
   4  -4 -11    8.32    4.31
  -4  -4  11   20.58    6.02
   4  -4 -11   13.24    4.26
   4  -4 -10    6.94    4.03
   4   4 -10    4.00    3.65
  -4   4  10    5.87    3.73
   4  -4 -10   -0.19    2.45
   4  -4  -9   -0.36    3.08
  -4  -4   9    2.90    2.92
   4   4  -9   -3.52    4.10
  -4   4   9    4.00    3.50
   4  -4  -9   -3.70    2.79
   4  -4  -8    5.43    2.92
  -4  -4   8    1.87    2.85
   4   4  -8    1.14    2.75
  -4   4   8    7.64    3.61
   4  -4  -8    3.17    2.48
   4  -4  -7    1.21    2.77
  -4  -4   7    3.47    3.33
   4   4  -7    6.40    3.55
  -4   4   7   -0.31    2.61
   4  -4  -6  249.82   14.47
  -4  -4   6  246.13   13.60
   4   4  -6  232.67   12.62
  -4   4   6  262.71   13.11
  -4   4   5   34.73    4.95
   4  -4  -5   36.72    6.17
   4   4  -5   29.66    4.95
  -4  -4   5   31.88    5.48
   4   4  -5   34.20    5.08
  -4   4   4   42.51    5.50
   4  -4  -4   48.36    6.76
   4   4  -4   54.96    5.97
  -4  -4   4   49.41    6.84
   4   4  -4   52.27    5.96
   4   4  -3   77.33    7.02
   4  -4  -3   71.56    7.75
  -4  -4   3   84.80    8.22
   4   4  -3   83.76    6.89
  -4   4   3   77.20    6.67
  -4   4   2    1.66    2.30
   4  -4  -2    1.59    3.17
   4   4  -2    4.84    2.08
  -4  -4   2    8.66    3.68
   4   4  -2    0.31    1.99
   4   4  -2    4.45    2.08
  -4   4   1   10.14    3.10
   4  -4  -1    6.36    2.94
   4   4  -1   12.54    2.86
  -4  -4   1   14.07    4.42
   4   4  -1   10.05    2.89
   4   4  -1    8.85    2.73
   4  -4   0    3.10    2.93
  -4   4   0    9.57    2.97
  -4  -4   0    1.94    3.41
   4   4   0    1.11    2.27
   4  -4   1    5.62    3.72
  -4   4  -1   10.09    3.17
  -4  -4  -1    6.26    3.96
   4   4   1    8.01    3.06
   4  -4   2   -2.46    3.13
  -4   4  -2    0.08    2.26
  -4  -4  -2    0.52    3.29
   4   4   2   -0.46    2.66
   4   4   3   14.63    3.97
   4  -4   3   15.00    4.54
  -4  -4  -3    8.05    3.96
  -4   4  -3    4.62    2.44
   4  -4   3   11.08    3.72
   4  -4   4    0.49    3.13
   4   4   4    3.95    3.73
  -4  -4  -4    4.81    3.68
  -4   4  -4    7.95    3.11
   4  -4   4   -0.22    3.24
  -4  -4  -5    6.76    3.77
   4   4   5   16.95    5.26
   4  -4   5    9.80    4.08
  -4  -4  -6   23.23    4.90
   4   4   6   25.45    6.22
   4  -4   6   14.46    4.41
  -4  -4  -7   21.11    4.84
   4   4   7   23.04    6.15
   4  -4   7   26.54    5.74
  -4  -4  -8   16.18    4.31
   4   4   8   27.16    7.01
   4  -4   8   23.70    5.52
   4  -4   9   16.62    5.15
   4   4   9   24.09    6.32
   4  -4  10    8.91    4.33
   4  -5 -13    1.08    2.45
  -4  -5  13    0.18    2.95
   4  -5 -13   -4.09    3.64
   4  -5 -12   -0.50    2.95
  -4  -5  12    3.29    3.68
   4   5 -12   11.34    4.81
   4  -5 -12    5.97    3.91
   4  -5 -11   23.75    5.95
   4   5 -11   28.67    6.06
  -4   5  11   19.78    5.53
   4  -5 -11   27.43    5.66
   4  -5 -10   13.04    4.49
   4   5 -10   22.90    6.33
  -4   5  10   15.53    4.93
   4  -5 -10    7.35    3.39
   4  -5  -9   11.49    4.17
  -4  -5   9   11.26    3.63
   4   5  -9   13.64    4.86
  -4   5   9    8.04    4.24
   4  -5  -9   16.89    4.13
   4  -5  -8    2.18    3.68
  -4  -5   8    8.81    3.56
   4   5  -8    1.07    3.35
  -4   5   8    4.59    3.43
   4  -5  -7   20.06    4.95
  -4  -5   7   22.25    4.89
   4   5  -7   16.32    4.68
  -4   5   7   24.76    5.22
  -4   5   6   33.39    5.66
   4  -5  -6   27.98    5.72
  -4  -5   6   20.86    4.77
   4   5  -6   22.06    4.67
   4  -5  -5  114.96    9.96
   4   5  -5  117.38    8.81
  -4  -5   5  136.93   10.50
   4   5  -5  117.60    9.48
  -4   5   5  123.95    9.47
  -4   5   4   45.94    6.19
   4  -5  -4   34.42    5.69
  -4  -5   4   39.02    6.08
   4   5  -4   30.08    4.92
  -4   5   3    1.08    2.50
   4  -5  -3    1.88    2.77
  -4  -5   3    2.57    3.03
   4   5  -3    2.09    2.75
  -4   5   2    3.38    2.84
   4  -5  -2    2.30    3.33
  -4  -5   2    2.68    3.15
   4   5  -2    1.68    2.36
   4   5  -2    1.52    2.40
  -4   5   1    6.31    3.10
   4  -5  -1   -2.17    3.37
  -4  -5   1    5.48    3.53
   4   5  -1    4.98    2.57
   4   5  -1    6.04    2.88
   4  -5   0  145.35   11.24
  -4  -5   0  110.86    9.75
   4   5   0  155.85    9.30
   4   5   0  137.15    9.33
  -4   5   0  138.79    9.60
   4  -5   1   -0.92    3.28
  -4   5  -1    0.65    2.53
  -4  -5  -1    5.62    4.03
   4   5   1    1.81    2.62
   4  -5   2   34.70    6.36
  -4  -5  -2   27.43    5.92
  -4   5  -2   25.41    4.63
   4   5   2   31.30    5.51
   4  -5   3   64.99    8.17
  -4  -5  -3   59.81    7.39
  -4   5  -3   68.19    7.03
   4  -5   3   65.29    8.20
   4   5   3   55.06    6.91
   4  -5   4    6.39    4.18
  -4  -5  -4    5.51    3.59
  -4   5  -4    2.88    2.73
   4  -5   4    5.52    4.09
   4   5   4   -1.70    3.52
  -4  -5  -5    4.66    3.41
  -4   5  -5    0.39    2.62
   4  -5   5    4.31    3.72
   4   5   5    5.06    4.01
  -4  -5  -6   23.71    5.64
   4   5   6   15.74    5.47
   4  -5   6    4.99    3.96
  -4  -5  -7   33.35    5.99
   4   5   7   29.45    6.63
   4  -5   7   28.86    6.22
   4   5   8    1.35    4.37
   4  -5   8    4.79    3.84
  -4  -5  -8    8.09    3.92
   4   5   9   11.57    5.19
   4  -5   9    8.13    5.24
  -4  -5  -9    3.93    3.41
   4  -6 -12    1.08    3.23
   4   6 -11   -2.90    3.59
  -4   6  11    0.43    3.44
   4  -6 -11    0.08    2.66
   4   6 -10   15.06    5.61
  -4   6  10   11.77    4.52
   4  -6  -9    4.64    3.82
   4   6  -9   10.50    4.36
  -4   6   9    8.84    3.82
   4  -6  -8  157.61   12.24
  -4  -6   8  160.15   11.44
   4   6  -8  149.52   12.22
  -4   6   8  156.90   12.26
   4  -6  -7   57.49    7.66
  -4  -6   7   48.79    6.59
   4   6  -7   44.37    6.75
  -4   6   7   54.74    7.30
  -4   6   6   78.98    8.30
   4  -6  -6   86.07    8.81
  -4  -6   6   93.44    9.02
   4   6  -6   63.25    7.64
  -4   6   5   73.47    8.10
   4  -6  -5   68.64    8.04
  -4  -6   5   68.08    7.77
   4   6  -5   63.07    7.37
  -4   6   4   78.40    8.11
   4  -6  -4   75.24    8.27
  -4  -6   4   76.53    8.35
   4   6  -4   76.58    8.06
  -4   6   3   12.40    3.72
   4  -6  -3   25.21    5.24
  -4  -6   3   22.19    5.29
   4   6  -3   17.71    4.48
  -4   6   2    8.68    3.35
   4  -6  -2    4.99    3.32
  -4  -6   2    9.33    4.03
   4   6  -2    4.86    2.75
   4   6  -2   14.24    4.18
  -4   6   1   13.64    4.39
   4  -6  -1    8.28    3.87
  -4  -6   1   14.60    4.48
   4   6  -1   11.21    3.41
   4   6  -1    4.84    3.02
   4  -6   0   13.51    4.53
  -4   6   0   20.59    4.50
  -4  -6   0   20.68    5.44
   4   6   0   16.50    4.41
   4   6   0   22.25    3.93
   4  -6   1    5.81    3.56
  -4  -6  -1    3.75    3.79
  -4   6  -1    0.83    2.63
   4   6   1    3.28    3.26
   4   6   1    3.16    2.52
   4  -6   2   11.29    3.92
  -4  -6  -2   20.37    4.50
  -4   6  -2   10.81    3.72
   4   6   2   19.92    4.93
   4  -6   3   31.17    6.39
  -4  -6  -3   32.81    6.26
  -4   6  -3   27.38    5.30
   4  -6   3   28.38    5.96
   4   6   3   40.77    6.58
  -4  -6  -4    6.71    4.26
  -4   6  -4   -1.73    3.48
   4  -6   4   -8.10    3.77
   4   6   4    0.58    3.50
   4  -6   5  134.31   12.11
  -4  -6  -5  135.16   11.65
   4   6   5  139.91   11.87
  -4   6  -5  144.86   11.25
  -4  -6  -6    0.79    3.48
  -4   6  -6    0.31    2.85
   4  -6   6    6.98    4.49
   4   6   6    6.31    4.81
  -4   6  -7    4.84    3.90
   4  -6   7   10.08    4.85
  -4  -6  -7    8.57    4.73
   4   6   8   11.92    5.12
  -4  -6  -8   14.76    4.95
  -4  -6  -9   12.50    4.90
   4   7  -9    0.19    3.70
  -4   7   9   -4.27    3.82
   4   7  -8   43.17    7.50
  -4   7   8   69.32    8.89
  -4   7   7    4.50    3.79
   4  -7  -7    6.54    3.69
  -4  -7   7   16.00    4.73
   4   7  -7   14.28    4.93
  -4   7   6   10.71    4.94
   4  -7  -6    2.59    2.71
  -4  -7   6    9.24    3.90
   4   7  -6   12.20    4.55
  -4   7   5    7.84    3.75
   4  -7  -5    3.92    2.43
   4   7  -5    1.73    3.26
  -4   7   4    4.45    3.88
   4  -7  -4   -0.99    2.76
  -4  -7   4    2.93    3.70
   4   7  -4    3.11    3.41
  -4   7   3   -1.81    4.13
   4  -7  -3    6.70    4.14
  -4  -7   3    4.45    3.07
   4   7  -3    9.06    4.04
  -4   7   2   13.48    4.36
   4  -7  -2   12.14    4.24
  -4  -7   2   18.22    5.13
   4   7  -2    1.26    2.67
   4  -7  -1   50.03    7.21
  -4   7   1   54.96    7.70
  -4  -7   1   62.81    8.20
   4   7  -1   49.54    6.54
   4   7  -1   59.70    7.50
   4  -7   0    9.31    4.08
  -4  -7   0   12.50    4.72
  -4   7   0    9.83    4.24
   4   7   0   -2.03    3.57
   4   7   0    1.33    2.97
   4  -7   1   11.35    3.84
  -4  -7  -1    7.88    4.01
  -4   7  -1   12.94    4.09
   4   7   1    4.44    3.56
  -4  -7  -2   35.81    7.06
   4  -7   2   38.86    6.93
  -4   7  -2   46.64    7.25
   4   7   2   44.79    6.97
  -4  -7  -3    4.23    3.78
  -4   7  -3    5.99    3.56
   4   7   3    4.17    4.17
  -4  -7  -4    6.45    3.59
  -4   7  -4    5.01    3.60
   4  -7   4   12.27    4.85
   4   7   4    9.52    5.12
   4  -7   5  151.04   13.18
  -4  -7  -5  153.48   13.09
   4   7   5  166.17   13.53
  -4   7  -5  149.06   12.20
  -4   7  -6   -0.76    3.30
   4  -7   6    2.30    4.10
   4   7   6   -2.09    4.05
  -4  -7  -6   11.35    5.17
  -4   7  -7   30.06    6.19
  -4   8   7   54.42    8.50
   4   8  -7   60.10    8.51
  -4   8   6   -4.66    4.26
  -4  -8   6    4.13    3.19
   4   8  -6    1.29    3.30
  -4   8   5   19.94    5.57
  -4  -8   5   17.64    5.06
   4   8  -5   22.31    5.72
  -4   8   4   59.69    8.45
  -4  -8   4   50.48    7.61
   4   8  -4   38.25    6.76
  -4   8   3   11.98    4.62
  -4  -8   3   14.36    4.72
   4  -8  -3   12.05    4.28
   4   8  -3   19.84    5.35
  -4  -8   2    2.12    3.32
  -4   8   2   -3.33    4.28
   4  -8  -2   -0.50    2.66
   4   8  -2   -1.65    2.94
  -4  -8   1   33.32    6.58
  -4   8   1   44.25    7.15
   4   8  -1   34.65    5.97
   4   8  -1   40.51    6.86
  -4  -8   0    6.90    3.61
   4  -8   0    5.29    3.72
  -4   8   0   -1.35    3.84
   4   8   0   -3.52    4.19
   4   8   0    4.32    3.12
  -4  -8  -1   -6.40    4.44
   4  -8   1    1.69    3.30
  -4   8  -1   -6.50    4.17
   4   8   1   -4.95    3.75
  -4  -8  -2    4.86    4.18
  -4   8  -2    4.77    4.36
   4   8   2    5.61    3.69
  -4  -8  -3  192.43   14.99
   4   8   3  224.23   15.47
  -4   8  -3  216.01   15.29
  -4   8  -4   22.63    6.15
   4   8   4   13.83    5.91
  -4   8  -5   21.42    5.78
  -4  -9   5   44.57    7.10
  -4  -9   4   18.00    5.51
   4   9  -4    3.70    3.73
  -4  -9   3   23.08    5.69
  -4   9   3   21.02    5.74
   4   9  -3   10.13    5.21
  -4  -9   2    4.23    3.28
  -4   9   2    7.57    4.95
   4   9  -2    1.25    3.87
  -4  -9   1   24.82    5.84
  -4   9   1   22.95    6.51
   4   9  -1   35.57    6.84
  -4   9   0    4.49    3.70
   4   9   0   -1.81    3.84
   4   9   0    2.41    3.82
  -4   9  -1   71.75    9.59
   4   9   1   65.50    8.58
   4   9   2    9.02    5.32
   5   0 -12   -2.21    4.05
   5   0 -11   94.50   11.34
   5   0 -10    9.28    4.64
   5   0  -9   97.10   10.90
   5   0  -8   -1.03    4.21
   5   0  -7  181.10   13.56
   5   0  -6    8.51    4.31
   5   0  -5   23.17    5.90
   5   0  -4   -2.35    3.23
   5   0  -3   33.86    6.13
   5   0  -2   -2.50    3.81
   5   0  -1  389.65   17.98
   5   0   0    4.84    3.66
  -5   0   0   -2.45    3.08
   5   0   1   23.43    5.30
  -5   0  -1   19.70    4.53
   5   0   1   18.74    3.82
   5   0   2    1.69    3.46
  -5   0  -2    1.55    2.80
   5   0   2    0.72    2.45
   5   0   3  131.90   10.89
   5   0   3  103.68    9.25
  -5   0  -3  123.77   10.09
   5   0   4   -0.86    2.94
   5   0   4   -2.09    3.47
  -5   0  -4    6.24    3.57
   5   0   5   -1.38    3.25
  -5   0  -5   -1.02    2.48
   5   0   5    2.71    3.96
   5   0   6   -2.55    4.33
   5   0   7    7.83    4.57
   5   0   8   -2.85    4.66
   5   1 -13   36.81    6.94
   5  -1 -12   13.70    5.03
   5   1 -12   17.82    5.07
   5  -1 -11    5.16    3.92
   5   1 -11   -0.59    4.31
   5  -1 -10   -5.61    3.99
   5   1 -10    3.86    3.93
   5  -1  -9   39.82    7.34
   5   1  -9   35.99    6.93
   5  -1  -8   53.41    8.30
   5   1  -8   74.81    9.46
   5  -1  -7    9.69    4.89
   5   1  -7    7.87    4.59
   5  -1  -6   28.81    6.24
   5   1  -6   27.66    5.81
   5  -1  -5   23.45    5.32
   5   1  -5   17.94    4.61
   5  -1  -4  106.73   10.27
   5   1  -4   96.20    9.43
   5  -1  -3    1.63    3.19
   5   1  -3    4.82    3.88
   5  -1  -2  112.24   10.06
   5   1  -2  123.36   10.24
  -5  -1   2  120.79    9.83
   5  -1  -1   71.65    8.46
   5   1  -1   63.11    7.31
  -5  -1   1   60.47    7.39
   5  -1   0   11.04    4.42
   5   1   0    9.00    3.87
   5   1   0   11.42    3.39
  -5  -1   0   11.28    3.90
   5  -1   1  155.30   11.86
   5   1   1  146.27   11.03
   5   1   1  122.67    9.22
  -5  -1  -1  127.01   10.14
   5   1   2   85.12    8.72
   5   1   2   77.44    7.77
   5  -1   2   84.18    9.11
  -5  -1  -2   66.28    7.64
  -5   1  -2   84.63    8.22
   5  -1   3    0.35    3.35
   5   1   3    8.24    3.77
  -5  -1  -3    8.30    3.63
  -5   1  -3    8.72    3.35
   5   1   3    2.73    3.07
   5   1   4    4.75    3.60
   5  -1   4    4.46    2.99
  -5  -1  -4   -1.82    3.21
  -5   1  -4   -0.95    2.72
   5   1   4    2.83    3.46
   5   1   5   44.52    6.70
   5  -1   5   52.91    7.79
  -5  -1  -5   38.56    5.81
   5   1   5   49.42    7.39
   5   1   6   13.25    4.75
   5  -1   6   20.51    5.12
   5   1   7   41.93    7.59
   5  -1   7   35.52    6.26
   5  -1   8    3.32    3.03
   5   1   8    3.03    4.66
   5   2 -13    2.30    3.37
   5   2 -12    6.37    3.61
   5  -2 -11   30.20    6.55
   5   2 -11   25.52    6.06
   5   2 -11   30.55    6.04
   5  -2 -10   16.35    5.37
   5   2 -10   11.08    5.38
   5  -2  -9   48.46    7.66
   5   2  -9   47.81    7.62
   5  -2  -8   15.91    5.07
   5   2  -8   14.80    5.08
   5  -2  -7  149.88   12.80
   5   2  -7  164.78   12.57
   5  -2  -6   25.30    5.68
   5   2  -6   27.75    5.90
  -5  -2   6   30.12    5.90
   5  -2  -5  117.15   10.99
   5   2  -5  120.21   10.68
  -5  -2   5  109.19   10.22
   5  -2  -4    4.50    4.01
   5   2  -4    7.44    3.97
  -5  -2   4    1.74    3.16
   5  -2  -3   24.81    5.28
   5   2  -3   27.90    5.51
  -5  -2   3   20.96    4.86
   5  -2  -2   36.38    6.36
   5   2  -2   47.58    6.57
  -5  -2   2   38.01    6.21
   5  -2  -1   61.23    7.99
   5   2  -1   63.27    7.29
  -5  -2   1   53.32    7.07
   5  -2   0   22.64    5.21
   5   2   0    9.04    3.65
   5   2   0   22.68    4.41
  -5  -2   0   15.02    4.57
   5  -2   1   41.58    6.98
   5   2   1   31.21    5.35
   5   2   1   24.81    4.62
  -5  -2  -1   30.74    5.73
   5  -2   2   46.33    7.28
   5   2   2   48.61    6.35
   5   2   2   49.82    6.55
  -5  -2  -2   57.51    7.51
   5  -2   3  199.01   14.13
   5   2   3  191.32   12.23
   5   2   3  207.47   12.97
  -5  -2  -3  183.05   12.53
  -5   2  -3  198.67   12.08
   5   2   4    9.37    4.00
   5  -2   4   11.82    4.86
   5   2   4    9.69    4.42
  -5  -2  -4    7.99    4.27
   5  -2   5   41.91    7.10
  -5  -2  -5   42.24    6.58
   5   2   5   34.59    6.13
   5  -2   5   40.22    6.81
  -5  -2  -6    7.52    3.48
   5  -2   6    3.79    3.68
   5   2   6   -2.26    3.90
   5  -2   7    2.72    3.21
   5   2   7    4.72    4.32
   5  -2   8   30.02    6.40
   5   2   8   42.39    7.73
   5  -2   9    3.95    3.33
   5   3 -12    9.84    4.55
   5  -3 -11   27.87    7.13
  -5  -3  11   25.97    5.95
   5   3 -11   34.74    6.86
   5  -3 -10    7.02    4.12
   5   3 -10   11.52    4.59
  -5  -3  10    5.08    3.92
   5   3 -10    8.90    3.96
   5  -3  -9    2.19    4.06
   5   3  -9    3.50    3.68
  -5  -3   9    5.69    3.78
   5  -3  -8   37.19    7.07
   5   3  -8   32.82    6.14
  -5  -3   8   40.24    6.54
   5  -3  -7   -2.85    3.63
   5   3  -7    6.01    3.11
  -5  -3   7    2.76    3.12
   5  -3  -6    0.50    3.21
   5   3  -6   -2.63    3.41
  -5  -3   6    1.35    2.93
   5  -3  -5   43.55    7.02
   5   3  -5   41.36    6.50
  -5  -3   5   39.13    6.63
   5  -3  -4    1.95    3.74
   5   3  -4   10.29    4.08
  -5  -3   4    4.04    3.65
   5  -3  -3   11.95    4.30
  -5  -3   3   10.48    4.10
   5   3  -2   88.51    8.40
   5  -3  -2   81.80    9.11
  -5  -3   2   86.77    8.90
   5  -3  -1   43.04    6.99
   5   3  -1   46.98    6.42
  -5  -3   1   38.26    6.50
   5  -3   0    4.61    3.82
   5   3   0   13.74    3.88
  -5  -3   0   15.51    4.98
   5   3   0    8.75    2.94
   5  -3   1   -0.15    3.59
  -5  -3  -1   -0.46    3.25
   5   3   1   -2.05    2.97
   5  -3   2    4.49    4.00
  -5  -3  -2    4.48    3.99
   5   3   2    2.08    2.94
   5  -3   3    7.22    3.75
  -5  -3  -3   11.28    4.00
   5   3   3    6.97    3.97
   5  -3   4   25.97    5.86
  -5  -3  -4   17.29    5.04
   5   3   4   18.50    5.13
   5  -3   5    5.68    4.06
  -5  -3  -5   -2.88    2.66
   5  -3   5    3.96    3.59
   5   3   5   -3.20    3.41
   5   3   6   21.35    5.78
  -5  -3  -6   17.69    4.67
   5  -3   6   23.96    5.56
   5   3   7   50.05    8.44
   5  -3   7   21.05    5.37
   5  -3   8    4.24    4.04
   5  -4 -11    8.53    4.32
   5   4 -11    5.28    4.24
   5  -4 -10    1.50    3.08
   5   4 -10    0.59    3.42
  -5  -4  10    1.37    3.03
   5   4 -10    2.49    3.75
   5  -4  -9    7.96    4.36
   5   4  -9   17.08    4.93
  -5  -4   9   22.62    5.29
   5   4  -9   12.17    4.40
   5  -4  -8    4.27    3.42
   5   4  -8    4.05    3.37
  -5  -4   8    1.92    2.98
   5  -4  -7   -3.06    3.95
   5   4  -7    2.18    2.59
  -5  -4   7    3.38    3.23
   5  -4  -6   -2.05    3.33
   5   4  -6   -0.61    2.58
  -5  -4   6   -7.69    4.57
   5  -4  -5   22.32    5.53
   5   4  -5   20.19    4.82
  -5  -4   5   17.03    5.37
   5  -4  -4    2.32    3.72
   5   4  -4    3.38    2.99
  -5  -4   4    4.40    3.52
   5  -4  -3   56.98    7.69
  -5  -4   3   49.11    7.33
   5  -4  -2   16.90    5.86
  -5  -4   2    2.83    3.23
   5  -4  -1   21.11    5.59
  -5  -4   1   25.01    5.90
   5  -4   0    2.06    3.79
  -5  -4   0   13.87    5.08
   5   4   0    7.01    2.93
   5  -4   1  148.63   12.48
  -5  -4  -1  166.61   12.62
   5   4   1  160.56   11.02
   5  -4   2   14.91    4.63
  -5  -4  -2   12.13    4.84
   5   4   2   14.38    4.57
   5  -4   3    1.56    3.63
  -5  -4  -3   -3.77    3.77
   5   4   3   -1.48    3.17
   5  -4   4   78.17    9.84
  -5  -4  -4   83.56    9.17
   5   4   4   76.15    8.75
  -5  -4  -5   22.38    5.59
   5  -4   5   35.05    7.12
   5   4   5   27.85    6.21
  -5  -4  -6    3.46    3.39
   5  -4   6    2.70    3.29
   5   4   6    1.86    3.86
  -5  -4  -7    6.19    4.45
   5  -4   7   -0.03    3.12
   5   4   7    4.17    4.98
   5  -5 -10    1.16    4.14
   5   5 -10    3.08    3.37
   5   5 -10    2.71    3.37
   5  -5  -9   11.04    5.03
   5   5  -9    5.43    3.02
  -5  -5   9   -1.38    3.06
   5   5  -9   -4.71    3.88
   5  -5  -8   10.89    4.32
   5   5  -8    5.11    3.13
   5  -5  -7   10.64    4.92
  -5  -5   7    9.55    4.68
   5  -5  -6    2.59    2.85
  -5  -5   6    6.22    3.92
   5  -5  -5    6.02    3.53
  -5  -5   5    2.31    3.03
   5  -5  -4    4.39    3.47
  -5  -5   4    6.06    4.12
   5  -5  -3    1.97    3.23
  -5  -5   3    2.66    4.19
   5  -5  -2   71.64    8.85
  -5  -5   2   80.57    9.44
   5  -5  -1    6.67    4.55
  -5  -5   1    1.07    3.07
   5  -5   0   -1.30    4.12
  -5  -5   0   -1.25    3.08
   5  -5   1   42.66    7.42
   5   5   1   25.97    5.26
  -5  -5  -1   37.84    6.67
   5  -5   2   -1.42    3.37
  -5  -5  -2    3.96    3.93
   5   5   2    1.96    3.01
   5  -5   3  125.01   12.10
  -5  -5  -3  128.44   11.73
   5   5   3  110.65   10.22
   5  -5   4    1.77    3.68
  -5  -5  -4   -5.82    4.62
   5   5   4    0.03    3.65
  -5  -5  -5   69.86    9.10
   5   5   5   60.47    8.36
   5  -5   5   64.39    8.80
  -5  -5  -6   58.14    8.50
   5   5   6   72.58    9.64
   5  -6  -9   -1.66    2.94
   5   6  -9    3.04    3.32
   5  -6  -8    0.41    3.46
  -5  -6   8    3.10    3.88
   5   6  -8    7.65    3.82
   5  -6  -7    1.61    2.93
  -5  -6   7    5.90    3.23
   5  -6  -6   -8.35    4.39
  -5  -6   6    2.84    3.68
   5  -6  -5    8.00    4.32
  -5  -6   5   23.60    5.77
   5  -6  -4   10.44    4.81
  -5  -6   4   14.56    4.80
   5  -6  -3    6.39    4.10
  -5  -6   3    1.44    3.92
   5  -6  -2   15.03    4.88
  -5  -6   2   13.64    4.90
   5  -6  -1   15.84    5.16
  -5  -6   1   25.39    6.26
   5  -6   0   16.41    5.17
  -5  -6   0    9.38    4.32
   5   6   1   38.69    6.55
   5  -6   1   41.81    7.39
  -5  -6  -1   23.22    6.04
   5   6   2    6.64    4.04
   5  -6   2    2.50    3.75
  -5  -6  -2   -2.90    4.46
   5  -6   3    9.42    4.19
  -5  -6  -3   19.27    5.91
   5   6   3   18.28    4.82
  -5  -6  -4   13.09    4.71
   5   6   4   11.09    4.46
   5  -7  -7    1.47    2.99
  -5  -7   7    6.39    4.27
  -5   7   7    8.28    4.67
   5  -7  -6  145.46   13.06
  -5  -7   6  153.24   13.06
   5  -7  -5   13.87    4.57
  -5  -7   5    1.26    3.73
   5  -7  -4    2.01    3.28
  -5  -7   4    1.44    3.34
   5  -7  -3    0.49    2.85
  -5  -7   3    0.53    3.59
   5  -7  -2   -0.34    3.23
  -5  -7   2   -3.63    4.28
   5  -7  -1    8.31    4.24
  -5  -7   1    7.01    4.14
   5  -7   0    3.66    3.41
  -5  -7   0    7.16    4.55
   5  -7   1   11.86    4.92
   5   7   2   71.29    8.81
   5   7   3   12.90    4.70
   6   0  -8   24.18    6.59
   6   0  -7   -2.39    3.93
   6   0  -6    7.07    4.86
   6   0  -5   -2.72    4.13
   6   0  -4   54.56    8.23
   6   0  -3    1.21    3.52
   6   0  -2  129.52   12.01
  -6   0   2  116.03   10.50
   6   0  -1   -0.37    3.33
  -6   0   1    5.73    3.48
   6   0   0   85.44    9.87
  -6   0   0   95.67    9.75
   6   0   1   -1.46    3.55
  -6   0  -1   -0.86    2.85
   6   0   2    7.25    4.76
  -6   0  -2    3.04    3.47
   6   0   3    0.28    2.79
  -6   0  -3    4.93    3.42
   6   0   4    6.76    3.83
   6  -1  -8   96.34   11.38
   6   1  -8   96.87   11.24
   6  -1  -7   39.94    7.57
   6   1  -7   43.11    7.82
   6  -1  -6    3.46    3.41
   6   1  -6   -1.81    3.33
   6  -1  -5    4.32    4.28
   6   1  -5    1.19    3.87
  -6  -1   5    1.14    3.35
   6  -1  -4   50.07    8.05
   6   1  -4   47.29    7.75
  -6  -1   4   40.70    7.08
   6  -1  -3   41.23    7.38
   6   1  -3   54.31    8.14
  -6  -1   3   45.88    7.34
   6  -1  -2   17.76    5.37
   6   1  -2   25.57    6.04
  -6  -1   2   19.61    5.04
   6  -1  -1   11.00    4.63
   6   1  -1    7.02    3.97
  -6  -1   1   13.88    4.95
   6  -1   0    6.42    4.71
   6   1   0   -1.20    2.90
  -6  -1   0   11.43    4.70
  -6   1   0    3.72    3.07
   6  -1   1   -0.58    3.68
   6   1   1    0.37    3.11
  -6  -1  -1    0.58    3.34
  -6   1  -1    5.07    3.25
   6  -1   2   17.51    4.93
   6   1   2    6.31    3.75
  -6  -1  -2   16.95    4.92
  -6   1  -2   15.38    4.40
   6   1   3   15.87    4.80
   6  -1   3   10.80    4.70
   6   1   3    7.07    3.90
  -6  -1  -3    9.83    4.05
   6  -1   4    1.25    4.09
  -6  -1  -4   16.78    5.26
   6   1   4   10.82    4.19
   6   1   5   16.35    4.90
   6   2  -8   11.15    5.11
  -6  -2   8   13.06    5.51
   6  -2  -7    8.49    4.73
   6   2  -7    8.71    4.44
  -6  -2   7    4.18    3.93
   6  -2  -6   27.21    6.40
   6   2  -6   23.49    5.87
  -6  -2   6   24.92    6.14
   6  -2  -5    3.48    4.21
   6   2  -5    7.24    4.13
  -6  -2   5    9.08    4.71
   6  -2  -4   -4.61    4.73
   6   2  -4    6.66    3.78
  -6  -2   4   -0.28    3.99
   6  -2  -3   54.73    8.46
   6   2  -3   44.78    7.17
  -6  -2   3   45.66    7.47
   6  -2  -2   10.04    4.81
   6   2  -2   24.99    5.83
  -6  -2   2   14.68    4.64
   6  -2  -1    3.04    3.93
   6   2  -1    0.59    3.50
  -6  -2   1    1.90    3.25
   6  -2   0    9.74    4.68
   6   2   0    7.50    3.43
  -6  -2   0   16.68    5.26
   6  -2   1    6.90    4.17
  -6  -2  -1   12.63    4.89
  -6   2  -1    5.38    2.46
   6  -2   2    5.84    3.41
  -6  -2  -2    8.63    3.97
  -6   2  -2   10.98    3.93
   6  -2   3   15.25    4.94
  -6  -2  -3   14.11    4.95
   6   2   3    8.82    3.90
  -6  -2  -4   23.97    5.87
   6   2   4   24.01    5.77
   6   3  -8    7.28    3.83
   6   3  -7   -2.21    3.81
  -6  -3   7    2.59    3.90
   6  -3  -6   32.48    7.06
   6   3  -6   26.55    6.08
  -6  -3   6   41.64    7.68
   6  -3  -5    7.31    4.55
   6   3  -5   14.01    4.76
  -6  -3   5   -1.54    4.77
   6  -3  -4    9.28    4.90
   6   3  -4   10.55    4.18
  -6  -3   4   14.96    5.30
   6  -3  -3    1.99    3.82
  -6  -3   3    3.04    3.60
   6  -3  -2   12.50    5.32
  -6  -3   2   10.63    4.68
   6  -3  -1    6.91    4.79
  -6  -3   1   10.27    4.63
   6  -3   0    9.88    4.35
  -6  -3   0   14.98    5.51
   6  -3   1  100.70   11.30
  -6  -3  -1  119.94   11.57
   6  -3   2    1.02    3.68
  -6  -3  -2   -7.87    4.86
  -6  -3  -3   34.34    6.73
   6   3   3   46.69    7.21
   6   3   4    9.97    4.88
   6  -4  -4   52.14    8.58
   6  -4  -3   -1.26    3.15
  -6  -4   3   -0.45    3.59
   6  -4  -2    1.90    3.46
  -6  -4   2    1.34    4.45
   6  -4  -1   -3.30    4.81
  -6  -4   1    9.70    4.63
   0   0   0    0.00    0.00

_computing_structure_solution     'SHELXT 2018/2 (Sheldrick, 2018)'
;
_shelx_hkl_checksum              88227
loop_
_space_group_symop_operation_xyz
'x, y, z'
'-x+1/2, y+1/2, -z+1/2'
'-x, -y, -z'
'x-1/2, -y-1/2, z-1/2'
loop_
_atom_site_label
_atom_site_type_symbol
_atom_site_fract_x
_atom_site_fract_y
_atom_site_fract_z
_atom_site_U_iso_or_equiv
_atom_site_adp_type
_atom_site_occupancy
_atom_site_site_symmetry_order
_atom_site_calc_flag
_atom_site_refinement_flags_posn
_atom_site_refinement_flags_adp
_atom_site_refinement_flags_occupancy
_atom_site_disorder_assembly
_atom_site_disorder_group
O1 O 0.4446(2) 0.50400(12) 0.70959(9) 0.0310(3) Uani 1 1 d . . . . .
N2 N 0.2454(2) 0.27494(14) 0.59373(10) 0.0231(3) Uani 1 1 d . . . . .
N1 N 0.4539(2) 0.15558(14) 0.61325(10) 0.0240(3) Uani 1 1 d . . . . .
N4 N 0.1908(3) 0.13967(14) 0.43391(10) 0.0261(3) Uani 1 1 d . . . . .
N3 N 0.0855(3) 0.26915(15) 0.48818(10) 0.0270(3) Uani 1 1 d . . . . .
C1 C 0.4134(3) 0.07386(16) 0.51206(11) 0.0216(3) Uani 1 1 d . . . . .
C2 C 0.1948(3) 0.40196(18) 0.68352(13) 0.0265(3) Uani 1 1 d . . . . .
H2B H 0.023(3) 0.467(2) 0.6461(14) 0.027(4) Uiso 1 1 d . . . . .
H2A H 0.149(3) 0.334(2) 0.7485(15) 0.029(4) Uiso 1 1 d . . . . .
H1 H 0.554(5) 0.455(3) 0.778(2) 0.065(6) Uiso 1 1 d . . . . .
loop_
_atom_site_aniso_label
_atom_site_aniso_U_11
_atom_site_aniso_U_22
_atom_site_aniso_U_33
_atom_site_aniso_U_23
_atom_site_aniso_U_13
_atom_site_aniso_U_12
O1 0.0332(6) 0.0301(6) 0.0280(6) -0.0025(4) -0.0010(4) -0.0009(4)
N2 0.0251(6) 0.0235(6) 0.0197(6) 0.0020(4) 0.0001(4) 0.0028(4)
N1 0.0257(6) 0.0254(6) 0.0203(6) 0.0015(5) 0.0011(4) 0.0036(5)
N4 0.0284(6) 0.0251(6) 0.0231(6) 0.0007(5) -0.0022(5) 0.0026(5)
N3 0.0293(6) 0.0259(6) 0.0237(6) 0.0007(5) -0.0029(5) 0.0030(5)
C1 0.0222(6) 0.0227(7) 0.0192(6) 0.0029(5) 0.0008(5) -0.0020(5)
C2 0.0303(7) 0.0249(7) 0.0241(7) -0.0014(6) 0.0030(6) 0.0031(6)
loop_
_atom_type_symbol
_atom_type_description
_atom_type_scat_dispersion_real
_atom_type_scat_dispersion_imag
_atom_type_scat_source
C C 0.0033 0.0016 'International Tables Vol C Tables 4.2.6.8 and 6.1.1.4'
H H 0.0000 0.0000 'International Tables Vol C Tables 4.2.6.8 and 6.1.1.4'
N N 0.0061 0.0033 'International Tables Vol C Tables 4.2.6.8 and 6.1.1.4'
O O 0.0106 0.0060 'International Tables Vol C Tables 4.2.6.8 and 6.1.1.4'
loop_
_geom_angle_atom_site_label_1
_geom_angle_atom_site_label_2
_geom_angle_atom_site_label_3
_geom_angle
_geom_angle_site_symmetry_1
_geom_angle_site_symmetry_3
_geom_angle_publ_flag
C2 O1 H1 104.6(13) . . ?
N3 N2 N1 114.11(11) . . ?
N3 N2 C2 123.05(11) . . ?
N1 N2 C2 122.83(11) . . ?
C1 N1 N2 101.35(10) . . ?
N3 N4 C1 105.55(11) . . ?
N2 N3 N4 105.99(10) . . ?
N1 C1 N4 113.00(12) . . ?
N1 C1 C1 123.58(14) . 3_656 ?
N4 C1 C1 123.41(15) . 3_656 ?
O1 C2 N2 110.01(11) . . ?
O1 C2 H2B 110.7(9) . . ?
N2 C2 H2B 104.3(9) . . ?
O1 C2 H2A 114.7(9) . . ?
N2 C2 H2A 103.4(9) . . ?
H2B C2 H2A 112.9(13) . . ?
loop_
_geom_bond_atom_site_label_1
_geom_bond_atom_site_label_2
_geom_bond_distance
_geom_bond_site_symmetry_2
_geom_bond_publ_flag
O1 C2 1.3854(17) . ?
O1 H1 0.95(2) . ?
N2 N3 1.3206(16) . ?
N2 N1 1.3309(15) . ?
N2 C2 1.4856(17) . ?
N1 C1 1.3229(17) . ?
N4 N3 1.3263(17) . ?
N4 C1 1.3519(16) . ?
C1 C1 1.458(3) 3_656 ?
C2 H2B 0.980(16) . ?
C2 H2A 0.970(17) . ?
loop_
_geom_contact_atom_site_label_1
_geom_contact_atom_site_label_2
_geom_contact_distance
_geom_contact_site_symmetry_1
_geom_contact_site_symmetry_2
_geom_contact_publ_flag
? ? ? ? ? ?
loop_
_geom_hbond_atom_site_label_D
_geom_hbond_atom_site_label_H
_geom_hbond_atom_site_label_A
_geom_hbond_distance_DH
_geom_hbond_distance_HA
_geom_hbond_distance_DA
_geom_hbond_angle_DHA
_geom_hbond_site_symmetry_A
C2 H2B N3 0.980(16) 2.602(16) 3.4022(19) 138.9(12) 3_566
loop_
_geom_torsion_atom_site_label_1
_geom_torsion_atom_site_label_2
_geom_torsion_atom_site_label_3
_geom_torsion_atom_site_label_4
_geom_torsion
_geom_torsion_site_symmetry_1
_geom_torsion_site_symmetry_2
_geom_torsion_site_symmetry_3
_geom_torsion_site_symmetry_4
_geom_torsion_publ_flag
N3 N2 N1 C1 -0.06(15) . . . . ?
C2 N2 N1 C1 179.17(12) . . . . ?
N1 N2 N3 N4 0.07(15) . . . . ?
C2 N2 N3 N4 -179.16(12) . . . . ?
C1 N4 N3 N2 -0.05(14) . . . . ?
N2 N1 C1 N4 0.03(15) . . . . ?
N2 N1 C1 C1 -178.84(16) . . . 3_656 ?
N3 N4 C1 N1 0.01(16) . . . . ?
N3 N4 C1 C1 178.88(15) . . . 3_656 ?
N3 N2 C2 O1 -116.46(14) . . . . ?
N1 N2 C2 O1 64.38(16) . . . . ?
