#------------------------------------------------------------------------------
#$Date: 2022-03-05 00:11:27 +0200 (Sat, 05 Mar 2022) $
#$Revision: 273361 $
#$URL: file:///home/coder/svn-repositories/cod/cif/7/70/93/7709389.cif $
#------------------------------------------------------------------------------
#
# This file is available in the Crystallography Open Database (COD),
# http://www.crystallography.net/
#
# All data on this site have been placed in the public domain by the
# contributors.
#
data_7709389
loop_
_publ_author_name
'H\"ammer, Matthias'
'Pielnhofer, Florian'
'Janka, Oliver'
'Takahashi, Hirotaka'
'Gross, Peter'
'P\"ottgen, Rainer'
'H\"oppe, Henning A'
_publ_section_title
;
 Polymorphism and optical, magnetic and thermal properties of the either
 phyllo- or inosilicate-analogous borosulfate
 Cu[B<sub>2</sub>(SO<sub>4</sub>)<sub>4</sub>].
;
_journal_issue                   8
_journal_name_full
'Dalton transactions (Cambridge, England : 2003)'
_journal_page_first              3104
_journal_page_last               3115
_journal_paper_doi               10.1039/d1dt04090a
_journal_volume                  51
_journal_year                    2022
_chemical_formula_moiety         'Cu O7 S2'
_chemical_formula_sum            'Cu O7 S2'
_chemical_formula_weight         239.66
_chemical_name_common            Cupperdisulfate
_chemical_name_systematic        'Copper(II) Disulfate'
_space_group_crystal_system      monoclinic
_space_group_IT_number           15
_space_group_name_Hall           '-C 2yc'
_space_group_name_H-M_alt        'C 1 2/c 1'
_audit_creation_method           SHELXL-2014/7
_cell_angle_alpha                90
_cell_angle_beta                 104.763(3)
_cell_angle_gamma                90
_cell_formula_units_Z            4
_cell_length_a                   6.6341(4)
_cell_length_b                   8.7302(5)
_cell_length_c                   9.0555(8)
_cell_measurement_reflns_used    1117
_cell_measurement_temperature    200(2)
_cell_measurement_theta_max      34.978
_cell_measurement_theta_min      3.942
_cell_volume                     507.15(6)
_computing_structure_refinement  'SHELXL-2014/7 (Sheldrick, 2014)'
_diffrn_ambient_temperature      200(2)
_diffrn_measured_fraction_theta_full 1.000
_diffrn_measured_fraction_theta_max 1.000
_diffrn_measurement_device_type  'D8 Venture Bruker'
_diffrn_measurement_method       'generic phi and omega scans'
_diffrn_radiation_type           MoK\a
_diffrn_radiation_wavelength     0.71073
_diffrn_reflns_av_R_equivalents  0.0370
_diffrn_reflns_av_unetI/netI     0.0205
_diffrn_reflns_Laue_measured_fraction_full 1.000
_diffrn_reflns_Laue_measured_fraction_max 1.000
_diffrn_reflns_limit_h_max       10
_diffrn_reflns_limit_h_min       -8
_diffrn_reflns_limit_k_max       14
_diffrn_reflns_limit_k_min       -14
_diffrn_reflns_limit_l_max       14
_diffrn_reflns_limit_l_min       -14
_diffrn_reflns_number            7880
_diffrn_reflns_point_group_measured_fraction_full 1.000
_diffrn_reflns_point_group_measured_fraction_max 1.000
_diffrn_reflns_theta_full        25.242
_diffrn_reflns_theta_max         34.978
_diffrn_reflns_theta_min         3.942
_exptl_absorpt_coefficient_mu    5.104
_exptl_absorpt_correction_type   multi-scan
_exptl_absorpt_process_details
; 
 multi-scan absorption correction using SADABS 
(G. M. Sheldrick, (1996). SADABS. Program for Empirical 
Absorption Correction. University of G\"ottingen, Germany.)
;
_exptl_crystal_colour            colourless
_exptl_crystal_density_diffrn    3.139
_exptl_crystal_description       block
_exptl_crystal_F_000             468
_exptl_crystal_size_max          0.06
_exptl_crystal_size_mid          0.05
_exptl_crystal_size_min          0.03
_exptl_transmission_factor_max   0.7497
_exptl_transmission_factor_min   0.6295
_refine_diff_density_max         0.824
_refine_diff_density_min         -0.433
_refine_diff_density_rms         0.127
_refine_ls_extinction_method     none
_refine_ls_goodness_of_fit_ref   1.076
_refine_ls_hydrogen_treatment    undef
_refine_ls_matrix_type           full
_refine_ls_number_parameters     48
_refine_ls_number_reflns         1117
_refine_ls_number_restraints     0
_refine_ls_restrained_S_all      1.076
_refine_ls_R_factor_all          0.0210
_refine_ls_R_factor_gt           0.0173
_refine_ls_shift/su_max          0.000
_refine_ls_shift/su_mean         0.000
_refine_ls_structure_factor_coef Fsqd
_refine_ls_weighting_details
'w=1/[\s^2^(Fo^2^)+(0.0236P)^2^+0.5936P] where P=(Fo^2^+2Fc^2^)/3'
_refine_ls_weighting_scheme      calc
_refine_ls_wR_factor_gt          0.0484
_refine_ls_wR_factor_ref         0.0494
_reflns_Friedel_coverage         0.000
_reflns_number_gt                1028
_reflns_number_total             1117
_reflns_threshold_expression     'I > 2\s(I)'
_cod_data_source_file            d1dt04090a8.cif
_cod_data_source_block           mo_MH622_1_1
_cod_depositor_comments
'Adding full bibliography for 7709384--7709391.cif.'
_cod_original_sg_symbol_H-M      'C 2/c'
_cod_database_code               7709389
_shelx_shelxl_version_number     2014/7
_shelx_space_group_comment
;
The symmetry employed for this shelxl refinement is uniquely defined
by the following loop, which should always be used as a source of
symmetry information in preference to the above space-group names.
They are only intended as comments.
;
_shelx_res_file
;

    mo_MH622_1_1.res created by SHELXL-2014/7


TITL mo_MH622_1_1 in C2/c
CELL 0.71073   6.63410   8.73020   9.05550  90.0000 104.7631  90.0000
ZERR    4.00   0.00040   0.00050   0.00081   0.0000   0.0031   0.0000
LATT  7
SYMM -X, Y, 0.5-Z
SFAC O S CU
UNIT 28 8 4
TEMP -73.150
ACTA
L.S. 100
BOND
FMAP 2
PLAN 20
OMIT 0 70
REM EXTI    0.000000
WGHT    0.023600    0.593600
FVAR       0.17816
MOLE   1
CU1   3    0.750000    0.250000    0.500000    10.50000    0.00865    0.01008 =
         0.00701   -0.00209    0.00128   -0.00113
S1    2    0.671370    0.101633    0.186015    11.00000    0.00878    0.00792 =
         0.00745   -0.00126    0.00154    0.00023
O1    1    0.818562    0.160688    0.321847    11.00000    0.00910    0.01495 =
         0.00864   -0.00325    0.00077   -0.00131
O2    1    0.500000    0.005976    0.250000    10.50000    0.01069    0.00761 =
         0.01399    0.00000    0.00470    0.00000
O3    1    0.554817    0.223921    0.092756    11.00000    0.01059    0.01372 =
         0.01327    0.00518    0.00122    0.00084
O4    1    0.758380   -0.009809    0.106420    11.00000    0.01552    0.01326 =
         0.01662   -0.00690    0.00718    0.00001
MOLE   2
HKLF 4

REM  mo_MH622_1_1 in C2/c
REM R1 =  0.0173 for    1028 Fo > 4sig(Fo)  and  0.0210 for all    1117 data
REM     48 parameters refined using      0 restraints

END

WGHT      0.0236      0.5936

REM Highest difference peak  0.824,  deepest hole -0.433,  1-sigma level  0.127
Q1    1   0.7095  0.0465  0.1401  11.00000  0.05    0.82
Q2    1   0.7986  0.3023  0.4623  11.00000  0.05    0.50
Q3    1   0.7584  0.1400  0.2363  11.00000  0.05    0.45
Q4    1   0.8242  0.1995  0.4832  11.00000  0.05    0.45
Q5    1   0.5969  0.0576  0.1966  11.00000  0.05    0.42
Q6    1   0.7507  0.1187  0.3094  11.00000  0.05    0.41
Q7    1   0.5910  0.1785  0.1546  11.00000  0.05    0.39
Q8    1   0.8232  0.2144  0.2918  11.00000  0.05    0.37
Q9    1   0.4747  0.2375  0.0139  11.00000  0.05    0.36
Q10   1   0.5465  0.2482  0.1301  11.00000  0.05    0.35
Q11   1   0.8750  0.1227  0.3474  11.00000  0.05    0.34
Q12   1   0.8190 -0.0554  0.1147  11.00000  0.05    0.33
Q13   1   0.8090  0.2100  0.3752  11.00000  0.05    0.33
Q14   1   0.9582  0.1002  0.4663  11.00000  0.05    0.32
Q15   1   0.5964  0.2267  0.0533  11.00000  0.05    0.32
Q16   1   0.5633  0.0487  0.2645  11.00000  0.05    0.31
Q17   1   1.0431  0.1992  0.3531  11.00000  0.05    0.30
Q18   1   0.8828  0.0852 -0.0110  11.00000  0.05    0.30
Q19   1   0.4956 -0.0416  0.2944  11.00000  0.05    0.30
Q20   1   0.7467  0.0780  0.0422  11.00000  0.05    0.29
;
_shelx_res_checksum              12102
_shelx_hkl_file
;
   2   0  -2   70.21    3.29
   2   0  -2   77.05    2.91
   2   0  -2   78.89    2.91
   2   0  -2   75.12    2.91
  -2   0   2   74.62    3.31
   4   0  -4  843.10   32.35
   4   0  -4  834.24   33.07
  -4   0   4  874.49   33.19
   4   0  -4  824.83   32.35
   4   0  -4  842.07   32.35
   6   0  -6    6.29    3.36
   6   0  -6    8.88    0.61
   6   0  -6    7.30    0.60
   6   0  -6    8.12    0.64
   8   0  -8  149.96    5.94
   8   0  -8  152.94    5.95
  10   0 -10    6.73    0.96
  10   0 -10    5.94    0.96
  12   0 -12   24.68    2.46
  12   0 -12   17.48    1.81
   1   1  -1  582.53   21.33
   1   1  -1  559.13   21.42
   1   1  -1  575.59   21.33
   1   1  -1  556.23   21.33
   1   1  -1  558.96   21.33
   1   1  -1  551.58   21.34
   1  -1  -1  570.18   21.33
  -1  -1   1  546.83   21.41
   1  -1  -1  523.84   21.57
   1  -1  -1  541.92   21.33
   3   1  -3   61.31    2.32
   3   1  -3   60.21    2.32
   3   1  -3   56.71    2.90
   3   1  -3   62.65    2.32
   3   1  -3   55.98    2.31
  -3   1   3   63.39    3.28
   3  -1  -3   60.99    2.32
   3  -1  -3   54.93    3.17
   3  -1  -3   60.25    2.32
  -3  -1   3   56.18    2.93
   3  -1  -3   59.91    2.31
   5   1  -5  251.26    9.58
   5   1  -5  243.26    9.58
   5   1  -5  245.10    9.57
   5   1  -5  247.37   10.67
  -5   1   5  243.21   11.15
   5   1  -5  249.24    9.57
   5  -1  -5  244.42    9.58
   5  -1  -5  259.14    9.58
  -5  -1   5  262.45   10.86
   5  -1  -5  240.56    9.58
   5  -1  -5  248.70   11.04
   7   1  -7    5.80    0.64
   7   1  -7    3.70    0.47
   7   1  -7    5.80    0.50
   7   1  -7   -0.30    4.90
   7  -1  -7   -2.06    6.54
   7  -1  -7    4.02    0.47
   7  -1  -7    4.45    0.48
   9   1  -9   61.59    2.93
   9   1  -9   65.39    2.76
   9  -1  -9   66.75    2.78
   9  -1  -9   63.02    3.15
  11   1 -11    0.66    1.17
  11  -1 -11    0.42    1.19
   0   2   0  153.35    5.75
   0   2   0  152.91    5.75
   0   2   0  152.12    5.75
   0   2   0  156.57    5.76
   0  -2   0  139.19    5.94
   0  -2   0  136.87    5.93
   0  -2   0  156.91    5.75
  -2   2   2   14.55    0.64
   2   2  -2   16.36    0.66
   2   2  -2   14.23    0.98
   2   2  -2   15.95    0.65
   2   2  -2   15.13    0.65
  -2   2   2   21.26    2.00
   2   2  -2   16.58    0.63
  -2  -2   2   15.17    0.97
   2  -2  -2   15.37    0.64
   2  -2  -2   16.32    0.66
   4   2  -4  203.64    8.11
   4   2  -4  209.00    8.12
  -4   2   4  222.64    9.41
   4   2  -4  217.30    8.75
   4   2  -4  213.10    8.12
   4   2  -4  209.46    8.11
   4  -2  -4  210.89    8.11
   4  -2  -4  203.43    9.26
   4  -2  -4  220.38    8.11
   4  -2  -4  206.15    8.12
  -4  -2   4  201.71    8.77
   6   2  -6   84.65    3.40
   6   2  -6   84.86    3.41
   6   2  -6   84.97    3.40
   6   2  -6   89.52    3.41
   6   2  -6   90.26    5.68
   6  -2  -6   86.90    3.41
   6  -2  -6   82.38    7.07
   6  -2  -6   86.81    3.41
   8   2  -8   11.73    0.91
   8   2  -8    8.47    0.95
   8   2  -8   10.05    0.91
   8  -2  -8   11.69    0.96
   8  -2  -8   10.52    0.96
  10   2 -10    8.36    0.98
  10   2 -10    8.28    1.02
  10  -2 -10    6.86    1.01
  10  -2 -10    8.02    1.01
  12   2 -12    1.07    1.44
  12   2 -12    2.09    1.79
  12  -2 -12    1.12    1.73
  12  -2 -12    3.79    1.57
  -1   3   1  243.76    9.58
   1   3  -1  260.16    9.59
   1   3  -1  239.50    9.56
  -1   3   1  248.10    9.56
   1   3  -1  238.94    9.56
   1   3  -1  245.25    9.57
   1  -3  -1  247.53    9.56
   1  -3  -1  283.86   10.27
  -1  -3   1  237.28    9.70
   3   3  -3  185.86    7.08
   3   3  -3  186.50    7.35
   3   3  -3  183.13    7.08
   3   3  -3  186.57    7.09
  -3   3   3  186.92    8.16
   3   3  -3  194.37    7.10
   3  -3  -3  178.87    7.08
  -3  -3   3  183.09    7.36
   3  -3  -3  182.25    7.08
   3  -3  -3  170.22    8.02
   5   3  -5   64.73    4.04
   5   3  -5   71.75    2.75
   5   3  -5   69.30    2.74
   5   3  -5   68.86    2.73
   5  -3  -5   67.21    2.75
   5  -3  -5   77.14    5.69
   7   3  -7   73.64    2.98
   7   3  -7   77.38    2.98
   7   3  -7   73.66    2.98
   7   3  -7   64.56    7.04
   7  -3  -7   73.21    2.99
   7  -3  -7   74.94    2.99
   9   3  -9    3.63    0.75
   9   3  -9    1.81    0.69
   9  -3  -9    1.68    0.71
   9  -3  -9    2.59    0.74
  11   3 -11   32.03    2.26
  11  -3 -11   28.92    2.38
   0   4   0  259.37    9.19
   0   4   0  237.22    9.17
   0   4   0  235.81    9.17
   0  -4   0  231.51    9.58
   0  -4   0  241.63    9.16
   0  -4   0  225.39    9.55
  -2   4   2  782.64   32.21
   2   4  -2  931.32   32.25
   2   4  -2  832.96   32.21
   2   4  -2  839.67   32.21
   2   4  -2  860.19   32.22
   2   4  -2  850.51   32.21
   2  -4  -2  829.37   32.22
   2  -4  -2  807.49   32.93
   2  -4  -2  827.87   32.21
   4   4  -4    1.27    0.27
   4   4  -4    1.49    0.25
   4   4  -4    2.04    0.27
  -4   4   4    1.78    0.26
   4   4  -4    1.69    0.23
   4   4  -4    1.77    0.26
   4  -4  -4    1.40    0.24
   4  -4  -4    1.43    0.26
   4  -4  -4   -1.13    2.40
   6   4  -6  164.76    8.05
   6   4  -6  177.78    8.11
   6   4  -6  186.09    6.90
   6   4  -6  178.49    6.88
   6   4  -6  175.73    6.90
   6   4  -6  172.56    6.87
   6  -4  -6  187.50   10.96
   6  -4  -6  176.09    6.88
   6  -4  -6  177.36    6.87
   6  -4  -6  178.50   11.54
   8   4  -8    2.46    0.59
   8   4  -8    1.31    0.56
   8   4  -8    2.03    0.60
   8  -4  -8    1.89    0.59
   8  -4  -8    1.92    0.60
  10   4 -10   64.39    3.04
  10   4 -10   69.95    3.03
  10  -4 -10   62.60    3.02
  10  -4 -10   66.72    3.03
  12   4 -12    1.41    1.56
  12   4 -12    1.71    2.87
  12  -4 -12    1.26    1.71
  12  -4 -12    0.05    2.16
  -1   5   1  256.14   10.01
  -1   5   1  262.93   10.03
   1   5  -1  257.87   10.01
   1   5  -1  273.57   10.04
   1   5  -1  261.24   10.01
   1   5  -1  269.08   10.02
   1  -5  -1  266.54   10.01
  -1  -5   1  261.58   10.37
   1  -5  -1  244.35   10.71
  -1  -5   1  249.61   10.34
   3   5  -3  100.74    3.69
  -3   5   3   94.59    3.66
   3   5  -3   92.07    3.65
  -3   5   3   92.00    3.64
   3   5  -3   90.48    3.64
   3   5  -3   92.90    3.64
   3   5  -3   95.01    3.66
   3  -5  -3   95.06    3.65
   3  -5  -3   91.41    3.65
   5   5  -5   78.50    3.04
   5   5  -5   80.71    3.10
   5   5  -5   80.74    3.07
   5   5  -5   75.59    3.08
   5   5  -5   73.66    3.07
  -5   5   5   76.68    3.06
   5  -5  -5   78.39    3.07
   5  -5  -5   93.45    7.26
   5  -5  -5   70.30    7.70
   5  -5  -5   75.39    3.07
   5  -5  -5   75.09    3.07
   7   5  -7   26.36    1.29
   7   5  -7   23.98    1.34
   7   5  -7   24.74    1.29
   7   5  -7   26.95    1.31
   7  -5  -7    7.59   13.53
   7  -5  -7   25.44    1.27
   7  -5  -7   26.67    1.33
   9   5  -9   22.74    1.59
   9   5  -9   23.13    1.54
   9  -5  -9   23.48    1.55
   9  -5  -9   21.70    1.59
  11   5 -11   10.41    1.62
  11   5 -11   10.77    1.41
  11  -5 -11    9.28    1.45
  11  -5 -11    9.76    1.46
   0   6   0  154.48    5.98
   0   6   0  150.06    5.99
   0   6   0  167.83    6.02
   0  -6   0  140.48    7.07
   0  -6   0  155.17    6.78
   0  -6   0  158.70    5.97
   2   6  -2    3.86    0.32
   2   6  -2    3.60    0.36
   2   6  -2    3.38    0.38
  -2   6   2    3.61    0.29
   2   6  -2    4.48    0.35
  -2   6   2    2.67    0.37
   2  -6  -2    3.76    0.32
   2  -6  -2    2.93    2.07
   2  -6  -2    3.68    0.39
   2  -6  -2    2.45    2.06
   4   6  -4  185.68    7.21
   4   6  -4  194.72    7.26
  -4   6   4  190.97    7.27
   4   6  -4  181.89    7.21
  -4   6   4  178.07    7.20
   4   6  -4  191.64    7.23
   4   6  -4  187.55    7.20
   4  -6  -4  188.32   10.05
   4  -6  -4  184.66    7.22
   4  -6  -4  182.57    7.22
  -6   6   6   17.63    1.15
   6   6  -6   19.57    1.04
   6   6  -6   18.24    1.08
   6   6  -6   16.73    1.00
   6   6  -6   19.55    1.05
   6  -6  -6   24.65    9.85
   6  -6  -6   22.49    8.29
   6  -6  -6   19.49    1.01
   6  -6  -6   18.85    1.08
   8   6  -8   21.51    1.31
   8   6  -8   21.25    1.37
   8  -6  -8   20.68    1.39
  10   6 -10    2.89    1.09
  10   6 -10    3.03    1.19
  10  -6 -10    3.34    1.12
  10  -6 -10    2.29    1.11
  -1   7   1   93.99    3.83
   1   7  -1  100.64    3.83
  -1   7   1   99.56    3.87
   1   7  -1  101.22    3.88
   1   7  -1   98.71    3.83
   1   7  -1   99.09    3.84
   1  -7  -1   99.50    3.83
   1  -7  -1   95.56    5.35
  -1  -7   1  101.61    4.73
  -1  -7   1   99.28    4.69
   1  -7  -1   92.86    5.51
  -1  -7   1   96.61    3.82
  -3   7   3   35.76    1.44
   3   7  -3   34.10    1.38
  -3   7   3   31.61    1.42
   3   7  -3   37.24    1.47
   3   7  -3   34.11    1.43
   3  -7  -3   34.49    5.05
   3  -7  -3   28.42    1.44
   3  -7  -3   31.34    5.26
   3  -7  -3   33.70    1.42
   5   7  -5  129.11    5.02
  -5   7   5  123.99    5.03
   5   7  -5  125.16    5.05
   5   7  -5  136.26    5.09
   5   7  -5  137.41    5.04
   5   7  -5  127.46    5.04
   5  -7  -5  125.43    5.05
   5  -7  -5  128.11    5.03
   5  -7  -5  126.97   11.71
   5  -7  -5  121.71   10.50
   7   7  -7    0.65    0.54
   7   7  -7    1.38    0.64
   7   7  -7    0.40    0.58
   7   7  -7    0.87    0.56
   7  -7  -7    1.47    0.68
   7  -7  -7    1.55    0.56
   7  -7  -7    1.18    0.64
   9   7  -9   34.31    2.03
   9   7  -9   36.34    2.02
   9  -7  -9   34.39    2.11
   9  -7  -9   33.18    2.06
  11   7 -11    1.05    1.74
  11   7 -11    0.16    1.45
  11  -7 -11    0.89    1.54
  11  -7 -11    0.87    1.57
   0   8   0  283.54   10.77
   0   8   0  287.86   10.82
   0   8   0  276.28   10.79
   0  -8   0  276.01   11.91
   0  -8   0  273.45   10.76
   2   8  -2   51.19    2.14
   2   8  -2   54.35    2.12
  -2   8   2   52.30    2.13
   2   8  -2   54.93    2.19
  -2   8   2   53.61    2.17
   2  -8  -2   51.33    2.15
   2  -8  -2   56.77    5.42
   2  -8  -2   50.83    5.76
   2  -8  -2   51.49    2.14
   4   8  -4   88.82    3.50
   4   8  -4   89.36    3.52
  -4   8   4   88.46    3.53
   4   8  -4   89.14    3.48
  -4   8   4   83.43    3.49
   4   8  -4   93.46    3.55
   4  -8  -4   88.49    3.51
   4  -8  -4   86.69    3.50
   4  -8  -4   81.08    8.87
   6   8  -6   11.75    1.02
  -6   8   6   10.40    1.13
   6   8  -6   10.98    0.96
   6   8  -6   10.41    0.91
   6   8  -6   10.04    0.89
   6   8  -6   10.64    0.93
   6  -8  -6    6.50   13.39
   6  -8  -6    9.54    0.97
   6  -8  -6   10.57    1.06
   6  -8  -6   11.17    1.07
   8   8  -8   34.96    1.86
   8   8  -8   33.86    1.81
   8   8  -8   32.47    1.90
   8  -8  -8   28.62    1.91
   8  -8  -8   34.95    1.85
  10   8 -10   13.88    1.56
  10   8 -10   13.46    1.42
  10  -8 -10   12.92    1.52
  10  -8 -10   11.84    1.50
  -1   9   1   76.38    3.10
   1   9  -1   80.96    3.10
  -1   9   1   75.76    3.05
   1   9  -1   74.48    3.06
   1   9  -1   75.51    3.04
  -1  -9   1   75.25    5.53
   1  -9  -1   83.25    8.89
   1  -9  -1   83.40    6.39
  -1  -9   1   76.82    3.04
   1  -9  -1   77.12    3.04
  -1  -9   1   69.70    4.94
  -3   9   3   56.87    2.37
   3   9  -3   58.28    2.34
   3   9  -3   61.98    2.43
   3   9  -3   55.10    2.37
  -3   9   3   58.76    2.42
   3   9  -3   60.74    2.36
   3  -9  -3   55.96    2.38
   3  -9  -3   56.23    9.22
   3  -9  -3   57.92    2.37
   3  -9  -3   52.03    8.17
  -5   9   5   12.11    1.08
   5   9  -5   13.16    1.00
   5   9  -5   13.33    0.92
   5   9  -5   12.72    0.95
   5   9  -5   13.94    1.01
   5  -9  -5   12.70    1.05
   5  -9  -5   12.81    0.99
   7   9  -7   41.52    1.81
   7   9  -7   33.15    1.77
   7   9  -7   32.43    1.84
   7   9  -7   31.91    1.88
   7  -9  -7   37.56    1.96
   7  -9  -7   33.81    1.86
   7  -9  -7   33.73    2.38
   9   9  -9    6.28    1.26
   9   9  -9    7.02    1.18
   9  -9  -9    6.54    1.23
  11   9 -11   12.08    2.16
  11   9 -11   13.31    1.79
  11  -9 -11   12.74    2.01
  11  -9 -11   13.19    2.16
   0  10   0    5.11    0.63
   0  10   0    4.87    0.47
   0 -10   0    6.00    0.52
   0 -10   0    7.26    3.97
   2  10  -2  110.68    4.36
   2  10  -2  109.18    4.31
  -2  10   2  104.83    4.29
   2  10  -2  110.27    4.28
   2 -10  -2  114.15    4.31
  -2 -10   2  111.23    4.28
   2 -10  -2  105.20    4.29
   2 -10  -2  100.97    8.97
   4  10  -4    0.73    0.48
   4  10  -4    0.67    0.48
   4  10  -4    0.77    0.48
  -4  10   4    1.06    0.55
   4  10  -4    0.54    0.47
   4 -10  -4    0.36    0.51
   4 -10  -4    0.66    0.52
   6  10  -6   62.32    2.85
   6  10  -6   69.35    2.78
  -6  10   6   65.60    2.88
   6  10  -6   65.91    2.85
   6  10  -6   63.07    2.83
   6 -10  -6   64.08    2.83
   6 -10  -6   63.18    3.15
   6 -10  -6   71.11    3.34
   8  10  -8    1.90    0.99
   8  10  -8    0.26    1.09
   8  10  -8   -0.26    1.06
   8 -10  -8    1.33    1.10
   8 -10  -8    0.04    1.35
   8 -10  -8    0.92    0.96
  10  10 -10    8.67    1.58
  10  10 -10    8.17    1.74
  10 -10 -10    7.31    1.75
  10 -10 -10    7.17    1.76
  -1  11   1   16.92    1.02
   1  11  -1   15.82    1.00
   1  11  -1   18.09    0.99
   1  11  -1   16.05    0.99
  -1  11   1   16.78    1.02
  -1 -11   1   16.36    4.03
   1 -11  -1   15.15    5.80
   1 -11  -1   17.15    1.03
   1 -11  -1   16.50    1.03
  -3  11   3   32.98    1.79
   3  11  -3   39.83    1.78
   3  11  -3   41.84    1.82
   3  11  -3   38.88    1.74
  -3  11   3   38.64    1.84
   3 -11  -3   37.27    1.78
   3 -11  -3   41.63    1.79
   5  11  -5   11.37    1.11
   5  11  -5   11.77    1.12
   5  11  -5   13.34    1.18
   5  11  -5   13.74    1.16
  -5  11   5   10.73    0.90
   5 -11  -5   10.67    0.91
   5 -11  -5   11.96    0.97
   7  11  -7   24.63    1.79
   7  11  -7   22.53    1.70
  -7  11   7   24.15    2.06
   7  11  -7   19.76    1.66
   7 -11  -7   25.49    2.01
   7 -11  -7   21.49    2.14
   7 -11  -7   22.33    1.82
   9  11  -9    0.13    1.55
   9  11  -9   -0.25    1.44
   9  11  -9    0.89    1.35
   9 -11  -9    1.22    1.51
   0  12   0   75.48    3.15
   0  12   0   75.16    3.21
   0 -12   0   81.18    3.17
  -2  12   2   17.52    1.23
   2  12  -2   19.48    1.18
  -2  12   2   19.48    1.21
   2  12  -2   18.15    1.16
   2  12  -2   19.68    1.18
   2 -12  -2   19.16    1.21
   2 -12  -2   18.92    1.18
  -4  12   4   35.02    1.82
  -4  12   4   33.99    1.91
   4  12  -4   33.49    1.76
   4  12  -4   33.99    1.72
   4  12  -4   36.90    1.76
   4 -12  -4   32.93    1.81
   4 -12  -4   33.94    1.83
   6  12  -6    6.29    0.96
  -6  12   6    5.11    1.04
   6  12  -6    6.11    1.04
   6  12  -6    6.73    0.98
   6  12  -6    6.19    0.95
   6 -12  -6    3.76    0.97
   6 -12  -6    5.61    1.10
   6 -12  -6    5.58    1.09
   8  12  -8   14.87    1.54
   8  12  -8   17.40    2.02
   8  12  -8   17.61    1.91
   8 -12  -8   17.24    1.90
   8 -12  -8   16.20    1.45
   8 -12  -8   15.16    1.62
  -1  13   1   32.69    1.75
  -1  13   1   32.99    1.71
   1  13  -1   35.52    1.74
   1  13  -1   34.65    1.69
   1 -13  -1   35.59    1.74
   3  13  -3    9.01    0.88
   3  13  -3    9.33    0.83
  -3  13   3   10.44    1.24
  -3  13   3    8.12    0.84
   3  13  -3    9.03    1.06
   3 -13  -3    7.47    0.91
   3 -13  -3   11.15    0.93
   5  13  -5   19.36    1.56
  -5  13   5   18.46    1.69
   5  13  -5   17.28    1.42
   5  13  -5   18.55    1.58
   5 -13  -5   20.59    1.77
   5 -13  -5   15.60    1.64
   7  13  -7    4.81    1.30
   7  13  -7    1.14    1.17
   7  13  -7    4.55    1.14
   7  13  -7   -0.12    1.74
   7 -13  -7    2.86    1.18
   7 -13  -7    3.80    1.54
   7 -13  -7    1.90    1.48
   9  13  -9   15.07    1.81
   9  13  -9   15.38    1.99
   0  14   0   31.99    1.75
   0  14   0   33.55    1.83
   0 -14   0   35.28    1.93
   0 -14   0   32.71    1.81
  -2  14   2    0.62    0.76
  -2  14   2    1.07    0.79
   2  14  -2    0.49    0.66
   2  14  -2   -0.15    0.75
   2 -14  -2    0.11    0.78
   2 -14  -2    0.77    0.86
   4  14  -4   35.85    2.06
  -4  14   4   36.02    2.20
  -4  14   4   35.42    2.16
   4  14  -4   38.01    1.99
   4  14  -4   36.08    2.01
   4 -14  -4   36.26    2.16
   4 -14  -4   38.41    2.15
   6  14  -6    1.98    1.23
   6  14  -6    0.24    1.01
  -6  14   6    0.43    1.56
   6 -14  -6    0.72    1.31
   6 -14  -6    1.36    1.17
   8  14  -8   12.86    1.71
   8 -14  -8   15.83    2.49
   1  15  -1    6.81    0.93
   1  15  -1    4.34    0.92
  -1  15   1    5.97    0.98
  -1  15   1    5.14    0.88
   1 -15  -1    4.02    1.05
  -1 -15   1    5.96    0.98
   1 -15  -1    3.59    0.96
   3  15  -3   13.75    1.36
  -3  15   3   12.86    1.63
  -3  15   3   11.94    1.14
   3  15  -3   12.55    1.13
   3 -15  -3    9.95    1.22
  -3 -15   3   13.48    1.27
   3 -15  -3   14.04    1.23
   5  15  -5    7.01    1.28
   5  15  -5    7.19    1.18
  -5  15   5    6.06    1.30
   5  15  -5    5.20    1.11
   5 -15  -5    6.34    1.37
  -5 -15   5    5.23    1.36
   5 -15  -5    6.48    1.31
   5 -15  -5    5.75    1.71
   7  15  -7    6.40    1.41
   7  15  -7    5.15    1.91
   7 -15  -7    8.16    1.77
   0  16   0    0.47    0.94
   0  16   0   -0.96    0.98
   0 -16   0   -0.40    1.06
  -2  16   2   47.49    2.50
  -2  16   2   43.03    2.99
   2  16  -2   50.83    3.52
   2  16  -2   48.01    2.41
   2 -16  -2   42.41    2.98
   4  16  -4   -0.49    1.22
  -4  16   4   -0.66    1.23
   4  16  -4    0.39    1.04
  -4 -16   4    0.60    1.33
   4 -16  -4    0.28    1.28
   4 -16  -4   -0.54    1.30
  -6  16   6   15.11    2.00
   6  16  -6   16.71    1.89
   6  16  -6   14.39    1.95
  -1  17   1   10.19    1.27
   1  17  -1    6.72    1.17
   1  17  -1    6.62    1.24
  -1  17   1    9.31    1.29
   1 -17  -1   10.96    1.40
  -1 -17   1   12.40    1.41
   3  17  -3   12.37    1.42
  -3  17   3    9.52    1.46
   3  17  -3   15.26    2.12
  -3  17   3   15.13    2.15
   3 -17  -3   12.04    1.57
  -3 -17   3   11.13    1.59
   3 -17  -3   14.79    1.62
   5  17  -5    0.78    1.60
  -5  17   5   -2.20    1.73
   5  17  -5    0.33    1.26
   5 -17  -5    1.17    1.67
   5 -17  -5   -0.71    1.69
   0  18   0    0.46    1.19
   0  18   0    1.52    1.32
   0 -18   0   -0.13    1.51
   2  18  -2   16.23    2.21
  -2  18   2   11.77    1.58
   2  18  -2   11.95    1.78
  -2  18   2   12.92    2.30
   2 -18  -2   13.75    1.97
  12   0 -11    0.12    1.46
  12   0 -11    0.97    1.35
  10   0  -9    0.50    0.82
  10   0  -9    0.52    0.80
   8   0  -7    0.28    0.44
   8   0  -7   -0.14    0.46
   6   0  -5    0.18    0.27
   6   0  -5   -0.07    2.68
   6   0  -5    0.05    0.27
  -6   0   5    0.29    3.32
   6   0  -5    0.24    0.32
   4   0  -3    0.04    0.15
   4   0  -3    0.15    0.20
   4   0  -3    0.05    0.16
   4   0  -3    0.34    0.17
  -4   0   3   -0.33    1.26
   4   0  -3   -0.67    1.25
   4   0  -3   -0.02    0.15
   2   0  -1    0.02    0.09
   2   0  -1    0.09    0.11
   2   0  -1    0.18    0.09
  -2   0   1   -0.05    0.52
   2   0  -1   -0.36    0.52
   0   0   1    0.06    0.21
   0   0   1    0.06    0.04
   2   0  -3    0.15    0.11
   2   0  -3   -0.08    0.12
   2   0  -3   -0.25    0.71
   2   0  -3    0.03    0.09
   4   0  -5    0.03    0.20
   4   0  -5    0.19    0.19
   4   0  -5    0.16    1.52
   4   0  -5   -0.10    0.22
   6   0  -7    0.08    0.33
   6   0  -7   -0.01    0.34
   6   0  -7   -0.32    3.89
   6   0  -7    0.01    0.33
   6   0  -7    0.42    3.73
   8   0  -9    0.38    0.57
   8   0  -9    0.33    0.53
  10   0 -11    0.05    0.92
  10   0 -11    0.31    0.99
  12   0 -13   -0.79    1.52
  11   1 -10    4.88    1.14
  11   1 -10    5.15    1.10
  11  -1 -10    4.92    1.12
  11  -1 -10    4.17    1.12
   9   1  -8   10.02    1.03
   9   1  -8   10.88    1.05
   9  -1  -8    9.68    1.06
   9  -1  -8   10.24    1.19
   7   1  -6   24.50    1.11
   7   1  -6   23.75    1.13
   7   1  -6   24.06    1.13
   7  -1  -6   21.80    1.12
   7  -1  -6   24.48    1.13
   7  -1  -6   15.21    5.04
   5   1  -4  104.48    3.94
   5   1  -4   97.39    3.94
   5   1  -4  103.40    3.94
   5   1  -4  110.41    5.33
   5   1  -4  100.40    3.94
  -5   1   4  107.51    5.67
   5  -1  -4   97.14    3.94
   5  -1  -4   94.05    3.92
   5  -1  -4  100.72    3.92
   5  -1  -4  102.00    3.94
   5  -1  -4  100.47    5.58
  -5  -1   4  100.89    5.31
  -3   1   2    9.50    1.51
   3   1  -2   10.42    0.46
   3   1  -2   10.09    0.48
   3   1  -2   10.40    0.48
   3   1  -2   10.52    0.47
   3   1  -2    8.03    1.30
   3  -1  -2    9.02    1.60
   3  -1  -2   10.95    0.48
   3  -1  -2   10.57    0.48
  -3  -1   2    9.93    1.34
   3  -1  -2   10.80    0.47
  -1   1   0  128.83    5.47
   1   1   0  134.07    5.23
   1   1   0  132.53    5.23
   1   1   0  135.55    5.23
  -1   1   0  143.33    5.24
   1   1   0  146.22    5.24
   1   1   0  137.71    5.24
   1   1   0  132.24    5.40
  -1   1   0  133.36    5.23
   1   1   0  135.54    5.23
   1  -1   0  141.36    5.24
   1  -1   0  142.77    5.23
  -1  -1   0  128.67    5.40
   1   1  -2   60.07    2.52
   1   1  -2   62.81    2.36
   1   1  -2   61.79    2.36
   1   1  -2   62.61    2.36
   1   1  -2   59.55    2.36
   1   1  -2   63.60    2.35
   1  -1  -2   60.20    2.35
   1  -1  -2   57.69    2.74
   3   1  -4    0.16    0.17
   3   1  -4   -0.15    0.92
   3   1  -4    0.55    0.18
   3   1  -4    0.36    0.16
   3   1  -4    0.11    0.13
   3  -1  -4   -0.20    1.21
   3  -1  -4   -0.29    0.18
   3  -1  -4   -0.14    0.18
   3  -1  -4    0.44    0.16
   5   1  -6   20.56    0.95
   5   1  -6   20.93    0.94
   5   1  -6   22.97    3.42
   5  -1  -6   21.08    0.95
   5  -1  -6   22.89    3.94
   5  -1  -6   21.45    0.97
   7   1  -8   -0.99    5.60
   7   1  -8    1.15    0.43
   7   1  -8    0.51    0.42
   7   1  -8    1.42    0.43
   7  -1  -8    0.18    0.42
   7  -1  -8    0.61    6.21
   7  -1  -8    0.64    0.42
   7  -1  -8    0.39    0.47
   9   1 -10    8.26    0.85
   9   1 -10    7.08    0.87
   9  -1 -10    7.89    0.85
   9  -1 -10    9.63    1.18
  11   1 -12    3.38    1.26
  11   1 -12    3.88    1.41
  11  -1 -12    2.35    1.42
  11  -1 -12    7.30    1.33
  12   2 -11    0.56    1.50
  12   2 -11    1.66    1.37
  12  -2 -11   -0.04    1.39
  12  -2 -11   -0.01    1.51
  10   2  -9    2.67    0.83
  10   2  -9    3.45    0.89
  10  -2  -9    1.61    0.86
  10  -2  -9    3.52    0.91
   8   2  -7   11.15    0.89
   8   2  -7   11.98    0.93
   8  -2  -7   12.07    0.92
   8  -2  -7   12.99    0.95
   6   2  -5   41.74    1.71
   6   2  -5   41.23    1.71
  -6   2   5   49.33    6.11
   6   2  -5   41.62    1.81
   6   2  -5   38.40    1.69
   6   2  -5   43.12    4.27
   6  -2  -5   41.82    1.70
   6  -2  -5   40.23    5.56
   6  -2  -5   41.37    1.71
   4   2  -3  151.82    5.80
  -4   2   3  146.54    6.94
   4   2  -3  151.98    5.81
   4   2  -3  146.55    5.81
   4   2  -3  154.54    6.50
   4   2  -3  153.27    5.82
  -4  -2   3  146.50    6.46
   4  -2  -3  149.51    5.80
   4  -2  -3  149.97    7.00
   4  -2  -3  149.93    5.80
   4  -2  -3  153.85    5.81
   2   2  -1  394.79   14.08
   2   2  -1  363.61   14.30
  -2   2   1  356.08   14.06
  -2   2   1  365.88   14.07
   2   2  -1  369.10   14.06
  -2   2   1  371.74   14.79
   2   2  -1  359.75   14.06
   2   2  -1  376.52   14.07
   2   2  -1  369.72   14.07
   2  -2  -1  374.14   14.07
   2  -2  -1  335.51   14.53
  -2  -2   1  355.34   14.30
   2  -2  -1  374.30   14.06
   0   2   1  672.57   26.26
   0   2  -1  708.33   25.96
   0   2  -1  696.65   25.95
   0   2  -1  717.31   25.96
   0   2  -1  643.81   26.08
   0   2   1  680.35   25.96
   0   2  -1  670.45   25.95
   0   2   1  684.41   25.97
   0  -2   1  634.96   26.08
   0  -2  -1  660.25   26.25
   0  -2  -1  681.10   25.95
   2   2  -3  489.91   18.99
   2   2  -3  489.64   19.15
   2   2  -3  480.27   18.98
   2   2  -3  508.07   18.99
   2   2  -3  495.87   18.99
   2   2  -3  470.89   19.15
   2   2  -3  508.97   18.99
   2  -2  -3  493.06   18.98
   2  -2  -3  558.57   19.88
   2  -2  -3  456.53   19.55
   4   2  -5  216.20    8.97
   4   2  -5  209.81    8.30
   4   2  -5  207.19    8.97
   4   2  -5  220.79    8.31
   4   2  -5  220.18    8.31
   4   2  -5  217.81    8.30
   4  -2  -5  214.50    8.30
   4  -2  -5  216.55    8.30
   4  -2  -5  207.75    9.60
   4  -2  -5  223.17    9.68
   4  -2  -5  216.38    8.31
   6   2  -7   77.34    5.95
   6   2  -7   91.34    6.31
   6   2  -7   89.07    3.47
   6   2  -7   89.04    3.46
   6   2  -7   89.29    3.46
   6  -2  -7   87.63    3.46
   6  -2  -7   86.18    3.46
   6  -2  -7   86.02    3.45
   6  -2  -7   90.59    7.85
   8   2  -9   44.07    1.94
   8   2  -9   45.62    1.94
   8   2  -9   42.69    1.93
   8  -2  -9   40.28    1.94
   8  -2  -9   42.41    1.96
  10   2 -11   17.39    1.66
  10   2 -11   14.85    1.66
  10  -2 -11   16.44    1.72
  10  -2 -11   15.59    1.65
  12   2 -13    3.67    1.64
  12   2 -13   -0.82    2.29
  12  -2 -13    4.79    1.97
  12  -2 -13    1.51    2.09
  11   3 -10    0.78    1.08
  11   3 -10    1.16    1.17
  11  -3 -10    0.72    1.12
  11  -3 -10    1.24    1.15
   9   3  -8    0.79    1.11
   9   3  -8    2.88    0.68
   9  -3  -8    3.37    0.70
   9  -3  -8    2.49    0.77
   7   3  -6    3.15    0.46
   7   3  -6    4.79    0.45
   7   3  -6    3.78    0.46
   7   3  -6    3.48    0.45
   7  -3  -6    5.12    0.48
   7  -3  -6    3.81    5.33
   7  -3  -6    4.24    0.45
   5   3  -4    1.37    0.27
   5   3  -4    0.90    0.26
  -5   3   4    0.63    2.65
   5   3  -4    1.62    0.27
   5   3  -4    1.35    0.26
   5   3  -4    1.42    1.67
   5  -3  -4    0.97    0.27
  -5  -3   4    1.12    1.83
   5  -3  -4    0.98    0.25
   5  -3  -4    1.41    0.29
   5  -3  -4    1.90    3.07
   3   3  -2  135.26    5.31
   3   3  -2  144.57    5.34
   3   3  -2  137.72    5.32
   3   3  -2  136.56    5.32
   3   3  -2  142.30    5.33
   3   3  -2  134.96    5.70
  -3   3   2  131.90    5.31
  -3   3   2  138.47    6.29
   3  -3  -2  138.52    5.32
   3  -3  -2  137.94    5.32
  -3  -3   2  139.99    5.72
   1   3   0    0.88    0.13
   1   3   0    0.85    0.15
  -1   3   0    0.97    0.13
   1   3   0    0.92    0.14
   1   3   0    0.83    0.13
   1   3   0    0.73    0.60
   1  -3   0    1.06    0.13
  -1  -3   0    1.29    0.61
   1  -3   0    1.56    0.72
   1  -3   0    0.64    0.13
   1   3  -2    8.13    0.36
  -1   3   2    6.91    0.37
   1   3  -2    7.85    0.36
   1   3  -2    7.88    0.37
  -1   3   2    7.14    0.40
   1   3  -2    8.36    0.39
   1   3  -2    7.90    0.37
   1  -3  -2    7.44    1.13
   1  -3  -2    7.71    0.39
   1  -3  -2   11.44    1.83
   3   3  -4    1.37    0.20
   3   3  -4    0.93    0.16
   3   3  -4    1.01    0.18
   3   3  -4    1.47    0.21
   3   3  -4    0.60    0.19
   3  -3  -4    0.04    1.50
   3  -3  -4    0.82    0.20
   3  -3  -4    0.48    1.55
   3  -3  -4    0.88    0.23
   5   3  -6    1.45    0.32
   5   3  -6    2.03    0.32
   5   3  -6    1.41    0.30
   5   3  -6    1.38    0.29
   5   3  -6    1.32    1.86
   5   3  -6    1.12    1.89
   5  -3  -6    0.79    3.24
   5  -3  -6    1.43    0.32
   5  -3  -6    2.67    3.75
   5  -3  -6    1.54    0.29
   7   3  -8   12.87    4.45
   7   3  -8   21.71    1.10
   7   3  -8   21.90    1.14
   7   3  -8   21.54    1.11
   7  -3  -8   18.99    1.14
   7  -3  -8   21.29    1.16
   9   3 -10   -0.46    0.71
   9   3 -10    1.26    0.80
   9   3 -10    0.50    0.75
   9  -3 -10    2.12    0.78
   9  -3 -10    1.21    0.80
  11   3 -12    0.84    1.25
  11   3 -12    0.36    1.58
  11  -3 -12    1.71    1.40
  11  -3 -12    1.03    1.31
  12   4 -11   -0.49    1.45
  12   4 -11   -0.45    1.65
  12  -4 -11    0.46    1.58
  12  -4 -11    0.03    1.57
  10   4  -9    0.63    0.89
  10   4  -9   -0.15    0.92
  10  -4  -9   -0.09    0.88
  10  -4  -9    0.12    0.90
   8   4  -7   -0.08    0.61
   8   4  -7    0.96    0.54
   8   4  -7    0.22    0.53
   8   4  -7    0.35    0.55
   8  -4  -7   -0.34    0.51
   8  -4  -7    0.45    0.55
   6   4  -5    2.36    0.38
   6   4  -5    2.82    0.38
   6   4  -5    2.77    2.45
   6   4  -5    3.36    0.38
   6   4  -5    2.73    0.41
   6  -4  -5    2.37    0.39
   6  -4  -5    3.63    0.41
   6  -4  -5    4.17    9.21
   6  -4  -5    2.02    0.36
  -4   4   3   15.07    3.84
   4   4  -3   12.05    0.59
   4   4  -3    9.84    0.55
   4   4  -3   11.20    0.56
   4   4  -3   10.20    0.53
  -4   4   3    9.10    0.55
   4   4  -3   10.77    1.78
   4   4  -3   10.40    0.52
  -4  -4   3    9.27    1.69
   4  -4  -3    9.33    0.56
   4  -4  -3    9.85    0.54
   4  -4  -3   10.24    0.59
   4  -4  -3   10.80    2.56
  -2   4   1    0.02    0.15
   2   4  -1    0.39    0.17
   2   4  -1   -0.04    0.75
  -2   4   1    0.31    0.15
  -2   4   1    0.85    1.54
   2   4  -1    0.52    0.15
   2   4  -1    0.23    0.15
   2   4  -1    0.34    0.16
   2   4  -1    0.09    0.18
   2  -4  -1    0.05    0.15
  -2  -4   1   -0.02    0.66
   2  -4  -1    0.33    0.16
   2  -4  -1    0.41    1.23
   0   4   1    0.41    0.16
   0   4  -1    0.52    0.15
   0   4  -1    0.54    0.14
   0   4   1    0.26    0.14
   0   4   1    0.68    0.16
   0   4  -1    0.57    0.14
   0  -4   1    0.55    0.74
   0  -4  -1    0.37    0.15
   0  -4  -1   -0.24    0.92
   0  -4   1    0.28    0.14
   2   4  -3    0.44    0.16
   2   4  -3    0.32    0.17
   2   4  -3    0.62    0.19
  -2   4   3    0.50    0.15
  -2   4   3    0.41    0.17
   2   4  -3    0.83    0.19
   2   4  -3    0.82    0.17
   2  -4  -3    0.38    0.18
   2  -4  -3    0.06    0.19
   2  -4  -3    1.42    1.89
   2  -4  -3    0.74    1.44
   4   4  -5    1.99    0.30
   4   4  -5    2.84    0.29
   4   4  -5    2.37    0.29
   4   4  -5    2.71    0.30
   4   4  -5    2.82    0.26
  -4   4   5    1.78    0.25
   4  -4  -5   -0.07    2.92
   4  -4  -5    2.26    0.26
   4  -4  -5    4.73    3.56
   6   4  -7    0.35    0.42
   6   4  -7    0.88    0.34
   6   4  -7    0.04    0.37
   6   4  -7    0.91    0.41
   6  -4  -7    0.70    0.37
   6  -4  -7   -0.19    5.89
   6  -4  -7    0.22    0.41
   6  -4  -7   -0.49    5.77
   8   4  -9    3.20    0.64
   8   4  -9    1.67    0.60
   8   4  -9    1.52    0.66
   8  -4  -9    1.27    0.84
   8  -4  -9    2.02    0.64
  10   4 -11   -0.04    1.02
  10   4 -11    0.18    1.17
  10  -4 -11    0.83    0.99
  10  -4 -11    2.46    1.10
  12   4 -13    1.23    1.70
  12  -4 -13   -0.69    1.90
  11   5 -10   15.68    1.40
  11   5 -10   12.98    1.54
  11  -5 -10   13.24    1.48
  11  -5 -10   13.37    1.47
   9   5  -8   22.36    1.51
   9   5  -8   24.84    1.51
   9  -5  -8   23.70    1.56
   9  -5  -8   22.85    1.52
   7   5  -6   30.86    1.45
   7   5  -6   30.38    1.44
   7   5  -6   30.54    1.46
   7   5  -6   30.02    1.42
   7  -5  -6   30.96    1.45
   7  -5  -6   31.19    1.44
   7  -5  -6   30.95    1.42
   7  -5  -6   25.78    7.89
   5   5  -4    5.05    0.56
   5   5  -4    4.99    0.51
   5   5  -4    4.34    0.51
   5   5  -4    5.44    0.51
  -5   5   4    5.76    3.92
  -5   5   4    5.86    0.55
   5  -5  -4    6.16    0.56
   5  -5  -4    4.51    0.42
   5  -5  -4    3.95    3.81
   3   5  -2  100.44    3.96
   3   5  -2   97.67    3.95
   3   5  -2  104.11    3.97
   3   5  -2  101.55    3.95
  -3   5   2  100.08    3.95
  -3   5   2   98.62    3.97
  -3   5   2  107.95    5.58
   3   5  -2  109.23    4.00
   3  -5  -2  101.31    3.95
   3  -5  -2  103.30    3.96
  -3  -5   2  108.64    4.36
   3  -5  -2   89.19    5.52
   1   5   0   -0.17    0.18
  -1   5   0   -0.15    0.17
  -1   5   0   -0.02    0.17
   1   5   0    0.12    0.17
   1   5   0    0.16    0.18
   1   5   0    0.19    0.18
   1  -5   0    0.33    1.14
  -1  -5   0    0.82    0.97
   1  -5   0    0.12    0.19
   1   5  -2    0.97    0.21
   1   5  -2    0.65    0.18
   1   5  -2    0.75    0.17
  -1   5   2    0.61    0.19
   1   5  -2    0.47    0.17
  -1   5   2    0.10    0.18
   1   5  -2    0.59    0.36
   1  -5  -2    1.16    1.49
   1  -5  -2    1.57    0.23
   1  -5  -2   -0.33    1.58
  -3   5   4    1.09    0.24
   3   5  -4    1.59    0.24
   3   5  -4    1.22    0.25
  -3   5   4    1.13    0.24
   3   5  -4    1.89    0.28
   3   5  -4    1.40    0.23
   3  -5  -4    1.29    2.19
   3  -5  -4    1.24    0.24
   3  -5  -4    4.18    3.16
   3  -5  -4    1.37    0.25
   5   5  -6    5.79    0.53
   5   5  -6    6.39    0.60
   5   5  -6    6.69    0.62
   5   5  -6    5.14    0.61
   5   5  -6    4.81    0.43
   5  -5  -6    3.30    4.48
   5  -5  -6    4.48    0.42
   5  -5  -6    6.42    0.60
   5  -5  -6    7.77    5.38
   7   5  -8    8.57    0.92
   7   5  -8    9.57    0.87
   7   5  -8    9.53    0.92
   7  -5  -8    7.48    0.65
   7  -5  -8   10.89    0.97
   9   5 -10    0.68    0.83
   9   5 -10   -0.26    0.83
   9   5 -10    0.57    0.93
   9  -5 -10   -0.24    0.87
   9  -5 -10    0.13    0.83
  11   5 -12    0.43    1.62
  11   5 -12    0.53    1.37
  11  -5 -12   -0.45    1.44
  11  -5 -12    0.36    1.53
  12   6 -11    0.22    1.90
  10   6  -9    2.43    1.00
  10   6  -9    1.81    1.10
  10  -6  -9    2.62    1.06
  10  -6  -9    3.12    1.09
   8   6  -7   11.73    1.10
   8   6  -7   11.30    1.15
   8   6  -7   10.10    1.05
   8  -6  -7   10.78    1.16
   6   6  -5   21.28    1.10
   6   6  -5   20.86    1.08
   6   6  -5   22.95    1.13
   6   6  -5   20.66    1.14
   6  -6  -5   21.09    1.08
   6  -6  -5   20.84    5.99
   6  -6  -5   20.49    1.12
   6  -6  -5   21.36    1.13
   4   6  -3   20.07    0.92
   4   6  -3   19.49    0.95
  -4   6   3   18.49    0.94
  -4   6   3   20.02    0.94
   4   6  -3   20.01    0.90
   4   6  -3   19.47    0.89
   4   6  -3   21.48    0.96
   4  -6  -3   20.06    0.94
   4  -6  -3   26.21    3.97
   4  -6  -3   20.14    0.93
  -2   6   1   60.51    2.30
   2   6  -1   58.35    2.29
   2   6  -1   57.27    2.27
  -2   6   1   53.82    2.27
   2   6  -1   59.26    2.31
   2   6  -1   57.06    2.27
   2  -6  -1   55.53    2.27
  -2  -6   1   55.50    3.06
   2  -6  -1   62.55    4.00
   2  -6  -1   57.58    2.27
   0   6  -1   39.56    1.54
   0   6  -1   36.42    1.50
   0   6   1   34.75    1.50
   0   6   1   38.43    1.54
   0   6   1   38.98    1.51
   0   6  -1   36.30    1.51
   0  -6   1   40.88    2.53
   0  -6  -1   33.30    2.99
   0  -6  -1   35.89    1.50
   0  -6   1   38.97    1.50
   0  -6  -1   33.48    2.83
   0  -6   1   39.17    2.62
  -2   6   3   13.67    0.67
   2   6  -3   13.59    0.67
   2   6  -3   13.79    0.72
   2   6  -3   14.36    0.70
   2   6  -3   14.78    0.68
  -2   6   3   13.78    0.91
   2   6  -3   14.41    0.65
   2  -6  -3    8.50    2.32
   2  -6  -3   14.21    0.69
   2  -6  -3   17.72    2.85
   4   6  -5   14.13    0.76
   4   6  -5   14.13    0.75
   4   6  -5   13.05    0.75
   4   6  -5   13.72    0.79
   4   6  -5   14.78    0.71
  -4   6   5   13.74    0.76
  -4   6   5   13.18    0.76
   4  -6  -5   13.21    0.78
   4  -6  -5   11.02    4.58
   4  -6  -5   10.32    3.75
   4  -6  -5   13.95    0.77
   6   6  -7   16.74    1.05
  -6   6   7   17.32    1.14
   6   6  -7   17.68    1.05
   6   6  -7   17.33    1.01
   6   6  -7   18.16    0.96
   6  -6  -7   10.47    8.68
   6  -6  -7   -0.08    9.38
   6  -6  -7   15.24    1.05
   6  -6  -7   16.57    1.00
   8   6  -9    5.68    0.86
   8   6  -9    4.47    0.76
   8   6  -9    5.30    0.73
   8  -6  -9    4.09    0.76
   8  -6  -9    4.01    0.80
  10   6 -11    1.66    1.29
  10   6 -11    1.87    1.46
  10  -6 -11    1.33    1.29
  11   7 -10    0.06    1.34
  11   7 -10    0.76    1.53
  11  -7 -10    0.33    1.46
  11  -7 -10    0.49    1.45
   9   7  -8    2.23    0.90
   9   7  -8    2.83    0.87
   9   7  -8    0.02    0.97
   9  -7  -8    2.24    0.94
   9  -7  -8    2.50    0.91
   7   7  -6    6.47    0.66
   7   7  -6    6.37    0.72
   7   7  -6    5.01    0.69
   7   7  -6    6.58    0.63
   7  -7  -6    7.74    0.71
   7  -7  -6    5.51    0.69
   7  -7  -6   10.93   16.93
   7  -7  -6    6.56    0.63
   5   7  -4    0.71    0.35
   5   7  -4    1.27    0.38
  -5   7   4    0.56    0.44
   5   7  -4    1.41    0.38
   5   7  -4    1.10    0.38
   5   7  -4    1.03    0.37
   5  -7  -4    2.23    5.38
   5  -7  -4    0.81    0.38
   5  -7  -4    1.38    0.42
   5  -7  -4    0.67    9.36
   3   7  -2   76.42    2.97
  -3   7   2   75.65    3.01
   3   7  -2   76.38    3.00
   3   7  -2   82.67    3.03
  -3   7   2   70.03    2.97
   3  -7  -2   73.51    2.99
   3  -7  -2   76.69    3.02
   3  -7  -2   70.94    5.74
  -1   7   0   12.72    0.67
   1   7   0   13.45    0.68
   1   7   0   11.77    0.63
  -1   7   0   12.23    0.63
   1   7   0   11.41    0.65
  -1  -7   0   12.96    1.93
   1  -7   0   11.96    0.65
   1  -7   0   13.98    2.44
  -1  -7   0   12.64    0.65
  -1  -7   0   12.84    1.99
  -1   7   2    7.69    0.53
   1   7  -2    8.00    0.48
   1   7  -2    8.33    0.53
   1   7  -2    8.27    0.56
  -1   7   2    7.98    0.56
   1   7  -2    8.02    0.50
  -1  -7   2   10.57    1.50
  -1  -7   2   10.83    1.41
  -1  -7   2    8.81    0.52
   1  -7  -2    6.95    0.54
   1  -7  -2    6.89    2.43
   1  -7  -2    8.75    2.68
   3   7  -4    3.86    0.35
   3   7  -4    3.13    0.38
   3   7  -4    2.69    0.32
  -3   7   4    2.95    0.37
   3   7  -4    3.40    0.38
  -3   7   4    3.11    0.38
   3  -7  -4    4.21    7.43
   3  -7  -4    2.30    3.33
   3  -7  -4    2.71    0.36
   3  -7  -4    3.46    0.39
   5   7  -6    4.49    0.49
   5   7  -6    4.81    0.54
  -5   7   6    4.23    0.53
   5   7  -6    5.25    0.52
   5   7  -6    4.64    0.46
   5   7  -6    5.91    0.66
   5  -7  -6    3.40    6.75
   5  -7  -6    5.96    0.55
   5  -7  -6    4.43    0.47
   5  -7  -6    8.28   12.80
   7   7  -8    7.78    1.06
   7   7  -8    7.63    0.79
   7   7  -8    7.46    0.69
   7  -7  -8    7.13    0.81
   7  -7  -8    8.73    0.72
   9   7 -10    0.53    1.12
   9   7 -10    0.45    0.96
   9   7 -10    0.08    0.91
   9  -7 -10    0.28    1.03
   9  -7 -10   -0.37    1.01
  11   7 -12   -0.53    1.58
  11   7 -12   -0.62    2.42
  11  -7 -12   -0.80    2.09
  11  -7 -12    1.14    1.65
  10   8  -9    0.55    1.19
  10  -8  -9    1.84    1.99
   8   8  -7    0.44    0.80
   8   8  -7   -0.60    0.80
   8   8  -7   -0.23    0.73
   8  -8  -7    0.27    0.79
   8  -8  -7    0.05    0.92
   8  -8  -7   -1.07    0.68
   6   8  -5    1.04    0.52
  -6   8   5   -0.19    0.57
   6   8  -5    0.50    0.47
   6   8  -5    0.61    0.53
   6   8  -5    0.08    0.49
   6   8  -5    0.91    0.53
   6  -8  -5    0.38    0.51
   6  -8  -5   -0.70   10.86
   6  -8  -5    0.52    0.57
   6  -8  -5    0.56    0.55
  -4   8   3    1.23    0.41
   4   8  -3    1.28    0.36
  -4   8   3    0.71    0.42
   4   8  -3    0.42    0.38
   4   8  -3    1.80    0.35
   4   8  -3    1.65    0.39
   4  -8  -3    1.45    4.45
   4  -8  -3    1.14    0.37
   4  -8  -3    1.47    0.39
   2   8  -1   33.93    1.46
   2   8  -1   35.46    1.45
   2   8  -1   35.72    1.50
  -2   8   1   35.70    1.50
  -2   8   1   33.10    1.46
   2   8  -1   36.28    1.46
  -2  -8   1   33.07    3.16
   2  -8  -1   33.47    4.79
   2  -8  -1   35.69    4.63
  -2  -8   1   32.62    3.25
   2  -8  -1   33.48    1.46
   0   8   1   53.67    2.11
   0   8   1   54.53    2.16
   0   8  -1   50.77    2.11
   0   8  -1   51.48    2.15
   0   8   1   51.92    2.13
   0   8  -1   50.13    2.12
   0  -8  -1   51.22    2.11
   0  -8   1   57.99    3.96
   0  -8  -1   54.79    4.38
   2   8  -3   51.98    2.10
  -2   8   3   51.22    2.08
   2   8  -3   51.29    2.03
   2   8  -3   48.64    2.08
   2   8  -3   51.53    2.06
  -2   8   3   50.81    2.05
   2  -8  -3   48.55    5.56
   2  -8  -3   50.41    2.06
   2  -8  -3   43.77    6.18
  -4   8   5   39.29    1.76
   4   8  -5   42.45    1.68
   4   8  -5   41.24    1.72
   4   8  -5   37.68    1.74
   4   8  -5   43.59    1.78
  -4   8   5   39.18    1.74
   4   8  -5   39.54    1.71
   4  -8  -5   38.19    1.75
   4  -8  -5   42.00    1.72
   4  -8  -5   28.50    5.83
   6   8  -7   40.90    1.93
   6   8  -7   44.55    1.94
   6   8  -7   40.58    1.85
  -6   8   7   42.92    2.01
   6   8  -7   41.36    1.86
   6   8  -7   39.81    1.89
   6  -8  -7   41.27    1.91
   6  -8  -7   42.57    1.99
   6  -8  -7   40.57    1.96
   8   8  -9   10.60    1.09
   8   8  -9    6.91    0.91
   8  -8  -9    8.14    0.94
   8  -8  -9    7.81    1.03
  10   8 -11    3.07    1.37
  10   8 -11    1.98    1.53
  10  -8 -11    2.97    1.48
  10  -8 -11    1.99    1.44
  11   9 -10    1.89    2.22
  11   9 -10    4.36    1.58
  11  -9 -10    3.68    1.97
   9   9  -8    7.24    1.12
   9   9  -8    8.93    1.24
   9  -9  -8    8.96    1.25
   7   9  -6   20.32    1.39
   7   9  -6   19.38    1.42
   7   9  -6   18.23    1.33
   7   9  -6   19.23    1.29
   7  -9  -6   16.95    1.53
   7  -9  -6   18.06    1.35
   5   9  -4   67.08    2.73
   5   9  -4   67.05    2.78
  -5   9   4   64.97    2.75
   5   9  -4   66.01    2.69
   5   9  -4   67.13    2.75
   5  -9  -4   65.38    2.75
   5  -9  -4   65.03    2.73
  -3   9   2   15.61    0.90
   3   9  -2   16.09    0.89
   3   9  -2   17.78    0.93
   3   9  -2   15.57    0.88
   3   9  -2   15.41    0.90
  -3   9   2   15.91    0.95
   3  -9  -2   18.05    0.92
   3  -9  -2   11.36    6.01
   3  -9  -2   16.58    0.90
   3  -9  -2   15.38    4.15
   1   9   0   58.83    2.30
  -1   9   0   53.66    2.24
   1   9   0   58.65    2.25
   1   9   0   56.86    2.25
  -1   9   0   50.75    2.28
  -1  -9   0   58.46    2.24
   1  -9   0   56.18    2.23
  -1  -9   0   52.19    4.73
   1  -9   0   54.82    5.31
  -1  -9   0   43.75    4.67
  -1   9   2   27.92    1.33
   1   9  -2   30.29    1.30
  -1   9   2   28.30    1.30
   1   9  -2   28.41    1.31
   1   9  -2   30.21    1.25
  -1  -9   2   26.92    3.21
  -1  -9   2   32.59    3.43
   1  -9  -2   28.63    4.86
   1  -9  -2   30.17    5.39
   1  -9  -2   28.27    1.29
   3   9  -4    4.93    0.64
   3   9  -4    5.45    0.49
   3   9  -4    4.59    0.48
  -3   9   4    4.58    0.48
  -3   9   4    3.84    0.52
   3   9  -4    4.35    0.43
   3  -9  -4    4.58    0.48
   3  -9  -4    4.15    0.48
   3  -9  -4    2.64    4.99
   5   9  -6    1.65    0.53
   5   9  -6    1.36    0.52
  -5   9   6    0.54    0.58
   5   9  -6    1.24    0.53
   5   9  -6    1.40    0.50
   5   9  -6    1.30    0.61
   5  -9  -6    0.90    0.62
   5  -9  -6    0.69    0.55
   7   9  -8    1.96    0.79
   7   9  -8    0.22    0.72
   7   9  -8    0.23    0.82
   7   9  -8    1.32    0.84
   7  -9  -8    0.37    0.88
   7  -9  -8    1.58    0.77
   9   9 -10    2.55    2.06
   9   9 -10    4.28    1.23
   9  -9 -10    4.41    1.66
  10  10  -9    1.22    1.44
  10  10  -9    0.23    1.55
  10 -10  -9    2.49    1.64
  10 -10  -9    0.26    1.58
   8  10  -7    1.22    0.94
   8  10  -7    2.52    1.05
   8  10  -7    2.29    0.99
   8 -10  -7    2.90    1.06
   8 -10  -7    3.02    1.16
   8 -10  -7    2.35    0.94
   6  10  -5    2.95    0.70
  -6  10   5    1.97    0.76
   6  10  -5    2.20    0.71
   6  10  -5    3.09    0.67
   6  10  -5    2.70    0.73
   6 -10  -5    2.28    0.69
   6 -10  -5    3.40    0.81
   4  10  -3    0.11    0.48
   4  10  -3    0.23    0.47
  -4  10   3   -0.31    0.49
   4  10  -3    0.51    0.46
   4  10  -3    0.30    0.45
  -4  10   3    0.21    0.55
   4 -10  -3    0.38    0.49
   4 -10  -3   -0.44    0.50
  -2  10   1    1.14    0.43
   2  10  -1    1.77    0.42
  -2  10   1    0.91    0.40
   2  10  -1    2.50    0.41
   2  10  -1    1.27    0.42
   2 -10  -1    0.87    0.38
   2 -10  -1    2.07    0.47
   2 -10  -1    0.70    4.89
  -2 -10   1    1.52    0.44
  -2 -10   1    1.84    2.99
   0  10  -1    0.09    0.40
   0  10   1   -0.39    0.39
   0  10  -1    0.65    0.34
   0  10   1   -0.18    0.37
   0 -10  -1   -0.75    4.31
   0 -10  -1   -0.68    0.42
   2  10  -3    3.61    0.48
   2  10  -3    4.00    0.44
  -2  10   3    3.79    0.49
  -2  10   3    3.71    0.51
   2  10  -3    3.42    0.45
   2 -10  -3    4.13    0.53
   2 -10  -3    3.83    0.51
   2 -10  -3    3.87    6.09
   4  10  -5    3.82    0.55
   4  10  -5    3.37    0.57
   4  10  -5    2.99    0.55
   4  10  -5    3.35    0.50
  -4  10   5    3.66    0.61
  -4  10   5    3.18    0.68
   4 -10  -5    3.63    0.58
   4 -10  -5    1.53    0.59
   6  10  -7   -0.16    0.67
   6  10  -7    0.08    0.73
   6  10  -7    1.15    0.73
  -6  10   7    0.13    0.87
   6  10  -7   -0.10    0.73
   6  10  -7   -0.31    0.75
   6 -10  -7    0.28    0.81
   6 -10  -7    0.50    0.88
   6 -10  -7    0.38    0.73
   8  10  -9   -0.02    1.04
   8  10  -9    0.06    1.02
   8  10  -9    0.76    1.14
   8  10  -9   -0.21    1.16
   8 -10  -9    1.40    1.17
   8 -10  -9    0.94    1.02
  10  10 -11    1.14    1.70
   9  11  -8    5.30    1.35
   9  11  -8   -0.33    1.37
   9  11  -8    1.82    1.39
   9 -11  -8    2.23    1.50
   7  11  -6    4.08    0.98
  -7  11   6    3.27    1.11
   7  11  -6    3.25    0.89
   7  11  -6   -0.28    1.02
   7  11  -6    5.12    1.01
   7 -11  -6    4.12    0.92
   7 -11  -6    3.45    1.09
   7 -11  -6    2.16    1.06
   5  11  -4   13.31    1.14
   5  11  -4   12.81    1.11
   5  11  -4   12.39    1.13
   5  11  -4   11.76    1.13
  -5  11   4   12.31    1.23
   5 -11  -4   11.94    1.21
   5 -11  -4   11.70    1.23
   3  11  -2    0.19    0.46
   3  11  -2    0.51    0.45
   3  11  -2   -0.25    0.49
  -3  11   2   -0.08    0.51
  -3  11   2    0.68    0.56
  -3 -11   2   -0.19    0.57
   3 -11  -2    0.30    0.54
   3 -11  -2    0.13    0.51
   1  11   0    2.60    0.48
  -1  11   0    2.31    0.45
   1  11   0    2.93    0.50
   1  11   0    3.69    0.50
  -1  11   0    3.42    0.51
  -1 -11   0    1.55    4.57
   1 -11   0    3.04    0.53
   1 -11   0    6.53    5.42
  -1 -11   0    2.37    0.53
   1  11  -2    0.47    0.40
   1  11  -2    0.36    0.43
  -1  11   2    0.36    0.42
   1  11  -2   -0.12    0.46
  -1  11   2    0.38    0.47
   1 -11  -2    0.39    0.50
  -3  11   4   -0.12    0.61
  -3  11   4    0.12    0.55
   3  11  -4    0.02    0.47
   3  11  -4   -0.31    0.47
   3  11  -4    1.23    0.55
   3  11  -4   -0.33    0.53
   3 -11  -4   -0.25    0.55
   3 -11  -4    0.03    0.57
   5  11  -6    1.95    0.70
   5  11  -6    1.56    0.71
   5  11  -6    3.21    0.81
   5  11  -6    1.29    0.72
   5 -11  -6    1.66    0.74
   5 -11  -6    2.09    0.84
   7  11  -8   -0.45    1.15
   7  11  -8    0.82    0.99
   7  11  -8    1.85    0.96
   7  11  -8    2.15    1.00
   7  11  -8    1.82    1.00
  -7  11   8    1.41    1.24
   7 -11  -8    1.33    0.98
   7 -11  -8    2.05    1.27
   7 -11  -8    2.88    1.14
   9  11 -10    1.30    1.41
   9  11 -10    2.03    1.51
   9 -11 -10    0.68    1.77
   9 -11 -10    1.68    1.61
   8  12  -7    1.47    1.18
   8  12  -7    1.70    1.23
   8  12  -7    1.11    1.23
   8 -12  -7    1.21    1.70
   8 -12  -7    1.39    1.15
   6  12  -5    6.21    0.97
   6  12  -5    5.67    0.96
   6  12  -5    6.88    0.99
   6  12  -5    7.32    0.90
  -6  12   5    7.07    1.04
   6 -12  -5    5.77    1.02
   6 -12  -5    7.72    0.98
   6 -12  -5    7.48    1.14
   4  12  -3   22.67    1.40
  -4  12   3   23.41    1.68
  -4  12   3   22.92    1.52
   4  12  -3   22.97    1.38
   4 -12  -3   23.82    1.46
   4 -12  -3   22.15    1.48
   2  12  -1    8.99    0.94
  -2  12   1    8.96    1.01
  -2  12   1    9.18    0.94
   2  12  -1   10.06    0.96
   2  12  -1    9.90    0.94
  -2 -12   1   11.25    0.81
   2 -12  -1    9.57    1.00
   2 -12  -1    9.99    0.79
   0  12   1   15.30    1.09
   0  12  -1   17.03    1.00
   0  12  -1   14.68    1.03
   0  12   1   15.77    1.11
   0 -12   1   15.60    1.12
   0 -12  -1   14.25    1.12
  -2  12   3   15.97    1.18
  -2  12   3   17.53    1.21
   2  12  -3   17.41    1.12
   2  12  -3   17.17    1.16
   2  12  -3   16.49    1.09
   2 -12  -3   19.36    1.20
   2 -12  -3   17.84    1.15
  -4  12   5   14.57    1.47
  -4  12   5   14.62    1.40
   4  12  -5   13.73    1.14
   4  12  -5   14.71    1.15
   4  12  -5   14.16    1.27
   4 -12  -5   14.22    1.32
   4 -12  -5   15.21    1.38
  -6  12   7    1.97    1.09
   6  12  -7    3.31    0.90
   6  12  -7    3.42    0.99
   6  12  -7    2.98    0.98
   6  12  -7    1.81    0.96
   6 -12  -7    3.63    1.12
   6 -12  -7    2.47    0.99
   6 -12  -7    2.55    1.15
   8  12  -9    7.49    1.38
   8  12  -9    8.44    1.45
   8 -12  -9    8.05    1.57
   8 -12  -9    7.10    1.36
   9  13  -8   -0.55    1.66
   9 -13  -8    1.67    2.35
  -7  13   6    3.13    1.43
   7  13  -6    1.85    1.05
   7  13  -6    1.13    1.38
   7  13  -6    2.34    1.62
   7 -13  -6    1.28    1.48
   7 -13  -6    2.09    1.17
   5  13  -4   -0.03    0.88
   5  13  -4    0.71    0.77
   5  13  -4   -0.31    0.85
  -5  13   4   -0.34    0.92
   5 -13  -4    0.29    0.92
   5 -13  -4    1.48    0.90
   3  13  -2    2.92    0.70
   3  13  -2    6.10    0.80
  -3  13   2    2.96    0.72
  -3  13   2    4.68    0.82
   3  13  -2    4.03    0.74
   3 -13  -2    2.71    0.76
   3 -13  -2    4.69    0.80
  -3 -13   2    4.58    0.89
   1  13   0   -0.24    0.62
   1  13   0    0.37    0.62
  -1  13   0   -0.29    0.56
  -1  13   0    0.17    0.61
  -1 -13   0    0.46    0.89
   1 -13   0   -0.17    0.61
   1  13  -2    0.41    0.60
   1  13  -2   -0.33    0.56
  -1  13   2    0.71    0.64
  -1  13   2   -0.14    0.63
  -1 -13   2   -0.29    0.68
   1 -13  -2    0.86    0.65
   1 -13  -2    0.42    0.71
   3  13  -4    1.09    0.66
   3  13  -4    0.14    0.67
  -3  13   4    0.17    0.82
   3  13  -4    0.91    0.73
  -3  13   4    0.72    0.75
   3 -13  -4    0.60    0.79
   3 -13  -4    0.55    0.79
   5  13  -6    2.42    0.89
   5  13  -6    2.72    0.97
   5  13  -6    2.27    0.83
  -5  13   6    2.67    1.06
   5 -13  -6    3.11    0.97
   5 -13  -6    3.32    1.08
   7  13  -8   -0.01    1.58
   7  13  -8    0.20    1.17
   7  13  -8   -1.04    1.24
   7  13  -8   -0.83    1.30
  -7  13   8   -1.04    1.65
   7 -13  -8   -0.60    1.20
   7 -13  -8    0.31    1.51
   7 -13  -8    0.82    1.61
   8  14  -7    0.19    1.55
   8  14  -7   -0.01    1.42
   8 -14  -7   -0.21    1.94
   8 -14  -7   -0.18    1.41
   6  14  -5    1.94    1.40
   6  14  -5    0.46    0.97
  -6  14   5    1.09    1.33
   6  14  -5    0.10    1.17
   6 -14  -5   -0.56    1.83
   6 -14  -5    1.31    1.51
   6 -14  -5   -0.11    1.44
   4  14  -3    7.07    0.95
  -4  14   3    7.60    0.97
   4  14  -3    7.54    0.98
  -4  14   3    7.84    1.11
   4  14  -3    8.11    1.03
   4 -14  -3    7.16    1.03
   4 -14  -3    9.19    1.07
   2  14  -1    3.51    0.78
   2  14  -1    2.08    1.04
  -2  14   1    3.52    0.75
  -2  14   1    4.18    0.84
  -2 -14   1    4.25    0.95
   2 -14  -1    3.13    0.86
   2 -14  -1    3.82    0.90
   0  14   1    9.88    0.89
   0  14  -1   10.53    1.15
   0  14  -1   11.73    1.22
   0  14   1    9.55    1.16
   0 -14  -1   11.91    1.00
   0 -14   1    9.95    0.94
   0 -14  -1    7.89    0.92
   2  14  -3   18.83    1.41
  -2  14   3   15.97    1.47
   2  14  -3   15.64    1.32
  -2  14   3   15.11    1.47
   2 -14  -3   18.05    1.55
  -2 -14   3   16.12    1.51
   2 -14  -3   16.57    1.48
   4  14  -5   13.91    1.21
  -4  14   5   14.08    1.81
  -4  14   5   10.88    1.16
   4  14  -5   14.13    1.55
   4  14  -5   12.29    1.36
   4 -14  -5   14.00    1.24
  -4 -14   5   13.00    1.23
   4 -14  -5   16.12    1.24
   6  14  -7    2.52    1.29
  -6  14   7    1.80    1.45
   6  14  -7    2.13    1.13
   6  14  -7    2.60    1.31
   6 -14  -7    2.73    1.50
   6 -14  -7    2.76    1.44
   6 -14  -7    3.28    1.27
   7  15  -6    5.60    1.62
   7  15  -6    4.03    1.37
   7 -15  -6    4.82    1.47
   7 -15  -6    3.97    1.70
   5  15  -4    2.12    1.18
   5  15  -4    2.61    1.01
   5  15  -4    2.89    1.22
  -5  15   4    3.28    1.24
   5 -15  -4    2.66    1.27
   5 -15  -4    2.95    1.23
  -3  15   2   10.51    1.23
  -3  15   2   12.30    1.10
   3  15  -2   12.03    1.11
   3  15  -2   11.71    1.35
   3 -15  -2   11.11    1.19
   3 -15  -2   14.01    1.24
  -1  15   0    2.82    0.85
  -1  15   0    2.44    0.85
   1  15   0    4.44    0.90
   1  15   0    1.91    0.85
  -1 -15   0    2.51    0.97
  -1 -15   0    2.95    1.05
   1 -15   0    0.52    0.93
   1  15  -2    0.91    0.84
  -1  15   2    1.24    0.87
   1  15  -2    1.92    0.79
  -1  15   2    2.20    0.88
  -1 -15   2    2.24    0.98
   1 -15  -2    1.51    0.94
   1 -15  -2    1.21    1.01
  -3  15   4    0.26    1.10
   3  15  -4   -0.32    0.89
   3  15  -4   -0.42    0.84
  -3  15   4    0.04    1.01
  -3 -15   4    0.83    1.05
   3 -15  -4   -0.03    1.04
   3 -15  -4    0.14    1.05
   5  15  -6    0.35    1.00
   5  15  -6   -0.33    1.20
  -5  15   6   -1.16    1.38
   5  15  -6   -1.43    1.18
   5 -15  -6    0.65    1.39
   5 -15  -6   -0.52    1.63
   5 -15  -6   -0.34    1.26
   7  15  -8    3.61    1.68
   7  15  -8    4.21    1.46
   7 -15  -8    3.51    2.63
   7 -15  -8    4.83    1.57
   7 -15  -8    2.71    2.16
   6  16  -5    1.96    1.26
   6  16  -5    1.71    1.50
   6 -16  -5    0.42    1.60
   6 -16  -5    0.78    1.52
   4  16  -3    1.16    0.98
  -4  16   3    1.25    1.21
   4  16  -3    1.18    1.19
   4 -16  -3    0.67    1.24
  -4 -16   3    2.20    1.30
   2  16  -1   10.06    1.19
  -2  16   1    8.43    1.19
  -2 -16   1    9.77    1.41
   0  16   1    6.56    1.04
   0  16   1    7.74    1.09
   0  16  -1    9.15    1.06
   0  16  -1    6.57    1.05
   0 -16  -1    7.71    1.22
   0 -16  -1    6.85    1.14
   0 -16   1    8.50    1.21
  -2  16   3    7.28    1.20
  -2  16   3    6.44    1.15
   2  16  -3    7.23    1.10
   2  16  -3    6.08    1.02
  -2 -16   3    4.60    1.50
   2 -16  -3    7.43    1.61
   2 -16  -3    7.71    1.24
   4  16  -5    4.25    1.19
   4  16  -5    3.87    1.11
  -4  16   5    2.97    1.35
  -4 -16   5    3.78    1.43
   4 -16  -5    3.45    1.38
   4 -16  -5    5.57    1.44
   6  16  -7    8.16    2.31
  -6  16   7   10.39    2.79
   6  16  -7   10.43    1.47
   6 -16  -7    5.57    1.66
   6 -16  -7    6.95    2.00
   5  17  -4    0.78    1.15
  -5  17   4    1.65    1.64
   5  17  -4   -0.78    1.56
  -5 -17   4   -0.09    1.77
   5 -17  -4    2.28    2.47
   3  17  -2   -0.36    1.30
   3  17  -2    0.36    1.18
  -3  17   2    0.26    1.96
  -3  17   2   -1.11    1.25
  -3 -17   2    1.36    1.41
   3 -17  -2    0.42    1.38
  -1  17   0    0.16    1.08
   1  17   0   -0.10    1.05
  -1  17   0    0.22    1.13
   1  17   0    0.92    1.19
  -1 -17   0    0.51    1.30
   1 -17   0    0.22    1.25
   1  17  -2   -0.86    0.98
   1  17  -2   -0.30    1.14
  -1  17   2   -0.07    1.15
  -1  17   2    0.38    1.19
  -1 -17   2   -0.78    1.36
   1 -17  -2    0.00    1.37
   1 -17  -2   -0.39    1.31
   3  17  -4   -1.05    1.28
  -3  17   4    0.25    1.50
  -3  17   4   -0.18    1.35
   3  17  -4    0.45    1.04
   3 -17  -4    0.81    1.44
   3 -17  -4    0.14    1.44
  -3 -17   4    0.40    1.52
   2  18  -1    8.84    1.37
   2  18  -1    7.13    1.56
  -2  18   1    5.76    1.68
  -2  18   1    6.34    1.41
   2 -18  -1    6.57    1.89
  -2 -18   1    8.06    2.60
   0  18  -1    4.14    1.33
   0  18   1    5.12    1.31
   0  18   1    2.08    1.37
   0  18  -1    5.39    1.25
   0 -18  -1    4.31    1.57
   0 -18   1    5.23    1.56
  -2  18   3    2.18    2.48
  -2  18   3    2.29    1.51
   2  18  -3    3.93    1.23
  -2 -18   3    3.11    1.69
  12   0 -10    9.92    1.46
  12   0 -10   12.66    1.45
  10   0  -8   11.12    1.26
  10   0  -8   14.11    1.33
   8   0  -6   10.14    0.83
   8   0  -6   10.14    0.83
   6   0  -4   45.18    1.88
   6   0  -4   43.15    1.86
   6   0  -4   46.07    1.86
   6   0  -4   50.01    1.92
  -6   0   4   49.97    4.96
   6   0  -4   45.60    4.59
  -4   0   2  102.52    4.55
   4   0  -2   89.30    3.51
   4   0  -2   87.65    4.46
   4   0  -2   85.92    3.50
   4   0  -2   88.79    3.50
   2   0   0  917.29   36.04
  -2   0   0  896.47   36.40
   2   0   0  920.07   36.04
   2   0   0 1000.00   36.04
   2   0   0  923.51   36.41
   2   0   0  985.72   36.05
   0   0  -2    1.87    0.17
   0   0  -2    2.04    0.53
   0   0   2    0.87    0.42
   0   0   2    1.09    0.09
   2   0  -4  482.69   18.87
   2   0  -4  486.61   18.36
   2   0  -4  481.84   18.35
   2   0  -4  466.90   18.36
   2   0  -4  475.71   18.36
   4   0  -6   51.95    3.77
   4   0  -6   52.40    2.08
   4   0  -6   50.55    3.85
   4   0  -6   53.72    2.08
   4   0  -6   51.99    2.07
   6   0  -8  278.22   10.60
   6   0  -8  271.07   10.61
   8   0 -10    3.41    0.68
   8   0 -10    3.80    0.64
   8   0 -10    3.51    0.65
  10   0 -12   45.50    2.56
  13   1 -11    4.09    1.87
  13   1 -11    5.34    3.21
  13  -1 -11    3.57    1.83
  13  -1 -11    3.98    2.11
  11   1  -9   17.08    1.71
  11   1  -9   17.47    1.66
  11  -1  -9   16.72    1.78
  11  -1  -9   15.60    1.66
   9   1  -7   14.58    1.11
   9   1  -7   15.38    1.11
   9  -1  -7   15.51    1.15
   9  -1  -7   15.88    1.15
   7   1  -5   80.69    3.26
  -7   1   5   96.29    8.33
   7   1  -5   81.38    6.67
   7   1  -5   77.41    3.26
   7   1  -5   88.18    3.28
   7  -1  -5   79.77    7.34
   7  -1  -5   85.98    3.27
   7  -1  -5   85.51    3.26
   7  -1  -5   73.72    3.24
   5   1  -3   52.78    2.12
  -5   1   3   57.22    4.08
   5   1  -3   51.89    3.66
   5   1  -3   53.26    2.13
   5   1  -3   54.77    2.13
  -5  -1   3   58.65    3.73
   5  -1  -3   52.71    2.12
   5  -1  -3   51.44    2.13
   5  -1  -3   52.98    2.12
   5  -1  -3   55.59    4.54
   3   1  -1  476.14   18.18
   3   1  -1  479.82   18.18
   3   1  -1  472.12   18.18
   3   1  -1  453.27   18.64
   3   1  -1  499.36   18.19
  -3   1   1  486.18   18.81
   3  -1  -1  449.34   18.76
   3  -1  -1  481.33   18.17
   3  -1  -1  480.41   18.18
  -3  -1   1  470.60   18.66
   3  -1  -1  464.45   18.17
   1   1   1   75.51    3.30
   1   1   1   75.41    2.97
   1   1   1   77.13    2.97
  -1   1  -1   76.32    3.28
  -1   1  -1   79.99    2.96
   1   1   1   73.17    2.97
   1  -1   1   80.23    2.97
   1  -1   1   71.66    3.27
  -1  -1  -1   80.58    3.34
   1  -1   1   80.33    2.97
   1   1  -3  664.33   24.46
   1   1  -3  645.75   24.46
   1   1  -3  637.69   24.46
  -1   1   3  627.21   24.46
   1   1  -3  637.77   24.71
  -1   1   3  641.39   24.94
   1   1  -3  619.80   24.46
   1   1  -3  657.71   24.46
  -1  -1   3  643.06   24.74
   1  -1  -3  645.11   24.46
  -1  -1   3  674.72   24.46
   1  -1  -3  603.80   24.89
   1  -1  -3  598.19   24.46
   3   1  -5   58.64    2.35
   3   1  -5   60.07    2.35
   3   1  -5   59.90    2.35
   3   1  -5   58.04    3.18
   3   1  -5   59.92    3.24
   3  -1  -5   60.10    3.60
   3  -1  -5   59.91    2.36
   3  -1  -5   65.60    3.66
   3  -1  -5   60.61    2.35
   3  -1  -5   59.71    2.35
   5   1  -7  105.78    5.99
   5   1  -7  104.97    4.09
   5   1  -7  106.98    4.09
   5   1  -7  103.42    4.08
   5   1  -7  108.05    6.09
   5  -1  -7  101.06    6.58
   5  -1  -7  105.13    4.08
   5  -1  -7   99.20    4.09
   5  -1  -7  107.04    4.09
   7   1  -9   37.42    1.66
   7   1  -9   38.90    1.66
   7   1  -9   36.70    1.65
   7  -1  -9   36.35    1.67
   7  -1  -9   34.72    1.66
   7  -1  -9   36.28    1.66
   9   1 -11    8.50    1.00
   9   1 -11    6.93    0.90
   9  -1 -11    8.94    0.96
   9  -1 -11    6.80    0.88
  12   2 -10    2.83    1.40
  12   2 -10    3.05    1.30
  12  -2 -10    3.01    1.33
  12  -2 -10    3.11    1.35
  10   2  -8   23.05    1.54
  10   2  -8   27.51    1.56
  10  -2  -8   23.69    1.66
  10  -2  -8   21.67    1.55
   8   2  -6   80.69    3.30
   8   2  -6   81.44    3.29
   8  -2  -6   83.44    3.31
   8  -2  -6   81.73    3.29
   6   2  -4   95.62    3.79
   6   2  -4   96.93    3.78
   6   2  -4  100.47    3.79
   6   2  -4   91.72    3.77
  -6   2   4   95.02    6.73
   6   2  -4   98.77    5.67
   6  -2  -4   96.68    3.77
   6  -2  -4   93.66    3.76
   6  -2  -4  101.56    6.78
   4   2  -2  311.86   11.76
   4   2  -2  295.68   11.75
  -4   2   2  309.82   12.74
   4   2  -2  317.74   11.77
   4   2  -2  305.02   12.37
   4   2  -2  314.82   11.75
   4  -2  -2  303.61   11.75
   4  -2  -2  308.94   11.75
   4  -2  -2  304.91   11.75
   4  -2  -2  300.39   12.71
  -4  -2   2  289.14   13.35
   2   2   0   40.93    2.15
   2   2   0   40.86    1.66
  -2   2   0   46.39    2.38
  -2   2   0   41.84    1.65
   2   2   0   41.40    1.66
   2   2   0   47.42    1.68
   2   2   0   42.46    1.67
   2   2   0   41.33    1.66
   2  -2   0   42.57    1.67
   2  -2   0   43.07    1.66
   2  -2   0   46.79    2.61
  -2  -2   0   38.51    2.11
   0   2   2  570.55   22.46
   0   2   2  584.34   22.47
   0   2  -2  591.84   22.66
   0   2  -2  613.74   22.48
   0   2  -2  595.55   22.46
   0   2  -2  591.51   22.46
   0   2  -2  612.91   22.46
   0   2   2  587.04   22.90
   0   2   2  554.51   22.47
   0  -2   2  563.61   22.65
   0  -2  -2  605.84   22.46
   0  -2  -2  548.73   22.87
   0  -2   2  597.82   22.46
   2   2  -4  494.75   18.26
   2   2  -4  492.37   18.25
   2   2  -4  473.52   18.26
   2   2  -4  480.03   18.52
   2   2  -4  471.08   18.51
   2   2  -4  475.38   18.25
   2   2  -4  489.41   18.26
   2  -2  -4  438.49   18.95
   2  -2  -4  476.29   18.25
   2  -2  -4  473.26   19.01
   2  -2  -4  469.32   18.25
   4   2  -6  216.59    9.13
   4   2  -6  206.34    9.08
   4   2  -6  218.82    8.34
   4   2  -6  213.54    8.34
   4   2  -6  221.08    8.34
   4   2  -6  215.59    8.33
   4  -2  -6  215.75    8.35
   4  -2  -6  212.03    9.93
   4  -2  -6  229.77   10.02
   4  -2  -6  219.21    8.33
   4  -2  -6  211.34    8.33
   6   2  -8   52.77    2.23
   6   2  -8   47.47    5.64
   6   2  -8   58.17    2.22
   6   2  -8   53.80    2.22
   6  -2  -8   41.80    7.18
   6  -2  -8   54.51    2.24
   6  -2  -8   56.42    2.23
   6  -2  -8   54.95    2.23
   8   2 -10   15.47    1.18
   8   2 -10   17.18    1.18
   8   2 -10   16.33    1.22
   8  -2 -10   15.78    1.23
   8  -2 -10   17.54    1.22
  10   2 -12    8.72    1.32
  10   2 -12   13.58    1.22
  10  -2 -12   14.27    1.25
  10  -2 -12   11.75    1.31
  13   3 -11   17.64    1.94
  13   3 -11   19.33    2.22
  13  -3 -11   18.38    2.10
  13  -3 -11   17.90    2.13
  11   3  -9    0.84    1.01
  11   3  -9    1.28    1.07
  11  -3  -9    0.61    1.03
  11  -3  -9    1.46    1.07
   9   3  -7  112.93    4.55
   9   3  -7  112.28    4.58
   9  -3  -7  117.52    4.55
   9  -3  -7  111.25    4.60
  -7   3   5   -0.98    5.27
   7   3  -5    0.40    0.36
   7   3  -5    0.51    0.39
   7   3  -5    0.31    0.34
   7  -3  -5    0.60    0.38
   7  -3  -5   -0.09    5.31
   7  -3  -5    0.26    0.38
   5   3  -3  370.83   14.09
   5   3  -3  365.26   14.06
   5   3  -3  356.34   14.06
   5   3  -3  363.27   14.07
  -5   3   3  393.32   17.67
   5   3  -3  373.73   14.89
   5  -3  -3  360.95   14.06
   5  -3  -3  367.30   14.06
   5  -3  -3  358.06   15.49
  -5  -3   3  355.57   14.84
   5  -3  -3  363.15   14.05
  -3   3   1   30.55    1.24
   3   3  -1   33.88    1.28
   3   3  -1   30.34    1.25
   3   3  -1   29.19    1.26
   3   3  -1   30.85    1.26
   3   3  -1   28.17    2.03
  -3   3   1   35.76    2.96
   3  -3  -1   32.32    1.26
   3  -3  -1   31.97    1.25
   3  -3  -1   28.40    2.51
  -3  -3   1   34.78    2.00
   1   3   1  459.89   17.02
   1   3   1  464.63   17.01
   1   3   1  442.15   17.00
  -1   3  -1  453.09   17.02
  -1   3  -1  438.35   17.00
  -1   3  -1  453.37   17.00
   1   3   1  434.02   17.00
   1   3   1  426.11   17.42
   1  -3   1  451.21   17.01
  -1  -3  -1  442.33   17.43
   1  -3   1  409.34   17.36
   1   3  -3  218.20    8.09
   1   3  -3  216.26    8.07
   1   3  -3  201.63    8.06
   1   3  -3  210.44    8.07
   1   3  -3  213.74    8.07
  -1   3   3  206.85    8.08
   1  -3  -3  213.43    8.07
   1  -3  -3  198.47    8.79
   3   3  -5  193.73    7.67
   3   3  -5  212.09    8.24
   3   3  -5  192.47    7.96
   3   3  -5  202.71    7.66
   3   3  -5  197.04    7.65
   3   3  -5  199.34    7.66
   3   3  -5  195.51    7.66
   3  -3  -5  205.25    7.66
   3  -3  -5  177.46    8.88
   3  -3  -5  212.57    9.08
   5   3  -7   51.07    3.87
   5   3  -7   50.61    2.15
   5   3  -7   51.50    2.14
   5   3  -7   55.11    2.13
   5   3  -7   53.95    2.14
   5  -3  -7   52.33    6.82
   5  -3  -7   55.76    2.16
   5  -3  -7   52.81    6.37
   5  -3  -7   50.90    2.16
   5  -3  -7   53.91    2.13
   7   3  -9   29.80    1.45
   7   3  -9   29.97    1.46
   7   3  -9   32.51    1.44
   7  -3  -9   32.36    1.48
   7  -3  -9   26.50    1.46
   9   3 -11   12.63    1.08
   9   3 -11   16.30    1.50
   9   3 -11   14.84    1.42
   9  -3 -11   14.10    1.47
   9  -3 -11   14.08    1.50
  11   3 -13    7.12    1.39
  11   3 -13    0.11    1.88
  11  -3 -13    0.03    1.74
  11  -3 -13    8.09    1.51
  12   4 -10    6.05    1.43
  12   4 -10    7.34    1.59
  12  -4 -10    5.97    1.46
  12  -4 -10    5.71    1.52
  10   4  -8    8.25    0.97
  10   4  -8   10.86    1.02
  10  -4  -8    9.45    1.01
  10  -4  -8    7.66    0.96
   8   4  -6   24.91    1.30
   8   4  -6   22.77    1.33
   8   4  -6   26.07    1.30
   8  -4  -6   24.25    1.32
   8  -4  -6   27.83    1.33
   6   4  -4    0.46    0.33
   6   4  -4    1.08    0.34
   6   4  -4    1.54    0.35
   6   4  -4    1.13    0.33
  -6   4   4   -0.42    4.01
   6   4  -4    1.27    2.43
  -6  -4   4    1.18    2.77
   6  -4  -4    0.78    0.31
   6  -4  -4    0.45    0.30
   6  -4  -4    0.77    0.34
   6  -4  -4   -0.72    3.88
   4   4  -2  358.24   13.83
   4   4  -2  359.19   13.85
  -4   4   2  356.13   15.09
   4   4  -2  354.73   14.36
   4   4  -2  365.38   13.82
   4   4  -2  385.03   13.87
   4   4  -2  361.53   13.84
  -4   4   2  348.15   13.82
  -4  -4   2  365.21   14.40
   4  -4  -2  357.46   13.84
   4  -4  -2  371.18   13.83
   4  -4  -2  362.45   13.83
   4  -4  -2  334.43   15.05
  -2   4   0   22.79    0.96
   2   4   0   22.94    0.94
  -2   4   0   25.18    2.05
  -2   4   0   24.08    0.94
   2   4   0   22.08    0.93
   2   4   0   24.85    0.97
   2   4   0   20.92    1.80
   2   4   0   22.04    0.95
   2  -4   0   22.32    0.94
  -2  -4   0   21.48    1.76
   2  -4   0   23.52    2.14
   2  -4   0   22.91    0.93
   0   4  -2  620.19   24.80
   0   4  -2  636.79   24.54
   0   4   2  656.88   24.56
   0   4   2  622.69   25.16
   0   4   2  617.65   24.53
   0   4   2  631.86   24.54
   0   4  -2  662.42   24.53
   0   4  -2  688.57   24.56
   0   4  -2  639.51   24.54
   0   4  -2  654.55   24.53
   0  -4  -2  628.58   25.18
   0  -4   2  626.14   24.82
   0  -4  -2  631.93   24.54
   2   4  -4   10.91    0.53
   2   4  -4   10.61    0.50
   2   4  -4   10.38    0.53
   2   4  -4   11.59    0.54
  -2   4   4    9.67    0.51
   2   4  -4    9.66    0.52
   2  -4  -4   10.52    0.53
   2  -4  -4   13.32    2.26
   2  -4  -4    9.64    2.16
   4   4  -6  150.23    5.85
   4   4  -6  151.43    5.85
   4   4  -6  146.38    5.84
   4   4  -6  155.97    5.86
   4   4  -6  153.73    5.83
   4  -4  -6  153.78    8.49
   4  -4  -6  142.87    8.47
   6   4  -8    0.53    0.47
   6   4  -8    1.40    0.43
   6   4  -8    0.68    0.41
   6   4  -8    1.35    0.45
  -6   4   8    1.66    0.50
   6  -4  -8    1.17    0.42
   6  -4  -8    0.83    7.32
   6  -4  -8    6.13    8.42
   6  -4  -8    1.08    0.45
   8   4 -10   74.58    3.02
   8   4 -10   68.67    3.00
   8   4 -10   70.95    3.04
   8  -4 -10   72.22    3.04
   8  -4 -10   70.75    3.05
  10   4 -12   -0.60    1.32
  10  -4 -12    1.11    1.27
  11   5  -9    8.21    1.34
  11  -5  -9    8.18    1.25
  11  -5  -9    8.16    1.32
   9   5  -7   17.13    1.37
   9   5  -7   21.99    1.39
   9  -5  -7   19.69    1.39
   9  -5  -7   19.45    1.43
   7   5  -5   32.13    1.50
   7   5  -5   32.33    1.52
   7   5  -5   33.88    1.55
   7   5  -5   33.63    1.49
   7  -5  -5   33.97    1.50
   7  -5  -5   22.22    7.16
   7  -5  -5   32.80    1.51
  -5   5   3   52.07    6.03
   5   5  -3   49.43    2.03
  -5   5   3   51.76    2.04
   5   5  -3   48.70    2.05
   5   5  -3   50.60    2.06
   5   5  -3   52.21    3.61
   5   5  -3   55.68    2.09
   5  -5  -3   52.88    2.09
  -5  -5   3   46.48    3.49
   5  -5  -3   48.28    2.04
   5  -5  -3   48.80    2.05
   3   5  -1  241.44    9.73
   3   5  -1  260.98   10.29
  -3   5   1  244.43    9.71
   3   5  -1  247.85    9.71
  -3   5   1  253.03   10.84
   3   5  -1  256.20    9.74
  -3   5   1  262.39    9.84
   3   5  -1  260.64    9.76
   3  -5  -1  250.21   10.92
   3  -5  -1  249.79    9.73
  -3  -5   1  251.85   10.23
   3  -5  -1  253.68    9.72
   1   5   1   57.53    3.27
   1   5   1   60.04    2.26
  -1   5  -1   57.55    2.31
  -1   5  -1   55.81    3.01
   1   5   1   58.61    2.27
  -1   5  -1   57.27    2.25
   1   5   1   62.65    2.30
   1  -5   1   57.08    2.26
   1  -5   1   55.41    3.10
  -1  -5  -1   51.05    3.13
   1   5  -3  310.20   11.80
   1   5  -3  309.37   11.81
   1   5  -3  315.92   11.81
  -1   5   3  313.51   11.83
   1   5  -3  322.66   11.84
  -1   5   3  279.77   11.80
   1   5  -3  312.91   11.82
   1  -5  -3  298.98   12.84
   1  -5  -3  296.35   12.80
   1  -5  -3  312.00   11.81
   3   5  -5   20.58    0.93
   3   5  -5   19.40    0.89
  -3   5   5   20.84    0.91
   3   5  -5   20.21    0.92
   3   5  -5   21.32    0.92
   3   5  -5   20.93    0.92
  -3   5   5   19.39    0.90
   3  -5  -5   21.21    0.92
   5   5  -7   87.28    3.47
   5   5  -7   90.52    3.48
  -5   5   7   87.09    3.46
   5   5  -7   88.78    3.43
   5   5  -7   89.04    3.47
   5  -5  -7   88.88    3.46
   5  -5  -7   84.10    9.77
   5  -5  -7   76.93    9.19
   5  -5  -7   84.29    3.47
   7   5  -9   17.11    1.12
   7   5  -9   16.99    1.24
   7   5  -9   18.83    1.17
   7  -5  -9   18.06    1.17
   7  -5  -9   19.00    1.22
   7  -5  -9   17.20    1.24
   9   5 -11   20.58    1.64
   9   5 -11   18.57    1.82
   9   5 -11   19.07    1.64
   9  -5 -11   17.64    1.68
   9  -5 -11   16.01    1.71
  11   5 -13   -0.47    2.28
  11   5 -13    4.46    1.50
  11  -5 -13    3.22    1.61
  11  -5 -13    0.49    1.86
  12   6 -10    9.67    1.75
  12   6 -10   14.30    1.67
  12  -6 -10    9.27    1.70
  12  -6 -10   12.97    1.89
  10   6  -8    7.16    1.12
  10   6  -8    7.22    1.03
  10  -6  -8    5.31    1.05
  10  -6  -8    6.07    1.04
   8   6  -6   72.05    3.09
   8   6  -6   75.90    3.17
   8   6  -6   72.46    3.07
   8  -6  -6   76.67    3.08
   8  -6  -6   71.17    3.09
   6   6  -4   63.20    2.58
   6   6  -4   61.06    2.55
   6   6  -4   60.45    2.56
  -6   6   4   73.23   10.07
   6   6  -4   68.25    2.63
   6  -6  -4   71.56   10.05
   6  -6  -4   62.05    2.56
   6  -6  -4   61.67    2.57
   6  -6  -4   63.16    2.58
  -4   6   2  106.64    6.68
  -4   6   2  108.30    4.19
   4   6  -2  118.44    4.25
   4   6  -2  105.94    4.22
   4   6  -2  105.82    4.21
   4   6  -2  104.21    5.04
   4   6  -2  105.90    4.18
  -4   6   2  110.26    4.22
  -4  -6   2  111.35    5.04
   4  -6  -2  106.33    4.20
   4  -6  -2   98.43    6.74
   4  -6  -2  106.69    4.23
  -2   6   0  100.44    3.85
  -2   6   0   98.39    3.81
   2   6   0   98.59    3.82
   2   6   0  103.69    3.86
   2   6   0   96.78    4.75
   2   6   0   97.09    3.83
   2   6   0   98.80    3.81
   2  -6   0   96.23    5.17
   2  -6   0   96.63    3.82
  -2  -6   0   95.63    4.79
   2  -6   0   96.18    3.81
   0   6  -2  107.44    4.04
   0   6  -2  109.23    4.08
   0   6  -2  105.22    4.05
   0   6   2  107.07    4.08
   0   6   2  103.39    4.04
   0   6   2   99.45    4.05
   0  -6  -2  108.24    5.38
   0  -6  -2  101.70    4.04
   0  -6  -2   98.94    5.31
   0  -6   2   98.98    4.67
  -2   6   4  322.57   13.94
   2   6  -4  367.46   13.95
   2   6  -4  362.90   13.95
   2   6  -4  376.44   13.95
   2   6  -4  377.68   13.99
  -2   6   4  366.14   13.97
   2   6  -4  372.80   13.96
   2  -6  -4  345.12   15.46
   2  -6  -4  369.63   13.96
   2  -6  -4  367.72   15.44
   4   6  -6   33.76    1.46
   4   6  -6   33.66    1.39
   4   6  -6   32.90    1.44
   4   6  -6   33.11    1.42
  -4   6   6   32.01    1.67
   4   6  -6   31.06    1.42
   4  -6  -6   36.39    5.38
   4  -6  -6   38.93    5.87
   4  -6  -6   33.25    1.44
   6   6  -8  120.18    4.68
   6   6  -8  119.42    4.68
   6   6  -8  119.78    4.70
   6   6  -8  117.89    4.68
   6  -6  -8  113.30    4.70
   6  -6  -8  119.22    4.67
   8   6 -10    1.35    0.74
   8   6 -10    0.81    0.77
   8   6 -10    0.43    0.80
   8  -6 -10    0.18    0.77
   8  -6 -10    0.90    0.81
  10   6 -12   26.92    2.31
  10  -6 -12   23.79    2.49
  10  -6 -12   30.04    2.35
  11   7  -9   29.70    2.39
  11   7  -9   34.32    2.41
  11  -7  -9   28.83    2.33
  11  -7  -9   28.60    2.52
   9   7  -7    0.10    0.89
   9   7  -7    0.64    0.79
   9   7  -7   -0.24    0.88
   9  -7  -7   -0.01    0.87
   7   7  -5  156.34    6.20
   7   7  -5  157.56    6.22
   7   7  -5  158.80    6.25
   7   7  -5  154.26    6.18
   7  -7  -5  160.72    6.19
   7  -7  -5  157.57    6.21
   7  -7  -5  157.54    6.20
   7  -7  -5  176.53   19.70
   5   7  -3    0.98    0.35
   5   7  -3   -0.14    0.34
   5   7  -3    0.91    0.36
   5   7  -3    0.63    0.36
  -5   7   3    0.47    0.38
   5   7  -3    0.42    0.37
   5  -7  -3    0.54    0.35
   5  -7  -3    0.71    0.44
   5  -7  -3    1.14    0.39
   5  -7  -3    0.29    3.67
  -3   7   1  338.21   12.82
   3   7  -1  363.55   12.85
   3   7  -1  330.36   12.80
  -3   7   1  315.33   12.77
  -3   7   1  310.84   14.29
   3   7  -1  346.26   12.78
   3  -7  -1  320.76   12.79
  -3  -7   1  339.81   13.43
   3  -7  -1  316.86   14.42
   3  -7  -1  336.55   12.78
   1   7   1    1.53    0.27
   1   7   1    0.89    0.25
   1   7   1    1.53    0.26
  -1   7  -1    0.90    0.23
  -1   7  -1    1.74    0.28
  -1  -7  -1    1.88    1.98
  -1  -7  -1    1.74    0.26
   1  -7   1    0.92    0.26
   1  -7   1    3.76    1.83
  -1  -7  -1   -0.17    1.76
  -1   7   3  406.82   15.18
   1   7  -3  396.73   15.15
   1   7  -3  405.19   15.13
   1   7  -3  394.76   15.13
   1   7  -3  409.10   15.18
  -1   7   3  375.72   15.13
   1   7  -3  400.86   15.12
   1  -7  -3  391.62   15.14
   1  -7  -3  375.29   16.45
   1  -7  -3  378.90   16.60
   3   7  -5    9.55    0.68
   3   7  -5    9.93    0.67
   3   7  -5    8.76    0.68
  -3   7   5    8.94    0.68
   3   7  -5   10.12    0.58
   3   7  -5   10.90    0.64
  -3   7   5    9.58    0.70
   3  -7  -5   17.49    5.74
   3  -7  -5    8.84    0.67
   3  -7  -5   23.69   10.41
   3  -7  -5    9.69    0.67
   5   7  -7  105.78    4.08
   5   7  -7  102.67    4.11
  -5   7   7  108.57    4.10
   5   7  -7  104.96    4.09
   5   7  -7  103.83    4.07
   5   7  -7  103.10    4.04
   5  -7  -7   95.49    4.07
   5  -7  -7   96.87   13.56
   5  -7  -7   86.20   12.46
   7   7  -9    6.94    0.79
   7   7  -9    6.85    0.73
   7   7  -9    5.80    0.82
   7  -7  -9    5.99    0.83
   7  -7  -9    5.64    0.73
   9   7 -11   15.27    1.75
   9   7 -11   12.43    1.39
   9   7 -11   12.38    1.20
   9  -7 -11   13.36    1.32
   9  -7 -11   12.18    1.33
  11   7 -13    6.68    1.74
  11  -7 -13    9.04    1.88
  10   8  -8    6.05    1.28
  10   8  -8    3.47    1.21
  10  -8  -8    7.03    1.28
  10  -8  -8    7.02    1.22
   8   8  -6    5.90    0.84
   8   8  -6    6.52    0.87
   8   8  -6    7.94    0.82
   8  -8  -6    7.43    0.91
   6   8  -4   15.74    1.03
  -6   8   4   14.81    1.07
   6   8  -4   17.12    1.05
   6   8  -4   16.12    0.98
   6   8  -4   15.23    1.03
   6   8  -4   15.78    0.99
   6  -8  -4   16.38    1.12
   6  -8  -4   15.57    1.07
   6  -8  -4   16.17    1.04
   6  -8  -4   23.74    8.50
   4   8  -2   45.49    1.80
  -4   8   2   41.45    1.81
   4   8  -2   42.99    1.83
  -4   8   2   44.92    1.86
   4   8  -2   45.53    1.86
   4   8  -2   42.26    1.80
   4  -8  -2   39.80    6.74
   4  -8  -2   43.28    1.83
   4  -8  -2   41.45    1.82
  -2   8   0  108.48    4.23
   2   8   0  107.15    4.25
  -2   8   0  109.72    4.28
   2   8   0  112.34    4.29
   2   8   0  110.39    4.23
   2  -8   0  112.22    6.53
   2  -8   0  104.57    4.24
  -2  -8   0  101.24    5.81
   0   8   2   37.20    1.62
   0   8   2   36.54    1.57
   0   8  -2   41.68    1.61
   0   8  -2   36.38    1.57
   0   8   2   37.79    1.59
   0   8  -2   38.95    1.55
   0  -8   2   36.72    3.47
   0  -8  -2   38.21    1.58
   0  -8  -2   36.37    4.34
   0  -8   2   36.16    3.33
   0  -8  -2   35.02    4.65
   2   8  -4   56.71    2.18
   2   8  -4   52.84    2.20
   2   8  -4   55.22    2.16
  -2   8   4   55.64    2.21
   2   8  -4   53.08    2.15
   2   8  -4   52.45    2.19
  -2   8   4   50.60    2.17
   2  -8  -4   47.28    6.78
   2  -8  -4   61.58    9.40
   2  -8  -4   51.54    2.17
   4   8  -6    2.40    0.42
   4   8  -6    3.49    0.52
   4   8  -6    2.19    0.44
  -4   8   6    2.56    0.49
  -4   8   6    2.09    0.55
   4   8  -6    3.43    0.61
   4  -8  -6    1.51    0.50
   4  -8  -6    2.02    0.45
   4  -8  -6   -1.06    7.57
   4  -8  -6    1.13    8.61
   6   8  -8   41.02    1.96
   6   8  -8   41.92    1.94
  -6   8   8   42.03    2.10
   6   8  -8   40.88    1.89
   6   8  -8   39.80    1.86
   6   8  -8   42.55    1.99
   6  -8  -8   42.57    2.01
   8   8 -10    5.70    0.89
   8   8 -10    5.53    1.06
   8   8 -10    4.39    1.00
   8  -8 -10    3.22    0.99
  10   8 -12   12.11    1.58
  10  -8 -12    8.79    1.88
  10  -8 -12   13.08    1.67
  11   9  -9    1.68    1.50
  11   9  -9    3.12    1.67
  11  -9  -9    1.27    1.84
  11  -9  -9    1.16    1.67
   9   9  -7   29.76    1.89
   9   9  -7   28.60    2.06
   9  -9  -7   26.33    2.10
   9  -9  -7   28.99    2.30
   7   9  -5    1.19    0.64
   7   9  -5   -0.18    0.63
   7   9  -5    0.72    0.72
   7  -9  -5    1.07    0.65
   7  -9  -5    0.38    0.78
   5   9  -3   81.99    3.26
   5   9  -3   80.83    3.29
  -5   9   3   77.61    3.22
   5   9  -3   84.01    3.21
   5   9  -3   82.61    3.23
   5  -9  -3   68.09   11.16
   5  -9  -3   80.72    3.23
   5  -9  -3   74.81    3.25
   3   9  -1   11.89    0.81
  -3   9   1   14.54    0.83
   3   9  -1   14.07    0.82
  -3   9   1   13.77    0.85
   3   9  -1   11.74    0.82
   3   9  -1   14.36    0.82
  -3  -9   1   13.94    2.84
   3  -9  -1   15.10    0.82
   3  -9  -1    6.84    4.63
   3  -9  -1   10.90    0.81
   1   9   1  139.58    5.36
  -1   9  -1  136.39    5.40
   1   9   1  141.30    5.34
   1   9   1  140.37    5.40
  -1   9  -1  132.19    5.33
   1  -9   1  137.99    7.41
   1  -9   1  138.22    5.35
  -1  -9  -1  130.04    7.57
  -1  -9  -1  135.74    5.34
   1   9  -3   12.52    0.77
  -1   9   3   11.89    0.81
   1   9  -3   11.52    0.69
   1   9  -3   13.18    0.76
  -1   9   3   11.49    0.78
   1  -9  -3   11.73    3.94
   1  -9  -3   12.16    0.78
   1  -9  -3   14.52    4.81
  -3   9   5   52.58    2.14
  -3   9   5   45.88    2.10
   3   9  -5   51.37    2.08
   3   9  -5   51.32    2.09
   3   9  -5   50.58    2.14
   3   9  -5   47.70    2.06
   3   9  -5   48.81    2.08
   3  -9  -5   52.26    2.10
   3  -9  -5   49.26    2.11
   5   9  -7   13.06    1.10
   5   9  -7   14.23    1.04
   5   9  -7   14.41    0.98
  -5   9   7   11.46    1.24
   5   9  -7   13.16    1.05
   5   9  -7   12.94    1.01
   5  -9  -7   16.18    1.26
   5  -9  -7   12.44    1.11
   7   9  -9   23.74    1.67
   7   9  -9   24.36    1.63
   7   9  -9   23.42    1.75
   7  -9  -9   23.61    1.71
   7  -9  -9   25.00    1.82
   9   9 -11    7.05    1.39
   9   9 -11    6.04    1.51
   9   9 -11    6.99    1.22
   9  -9 -11   10.37    1.46
   9  -9 -11    6.94    1.50
  10  10  -8   21.90    2.18
  10  10  -8   17.58    1.71
  10 -10  -8   15.70    1.74
  10 -10  -8   17.08    1.81
   8  10  -6   20.55    1.71
   8  10  -6   20.50    1.63
   8 -10  -6   18.97    1.80
   8 -10  -6   16.09    1.65
   8 -10  -6   19.15    1.92
   6  10  -4   34.51    1.73
   6  10  -4   36.32    1.80
  -6  10   4   36.18    1.86
   6  10  -4   36.92    1.79
   6  10  -4   35.03    1.74
   6 -10  -4   32.29    2.38
   6 -10  -4   36.78    1.91
   4  10  -2   57.29    2.38
   4  10  -2   57.58    2.35
   4  10  -2   56.24    2.36
   4  10  -2   59.40    2.42
  -4  10   2   55.33    2.34
  -4  10   2   55.47    2.42
   4 -10  -2   54.51    2.38
   4 -10  -2   54.94    2.37
  -2  10   0    9.82    0.77
   2  10   0    9.81    0.79
   2  10   0    9.53    0.77
  -2  10   0    9.21    0.71
   2  10   0    8.25    0.77
  -2 -10   0    8.41    0.75
   2 -10   0    3.75    4.20
   2 -10   0   10.09    0.76
  -2 -10   0    5.56    3.77
   0  10  -2  121.43    4.92
   0  10  -2  125.65    4.85
   0  10   2  126.29    4.87
   0  10   2  122.31    4.92
   0 -10  -2  124.59    4.86
   0 -10   2  126.61    4.87
   0 -10   2  123.78    6.95
   0 -10  -2  119.31    8.55
   2  10  -4   11.33    0.88
  -2  10   4   12.32    0.91
   2  10  -4   12.01    0.80
  -2  10   4   13.84    0.90
   2  10  -4   11.77    0.85
   2  10  -4   12.02    0.83
   2 -10  -4    5.55    5.74
   2 -10  -4   10.39    0.90
   2 -10  -4   11.29    0.88
   4  10  -6  144.69    5.33
   4  10  -6  131.92    5.33
   4  10  -6  136.69    5.38
   4  10  -6  134.66    5.30
  -4  10   6  134.71    5.34
  -4  10   6  129.43    5.37
   4 -10  -6  132.02    5.36
   4 -10  -6  134.29    5.33
  -6  10   8    0.45    0.95
   6  10  -8    1.14    0.73
   6  10  -8    0.30    0.76
   6  10  -8    0.52    0.79
   6  10  -8    0.78    0.81
   6 -10  -8    1.11    0.88
   6 -10  -8    1.34    0.80
   6 -10  -8    0.27    0.99
   8  10 -10   36.10    2.58
   8  10 -10   34.73    2.37
   8  10 -10   33.09    2.13
   8 -10 -10   33.39    2.78
   9  11  -7   29.03    2.19
   9  11  -7   32.36    2.48
   9  11  -7   37.51    2.27
   9 -11  -7   32.05    3.01
   9 -11  -7   31.92    2.77
   7  11  -5    1.94    1.48
   7  11  -5    3.62    0.95
   7  11  -5    1.41    0.83
   7 -11  -5    2.62    0.86
   7 -11  -5    2.29    1.10
   7 -11  -5    2.38    0.97
   5  11  -3   99.49    3.85
   5  11  -3   93.04    3.80
   5  11  -3   85.97    3.94
  -5  11   3   91.06    3.82
   5  11  -3   94.86    3.89
   5 -11  -3   97.79    3.97
   5 -11  -3   94.63    3.85
  -3  11   1    0.25    0.48
   3  11  -1    0.77    0.47
   3  11  -1    1.46    0.51
   3  11  -1    0.21    0.48
  -3  11   1    0.38    0.52
  -3 -11   1   -0.03    0.55
   3 -11  -1    0.27    0.51
   1  11   1  102.97    4.22
   1  11   1  110.32    4.16
  -1  11  -1  102.03    4.14
  -1  11  -1  102.78    4.21
   1  11   1  108.17    4.18
  -1 -11  -1  103.51    4.16
   1 -11   1  105.00    4.15
   1 -11   1   96.58   10.43
  -1  11   3    4.37    0.55
   1  11  -3    3.57    0.50
  -1  11   3    3.60    0.57
   1  11  -3    4.95    0.54
   1  11  -3    4.46    0.50
   1 -11  -3    3.68    0.57
   3  11  -5  100.15    3.88
  -3  11   5   92.23    3.89
   3  11  -5   96.77    3.92
   3  11  -5   97.43    3.84
   3  11  -5   96.43    3.87
  -3  11   5   92.46    3.95
   3 -11  -5   94.91    3.91
   3 -11  -5   97.84    3.88
   5  11  -7    4.93    0.80
   5  11  -7    2.02    0.72
   5  11  -7    4.36    0.76
   5  11  -7    3.92    0.79
  -5  11   7    4.32    0.87
   5  11  -7    2.84    0.75
   5 -11  -7    2.72    0.93
   5 -11  -7    2.25    0.81
  -7  11   9   21.73    2.37
   7  11  -9   20.06    1.74
   7  11  -9   19.90    1.81
   7  11  -9   17.66    1.85
   7 -11  -9   19.01    2.13
   7 -11  -9   20.93    1.98
   9  11 -11    0.43    1.55
   9  11 -11    0.50    1.71
   9 -11 -11    1.70    1.71
   9 -11 -11    1.99    1.88
  10  12  -8    3.99    1.81
  10  12  -8    0.12    2.08
  10  12  -8    3.45    2.17
  10 -12  -8    2.23    2.04
   8  12  -6    2.19    1.07
   8  12  -6    3.82    1.84
   8 -12  -6    3.36    1.58
  -6  12   4   13.62    1.11
   6  12  -4   12.95    1.36
   6  12  -4   14.99    1.43
   6  12  -4   12.68    1.14
   6  12  -4   13.46    1.36
   6 -12  -4   14.74    1.56
   6 -12  -4   15.10    1.11
   4  12  -2    6.46    0.79
   4  12  -2    8.29    1.02
   4  12  -2    8.31    0.80
  -4  12   2    6.29    0.84
   4 -12  -2    7.02    0.78
  -2  12   0   48.35    2.06
   2  12   0   48.89    2.09
   2  12   0   49.47    2.11
   2  12   0   49.93    2.14
  -2  12   0   43.61    2.14
   2 -12   0   45.85    2.10
  -2 -12   0   43.24    2.12
   2 -12   0   47.78    2.13
   0  12   2    7.22    0.91
   0  12  -2    9.26    0.89
   0  12   2    7.80    0.67
   0  12  -2    5.56    0.83
   0 -12  -2    6.19    0.69
   0 -12   2    8.43    0.94
  -2  12   4   22.23    1.46
   2  12  -4   26.59    1.59
   2  12  -4   26.11    1.39
   2  12  -4   26.63    1.37
  -4  12   6    1.19    0.98
   4  12  -6    1.34    0.75
   4  12  -6    1.50    0.75
  -4  12   6    1.00    0.82
   4  12  -6    1.54    0.68
   4  12  -6    0.96    0.67
   4 -12  -6    1.00    0.78
   4 -12  -6    0.91    0.81
  -6  12   8   14.76    1.40
   6  12  -8   15.80    1.56
   6  12  -8   15.92    1.73
   6  12  -8   14.43    1.27
   6  12  -8   14.57    1.27
   6 -12  -8   16.16    1.31
   6 -12  -8   18.01    1.50
   6 -12  -8   15.65    1.40
   8  12 -10    4.06    1.41
   8  12 -10    3.12    1.52
   8 -12 -10    3.13    1.57
   8 -12 -10    5.98    1.38
   9  13  -7   -0.06    1.48
   9  13  -7   -0.43    1.63
   9  13  -7   -0.33    1.52
   9 -13  -7   -0.66    1.96
   7  13  -5   25.46    2.20
   7  13  -5   22.74    1.75
  -7  13   5   22.77    2.37
   7 -13  -5   24.59    2.25
   7 -13  -5   27.06    1.78
   5  13  -3    0.32    0.76
   5  13  -3    0.55    0.89
   5  13  -3   -0.39    0.87
  -5  13   3    0.98    0.86
  -5 -13   3    0.01    1.04
   5 -13  -3   -0.48    0.86
   5 -13  -3   -0.36    0.89
   3  13  -1   60.20    2.61
   3  13  -1   58.76    2.63
  -3  13   1   56.01    2.60
   3  13  -1   60.01    2.66
  -3  13   1   58.72    2.69
   3 -13  -1   60.52    2.65
   3 -13  -1   61.89    2.65
  -3 -13   1   59.21    2.69
   1  13   1    3.14    0.70
  -1  13  -1    3.46    0.66
   1  13   1    5.12    0.70
  -1  13  -1    5.03    0.66
  -1 -13  -1    4.54    0.79
   1 -13   1    3.72    0.68
   1  13  -3   27.49    1.52
  -1  13   3   27.91    1.61
   1  13  -3   27.76    1.54
  -1  13   3   26.25    1.57
   1 -13  -3   29.27    1.59
  -1 -13   3   31.55    1.59
   1 -13  -3   25.19    1.60
   3  13  -5    4.41    0.71
  -3  13   5    2.76    0.84
   3  13  -5    3.53    0.74
   3  13  -5    2.59    0.79
  -3  13   5    3.58    0.94
   3 -13  -5    4.54    0.85
   3 -13  -5    4.20    0.88
  -3 -13   5    3.20    0.88
   5  13  -7   12.28    1.43
   5  13  -7   10.49    1.16
  -5  13   7   12.51    1.25
   5  13  -7   10.27    1.08
   5 -13  -7    9.42    1.15
   5 -13  -7   12.43    1.32
   7  13  -9    8.79    1.41
   7  13  -9    8.91    1.46
  -7  13   9    8.75    1.81
   7  13  -9    8.30    1.40
   7 -13  -9   10.24    1.42
   7 -13  -9   13.11    1.71
   8  14  -6    8.72    1.42
   8  14  -6    8.98    1.61
   8 -14  -6   -0.39    2.09
   8 -14  -6    5.99    1.76
   6  14  -4   30.15    2.12
  -6  14   4   26.25    2.27
   6  14  -4   23.26    1.83
   6 -14  -4   26.08    2.39
   6 -14  -4   33.24    2.58
  -4  14   2    2.88    0.98
   4  14  -2    2.50    0.92
   4  14  -2    2.81    0.80
  -4  14   2    3.14    0.89
   4  14  -2    3.73    0.94
   4 -14  -2    2.55    0.95
  -4 -14   2    2.99    1.09
   4 -14  -2    3.52    0.99
   2  14   0   39.05    2.44
  -2  14   0   40.79    1.98
  -2  14   0   38.72    2.01
   2  14   0   37.20    2.02
   2 -14   0   37.31    2.05
  -2 -14   0   40.86    2.12
   0  14  -2    0.99    0.71
   0  14   2    1.25    0.72
   0  14  -2    0.62    0.79
   0  14   2    0.77    0.78
   0 -14  -2    2.25    0.88
   0 -14   2    1.58    0.82
   0 -14  -2    1.06    0.77
   2  14  -4   63.00    2.70
  -2  14   4   57.81    2.76
   2  14  -4   57.18    2.71
  -2  14   4   55.79    2.80
   2 -14  -4   64.34    2.80
   2 -14  -4   59.42    2.77
  -2 -14   4   61.93    2.72
  -4  14   6    2.18    1.05
  -4  14   6    2.16    1.33
   4  14  -6    1.85    0.91
   4  14  -6    2.27    0.85
   4  14  -6    1.47    0.97
   4 -14  -6    3.45    1.09
   4 -14  -6    2.59    1.14
  -6  14   8   29.14    2.72
   6  14  -8   27.03    2.08
   6  14  -8   29.81    2.51
   6  14  -8   30.71    2.27
   6 -14  -8   25.75    2.90
   6 -14  -8   27.51    2.48
   6 -14  -8   27.76    2.79
  -7  15   5   13.33    1.96
   7  15  -5   14.00    1.83
   7  15  -5   15.71    1.72
   7 -15  -5   17.45    1.63
   7 -15  -5   13.71    1.75
   5  15  -3    4.91    1.22
   5  15  -3    6.16    1.06
  -5  15   3    6.39    1.51
   5 -15  -3    6.92    1.24
   5 -15  -3    6.54    1.37
   3  15  -1   11.04    1.13
   3  15  -1   11.80    1.37
  -3  15   1    9.21    1.07
  -3  15   1   12.69    1.51
   3 -15  -1   12.90    1.17
  -3 -15   1   10.01    1.26
   1  15   1    6.53    0.99
   1  15   1    7.57    0.95
  -1  15  -1    7.55    0.93
  -1  15  -1    8.02    0.93
  -1 -15  -1    6.80    1.03
   1 -15   1    7.26    1.05
  -1 -15  -1    7.61    1.09
   1  15  -3   18.67    1.53
   1  15  -3   15.82    1.39
  -1  15   3   15.07    1.62
  -1  15   3   14.65    1.52
  -1 -15   3   17.13    1.65
   1 -15  -3   16.95    1.69
   1 -15  -3   14.57    1.26
   3  15  -5   13.50    1.40
  -3  15   5   12.93    1.44
   3  15  -5   12.53    1.16
  -3  15   5   13.62    1.25
  -3 -15   5   13.95    1.29
   3 -15  -5   12.24    1.27
   3 -15  -5   10.78    1.30
   5  15  -7   10.55    1.35
  -5  15   7    9.00    1.54
   5  15  -7   12.22    1.31
   5 -15  -7   10.40    1.77
   5 -15  -7    9.52    1.46
   5 -15  -7    9.99    1.65
   6  16  -4    0.83    1.61
   6  16  -4    2.88    1.23
  -6  16   4    1.60    1.65
   6  16  -4    1.74    1.48
   6 -16  -4    2.26    1.54
   6 -16  -4    2.47    1.53
  -4  16   2    7.52    1.23
   4  16  -2   10.95    1.32
   4  16  -2    7.18    1.09
   4 -16  -2    7.89    1.37
  -2  16   0    2.86    1.04
   2  16   0    1.59    0.92
  -2 -16   0    2.70    1.47
   0  16  -2   17.95    1.57
   0  16   2   17.82    1.68
   0  16   2   18.04    1.84
   0  16  -2   23.83    1.95
   0 -16  -2   21.22    2.19
   0 -16   2   21.43    2.05
   0 -16  -2   18.09    1.45
  -2  16   4    0.72    1.16
   2  16  -4    0.24    1.05
   2  16  -4    1.11    0.90
  -2  16   4    0.74    1.17
  -2 -16   4    1.44    1.23
   2 -16  -4    0.68    1.21
   2 -16  -4    0.54    1.23
   4  16  -6   16.75    1.46
   4  16  -6   20.55    1.87
  -4  16   6   15.42    1.64
   4 -16  -6   13.87    1.60
   4 -16  -6   12.87    1.68
  -5  17   3    9.05    1.99
   5  17  -3    7.77    2.24
   5  17  -3   12.14    1.74
  -5 -17   3    9.54    1.89
   3  17  -1   -0.53    1.31
  -3  17   1   -0.16    1.21
  -3  17   1    0.12    1.50
   3  17  -1    0.64    1.21
  -3 -17   1    0.57    1.43
   3 -17  -1   -0.21    1.32
   1  17   1   22.62    1.92
  -1  17  -1   26.85    1.93
   1  17   1   26.72    2.21
  -1  17  -1   27.28    2.10
   1 -17   1   24.43    2.31
  -1 -17  -1   25.63    2.33
  -1 -17  -1   22.16    1.79
   1  17  -3    0.35    1.03
   1  17  -3   -0.46    1.10
  -1  17   3   -0.24    1.21
  -1  17   3   -0.52    1.24
   1 -17  -3   -1.04    1.36
   1 -17  -3    0.55    1.35
  -1 -17   3    1.09    1.32
   3  17  -5    8.83    1.21
   3  17  -5    4.79    1.31
  -3  17   5    6.31    1.79
  -3  17   5    7.41    1.54
   3 -17  -5    7.66    1.56
   3 -17  -5    6.90    1.61
  -3 -17   5    7.46    1.64
  -2  18   0    1.70    1.55
   2  18   0    2.46    1.25
  -2  18   0    2.46    1.31
   2  18   0    3.41    1.69
   2 -18   0    2.91    1.79
  -2 -18   0    2.44    1.92
   0  18   2   10.81    1.47
   0  18  -2    9.78    1.38
   0  18   2    7.47    1.50
   0  18  -2    9.75    1.36
   0 -18  -2   11.18    1.69
   0 -18   2    8.12    1.67
   2  18  -4    1.73    1.35
   2  18  -4    3.53    1.18
  -2  18   4    1.84    1.58
  -2  18   4    2.74    1.65
   2 -18  -4    2.93    1.64
   2 -18  -4    1.61    1.78
  -2 -18   4    2.64    1.78
  12   0  -9    0.24    1.22
  12   0  -9    0.32    1.23
  10   0  -7   -0.53    0.72
  10   0  -7    0.63    0.70
   8   0  -5    0.02    0.41
   8   0  -5    0.08    0.41
   8   0  -5    0.20    0.41
   6   0  -3   -0.14    0.25
  -6   0   3   -0.63    2.76
   6   0  -3   -0.22    0.25
   6   0  -3   -0.23    2.44
   6   0  -3    0.17    0.26
  -4   0   1    1.18    1.39
   4   0  -1    0.06    0.15
   4   0  -1   -0.15    0.16
   4   0  -1   -0.28    1.15
   4   0  -1   -0.14    0.15
   2   0   1    0.06    0.09
  -2   0  -1    0.36    0.84
   2   0   1    0.25    0.10
   2   0   1   -0.10    0.70
   2   0   1    0.17    0.10
   2   0   1    0.13    0.10
   0   0  -3   -0.02    0.10
   0   0   3    0.31    0.72
   0   0   3    0.01    0.10
   0   0  -3   -0.85    0.64
   2   0  -5    0.35    0.14
   2   0  -5   -0.03    0.16
   2   0  -5    0.02    0.17
   2   0  -5    0.05    1.13
   4   0  -7   -0.17    0.25
   4   0  -7    0.13    2.04
   4   0  -7    0.33    2.23
   4   0  -7    0.11    0.24
   4   0  -7    0.20    0.26
   6   0  -9   -1.34    5.10
   6   0  -9   -0.14    0.40
   6   0  -9   -0.46    0.38
   6   0  -9   -0.29    0.41
   8   0 -11   -0.31    0.63
   8   0 -11    0.84    0.71
   8   0 -11   -0.15    0.72
  10   0 -13    0.25    1.35
  10   0 -13    0.53    1.59
  13   1 -10    2.83    1.61
  13   1 -10    1.12    1.59
  13  -1 -10    1.93    1.66
  13  -1 -10    0.79    1.63
  11   1  -8    0.81    0.92
  11   1  -8    0.43    0.94
  11  -1  -8   -0.14    0.92
  11  -1  -8   -0.10    0.90
   9   1  -6   19.24    1.17
   9   1  -6   18.96    1.17
   9  -1  -6   16.78    1.17
   9  -1  -6   19.48    1.16
   7   1  -4   24.34    1.08
  -7   1   4   26.01    5.23
   7   1  -4   23.46    1.11
   7   1  -4   21.52    3.99
   7   1  -4   22.79    1.11
  -7  -1   4   29.56    4.56
   7  -1  -4   25.57    1.10
   7  -1  -4   24.61    1.10
   7  -1  -4   22.93    1.10
   7  -1  -4   22.94    1.10
   7  -1  -4   16.89    4.80
   5   1  -2   18.62    0.85
   5   1  -2   21.27    0.83
   5   1  -2   22.25    2.85
   5   1  -2   19.49    0.84
   5   1  -2   18.66    0.83
  -5   1   2   19.44    3.13
   5  -1  -2   16.95    0.83
   5  -1  -2   18.94    0.84
   5  -1  -2   19.53    0.84
   5  -1  -2   22.93    3.15
  -5  -1   2   18.47    3.05
   3   1   0    5.69    1.12
   3   1   0    5.87    0.33
   3   1   0    6.13    0.31
   3   1   0    5.91    0.35
  -3   1   0    4.55    1.21
   3   1   0    5.50    0.32
   3  -1   0    6.20    0.32
   3  -1   0    6.52    1.22
  -3  -1   0    6.85    1.29
   3  -1   0    5.45    0.31
   3  -1   0    6.57    0.33
  -1   1  -2  480.79   17.87
   1   1   2  468.38   18.31
  -1   1  -2  480.55   17.87
   1   1   2  460.95   17.87
   1   1   2  442.95   17.86
  -1   1  -2  437.33   18.22
   1  -1   2  457.38   18.24
   1  -1   2  476.80   17.87
   1  -1   2  488.97   17.87
   1   1  -4   -0.38    0.72
   1   1  -4    0.13    0.14
  -1   1   4   -0.75    1.01
   1   1  -4    0.10    0.14
   1   1  -4    0.06    0.14
  -1   1   4    0.16    0.14
   1  -1  -4    0.10    0.13
  -1  -1   4    0.63    0.90
  -1  -1   4   -0.05    0.13
   1  -1  -4   -0.32    0.88
   3   1  -6   19.92    0.90
   3   1  -6   21.01    2.43
   3   1  -6   20.93    2.39
   3   1  -6   21.15    0.92
   3   1  -6   20.86    0.92
   3  -1  -6   20.27    2.78
   3  -1  -6   22.61    0.92
   3  -1  -6   22.10    0.91
   3  -1  -6   21.47    0.89
   3  -1  -6   22.37    0.93
   5   1  -8   16.77    0.93
   5   1  -8   15.53    3.28
   5   1  -8   19.28    0.90
   5   1  -8   18.63    3.20
   5   1  -8   19.07    0.92
   5  -1  -8   18.21    0.90
   5  -1  -8   18.86    0.91
   5  -1  -8   18.37    0.91
   5  -1  -8   15.12    3.88
   7   1 -10    8.39    0.90
   7   1 -10    6.99    0.64
   7   1 -10    8.57    0.86
   7  -1 -10    7.13    0.67
   7  -1 -10    6.50    0.67
   7  -1 -10    7.72    0.87
   9   1 -12    2.77    0.90
   9   1 -12   -0.05    0.92
   9  -1 -12    0.60    0.87
   9  -1 -12    0.39    0.97
  11   1 -14    1.53    1.41
  11  -1 -14    1.13    1.50
  12   2  -9    2.25    1.26
  12   2  -9   -0.32    1.23
  12  -2  -9    2.02    1.24
  12  -2  -9    2.41    1.29
  10   2  -7    2.05    0.71
  10   2  -7    2.08    0.78
  10  -2  -7    1.97    0.78
  10  -2  -7    5.12    0.79
   8   2  -5    2.03    0.46
   8   2  -5    1.65    0.44
   8   2  -5    1.71    0.46
   8  -2  -5    2.72    0.45
   8  -2  -5    2.43    0.48
   8  -2  -5    2.03    0.46
   6   2  -3    0.59    0.28
   6   2  -3    0.55    0.27
   6   2  -3    0.60    0.34
   6   2  -3    0.75    2.40
  -6   2   3    0.13    3.35
  -6  -2   3    1.28    2.69
   6  -2  -3   -0.81    2.99
   6  -2  -3    0.57    0.28
   6  -2  -3    0.44    0.29
   4   2  -1    0.05    0.18
   4   2  -1   -0.47    1.28
   4   2  -1   -0.10    0.18
   4   2  -1    0.08    0.17
  -4   2   1    0.03    1.57
   4  -2  -1    0.25    1.60
   4  -2  -1   -0.38    0.17
  -4  -2   1    0.70    1.45
   4  -2  -1    0.01    0.15
   4  -2  -1    0.11    0.15
  -2   2  -1    0.94    0.11
   2   2   1    1.09    0.15
   2   2   1    1.15    0.14
   2   2   1    0.93    0.15
  -2   2  -1    0.32    0.88
   2   2   1    1.10    0.84
   2   2   1    0.91    0.14
  -2  -2  -1    1.04    0.94
   2  -2   1    1.52    0.15
   2  -2   1    1.33    0.85
   0   2   3   29.90    1.18
   0   2  -3   31.20    1.17
   0   2  -3   30.02    1.18
   0   2   3   28.08    1.16
   0   2  -3   29.86    1.16
   0   2  -3   29.97    1.64
   0   2  -3   29.52    1.18
   0   2   3   28.82    1.18
   0  -2  -3   30.02    1.17
   0  -2   3   30.33    1.68
   0  -2  -3   28.23    2.04
   0  -2   3   30.00    1.17
   2   2  -5   28.99    1.15
   2   2  -5   29.64    1.16
   2   2  -5   29.53    1.17
   2   2  -5   29.11    1.93
   2   2  -5   28.44    1.16
   2   2  -5   29.28    1.17
   2  -2  -5   28.50    1.16
   2  -2  -5   25.66    2.69
   2  -2  -5   28.33    1.15
   4   2  -7   24.96    3.02
   4   2  -7   31.95    1.31
   4   2  -7   32.46    3.19
   4   2  -7   31.01    1.30
   4   2  -7   32.09    1.31
   4  -2  -7   24.37    4.40
   4  -2  -7   34.17    4.58
   4  -2  -7   30.58    1.32
   4  -2  -7   31.25    1.30
   4  -2  -7   31.92    1.40
   6   2  -9   28.59    1.30
   6   2  -9   27.60    1.31
   6   2  -9   27.27    1.31
   6  -2  -9   25.31    1.29
   6  -2  -9   26.75    1.32
   6  -2  -9   28.53    1.29
   8   2 -11   19.43    1.38
   8   2 -11   19.60    1.38
   8   2 -11   20.53    1.34
   8  -2 -11   19.18    1.38
   8  -2 -11   19.88    1.38
  10   2 -13    8.14    1.20
  10   2 -13    0.13    1.53
  10  -2 -13    0.57    1.42
  10  -2 -13    8.31    1.24
  13   3 -10    0.06    2.71
  11   3  -8    2.02    1.02
  11   3  -8    2.64    1.00
  11  -3  -8    2.47    1.09
  11  -3  -8    2.35    0.99
   9   3  -6    3.29    0.60
   9   3  -6    3.53    0.62
   9  -3  -6    3.30    0.66
   9  -3  -6    1.76    0.59
   7   3  -4    1.17    0.38
   7   3  -4    0.82    0.37
   7   3  -4    0.38    0.30
   7  -3  -4    1.34    0.36
   7  -3  -4   -0.49    3.91
   7  -3  -4    1.31    0.38
   5   3  -2   -0.15    0.22
   5   3  -2    0.09    0.19
   5   3  -2    0.49    1.86
  -5   3   2    0.83    4.05
   5   3  -2    0.30    0.25
   5  -3  -2    0.67    2.09
   5  -3  -2    0.33    0.23
  -5  -3   2    0.17    1.91
   5  -3  -2    0.17    0.25
   3   3   0    1.12    0.18
  -3   3   0    1.53    1.36
   3   3   0    1.30    0.19
   3   3   0    0.97    0.17
   3   3   0    1.39    0.19
   3   3   0    1.56    1.17
   3  -3   0    1.36    0.17
   3  -3   0    1.28    1.53
  -3  -3   0    0.46    1.11
   3  -3   0    1.28    0.19
  -1   3  -2  179.56    6.68
   1   3   2  177.33    6.67
   1   3   2  172.81    6.67
   1   3   2  166.06    6.68
   1   3   2  168.07    7.32
  -1   3  -2  173.75    7.14
  -1   3  -2  178.48    6.67
  -1   3  -2  176.94    6.66
   1  -3   2  179.18    6.67
   1  -3   2  165.16    7.14
  -1  -3  -2  167.70    7.30
   1   3  -4   26.52    1.45
   1   3  -4   24.74    1.02
   1   3  -4   25.45    1.00
  -1   3   4   21.85    2.56
  -1   3   4   24.76    1.01
   1   3  -4   24.07    1.00
   1   3  -4   24.23    1.01
  -1  -3   4   25.49    1.57
   1  -3  -4   23.52    1.01
   1  -3  -4   24.86    2.53
   3   3  -6    1.47    0.21
   3   3  -6    1.72    0.27
   3   3  -6    1.17    0.26
   3   3  -6    1.83    0.26
   3   3  -6    1.55    0.25
   3   3  -6    2.16    1.16
   3   3  -6    3.17    1.30
   3  -3  -6    1.66    0.26
   3  -3  -6    1.11    0.26
   3  -3  -6    0.24    2.36
   3  -3  -6    1.85    2.41
   5   3  -8    1.42    2.67
   5   3  -8   -0.27    0.36
   5   3  -8   -0.31    2.97
   5   3  -8   -0.50    0.43
   5   3  -8    0.01    0.31
   5  -3  -8    1.76    5.28
   5  -3  -8    0.03    0.35
   5  -3  -8    0.45    0.40
   5  -3  -8    0.16    0.34
   5  -3  -8   -1.64    4.62
   7   3 -10    0.13    0.51
   7   3 -10    0.59    0.61
   7   3 -10   -0.50    0.52
   7  -3 -10   -0.37    0.55
   7  -3 -10   -0.31    0.58
   9   3 -12    1.23    0.91
   9   3 -12    2.05    0.93
   9   3 -12   -0.16    1.10
   9  -3 -12    2.57    0.91
   9  -3 -12   -0.03    0.99
  11   3 -14    2.09    1.49
  11  -3 -14   -0.22    1.58
  12   4  -9    4.59    1.33
  12   4  -9    1.15    1.39
  12  -4  -9    3.92    1.44
  12  -4  -9    0.44    1.32
  10   4  -7    6.89    0.88
  10   4  -7    5.19    0.86
  10  -4  -7    5.05    0.83
  10  -4  -7    5.70    0.89
   8   4  -5    3.80    0.52
   8   4  -5    3.54    0.57
   8   4  -5    2.73    0.53
   8  -4  -5    2.98    0.55
   8  -4  -5    3.89    0.56
   8  -4  -5    2.25    0.48
   6   4  -3    1.20    2.63
  -6   4   3   -0.49    4.04
   6   4  -3    0.05    0.33
   6   4  -3   -0.03    0.31
   6   4  -3    0.50    0.30
   6  -4  -3    1.87    3.78
   6  -4  -3    0.32    0.30
   6  -4  -3    0.82    0.31
  -4   4   1    0.22    0.19
   4   4  -1    0.51    1.42
   4   4  -1    0.17    0.20
   4   4  -1    0.75    0.22
   4   4  -1    0.39    0.21
  -4   4   1   -0.64    1.74
   4   4  -1    0.35    0.19
   4  -4  -1   -0.03    0.21
   4  -4  -1    0.65    2.22
   4  -4  -1    0.51    0.22
  -4  -4   1    0.10    1.37
   4  -4  -1    0.43    0.21
  -2   4  -1    4.89    1.33
   2   4   1    6.59    1.32
  -2   4  -1    5.11    0.35
  -2   4  -1    4.92    0.30
   2   4   1    5.03    0.32
   2   4   1    4.53    0.32
   2   4   1    5.19    0.33
   2   4   1    5.05    0.34
   2  -4   1    4.67    0.33
  -2  -4  -1    6.88    1.32
   2  -4   1    6.12    1.46
   0   4   3   41.56    1.77
   0   4  -3   46.62    1.77
   0   4   3   47.28    3.18
   0   4  -3   44.44    1.76
   0   4  -3   44.23    1.76
   0   4  -3   45.89    1.79
   0   4   3   46.13    1.79
   0   4  -3   44.50    2.29
   0  -4  -3   43.13    1.77
   0  -4   3   45.68    2.31
   2   4  -5   24.11    1.02
  -2   4   5   21.77    1.00
   2   4  -5   23.35    1.01
   2   4  -5   23.64    1.00
   2   4  -5   25.55    1.00
   2   4  -5   24.52    1.02
   2  -4  -5   33.90    4.53
   2  -4  -5   25.70    1.02
   2  -4  -5   20.52    3.28
   4   4  -7    8.19    0.59
   4   4  -7    8.37    0.63
   4   4  -7    8.97    0.54
   4   4  -7    9.07    0.61
   4   4  -7    8.88    0.60
   4  -4  -7    9.70    0.58
   4  -4  -7   11.29    5.94
   4  -4  -7    8.97    0.63
  -6   4   9    6.85    0.68
   6   4  -9    6.78    0.64
   6   4  -9    8.05    0.79
   6   4  -9    7.82    0.81
   6  -4  -9    9.03    0.88
   6  -4  -9    7.83    0.84
   6  -4  -9    4.49   11.64
   6  -4  -9    9.62    0.83
   8   4 -11    3.58    0.77
   8   4 -11    4.31    0.91
   8   4 -11    6.63    0.82
   8  -4 -11    5.44    0.83
   8  -4 -11    6.82    1.13
  10   4 -13    2.10    1.21
  10  -4 -13   -0.07    1.66
  10  -4 -13    1.62    1.22
  11   5  -8   22.37    1.94
  11   5  -8   27.34    1.99
  11  -5  -8   24.88    2.09
  11  -5  -8   21.04    1.94
   9   5  -6   19.25    1.38
   9   5  -6   21.92    1.37
   9  -5  -6   21.39    1.37
   9  -5  -6   21.02    1.49
   9  -5  -6   20.40    1.43
   7   5  -4   70.12    2.88
   7   5  -4   72.38    2.92
   7   5  -4   68.63    2.87
   7  -5  -4   72.49    2.87
   7  -5  -4   92.99   15.99
   7  -5  -4   68.74    2.86
   5   5  -2  161.66    6.01
   5   5  -2  158.60    7.22
  -5   5   2  157.17    8.62
   5   5  -2  148.08    5.97
   5   5  -2  156.05    5.98
   5  -5  -2  148.75    5.96
   5  -5  -2  158.10    6.00
   5  -5  -2  156.33    5.96
   5  -5  -2  141.31    8.44
  -5  -5   2  150.49    7.21
  -3   5   0  275.31   11.74
  -3   5   0  265.77   10.61
   3   5   0  292.61   10.66
   3   5   0  271.93   10.63
   3   5   0  275.77   10.62
  -3   5   0  273.06   10.64
   3   5   0  273.62   11.34
   3   5   0  282.80   10.61
   3  -5   0  262.60   11.71
   3  -5   0  273.95   10.62
  -3  -5   0  284.09   11.34
   3  -5   0  279.26   10.61
  -1   5  -2   36.55    1.48
  -1   5  -2   34.82    1.45
  -1   5  -2   36.60    1.47
   1   5   2   36.78    1.46
   1   5   2   41.57    1.52
   1   5   2   38.17    2.95
  -1   5  -2   34.01    2.41
   1  -5   2   35.86    1.46
  -1  -5  -2   35.76    2.82
   1  -5   2   32.82    2.36
   1   5  -4  213.99    8.12
   1   5  -4  222.16    8.15
  -1   5   4  204.28    8.14
   1   5  -4  216.53    8.12
   1   5  -4  211.11    8.12
   1   5  -4  207.47    8.11
  -1   5   4  203.35    8.12
   1  -5  -4  210.61    8.12
   1  -5  -4  207.24    9.51
   3   5  -6   45.04    1.88
   3   5  -6   46.70    1.86
   3   5  -6   45.95    1.90
   3   5  -6   51.14    1.89
   3   5  -6   45.68    1.88
   3  -5  -6   40.26    5.66
   3  -5  -6   44.26    5.17
  -5   5   8   13.09    0.92
   5   5  -8   13.40    0.83
   5   5  -8   13.62    0.87
   5   5  -8   10.73    0.81
   5   5  -8   12.74    0.87
   5  -5  -8   13.01    0.86
   5  -5  -8   -0.36    6.82
   5  -5  -8   12.83    0.83
   5  -5  -8    8.85   10.06
   7   5 -10    2.33    0.74
   7   5 -10    1.59    0.80
   7   5 -10    2.21    0.59
   7  -5 -10    3.39    0.70
   7  -5 -10    1.79    0.65
   9   5 -12    7.20    1.08
   9   5 -12    8.21    1.05
   9  -5 -12    6.01    1.10
  11   5 -14   -0.73    2.38
  11  -5 -14   -0.63    2.18
  12   6  -9    3.47    1.47
  12   6  -9    2.03    1.64
  12  -6  -9    2.94    1.54
  12  -6  -9    3.46    1.73
  10   6  -7    0.23    1.08
  10   6  -7    0.48    0.90
  10   6  -7    0.76    0.99
  10  -6  -7    1.01    0.92
  10  -6  -7    0.99    0.95
   8   6  -5    2.06    0.58
   8   6  -5    2.66    0.63
   8   6  -5    1.99    0.58
   8  -6  -5    2.39    0.62
   8  -6  -5    2.75    0.63
  -6   6   3   -1.01    6.31
   6   6  -3    0.30    0.37
   6   6  -3    0.69    0.38
   6   6  -3    0.70    0.38
   6  -6  -3    0.96    0.42
   6  -6  -3    0.68    4.31
   6  -6  -3    0.83    0.40
   6  -6  -3    1.34    0.38
   4   6  -1    3.32    0.45
  -4   6   1    2.60    2.66
  -4   6   1    4.41    0.45
   4   6  -1    2.46    1.99
   4   6  -1    4.47    0.48
   4   6  -1    4.01    0.42
   4   6  -1    4.13    0.50
   4  -6  -1    4.53    0.55
  -4  -6   1    4.08    2.02
   4  -6  -1    5.15    0.46
   4  -6  -1    7.31    3.17
   2   6   1   37.09    1.57
  -2   6  -1   37.70    1.59
  -2   6  -1   38.78    1.56
   2   6   1   38.10    1.56
   2   6   1   40.71    1.56
   2   6   1   40.48    1.60
  -2   6  -1   37.73    1.54
   2   6   1   35.64    3.21
  -2   6  -1   40.50    3.07
   2  -6   1   39.37    3.27
  -2  -6  -1   41.49    3.36
   2  -6   1   35.75    1.55
   0   6  -3   16.07    1.79
   0   6  -3   15.22    0.74
   0   6  -3   16.27    0.71
   0   6   3   15.86    0.78
   0   6  -3   16.35    0.75
   0   6   3   16.93    0.72
   0   6  -3   15.86    0.73
   0   6   3   15.23    0.75
   0  -6   3   16.49    1.93
   0  -6  -3   10.58    2.26
   0  -6  -3   15.48    0.74
   2   6  -5   30.57    1.23
   2   6  -5   29.69    1.21
   2   6  -5   29.04    1.23
  -2   6   5   26.01    1.20
  -2   6   5   26.74    1.23
   2   6  -5   29.37    1.24
   2   6  -5   28.75    1.20
   2  -6  -5   42.74    6.63
   2  -6  -5   28.24    1.25
   2  -6  -5   27.48    4.55
   4   6  -7   20.75    0.97
   4   6  -7   21.67    1.05
   4   6  -7   20.28    1.02
   4   6  -7   19.65    1.04
   4   6  -7   21.84    1.05
   4  -6  -7   26.76    9.21
   4  -6  -7   19.73    5.68
   4  -6  -7   21.17    1.05
   6   6  -9   10.62    0.92
   6   6  -9    9.41    1.01
  -6   6   9    8.34    0.80
   6   6  -9    9.28    0.96
   6  -6  -9    9.00    1.02
   6  -6  -9   10.85    0.96
   8   6 -11    2.62    0.79
   8   6 -11    1.11    0.83
   8   6 -11    1.76    0.98
   8  -6 -11    0.49    0.84
   8  -6 -11    1.17    0.95
  10   6 -13    3.19    1.37
  10   6 -13    0.01    1.97
  10  -6 -13    2.47    1.40
  10  -6 -13   -2.01    1.69
  11   7  -8    3.69    1.35
  11   7  -8    4.13    1.29
  11  -7  -8    3.01    1.27
  11  -7  -8    4.22    1.47
   9   7  -6    0.06    0.76
   9   7  -6    0.09    0.82
   9   7  -6    0.41    0.85
   9  -7  -6   -0.25    0.83
   9  -7  -6    0.88    0.83
   7   7  -4    0.92    0.46
   7   7  -4    0.75    0.56
   7   7  -4    0.45    0.51
   7  -7  -4    0.71    0.54
   7  -7  -4    0.26    0.53
   7  -7  -4    0.25    0.50
   7  -7  -4   -3.50    9.40
   5   7  -2    5.28    0.55
   5   7  -2    5.14    0.56
   5   7  -2    4.91    0.44
  -5   7   2    4.49    7.77
   5   7  -2    4.07    2.56
   5   7  -2    5.43    0.62
  -5   7   2    4.54    0.45
   5  -7  -2    5.95    0.50
   5  -7  -2    4.43    0.44
   5  -7  -2    4.89    5.93
  -5  -7   2    2.32    2.96
   5  -7  -2    4.51    0.46
   3   7   0   19.76    0.95
   3   7   0   21.27    0.97
   3   7   0   21.29    0.98
  -3   7   0   21.37    0.99
   3   7   0   21.21    1.00
  -3   7   0   21.04    3.85
   3   7   0   18.72    2.60
  -3   7   0   20.78    0.94
   3  -7   0   21.34    0.95
   3  -7   0   22.91    3.45
   3  -7   0   21.25    0.96
   1   7   2    0.56    0.25
  -1   7  -2    0.05    0.22
   1   7   2    0.11    0.27
   1   7   2    0.00    0.25
  -1   7  -2   -0.25    1.66
  -1   7  -2    0.49    0.25
   1  -7   2    0.04    0.21
  -1  -7  -2    0.81    2.36
  -1  -7  -2    0.25    0.27
   1  -7   2   -0.66    1.88
   1   7  -4   61.97    2.36
  -1   7   4   60.60    2.41
   1   7  -4   59.01    2.40
   1   7  -4   59.35    2.36
   1   7  -4   60.48    2.38
   1  -7  -4   53.61    5.63
   1  -7  -4   56.57    5.23
   1  -7  -4   58.07    2.37
  -3   7   6   23.31    1.07
   3   7  -6   21.77    1.06
  -3   7   6   20.92    1.08
   3   7  -6   22.26    1.04
   3   7  -6   23.34    1.05
   3   7  -6   22.59    1.01
   3   7  -6   21.44    1.06
   3  -7  -6   22.63    5.60
   3  -7  -6   21.08    1.06
   3  -7  -6   13.31    4.74
  -5   7   8    7.12    0.69
   5   7  -8    7.63    0.85
   5   7  -8    7.21    0.89
   5   7  -8    7.67    0.76
   5   7  -8    7.32    0.86
   5   7  -8    6.14    0.59
   5  -7  -8    1.24    9.85
   5  -7  -8    7.03    0.61
   5  -7  -8    1.41   10.12
   5  -7  -8    6.17    0.66
   7   7 -10    0.21    0.89
   7   7 -10    2.67    0.68
   7   7 -10    2.48    0.78
   7  -7 -10    3.64    0.84
   7  -7 -10    2.46    0.75
   9   7 -12    3.87    1.09
   9   7 -12    6.13    1.40
   9   7 -12    0.31    1.44
   9  -7 -12    6.98    1.26
   9  -7 -12   -0.66    1.31
  12   8  -9    1.08    2.13
  12  -8  -9    2.16    1.86
  12  -8  -9    1.85    2.46
  10   8  -7    0.08    1.20
  10   8  -7    0.32    1.14
  10   8  -7    2.09    1.09
  10  -8  -7    0.37    1.11
  10  -8  -7    1.29    1.26
  10  -8  -7    0.75    1.19
   8   8  -5    4.39    0.77
   8   8  -5    4.27    0.72
   8   8  -5    5.12    0.76
   8  -8  -5    4.51    0.82
   8  -8  -5    4.79    0.81
   6   8  -3   10.10    0.85
   6   8  -3    7.39    0.78
  -6   8   3    8.46    0.92
   6   8  -3    8.30    0.82
   6   8  -3    8.15    0.78
   6  -8  -3    2.10    8.76
   6  -8  -3    7.77    0.62
   6  -8  -3    9.03    0.95
   6  -8  -3    7.73    0.88
   4   8  -1    3.27    0.45
   4   8  -1    3.28    0.38
   4   8  -1    5.01    0.44
  -4   8   1    3.02    0.44
   4   8  -1    3.80    0.45
  -4   8   1   -1.22    4.24
  -4   8   1    4.17    0.41
   4  -8  -1    4.44    0.43
   4  -8  -1    4.64    4.71
   4  -8  -1    4.77    0.46
   2   8   1    0.26    0.32
  -2   8  -1   -0.02    0.26
   2   8   1   -0.10    0.31
  -2   8  -1    0.41    0.29
   2   8   1    0.16    0.28
   2  -8   1   -0.66    2.53
   2  -8   1    0.34    0.27
  -2  -8  -1   -0.12    0.34
   0   8   3    1.80    0.35
   0   8   3    1.71    0.32
   0   8  -3    1.28    0.29
   0   8   3    1.64    0.35
   0   8  -3    2.13    0.33
   0   8  -3    1.59    0.29
   0  -8  -3    0.83    0.34
   0  -8  -3    4.68    3.56
   0  -8   3   -0.07    2.24
   0  -8   3    1.71    1.89
   0  -8  -3    2.56    3.12
   2   8  -5    3.49    0.35
   2   8  -5    3.24    0.37
   2   8  -5    3.00    0.39
  -2   8   5    2.69    0.41
  -2   8   5    2.64    0.43
   2   8  -5    2.42    0.38
   2  -8  -5    0.36    7.24
   2  -8  -5    6.80    5.56
   2  -8  -5    3.32    0.43
   4   8  -7   18.46    1.05
  -4   8   7   17.24    1.14
   4   8  -7   17.59    1.05
   4   8  -7   18.02    1.02
   4   8  -7   17.63    0.97
   4   8  -7   17.21    1.06
   4  -8  -7   21.80    8.69
   4  -8  -7   28.66   16.08
   4  -8  -7   18.33    1.15
   4  -8  -7   18.97    1.06
   6   8  -9   14.06    1.24
   6   8  -9   15.20    1.21
   6   8  -9   12.52    1.34
  -6   8   9   15.00    1.44
   6   8  -9   13.65    1.28
   6   8  -9   14.14    1.17
   6  -8  -9   16.42    1.32
   6  -8  -9   12.97    1.26
   8   8 -11    8.12    1.00
   8   8 -11    8.95    1.16
   8   8 -11    7.24    1.24
   8  -8 -11    6.33    1.19
   8  -8 -11    8.31    1.13
  10   8 -13    7.80    1.68
  10  -8 -13   12.11    1.83
  11   9  -8    0.52    1.45
  11   9  -8    1.67    1.58
  11  -9  -8    0.33    1.55
  11  -9  -8    1.44    1.86
   9   9  -6   14.83    1.71
   9   9  -6   16.00    1.64
   9   9  -6   14.90    1.59
   9  -9  -6   16.35    1.34
   9  -9  -6   14.62    1.31
   7   9  -4   18.11    1.27
   7   9  -4   20.22    1.31
   7   9  -4   19.65    1.31
   7  -9  -4   19.08    1.30
   7  -9  -4   19.02    1.45
   5   9  -2   31.75    1.48
   5   9  -2   31.45    1.41
  -5   9   2   28.42    1.44
   5   9  -2   34.00    1.45
   5   9  -2   30.91    1.48
   5  -9  -2   14.15    6.19
   5  -9  -2   31.29    1.48
   5  -9  -2   29.70    1.46
  -3   9   0   33.74    1.48
   3   9   0   33.22    1.45
  -3   9   0   32.14    1.40
   3   9   0   31.78    1.45
   3   9   0   31.58    1.47
  -3  -9   0   29.93    5.00
   3  -9   0   33.44    1.45
   3  -9   0   29.98    5.43
  -1   9  -2  135.84    5.27
   1   9   2  125.00    5.27
  -1   9  -2  132.68    5.20
   1   9   2  136.71    5.22
   1   9   2  135.63    5.23
  -1  -9  -2  149.70   10.92
  -1  -9  -2  136.16    5.22
  -1  -9  -2  125.45    7.86
   1  -9   2  133.17    5.22
   1  -9   2  132.55    7.20
  -1   9   4   42.60    1.78
   1   9  -4   41.31    1.72
   1   9  -4   42.16    1.77
  -1   9   4   38.28    1.73
   1   9  -4   39.12    1.73
   1   9  -4   41.26    1.69
   1  -9  -4   44.21    6.47
   1  -9  -4   39.11    1.73
   3   9  -6   67.81    2.72
   3   9  -6   66.50    2.68
   3   9  -6   65.47    2.68
  -3   9   6   64.53    2.70
  -3   9   6   62.59    2.73
   3   9  -6   66.42    2.65
   3   9  -6   66.36    2.65
   3  -9  -6   65.09   11.63
   3  -9  -6   65.23    2.69
   3  -9  -6   63.38    2.70
   5   9  -8   40.09    1.82
   5   9  -8   37.45    1.93
   5   9  -8   40.72    1.90
  -5   9   8   38.39    2.00
   5   9  -8   38.23    1.86
   5   9  -8   42.26    1.88
   5  -9  -8   42.20    1.93
   7   9 -10   20.53    1.72
   7   9 -10   19.81    1.51
   7   9 -10   19.20    1.66
  -7   9  10   18.01    1.53
   7  -9 -10   21.23    1.86
   7  -9 -10   20.49    1.73
   9   9 -12   -0.20    1.62
   9   9 -12    1.02    1.46
   9   9 -12    1.43    1.24
   9  -9 -12    0.01    1.66
   9  -9 -12    0.67    1.47
  10  10  -7    0.25    1.30
  10  10  -7    0.24    1.37
  10  10  -7    0.33    1.31
  10 -10  -7    0.58    1.55
  10 -10  -7    0.27    1.46
   8  10  -5    1.51    0.96
   8  10  -5    0.59    0.97
   8  10  -5   -0.06    0.87
   8 -10  -5    0.99    0.97
   8 -10  -5   -0.32    0.97
   8 -10  -5    0.63    0.82
   6  10  -3    0.11    0.65
   6  10  -3   -0.03    0.65
   6  10  -3   -0.40    0.66
   6  10  -3   -0.20    0.54
  -6  10   3   -0.49    0.65
   6 -10  -3    0.01    0.63
   4  10  -1    3.04    0.54
  -4  10   1    2.53    0.47
  -4  10   1    2.34    0.56
   4  10  -1    1.60    0.48
   4  10  -1    2.41    0.51
   4 -10  -1    1.36    0.51
   2  10   1   11.44    0.83
   2  10   1   10.81    0.84
   2  10   1   13.50    0.86
  -2  10  -1   10.35    0.83
  -2  10  -1   11.80    0.76
  -2 -10  -1    8.16    4.40
  -2 -10  -1   11.10    0.81
   2 -10   1   10.84    0.80
   2 -10   1   11.90    4.69
   0  10   3   -0.03    0.44
   0  10   3    0.21    0.40
   0  10  -3    0.54    0.37
   0  10  -3    0.65    0.37
   0 -10   3    1.03    2.83
   0 -10  -3    3.32    4.51
   0 -10  -3    0.46    0.45
   0 -10   3    0.00    0.40
  -2  10   5    2.41    0.51
   2  10  -5    3.27    0.55
   2  10  -5    4.15    0.48
  -2  10   5    2.38    0.55
   2  10  -5    3.31    0.52
   2  10  -5    3.95    0.46
   2 -10  -5    3.03    0.54
   2 -10  -5    3.18    0.55
   4  10  -7    1.10    0.60
  -4  10   7    0.66    0.68
   4  10  -7    0.44    0.66
   4  10  -7    1.04    0.57
   4  10  -7    0.62    0.56
   4  10  -7    1.19    0.52
  -4  10   7    1.25    0.84
   4 -10  -7    0.81    0.71
   6  10  -9    0.33    0.74
   6  10  -9   -0.14    0.84
   6  10  -9    0.79    0.86
   6  10  -9    0.62    0.87
   6  10  -9    0.63    0.84
  -6  10   9    0.02    1.00
   6 -10  -9   -0.23    0.86
   6 -10  -9    0.48    0.94
   8  10 -11    2.03    1.12
   8  10 -11    1.17    1.22
   8  10 -11    1.21    1.37
   8 -10 -11    0.29    1.33
   8 -10 -11    1.42    1.20
   9  11  -6   12.69    1.35
   9  11  -6   11.30    1.47
   9  11  -6   12.44    1.37
   7  11  -4   16.38    1.56
   7  11  -4   14.66    1.59
  -7  11   4   15.80    1.55
   7  11  -4   20.60    1.46
   7 -11  -4   17.67    1.52
   7 -11  -4   16.68    1.65
  -5  11   2   20.48    1.36
   5  11  -2   22.29    1.32
   5  11  -2   21.22    1.35
   5  11  -2   20.89    1.33
   5  11  -2   21.95    1.51
   5 -11  -2   21.06    1.36
   5 -11  -2   24.16    1.40
   3  11   0   18.52    1.11
   3  11   0   18.41    1.12
  -3  11   0   16.30    1.14
   3  11   0   18.23    1.14
  -3  11   0   18.34    1.07
   3 -11   0   18.17    1.11
  -3 -11   0   18.56    1.13
  -3 -11   0   13.87    9.41
   1  11   2   39.49    1.82
   1  11   2   41.93    1.82
  -1  11  -2   42.47    1.79
   1  11   2   41.15    1.88
  -1  11  -2   41.52    1.86
   1 -11   2   39.88    1.81
  -1 -11  -2   40.14    1.84
   1 -11   2   40.67    7.25
  -1  11   4    3.54    0.60
  -1  11   4    4.44    0.55
   1  11  -4    4.80    0.51
   1  11  -4    4.04    0.55
  -1 -11   4    4.30    0.57
   1 -11  -4    3.88    0.58
   3  11  -6    5.94    0.69
   3  11  -6    4.96    0.59
  -3  11   6    4.03    0.81
  -3  11   6    4.53    0.71
   3  11  -6    4.79    0.70
   3  11  -6    4.33    0.68
   3 -11  -6    3.65    0.72
   5  11  -8    1.27    0.83
   5  11  -8    1.55    0.79
   5  11  -8    3.34    0.84
   5  11  -8    2.34    0.79
   5  11  -8    1.00    0.74
  -5  11   8    2.72    0.95
   5 -11  -8    1.36    1.02
   5 -11  -8    0.79    0.85
   7  11 -10    0.54    1.15
   7  11 -10   -0.73    1.19
  -7  11  10    0.79    1.60
   7  11 -10   -0.71    1.02
   7  11 -10   -0.30    1.15
   7 -11 -10    0.88    1.68
   9  11 -12    0.38    1.69
   9 -11 -12    0.80    1.86
   9 -11 -12    1.20    2.49
  10  12  -7    6.30    1.63
  10  12  -7   -0.27    1.68
  10  12  -7    3.65    1.83
   8  12  -5    0.01    1.41
   8  12  -5    1.09    1.00
   8  12  -5    1.26    1.33
   8 -12  -5    1.11    1.43
   8 -12  -5    1.82    1.22
   8 -12  -5    1.97    1.23
   6  12  -3    0.99    0.87
   6  12  -3    0.62    0.86
   6  12  -3   -0.19    0.99
  -6  12   3   -0.16    0.88
   6 -12  -3    0.36    0.84
   6 -12  -3    0.60    0.84
   4  12  -1   -0.53    0.73
   4  12  -1    0.56    0.57
  -4  12   1    0.73    0.66
   4  12  -1    0.65    0.63
  -4 -12   1   -0.21    0.75
   4 -12  -1    0.11    0.66
   4 -12  -1   -0.40    0.71
   2  12   1    1.73    0.59
   2  12   1    1.38    0.59
  -2  12  -1    1.67    0.54
   2  12   1    1.53    0.57
  -2  12  -1    1.43    0.55
   2 -12   1    1.91    0.60
  -2 -12  -1    1.19    0.64
   0  12   3   16.59    1.18
   0  12  -3   18.76    1.13
   0  12  -3   17.92    1.12
   0  12   3   17.75    1.19
   0 -12  -3   16.91    1.21
   0 -12   3   17.61    1.14
  -2  12   5   12.84    1.25
   2  12  -5   15.18    1.11
  -2  12   5   13.22    1.24
   2  12  -5   14.72    1.02
   2 -12  -5   13.87    1.19
   2 -12  -5   14.56    1.22
  -2 -12   5   12.95    1.19
  -4  12   7    6.57    0.98
   4  12  -7    7.07    0.80
   4  12  -7    9.19    0.95
  -4  12   7    6.91    1.18
   4  12  -7    8.73    0.92
   4  12  -7    8.07    0.91
   4 -12  -7    7.89    1.04
   4 -12  -7    7.08    0.93
   6  12  -9    5.77    1.10
   6  12  -9    8.16    1.17
   6  12  -9    7.30    1.18
   6  12  -9    7.98    1.20
   6  12  -9    7.71    1.16
  -6  12   9    6.72    1.36
   6 -12  -9    7.40    1.34
   6 -12  -9    7.71    1.49
   6 -12  -9    6.93    1.22
   8  12 -11    2.67    1.75
   8  12 -11    6.76    1.61
   8 -12 -11    5.77    1.70
   8 -12 -11    6.80    1.48
   9  13  -6    2.33    1.58
   9  13  -6    2.79    1.42
   9 -13  -6    2.81    1.77
   7  13  -4    7.22    1.13
  -7  13   4    7.54    1.32
   7  13  -4   12.52    1.32
   7 -13  -4    8.95    1.32
  -7 -13   4    8.29    1.40
   7 -13  -4   10.10    1.18
   5  13  -2   11.76    1.12
  -5  13   2   10.23    1.00
   5  13  -2   11.06    1.25
   5  13  -2   12.22    1.04
   5 -13  -2   10.22    1.03
  -5 -13   2    9.63    1.11
   5 -13  -2   11.01    1.06
  -3  13   0   20.32    1.44
   3  13   0   19.40    1.37
  -3  13   0   20.81    1.39
   3  13   0   21.85    1.45
   3  13   0   19.82    1.42
  -3 -13   0   21.14    1.54
   3 -13   0   20.59    1.40
  -1  13  -2    1.82    0.61
   1  13   2    1.01    0.65
   1  13   2    3.41    0.68
  -1  13  -2    1.59    0.61
  -1 -13  -2    1.61    0.77
   1 -13   2    3.08    0.71
   1  13  -4   14.97    1.15
  -1  13   4   14.27    1.25
   1  13  -4   12.06    1.16
  -1  13   4   14.07    1.31
   1 -13  -4   15.34    1.33
   1 -13  -4   15.01    1.33
  -1 -13   4   17.09    1.26
   3  13  -6    2.21    0.81
  -3  13   6    1.66    0.88
   3  13  -6    1.54    0.71
  -3  13   6    1.42    0.99
   3  13  -6    1.65    0.73
   3 -13  -6    1.33    0.86
   3 -13  -6    2.20    0.93
  -3 -13   6    2.08    0.92
   5  13  -8    1.41    1.09
   5  13  -8    1.79    0.98
   5  13  -8    1.70    0.98
  -5  13   8    1.72    1.21
   5 -13  -8    2.17    1.11
   5 -13  -8    0.60    1.30
   7  13 -10    0.16    1.46
  -7  13  10    1.49    2.03
   7  13 -10    0.56    1.55
   7  13 -10   -0.16    1.48
   7 -13 -10    1.53    1.65
   7 -13 -10    0.16    1.39
   8  14  -5   -0.15    1.27
   8  14  -5    0.49    1.53
   8 -14  -5    0.18    1.97
   8 -14  -5    1.52    1.56
   6  14  -3   -0.16    1.22
   6  14  -3   -0.29    0.96
   6  14  -3    0.23    1.18
  -6  14   3    0.42    1.15
   6 -14  -3   -0.96    1.28
   6 -14  -3    0.37    1.11
  -6 -14   3    0.42    1.36
  -4  14   1    1.11    0.92
   4  14  -1   -1.22    0.89
   4  14  -1   -0.11    0.90
   4  14  -1   -0.12    0.74
  -4  14   1    0.41    0.85
   4 -14  -1    1.06    1.00
   4 -14  -1    1.61    0.90
  -4 -14   1    0.04    1.07
  -2  14  -1    2.13    0.74
   2  14   1    1.53    0.81
   2  14   1    2.14    0.75
  -2  14  -1    1.10    1.08
  -2 -14  -1    1.85    0.91
   2 -14   1    1.82    0.82
   0  14  -3    1.39    0.73
   0  14   3    1.97    0.81
   0  14   3    2.14    0.76
   0  14  -3    2.12    0.72
   0 -14  -3    2.56    0.89
   0 -14   3    2.88    0.87
   2  14  -5    0.25    0.73
  -2  14   5    0.67    1.14
  -2  14   5    0.66    0.91
   2  14  -5    0.37    0.77
   2 -14  -5    0.84    0.96
   2 -14  -5   -0.44    0.92
  -2 -14   5    0.52    0.93
   4  14  -7    1.51    0.94
  -4  14   7    0.15    1.71
   4  14  -7    0.73    0.93
  -4  14   7    0.94    1.14
   4 -14  -7    1.26    1.22
   4 -14  -7    3.14    1.13
  -6  14   9    1.93    1.64
   6  14  -9    0.57    1.37
   6  14  -9    1.94    1.55
   6  14  -9    1.79    1.56
   6 -14  -9    2.04    1.87
   6 -14  -9    1.43    1.62
   6 -14  -9    2.33    1.42
  -7  15   4    2.35    1.78
   7  15  -4    3.37    1.51
   7  15  -4    2.14    1.21
   7 -15  -4    2.49    1.45
   7 -15  -4    2.44    1.48
   5  15  -2    5.49    1.23
   5  15  -2    3.57    1.03
   5 -15  -2    6.25    1.21
  -3  15   0    9.43    1.13
   3  15   0    9.85    1.38
  -3  15   0    9.04    1.03
   3  15   0   10.77    1.13
  -3 -15   0   10.53    1.21
   3 -15   0   11.30    1.15
   1  15   2    4.56    0.96
  -1  15  -2    4.68    0.89
   1  15   2    3.02    0.91
  -1  15  -2    2.80    0.86
  -1 -15  -2    6.06    1.06
   1 -15   2    7.24    1.02
  -1  15   4   13.68    1.19
  -1  15   4   15.17    1.56
   1  15  -4   13.15    1.43
   1  15  -4   14.36    1.35
  -1 -15   4   15.33    1.25
   1 -15  -4   11.39    1.21
   1 -15  -4   14.09    1.25
   3  15  -6    6.46    0.98
  -3  15   6    6.46    1.45
  -3 -15   6    5.82    1.32
   3 -15  -6    5.24    1.54
   5  15  -8    2.91    1.36
  -5  15   8    2.69    1.55
   5 -15  -8    2.89    1.41
   5 -15  -8    1.61    1.73
   5 -15  -8    1.86    1.73
  -6  16   3   -0.14    1.53
   6  16  -3   -0.89    1.46
   6  16  -3   -0.12    1.67
   6  16  -3    0.05    1.18
   6 -16  -3    0.37    1.48
  -4  16   1    0.45    1.09
   4  16  -1   -0.34    1.01
   4  16  -1   -0.06    1.23
  -4 -16   1   -0.40    1.39
   4 -16  -1   -0.32    1.22
  -2  16  -1    0.62    1.12
   2  16   1    0.57    0.98
  -2  16  -1    0.84    0.97
   2  16   1    2.07    1.53
  -2 -16  -1    0.11    1.17
   2 -16   1    0.91    1.37
   0  16   3    1.55    1.27
   0  16  -3   -0.11    1.05
   0  16   3    0.36    1.03
   0  16  -3    0.46    0.89
   0 -16  -3    0.03    1.28
  -2  16   5    0.37    1.27
   2  16  -5    0.64    1.03
   2  16  -5    1.62    0.97
  -2  16   5    0.06    1.20
   2 -16  -5    0.18    1.32
   2 -16  -5    1.34    1.25
  -2 -16   5    1.52    1.29
  -4  16   7    1.81    1.50
   4  16  -7    2.84    1.27
   4  16  -7    3.98    1.13
   4 -16  -7    1.42    1.49
   4 -16  -7    1.90    1.65
   5  17  -2    0.26    1.19
  -5  17   2    0.66    2.23
   5 -17  -2    0.23    1.79
   3  17   0    1.88    1.34
   3  17   0   -0.83    1.35
  -3  17   0   -0.16    1.17
  -3 -17   0    0.36    1.42
  -3 -17   0    2.77    1.57
   3 -17   0    1.10    1.35
   1  17   2    0.54    1.18
  -1  17  -2   -0.96    1.08
   1  17   2    0.11    1.25
  -1  17  -2   -0.72    1.05
  -1 -17  -2    0.62    1.27
  -1 -17  -2   -0.53    1.40
   1 -17   2    0.49    1.32
   1  17  -4    0.56    1.04
  -1  17   4    1.08    1.33
   1  17  -4    0.52    1.13
  -1  17   4    1.45    1.54
   1 -17  -4    0.80    1.39
   1 -17  -4    0.37    1.40
  -1 -17   4    1.56    1.43
   3  17  -6   -0.06    1.38
   3  17  -6    0.53    1.12
  -3  17   6    0.21    1.74
   3 -17  -6    0.69    1.72
   3 -17  -6    0.57    1.62
  -2  18  -1    0.40    1.26
   2  18   1    0.77    1.26
   0  18  -3    0.33    1.15
   0  18   3   -0.81    1.68
   0  18  -3    0.66    1.49
   0  18   3   -0.38    1.36
   0 -18  -3    1.18    2.08
  10   0  -6   43.23    2.07
  10   0  -6   43.73    2.06
   8   0  -4    9.30    0.82
   8   0  -4   11.93    0.79
   8   0  -4   11.51    0.77
   6   0  -2  242.02    9.78
   6   0  -2  260.48   11.46
   6   0  -2  255.57    9.79
  -6   0   2  259.84   11.66
   4   0   0  266.86   10.25
  -4   0   0  263.27   11.15
   4   0   0  276.79   10.24
   4   0   0  273.54   10.25
   4   0   0  257.71   10.24
   4   0   0  260.21   11.13
  -2   0  -2  758.80   30.13
   2   0   2  744.23   30.11
   2   0   2  780.65   29.58
   2   0   2  772.80   29.57
   2   0   2  801.21   29.59
   0   0  -4   29.21    2.07
   0   0   4   34.03    2.19
   0   0   4   33.03    1.29
   2   0  -6  233.96    8.79
   2   0  -6  198.97    9.54
   2   0  -6  240.18    8.79
  -2   0   6  239.34    9.79
   4   0  -8  110.39    4.27
   4   0  -8  117.20    6.54
   4   0  -8  109.96    4.27
   4   0  -8  107.95    6.40
   4   0  -8  104.39    4.25
   6   0 -10   55.77    2.25
   6   0 -10   51.18    2.22
   6   0 -10   53.94    2.25
   8   0 -12   51.87    2.37
   8   0 -12   48.41    2.33
  10   0 -14   -0.28    1.27
  13   1  -9   10.80    1.63
  13   1  -9    7.63    1.58
  13  -1  -9    9.12    1.61
  13  -1  -9    5.67    1.59
  11   1  -7    6.25    0.98
  11   1  -7   11.12    1.06
  11  -1  -7   11.32    1.05
  11  -1  -7    9.26    1.03
   9   1  -5   35.03    1.60
   9   1  -5   31.64    1.61
   9  -1  -5   32.70    1.60
   9  -1  -5   35.15    1.61
   7   1  -3   55.37    5.81
   7   1  -3   53.74    2.23
   7   1  -3   54.05    2.23
   7   1  -3   52.32    2.20
   7  -1  -3   55.68    2.21
   7  -1  -3   54.54    6.40
  -7  -1   3   62.25    6.81
   7  -1  -3   54.59    2.21
   7  -1  -3   55.76    2.22
   5   1  -1   99.11    3.85
   5   1  -1  104.43    5.38
   5   1  -1  104.45    3.88
   5   1  -1   97.05    3.85
   5   1  -1  101.25    3.86
  -5   1   1   99.01    5.65
   5  -1  -1   98.75    5.50
   5  -1  -1   93.36    3.86
   5  -1  -1  101.68    3.85
   5  -1  -1   93.82    3.84
  -5  -1   1   97.84    5.44
   3   1   1  378.53   14.38
   3   1   1  367.38   14.38
   3   1   1  398.47   14.38
   3   1   1  377.30   14.38
   3   1   1  349.27   15.02
   3  -1   1  366.66   14.38
  -3  -1  -1  377.55   15.08
   3  -1   1  380.98   14.38
  -1   1  -3  155.15    5.46
   1   1   3  141.70    6.14
  -1   1  -3  142.35    5.46
   1   1   3  137.48    5.45
  -1  -1  -3  132.46    6.08
   1  -1   3  132.36    5.99
   1  -1   3  147.36    5.45
   1  -1   3  142.70    5.46
   1   1  -5  197.19    7.88
  -1   1   5  201.35    7.87
   1   1  -5  197.70    8.44
   1   1  -5  208.38    7.87
  -1   1   5  217.18    8.84
   1  -1  -5  198.16    8.67
  -1  -1   5  218.83    8.61
  -1  -1   5  205.45    7.88
   1  -1  -5  199.84    7.87
   3   1  -7  179.65    7.67
   3   1  -7  163.74    6.50
   3   1  -7  172.38    6.52
   3   1  -7  157.12    7.53
   3   1  -7  171.16    6.52
   3  -1  -7  165.03    7.97
   3  -1  -7  172.67    6.53
   3  -1  -7  167.14    6.52
   3  -1  -7  179.09    8.19
   3  -1  -7  161.95    6.50
   5   1  -9   17.72    3.87
   5   1  -9   18.09    1.23
   5   1  -9   19.41    0.95
   5   1  -9   18.00    0.92
   5  -1  -9   17.08    0.99
   5  -1  -9   17.96    0.93
   5  -1  -9   12.74    6.87
   5  -1  -9   18.00    0.94
   7   1 -11   54.73    2.34
   7   1 -11   54.36    2.28
   7   1 -11   46.92    2.28
   7  -1 -11   49.93    2.27
   7  -1 -11   56.00    2.31
   9   1 -13    4.35    0.99
   9   1 -13    4.02    1.03
   9  -1 -13    0.04    1.24
   9  -1 -13    4.16    1.02
  12   2  -8   15.04    1.86
  12   2  -8   15.87    1.49
  12  -2  -8   17.41    1.88
  10   2  -6    5.08    0.76
  10   2  -6    6.18    0.81
  10  -2  -6    6.67    0.79
  10  -2  -6    6.93    0.82
   8   2  -4   83.60    3.35
   8   2  -4   86.16    3.34
   8   2  -4   82.11    3.36
   8  -2  -4   83.80    3.34
   8  -2  -4   82.60    3.32
   8  -2  -4   79.44    3.34
   8  -2  -4   85.46    3.33
   6   2  -2    9.98    0.61
   6   2  -2   10.62    0.62
   6   2  -2   13.40    3.14
   6   2  -2    9.07    0.60
  -6   2   2   11.66    3.69
   6  -2  -2    9.21    0.58
  -6  -2   2   12.23    3.13
   6  -2  -2    9.28    3.27
   6  -2  -2   10.01    0.59
   4   2   0   55.13    2.20
   4   2   0   54.97    2.19
   4   2   0   61.78    2.23
  -4   2   0   55.05    3.87
   4   2   0   54.43    3.48
  -4  -2   0   60.59    3.47
   4  -2   0   52.83    3.69
   4  -2   0   55.12    2.19
   4  -2   0   53.02    2.20
  -2   2  -2  144.34    6.64
   2   2   2  154.68    5.99
   2   2   2  166.87    6.02
   2   2   2  152.26    5.99
   2   2   2  149.44    6.71
   2   2   2  159.16    6.00
   2  -2   2  158.94    5.99
   2  -2   2  156.21    6.00
   2  -2   2  157.58    6.70
   0   2   4  159.52    6.23
   0   2   4  162.21    6.23
   0   2  -4  160.08    6.23
   0   2  -4  164.47    6.24
   0   2  -4  162.85    6.22
   0   2  -4  159.06    6.72
   0  -2   4  162.49    6.75
   0  -2   4  162.91    6.23
   2   2  -6  313.04   11.70
   2   2  -6  307.42   11.70
   2   2  -6  301.98   12.27
   2   2  -6  314.56   11.70
   2   2  -6  294.70   11.68
   2  -2  -6  301.31   11.69
   2  -2  -6  301.69   11.69
   2  -2  -6  300.07   12.83
   4   2  -8    8.17    0.56
   4   2  -8    9.54    2.58
   4   2  -8    7.73    0.59
   4   2  -8    7.43    0.56
   4   2  -8    7.04    2.40
   4  -2  -8    8.01    0.59
   4  -2  -8    4.50    3.35
   4  -2  -8    7.05    0.61
   4  -2  -8    4.27    3.04
   4  -2  -8    6.48    0.57
   4  -2  -8    8.17    0.64
   6   2 -10   31.59    1.46
   6   2 -10   28.96    1.44
   6   2 -10   32.39    1.45
   6  -2 -10   31.78    1.46
   6  -2 -10   28.47    1.44
   6  -2 -10   31.57    1.47
   8   2 -12    3.03    0.83
   8   2 -12    2.82    0.80
   8   2 -12    0.00    0.87
   8  -2 -12    0.01    0.83
   8  -2 -12    5.78    0.82
  10   2 -14   18.28    2.11
  10  -2 -14   17.21    1.56
  13   3  -9    5.09    1.62
  13   3  -9    5.43    1.63
  13  -3  -9    4.46    1.75
  13  -3  -9    2.56    1.58
  11   3  -7   27.40    1.84
  11   3  -7   25.56    1.79
  11  -3  -7   23.98    1.90
  11  -3  -7   23.40    1.81
   9   3  -5    2.84    0.58
   9   3  -5    4.08    0.65
   9   3  -5    3.20    0.62
   9  -3  -5    3.14    0.62
   9  -3  -5    3.76    0.58
   9  -3  -5    2.72    0.63
   7   3  -3  195.86    7.33
  -7   3   3  194.48   11.61
   7   3  -3  183.11    7.28
   7   3  -3  193.26    7.30
   7  -3  -3  177.27   11.03
   7  -3  -3  188.25    7.28
   7  -3  -3  181.52    7.27
   5   3  -1    2.17    0.27
   5   3  -1    1.21    0.22
   5   3  -1    1.85    0.27
   5   3  -1    1.75    1.92
  -5   3   1    1.61    3.96
   5  -3  -1    2.09    0.24
   5  -3  -1    2.77    2.21
  -5  -3   1    2.64    2.20
   5  -3  -1    2.18    0.26
   5  -3  -1    1.73    0.25
  -3   3  -1  747.10   28.88
   3   3   1  767.30   28.88
   3   3   1  749.90   28.89
   3   3   1  730.94   28.89
   3   3   1  746.47   29.55
   3   3   1  797.39   29.02
   3   3   1  746.52   28.90
   3  -3   1  767.22   28.90
  -3  -3  -1  734.48   29.56
   3  -3   1  746.70   29.71
   1   3   3    4.13    0.31
   1   3   3    4.41    0.31
  -1   3  -3    4.41    0.31
  -1   3  -3    3.75    0.28
  -1   3  -3    4.06    0.35
  -1   3  -3    5.94    1.09
   1   3   3    6.15    1.52
   1   3   3    4.53    0.30
  -1  -3  -3    7.16    1.77
   1  -3   3    3.71    0.29
   1  -3   3    5.11    1.13
   1   3  -5  679.05   26.86
  -1   3   5  699.64   27.56
   1   3  -5  700.66   26.50
  -1   3   5  659.77   26.51
   1   3  -5  694.97   26.50
   1   3  -5  683.09   26.51
   1   3  -5  695.31   26.50
   1   3  -5  698.25   26.52
   1  -3  -5  665.89   27.45
   1  -3  -5  667.15   26.50
  -1  -3   5  722.28   26.51
  -1  -3   5  727.60   26.95
   3   3  -7    2.13    1.61
   3   3  -7    1.84    0.28
   3   3  -7    2.25    1.52
   3   3  -7    1.55    0.27
   3   3  -7    1.50    0.28
   3   3  -7    1.40    0.30
   3  -3  -7    1.45    2.83
   3  -3  -7    2.01    0.29
   3  -3  -7   -0.50    2.82
   5   3  -9  111.87    6.93
   5   3  -9  128.05    5.04
   5   3  -9  133.05    5.06
   5   3  -9  134.05    5.06
   5  -3  -9  129.15    5.05
   5  -3  -9  133.66    5.05
   5  -3  -9  127.44   10.66
   5  -3  -9  127.71    5.04
   5  -3  -9  132.09    5.07
   7   3 -11    2.51    0.61
   7   3 -11    1.86    0.71
   7   3 -11    2.19    0.65
   7  -3 -11    2.76    0.67
   7  -3 -11    3.05    0.66
  11   3 -15    4.32    1.66
  11  -3 -15    2.95    1.78
  12   4  -8   38.99    2.54
  12   4  -8   37.60    2.45
  12  -4  -8   37.90    2.54
  12  -4  -8   37.75    2.45
  10   4  -6    0.20    0.82
  10   4  -6    0.34    0.77
  10   4  -6    1.11    0.79
  10  -4  -6    0.36    0.72
  10  -4  -6    0.55    0.85
  10  -4  -6    0.58    0.84
   8   4  -4  120.25    4.59
   8   4  -4  112.73    4.66
   8   4  -4  115.87    4.60
   8  -4  -4  113.71    4.57
   8  -4  -4  116.53    4.58
  -6   4   2   26.74    4.64
   6   4  -2   28.70    1.29
   6   4  -2   28.12    1.30
   6   4  -2   31.38    1.32
   6   4  -2   32.02    4.22
   6  -4  -2   29.91    1.27
   6  -4  -2   28.94    4.50
   6  -4  -2   29.57    1.28
   6  -4  -2   29.45    1.27
   4   4   0  448.00   17.67
   4   4   0  469.86   16.87
   4   4   0  437.17   16.80
   4   4   0  422.92   16.83
  -4   4   0  417.65   16.80
   4   4   0  427.76   16.82
  -4   4   0  445.10   18.06
  -4  -4   0  444.15   17.69
   4  -4   0  435.91   16.82
   4  -4   0  429.05   16.81
   4  -4   0  440.95   18.07
   2   4   2  225.58    8.60
  -2   4  -2  230.69    8.61
  -2   4  -2  222.85    8.63
   2   4   2  219.15    8.61
  -2   4  -2  225.48    8.60
   2   4   2  242.05    8.65
   2   4   2  220.14    9.48
   2  -4   2  221.24    8.61
   2  -4   2  210.79    9.38
  -2  -4  -2  217.90    9.50
   0   4   4   93.33    3.53
   0   4   4   89.23    3.51
   0   4  -4   93.26    3.52
   0   4  -4   94.31    3.51
   0   4  -4   93.95    3.51
   0   4  -4   92.03    4.10
   0   4   4   87.74    4.97
   0  -4   4   85.82    4.09
   0  -4  -4   91.83    3.51
   0  -4  -4   78.92    4.79
   2   4  -6  173.31    6.76
   2   4  -6  171.01    6.76
   2   4  -6  176.32    6.76
   2   4  -6  178.30    6.77
   2   4  -6  175.24    6.78
  -2  -4   6  180.51    6.76
   2  -4  -6  171.39    6.76
   4   4  -8   41.20    1.72
   4   4  -8   42.19    1.74
   4   4  -8   42.03    1.73
   4   4  -8   43.95    1.75
   4  -4  -8   38.92    5.89
   4  -4  -8   41.60    1.77
   4  -4  -8   40.62    1.74
   4  -4  -8   40.22    6.58
   6   4 -10  119.07    4.53
   6   4 -10  109.08    4.53
   6   4 -10  119.75    4.54
   6  -4 -10  111.42    4.52
   6  -4 -10  112.23    4.54
   6  -4 -10  112.43    4.52
   8   4 -12    5.98    0.84
   8   4 -12    9.40    0.96
   8  -4 -12    8.07    0.94
  10   4 -14   13.46    1.52
  10  -4 -14   13.84    1.51
  13   5  -9   10.21    1.97
  13   5  -9   12.02    2.00
  13  -5  -9   11.54    2.19
  13  -5  -9    8.92    1.87
  11   5  -7    5.13    1.11
  11   5  -7    5.61    1.11
  11  -5  -7    5.44    1.09
  11  -5  -7    6.09    1.19
   9   5  -5   30.41    1.59
   9   5  -5   27.73    1.54
   9   5  -5   28.14    1.64
   9  -5  -5   29.55    1.56
   9  -5  -5   28.70    1.57
   9  -5  -5   27.80    1.60
   7   5  -3   33.81    1.56
   7   5  -3   33.74    1.51
  -7   5   3   30.38    6.81
   7   5  -3   35.77    1.54
   7  -5  -3   32.81    1.51
   7  -5  -3   33.93    1.52
   7  -5  -3   47.95    8.51
   5   5  -1  104.58    5.91
   5   5  -1  104.00    4.16
   5   5  -1  112.25    4.20
   5   5  -1  103.41    4.15
  -5   5   1  110.29    7.17
   5  -5  -1   99.63    6.93
   5  -5  -1  107.39    4.15
   5  -5  -1  106.20    4.13
  -3   5  -1  134.86    5.29
   3   5   1  135.09    5.27
  -3   5  -1  133.90    6.56
   3   5   1  142.09    6.46
   3   5   1  128.03    5.26
  -3   5  -1  135.56    5.25
   3   5   1  141.78    5.31
   3   5   1  136.85    5.26
  -3  -5  -1  139.14    6.48
   3  -5   1  133.60    5.27
   3  -5   1  135.99    6.62
  -1   5  -3  168.72    6.41
   1   5   3  160.13    6.38
  -1   5  -3  162.64    6.38
  -1   5  -3  167.08    6.38
   1   5   3  165.19    6.38
   1   5   3  170.91    7.67
  -1   5  -3  164.75    7.10
   1   5   3  172.99    6.42
   1  -5   3  151.77    7.09
   1  -5   3  168.64    6.38
  -1  -5  -3  165.72    6.38
   1   5  -5   73.72    2.85
   1   5  -5   73.79    2.88
   1   5  -5   72.73    2.85
   1   5  -5   74.31    2.84
   1   5  -5   70.52    2.85
  -1   5   5   68.71    2.87
   1  -5  -5   75.32    2.86
   3   5  -7  113.99    4.41
   3   5  -7  113.00    4.39
   3   5  -7  111.25    4.38
   3   5  -7  110.61    4.39
   3  -5  -7  113.84    4.39
   3  -5  -7  111.38    8.27
   5   5  -9   26.01    1.26
   5   5  -9   24.32    1.28
  -5   5   9   27.94    1.35
   5   5  -9   25.43    1.26
   5   5  -9   26.08    1.28
   5  -5  -9   25.17    1.30
   5  -5  -9   26.50    1.28
   5  -5  -9   23.53    9.16
   7   5 -11   38.79    1.85
   7   5 -11   37.67    1.81
   7  -5 -11   33.99    1.89
   7  -5 -11   37.21    1.89
   9   5 -13    4.09    1.90
   9   5 -13    3.73    1.05
   9  -5 -13   -1.59    1.37
  12   6  -8    1.71    1.43
  12   6  -8    0.36    1.48
  12  -6  -8    2.16    1.68
  12  -6  -8    0.58    1.37
  10   6  -6   39.99    2.09
  10   6  -6   39.44    2.12
  10  -6  -6   36.80    2.11
  10  -6  -6   38.30    2.22
  10  -6  -6   37.79    2.17
   8   6  -4    8.64    0.96
   8   6  -4    9.49    0.93
   8   6  -4    9.03    1.00
   8  -6  -4    8.97    0.75
   8  -6  -4    9.14    1.00
   6   6  -2   52.69    2.18
  -6   6   2   49.70    8.36
   6   6  -2   53.47    2.14
   6   6  -2   51.55    2.12
   6  -6  -2   51.82    2.12
   6  -6  -2   50.36    2.11
   6  -6  -2   33.04    8.43
   6  -6  -2   50.74    2.11
   4   6   0    9.31    0.59
  -4   6   0   11.21    3.08
   4   6   0    8.64    0.62
  -4   6   0    8.77    0.56
   4   6   0    8.00    2.37
   4   6   0    8.13    0.55
   4  -6   0    9.25    0.59
   2   6   2   88.67    5.36
  -2   6  -2   97.93    3.80
   2   6   2  107.88    3.82
   2   6   2   94.06    3.76
  -2   6  -2   94.69    3.76
   2   6   2   95.31    3.78
  -2   6  -2   96.58    3.76
  -2   6  -2   95.43    5.11
   2  -6   2   95.60    3.77
  -2  -6  -2  100.10    5.50
   2  -6   2   94.64    5.11
   0   6   4  110.57    4.38
   0   6  -4  104.30    4.96
   0   6   4  112.60    4.40
   0   6   4  107.75    4.36
   0   6  -4  115.61    4.40
   0   6  -4  118.34    4.37
   0   6  -4  114.19    4.36
   0   6  -4  118.53    4.37
   0  -6  -4  112.88    4.37
   0  -6  -4  112.36    6.47
   0  -6   4  106.08    5.09
   0  -6   4  114.19    4.36
   2   6  -6   79.07    3.13
   2   6  -6   78.52    3.11
  -2   6   6   75.97    3.13
   2   6  -6   77.69    3.11
   2   6  -6   83.05    3.16
  -2   6   6   76.86    3.12
   2   6  -6   81.44    3.12
   2  -6  -6   79.62    3.13
   2  -6  -6   83.31    7.23
   2  -6  -6   79.20    7.36
   4   6  -8   43.57    1.87
   4   6  -8   44.75    1.82
   4   6  -8   43.59    1.87
   4   6  -8   46.18    1.90
  -4   6   8   44.74    1.89
   4   6  -8   44.25    1.85
   4  -6  -8   33.10    7.45
   4  -6  -8   43.00    1.87
   6   6 -10    0.13    0.71
  -6   6  10    0.03    0.76
   6   6 -10    1.16    0.62
   6   6 -10    1.10    0.59
   6   6 -10   -0.22    0.70
   6  -6 -10    0.99    0.62
  10   6 -14    0.27    1.49
  10  -6 -14   -0.06    1.59
  11   7  -7    0.68    1.20
  11   7  -7    0.27    1.31
  11   7  -7   -0.08    1.86
  11  -7  -7    0.90    1.21
  11  -7  -7   -0.28    1.51
   9   7  -5   70.39    3.04
   9   7  -5   63.79    3.04
   9   7  -5   68.11    2.99
   9  -7  -5   73.93    3.03
   7   7  -3    0.27    0.56
  -7   7   3    3.38   15.28
   7   7  -3    0.23    0.47
   7   7  -3   -0.01    0.47
   7  -7  -3   -3.86    9.97
   7  -7  -3    0.32    0.47
   7  -7  -3    0.49    0.50
   5   7  -1  190.22    7.21
   5   7  -1  196.08    7.30
   5   7  -1  184.08    7.24
   5   7  -1  179.55    7.24
   5   7  -1  179.96    9.04
  -5   7   1  180.48    7.21
   5  -7  -1  188.83    7.22
   5  -7  -1  195.40   10.79
   5  -7  -1  185.45    7.24
  -3   7  -1    3.62    0.36
   3   7   1    2.82    0.33
  -3   7  -1    2.39    0.31
   3   7   1    3.57    0.46
   3   7   1    2.43    2.48
   3   7   1    2.66    0.33
  -3   7  -1    2.53    0.36
   3   7   1    2.11    0.35
   3  -7   1    3.37    0.35
   3  -7   1    1.94    0.32
   3  -7   1    0.89    2.26
   1   7   3  413.12   14.91
  -1   7  -3  387.73   14.85
   1   7   3  375.10   14.87
   1   7   3  398.77   16.35
   1   7   3  369.00   14.86
  -1   7  -3  374.52   14.86
  -1   7  -3  375.07   15.63
  -1   7  -3  405.40   14.91
   1  -7   3  377.72   14.85
   1  -7   3  381.76   15.74
  -1  -7  -3  392.17   16.33
   1   7  -5    1.49    0.35
   1   7  -5    0.81    0.31
   1   7  -5    0.90    0.31
   1   7  -5    1.61    0.32
  -1   7   5    1.28    0.34
   1   7  -5    1.09    0.26
   1  -7  -5    1.10    0.35
   1  -7  -5   -0.51    3.74
   1  -7  -5    4.65    4.23
  -1  -7   5    1.11    0.31
   3   7  -7  239.34    9.05
  -3   7   7  229.01    9.06
   3   7  -7  240.88    9.06
   3   7  -7  244.95    9.10
   3   7  -7  238.41    9.06
  -3   7   7  221.31    9.05
   3   7  -7  237.61    9.04
   3  -7  -7  209.46   12.78
   3  -7  -7  238.96    9.06
   3  -7  -7  239.45    9.06
   3  -7  -7  225.60   13.98
   5   7  -9    6.01    0.61
   5   7  -9    7.51    0.72
   5   7  -9    8.54    0.70
   5   7  -9    7.24    1.13
  -5   7   9    7.58    0.73
   5   7  -9    5.51    0.64
   5  -7  -9    7.41    0.69
   5  -7  -9    7.25    0.74
   7   7 -11   69.27    3.04
   7   7 -11   70.15    3.08
  -7   7  11   68.48    3.37
   7  -7 -11   66.99    3.10
   7  -7 -11   71.15    3.10
   7  -7 -11   68.41    3.07
   9   7 -13   -0.36    1.15
   9   7 -13   -0.65    1.25
   9  -7 -13   -1.39    1.66
   9  -7 -13    0.70    1.34
  12   8  -8    4.30    1.67
  12   8  -8    2.99    1.76
  12  -8  -8    2.65    1.70
  10   8  -6   15.53    1.74
  10   8  -6   14.43    1.69
  10  -8  -6   12.66    1.33
  10  -8  -6   16.95    1.87
   8   8  -4   14.57    1.20
   8   8  -4   13.67    1.16
   8   8  -4   14.02    1.20
   8  -8  -4   13.21    1.27
   6   8  -2   74.81    2.99
  -6   8   2   72.04    3.01
   6   8  -2   76.65    3.02
   6   8  -2   73.73    3.09
   6   8  -2   74.25    3.03
   6  -8  -2   74.71    3.01
   6  -8  -2   73.71    3.04
   6  -8  -2   64.64   11.48
   4   8   0   85.94    3.32
   4   8   0   85.34    3.32
   4   8   0   83.72    3.34
   4   8   0   86.99    8.84
  -4   8   0   77.39    3.35
  -4   8   0   79.51    3.30
   4  -8   0   90.52    7.52
   4  -8   0   85.24    3.33
   4  -8   0   85.10    3.30
   2   8   2  120.64    4.50
  -2   8  -2  111.97    4.48
  -2   8  -2  114.24    4.42
   2   8   2  117.46    4.43
   2   8   2  115.29    4.45
  -2  -8  -2  108.30    4.42
   2  -8   2  116.60    6.54
   2  -8   2  115.81    4.44
  -2  -8  -2   91.34    7.26
   0   8   4   45.56    1.85
   0   8  -4   44.49    1.82
   0   8  -4   43.73    1.85
   0   8   4   47.14    1.90
   0   8  -4   45.23    1.88
   0  -8  -4   43.78    1.85
   0  -8   4   41.84    3.63
   0  -8   4   46.74    3.52
   0  -8  -4   41.83    5.79
   2   8  -6   49.89    2.03
   2   8  -6   46.78    1.99
  -2   8   6   47.36    2.06
  -2   8   6   46.97    2.03
   2   8  -6   50.80    2.03
   2   8  -6   49.44    2.04
   2   8  -6   50.84    2.07
   2  -8  -6   49.09    2.04
   2  -8  -6   50.86    7.83
   4   8  -8   48.75    2.07
   4   8  -8   49.91    2.11
   4   8  -8   48.34    2.07
   4   8  -8   48.59    2.02
  -4   8   8   46.92    2.12
   4   8  -8   49.31    2.09
   4  -8  -8   48.33    2.10
   4  -8  -8   36.98   10.92
   4  -8  -8   25.08    9.27
  -6   8  10   33.66    2.05
   6   8 -10   27.56    1.76
   6   8 -10   30.14    1.66
   6   8 -10   33.25    1.71
   6  -8 -10   29.52    1.82
   6  -8 -10   33.29    1.79
   8   8 -12   21.47    1.80
   8  -8 -12   24.55    2.57
  11   9  -7   16.07    1.73
  11   9  -7   11.29    1.54
  11  -9  -7   11.43    1.66
   9   9  -5    3.57    1.02
   9   9  -5    3.54    0.97
   9   9  -5    2.85    1.06
   9  -9  -5    3.56    1.06
   7   9  -3   54.82    2.43
   7   9  -3   55.64    2.40
   7   9  -3   54.26    2.45
   5   9  -1   11.79    0.93
   5   9  -1   10.99    0.86
  -5   9   1   12.52    0.91
   5   9  -1   12.22    0.91
   5   9  -1   11.77    0.91
   5  -9  -1   10.58    0.90
   5  -9  -1   10.34    0.93
   5  -9  -1    9.81    9.08
  -3   9  -1  155.89    5.97
   3   9   1  159.72    5.91
   3   9   1  149.71    5.98
   3   9   1  148.99    5.92
  -3   9  -1  150.21    5.89
   3  -9   1  149.97    5.91
   3  -9   1  142.65    9.15
   1   9   3    5.24    0.44
  -1   9  -3    4.63    0.60
  -1   9  -3    5.42    0.54
   1   9   3    4.30    0.47
   1   9   3    3.63    0.45
  -1  -9  -3    4.46    0.45
   1  -9   3    5.50    0.55
   1  -9   3    4.87    3.07
  -1  -9  -3    5.42    4.34
  -1   9   5  108.98    4.25
   1   9  -5  108.40    4.21
   1   9  -5  104.73    4.25
   1   9  -5  107.38    4.18
   1   9  -5  106.00    4.17
  -1   9   5  105.07    4.20
   1   9  -5  105.57    4.18
   1  -9  -5   87.98   14.14
  -1  -9   5  105.36    4.18
   1  -9  -5  110.38    4.20
   3   9  -7    6.71    0.84
   3   9  -7    9.15    0.84
  -3   9   7    5.95    0.63
   3   9  -7    8.00    0.61
   3   9  -7    7.08    0.84
  -3   9   7    7.51    0.96
   3   9  -7    6.45    0.72
   3  -9  -7    5.22   10.70
   3  -9  -7    8.91    0.98
   3  -9  -7    7.91    0.66
   5   9  -9   62.01    2.73
   5   9  -9   61.47    2.68
   5   9  -9   63.48    2.63
   5   9  -9   60.81    2.65
   5   9  -9   56.60    2.66
  -5   9   9   64.04    2.81
   5  -9  -9   63.72    2.68
  -7   9  11    5.31    1.41
   7   9 -11    4.84    0.92
   7   9 -11    4.92    1.08
   7  -9 -11    4.97    1.04
   7  -9 -11    7.06    1.18
   9   9 -13    6.70    1.67
   9   9 -13   10.25    1.43
   9  -9 -13    9.08    1.72
  10  10  -6    0.27    1.29
  10  10  -6    0.63    1.29
  10  10  -6    0.77    1.35
  10 -10  -6    0.12    1.42
   8  10  -4   43.04    2.18
   8  10  -4   42.30    2.29
   8  10  -4   44.21    2.65
   8 -10  -4   43.52    2.50
   8 -10  -4   44.11    2.33
   6  10  -2    0.21    0.69
   6  10  -2    0.12    0.68
   6  10  -2    1.01    0.53
  -6  10   2    1.11    0.66
   6  10  -2    0.71    0.69
   6 -10  -2   -0.06    0.63
  -4  10   0   30.43    1.53
   4  10   0   32.61    1.51
   4  10   0   31.19    1.52
  -4  10   0   32.50    1.47
   4  10   0   32.17    1.52
  -4 -10   0   25.03    5.19
   4 -10   0   31.61    1.51
  -2  10  -2   15.01    0.95
   2  10   2   16.59    0.96
   2  10   2   14.86    0.95
   2  10   2   15.43    0.97
  -2  10  -2   16.83    0.90
  -2 -10  -2   14.26    0.96
   2 -10   2   15.75    0.94
   2 -10   2   12.60    4.90
  -2 -10  -2   13.42    5.23
   0  10  -4   39.25    1.60
   0  10   4   37.83    1.71
   0  10  -4   36.56    1.66
   0  10   4   37.18    1.65
   0 -10   4   36.61    1.62
   0 -10  -4   35.71    1.65
   0 -10  -4   22.52    5.38
  -2  10   6   49.80    2.28
   2  10  -6   54.94    2.24
   2  10  -6   55.28    2.23
   2  10  -6   52.48    2.27
  -2  10   6   49.50    2.26
   2  10  -6   53.82    2.19
   2 -10  -6   51.83    2.27
   2 -10  -6   52.26    2.25
   4  10  -8    2.98    0.67
   4  10  -8    1.99    0.59
   4  10  -8    1.95    0.73
   4  10  -8    3.60    0.64
   4  10  -8    3.18    0.70
  -4  10   8    2.41    0.89
   4 -10  -8    2.83    0.73
   4 -10  -8    2.65    0.82
  -6  10  10   19.00    1.45
   6  10 -10   18.51    1.67
   6  10 -10   19.42    1.65
   6  10 -10   20.27    1.50
   6 -10 -10   20.30    1.83
   6 -10 -10   15.72    1.87
   8  10 -12   -0.20    1.38
   8  10 -12    0.20    1.18
   8  10 -12    0.58    1.64
   8 -10 -12    0.72    1.43
   8 -10 -12   -0.45    1.63
  11  11  -7   12.17    1.95
  11  11  -7   13.35    1.86
  11 -11  -7   14.77    2.01
   9  11  -5    0.52    1.38
   9  11  -5    1.42    1.11
   9  11  -5    0.48    1.61
   7  11  -3   47.43    2.36
   7  11  -3   50.29    2.49
   7  11  -3   52.53    2.60
   7 -11  -3   51.07    2.45
   7 -11  -3   45.80    2.39
   5  11  -1    0.73    0.65
   5  11  -1    0.53    0.55
   5  11  -1    2.36    0.69
  -5  11   1    0.58    0.62
   5 -11  -1    2.25    0.66
   5 -11  -1    1.91    0.65
  -3  11  -1   82.92    3.50
   3  11   1   89.59    3.56
   3  11   1   85.66    3.59
  -3  11  -1   89.04    3.60
   3  11   1   88.20    3.52
  -3 -11  -1   87.53    3.53
   3 -11   1   86.55    3.53
  -1  11  -3    0.55    0.43
  -1  11  -3    0.27    0.43
   1  11   3    0.08    0.51
   1  11   3    0.05    0.49
   1 -11   3   -0.14    0.48
   1 -11   3    0.91    4.71
  -1 -11  -3    0.63    0.55
  -1  11   5  117.46    4.69
  -1  11   5  112.94    4.64
   1  11  -5  113.73    4.60
   1  11  -5  115.60    4.68
  -1 -11   5  122.73    4.63
   1 -11  -5  117.17    4.63
  -3  11   7    0.72    0.85
   3  11  -7    0.76    0.68
   3  11  -7    0.53    0.66
   3  11  -7    0.48    0.58
   3  11  -7    0.94    0.60
  -3  11   7    0.22    0.73
   3 -11  -7    0.82    0.78
   3 -11  -7    0.40    0.69
   5  11  -9   38.47    2.08
   5  11  -9   39.02    2.14
   5  11  -9   43.76    2.04
  -5  11   9   39.82    2.37
   5  11  -9   37.53    2.08
   5  11  -9   33.65    2.55
   5 -11  -9   43.84    2.19
   5 -11  -9   40.50    2.51
   7  11 -11   -0.19    1.40
  -7  11  11    1.95    1.73
   7  11 -11   -0.10    1.35
   7  11 -11    0.50    1.07
   7  11 -11    0.53    1.31
   7 -11 -11   -0.17    1.37
   7 -11 -11   -0.34    1.23
  10  12  -6   11.14    1.62
  10  12  -6    8.26    1.59
  10  12  -6    9.87    1.78
  10 -12  -6    9.41    1.86
   8  12  -4    6.22    1.11
   8  12  -4    4.44    1.15
   8  12  -4    4.73    1.24
   8 -12  -4    4.16    1.40
   8 -12  -4    4.60    1.18
  -6  12   2   35.55    2.00
   6  12  -2   35.95    1.96
   6  12  -2   36.38    1.96
   6  12  -2   34.67    1.97
   6 -12  -2   36.67    1.98
   6 -12  -2   32.40    1.97
  -4  12   0   27.22    1.86
   4  12   0   28.88    1.55
  -4  12   0   27.63    1.58
   4  12   0   27.25    1.56
   4 -12   0   27.26    1.56
  -4 -12   0   28.27    1.60
   2  12   2   35.82    1.78
   2  12   2   38.04    1.78
  -2  12  -2   36.02    1.73
   2  12   2   38.28    1.84
  -2  12  -2   34.73    1.78
  -2 -12  -2   37.81    1.80
   2 -12   2   37.43    1.76
   0  12   4   24.35    1.41
   0  12  -4   22.87    1.32
   0 -12   4   25.84    1.35
  -2  12   6   11.89    1.27
   2  12  -6   13.16    1.09
   2  12  -6   11.55    1.07
  -2  12   6   13.94    1.29
   2 -12  -6   15.19    1.26
   2 -12  -6   12.63    1.28
   4  12  -8   27.61    1.72
   4  12  -8   24.47    1.67
   4  12  -8   24.31    2.10
   4  12  -8   28.99    1.70
   4  12  -8   25.51    1.58
  -4  12   8   25.05    1.94
   4 -12  -8   24.50    2.05
   4 -12  -8   26.68    1.83
   6  12 -10   10.17    1.30
   6  12 -10   10.55    1.18
   6  12 -10   10.58    1.39
   6  12 -10   10.79    1.39
  -6  12  10   12.62    2.07
   6  12 -10   12.46    1.63
   6 -12 -10   13.20    1.50
   6 -12 -10   11.34    1.36
   8  12 -12   12.59    1.63
   8  12 -12   10.59    1.86
   8 -12 -12    8.87    1.90
   9  13  -5   12.56    1.67
   9  13  -5    9.29    1.43
   9 -13  -5   10.33    1.76
  -9 -13   5   11.91    2.04
   7  13  -3   -0.56    1.32
   7  13  -3    1.59    1.14
   7  13  -3    0.79    0.92
  -7  13   3    1.86    1.23
   7 -13  -3    0.83    1.10
  -7 -13   3    1.38    1.25
   7 -13  -3    1.29    1.10
   5  13  -1   67.09    2.99
  -5  13   1   63.65    2.91
   5  13  -1   65.16    2.92
   5  13  -1   66.77    2.92
  -5 -13   1   62.13    2.96
   5 -13  -1   62.29    2.93
   3  13   1   -0.19    0.64
  -3  13  -1    0.51    0.65
   3  13   1    0.43    0.75
   3  13   1    1.32    0.78
  -3  13  -1    1.31    0.73
   3 -13   1    2.52    0.73
  -3 -13  -1    0.30    0.81
   1  13   3   70.99    3.11
  -1  13  -3   73.01    3.03
   1  13   3   74.94    3.08
  -1  13  -3   70.11    3.09
  -1 -13  -3   71.79    3.09
   1 -13   3   72.48    3.08
   1  13  -5    0.72    0.60
   1  13  -5    0.23    0.64
  -1  13   5    1.39    0.78
  -1  13   5    0.53    0.76
  -1 -13   5   -0.01    0.76
   1 -13  -5   -0.12    0.79
   1 -13  -5    0.21    0.79
   3  13  -7   57.60    2.50
   3  13  -7   49.09    2.41
  -3  13   7   48.37    2.72
  -3  13   7   54.01    2.68
   3 -13  -7   55.14    2.69
   3 -13  -7   54.02    2.58
   5  13  -9    2.59    1.10
   5  13  -9    5.20    1.10
  -5  13   9    4.41    1.55
   5  13  -9    2.21    1.13
   5 -13  -9    2.47    1.47
   5 -13  -9    3.36    1.47
   7 -13 -11   16.45    1.70
   7 -13 -11   17.92    1.97
   8  14  -4    0.48    2.14
   8  14  -4   -0.75    1.48
   8 -14  -4   -0.66    1.73
   8 -14  -4   -0.64    1.50
  -8 -14   4    2.52    1.86
   6  14  -2   15.93    1.54
  -6  14   2   16.82    1.34
   6  14  -2   16.54    1.55
   6  14  -2   16.24    1.40
  -6 -14   2   19.22    1.51
   6 -14  -2   14.67    1.43
   4  14   0    0.27    0.77
   4  14   0    0.83    0.93
   4  14   0   -0.29    0.96
  -4  14   0    0.33    0.83
  -4 -14   0    0.88    1.03
   4 -14   0    0.65    0.88
  -2  14  -2   11.13    1.26
  -2  14  -2   13.04    1.33
   2  14   2   10.74    1.04
   2  14   2   14.13    1.34
   2 -14   2   13.47    1.40
  -2 -14  -2   13.39    1.11
   0  14   4   13.29    1.72
   0  14  -4   14.17    1.23
   0  14   4   16.41    1.48
   0  14  -4   14.18    1.27
   0 -14  -4   20.06    1.57
   0 -14   4   15.11    1.46
  -2  14   6    5.40    1.17
   2  14  -6    6.73    0.86
   2  14  -6    4.87    0.83
  -2  14   6    6.05    1.04
   2 -14  -6    6.50    1.07
  -2 -14   6    6.39    1.08
   2 -14  -6    4.86    1.09
  -4  14   8   13.20    2.03
   4  14  -8   16.75    1.58
   4 -14  -8   14.40    1.43
  -6  14  10   -0.07    1.86
   6  14 -10    0.01    1.38
   6  14 -10   -0.32    1.73
   6 -14 -10   -0.20    1.48
   6 -14 -10    0.00    1.64
   7  15  -3   -1.28    2.19
   7  15  -3    0.38    1.32
   7  15  -3    1.48    1.48
  -7  15   3    1.21    1.68
   7 -15  -3    0.59    1.61
   7 -15  -3    0.61    1.39
   5  15  -1   12.80    1.50
   5  15  -1   11.45    1.34
  -5  15   1   13.22    2.14
   5 -15  -1    9.97    1.33
  -5 -15   1   12.20    1.82
   3  15   1    0.08    0.86
  -3  15  -1    0.91    0.88
  -3  15  -1    0.57    0.88
   3  15   1    0.59    1.07
   3 -15   1    0.27    0.98
  -3 -15  -1    1.37    1.10
  -1  15  -3   22.76    1.63
  -1  15  -3   22.63    1.65
   1  15   3   21.55    1.68
   1  15   3   25.09    1.85
  -1 -15  -3   28.64    1.94
   1 -15   3   25.34    1.82
  -1  15   5    5.98    1.07
   1  15  -5    5.76    0.88
   1  15  -5    3.47    0.90
  -1  15   5    3.69    1.12
   1 -15  -5    3.66    1.14
  -1 -15   5    4.89    1.10
   1 -15  -5    3.85    1.11
   3  15  -7   13.77    1.18
  -3  15   7   10.20    1.74
  -3  15   7   10.50    1.39
   3  15  -7   11.07    1.19
  -3 -15   7   11.68    1.54
   3 -15  -7   11.20    1.47
   3 -15  -7   15.83    1.41
  -5  15   9    0.40    1.67
   5  15  -9    0.97    1.47
   5  15  -9    0.65    1.23
   5 -15  -9    1.72    1.92
   5 -15  -9    2.57    1.52
   5 -15  -9   -0.02    1.73
   6  16  -2    3.68    1.51
   6  16  -2    3.91    1.68
  -6  16   2    3.70    1.54
   6  16  -2    3.66    1.27
   6 -16  -2    6.00    1.48
  -4  16   0   15.60    1.35
   4  16   0   17.77    1.54
   4  16   0   18.34    1.72
   4 -16   0   18.96    2.06
  -4 -16   0   18.56    1.58
  -2  16  -2    6.91    1.07
   2  16   2    7.85    1.25
   2  16   2    5.06    1.09
  -2  16  -2    7.71    1.05
  -2 -16  -2    6.01    1.30
   2 -16   2    7.34    1.20
   0  16  -4   13.13    1.46
   0  16   4   13.29    1.30
   0  16   4   11.61    1.34
   0  16  -4   11.06    1.15
   0 -16  -4   11.57    1.33
   0 -16   4    9.09    1.30
   0 -16  -4   12.76    1.35
   2  16  -6    4.33    1.10
   2  16  -6    7.18    1.07
  -2  16   6    5.34    1.33
  -2  16   6    5.82    1.50
   2 -16  -6    4.12    1.48
   2 -16  -6    5.99    1.38
  -4  16   8    6.88    1.76
   4  16  -8    5.79    1.25
   4  16  -8    5.90    1.48
   4 -16  -8    9.00    2.27
   4 -16  -8    5.47    1.55
   5  17  -1    3.66    1.23
  -5  17   1    2.34    2.04
   5 -17  -1    2.92    2.35
  -5 -17   1    4.68    2.56
  -3  17  -1   19.95    2.13
   3  17   1   14.27    2.24
   3  17   1   23.26    2.39
  -3 -17  -1   13.93    1.66
  -3 -17  -1   20.58    1.74
   3 -17   1   21.14    2.33
  -1  17  -3    1.16    1.03
  -1  17  -3    1.04    1.11
   1  17   3   -0.22    1.30
   1  17   3    0.62    1.23
   1 -17   3    0.67    1.34
  -1 -17  -3    1.12    1.44
  -1 -17  -3    1.46    1.34
  -1  17   5   13.91    1.59
  -1  17   5   15.47    1.65
   1  17  -5   16.16    1.37
   1  17  -5   15.65    1.64
  -1 -17   5   15.33    1.74
   1 -17  -5   13.03    1.62
   1 -17  -5   11.37    1.68
  -3  17   7    0.50    1.73
   3  17  -7    0.75    1.32
   3  17  -7    1.37    1.17
  -3 -17   7    0.54    2.31
   3 -17  -7    1.91    1.87
   3 -17  -7    0.79    1.69
   2  18   2    2.42    2.09
   2  18   2    0.63    1.31
  -2  18  -2    0.12    1.66
   2 -18   2    2.06    1.63
  -2 -18  -2    2.92    1.74
  -2 -18  -2    0.75    2.10
   0  18   4    5.54    1.54
   0  18  -4    5.74    1.38
   0  18   4    6.11    1.64
   0  18  -4    5.99    1.23
   0 -18  -4    5.69    1.72
   0 -18  -4    5.40    1.70
   0 -18   4    4.99    1.72
  12   0  -7   -0.09    1.10
  12   0  -7   -0.14    1.10
  10   0  -5    0.40    0.65
  10   0  -5   -0.07    0.92
  10   0  -5   -0.48    1.08
   8   0  -3   -0.14    0.39
   8   0  -3    0.36    0.41
   8   0  -3   -0.18    0.37
   6   0  -1    0.06    0.25
  -6   0   1    2.60    3.19
   6   0  -1    0.65    0.27
   6   0  -1    0.16    2.72
   4   0   1   -0.19    0.17
   4   0   1    0.08    1.69
   4   0   1   -0.02    0.16
  -4   0  -1    1.23    1.74
   4   0   1   -0.06    0.16
  -2   0  -3   -0.57    1.09
   2   0   3   -0.08    0.13
   2   0   3    0.26    1.14
   2   0   3    0.25    0.14
   2   0   3    0.26    0.15
   0   0   5    0.13    0.16
   0   0  -5   -0.16    0.15
   0   0   5    0.65    1.23
   0   0  -5   -0.04    1.23
   2   0  -7    0.25    0.23
  -2   0   7    0.69    2.17
  -2   0   7    0.35    0.23
   2   0  -7   -0.02    1.70
   2   0  -7   -0.19    0.23
   4   0  -9   -0.04    0.34
   4   0  -9   -0.80    3.61
   4   0  -9   -0.58    0.31
   4   0  -9    0.04    3.30
   6   0 -11   -0.09    0.50
   6   0 -11    0.07    0.53
   6   0 -11   -0.24    0.50
   8   0 -13    0.35    0.81
   8   0 -13    0.07    0.86
  10   0 -15   -0.25    1.41
  13   1  -8    0.58    1.46
  13   1  -8    0.02    1.51
  13  -1  -8    1.20    1.56
  13  -1  -8    1.55    1.43
  11   1  -6    0.19    0.86
  11   1  -6   -0.05    0.83
  11  -1  -6   -0.91    0.88
  11  -1  -6   -0.14    0.83
   9   1  -4    8.18    0.90
   9   1  -4    8.09    0.69
   9   1  -4    8.81    0.91
   9  -1  -4    7.12    0.86
   9  -1  -4    7.17    0.66
   9  -1  -4    7.75    0.67
   9  -1  -4    5.87    0.67
   7   1  -2    0.79    0.34
   7   1  -2    1.25    0.33
   7   1  -2   -0.33    3.70
   7   1  -2    0.63    0.35
   7  -1  -2    1.08    0.32
   7  -1  -2    0.47    0.31
   7  -1  -2    0.85    3.09
  -7  -1   2    2.27    3.89
   5   1   0   16.81    0.80
   5   1   0   18.97    0.80
  -5   1   0   17.18    2.77
   5   1   0   18.70    0.82
   5   1   0   19.23    2.67
   5   1   0   16.88    0.81
   5  -1   0   18.40    0.79
   5  -1   0   19.80    0.81
   5  -1   0   18.23    0.80
   5  -1   0   17.62    0.80
   5  -1   0   20.29    3.34
  -5  -1   0   17.44    2.78
  -3   1  -2   55.30    3.37
   3   1   2   53.14    3.35
   3   1   2   53.33    2.11
   3   1   2   54.69    2.11
   3   1   2   52.77    2.12
   3  -1   2   55.31    2.12
   3  -1   2   55.28    2.12
   3  -1   2   50.04    3.38
  -3  -1  -2   55.53    3.35
  -1   1  -4   38.16    2.55
   1   1   4   40.79    2.74
   1   1   4   40.03    1.56
  -1   1  -4   39.63    1.57
   1  -1   4   39.40    1.56
  -1  -1  -4   38.03    1.56
  -1  -1  -4   40.31    2.78
   1  -1   4   38.57    2.56
   1   1  -6   -0.08    0.19
   1   1  -6    0.14    0.20
   1   1  -6   -0.20    1.26
  -1   1   6    0.45    1.84
  -1   1   6    0.23    0.20
   1  -1  -6    0.22    1.56
  -1  -1   6    0.02    0.18
  -1  -1   6   -0.82    1.61
   1  -1  -6    0.10    0.19
   3   1  -8   89.97    5.46
   3   1  -8   92.56    3.52
   3   1  -8   90.83    3.53
   3   1  -8   74.47    5.91
   3  -1  -8   95.10    3.53
   3  -1  -8   86.89    6.13
   3  -1  -8   89.04    3.51
   3  -1  -8   94.00    6.06
   5   1 -10    1.54    4.68
   5   1 -10   12.66    0.87
   5   1 -10   14.59    0.89
   5   1 -10   15.31    0.91
   5  -1 -10    0.63    5.41
   5  -1 -10   14.59    0.93
   5  -1 -10   14.88    0.88
   7   1 -12    8.08    0.77
   7   1 -12    5.95    0.76
   7  -1 -12    7.61    0.76
   7  -1 -12    6.74    0.81
   9   1 -14    2.23    1.09
   9   1 -14    5.00    1.19
   9  -1 -14    4.60    1.19
  12   2  -7   14.24    1.46
  12   2  -7   12.69    2.01
  12  -2  -7   11.68    1.39
  12  -2  -7   12.03    1.85
  10   2  -5   25.17    1.48
  10   2  -5   22.88    1.39
  10  -2  -5   24.09    2.01
  10  -2  -5   22.33    1.44
   8   2  -3   37.23    1.63
   8   2  -3   34.30    1.67
   8   2  -3   38.06    1.65
   8  -2  -3   36.35    1.62
   8  -2  -3   39.31    1.64
   8  -2  -3   37.96    1.61
   6   2  -1   58.88    2.35
   6   2  -1   58.33    2.36
   6   2  -1   52.29    5.09
   6   2  -1   60.01    2.38
   6  -2  -1   59.03    2.33
   6  -2  -1   59.68    2.34
   6  -2  -1   58.64    2.36
   6  -2  -1   64.60    5.73
  -6  -2   1   55.20    5.61
   4   2   1   81.87    3.25
   4   2   1   85.92    3.28
   4   2   1   84.17    3.24
  -4   2  -1   84.21    4.83
   4   2   1   81.94    4.62
   4   2   1   78.49    3.24
  -4  -2  -1   94.42    5.46
   4  -2   1   81.21    3.24
   4  -2   1   82.34    3.24
  -2   2  -3   79.16    3.08
   2   2   3   78.59    4.23
   2   2   3   75.73    3.07
  -2   2  -3   79.24    3.06
   2   2   3   79.80    3.06
  -2   2  -3   81.01    4.07
   2  -2   3   77.52    3.07
   2  -2   3   79.52    4.06
   2  -2   3   81.20    3.07
   0   2   5   54.32    2.14
   0   2   5   53.77    2.13
   0   2  -5   52.14    3.02
   0   2   5   57.52    3.74
   0   2  -5   54.46    2.12
   0  -2   5   53.29    3.08
   0  -2   5   54.72    2.13
   2   2  -7   25.40    2.70
   2   2  -7   27.98    1.16
   2   2  -7   28.44    1.17
  -2   2   7   29.28    1.17
   2  -2  -7   25.07    1.16
  -2  -2   7   28.38    3.18
   2  -2  -7   32.80    5.86
   4   2  -9   10.64    3.28
   4   2  -9    6.25    2.99
   4   2  -9    6.17    0.58
   4   2  -9    5.71    0.62
   4  -2  -9    6.24    0.66
   4  -2  -9    1.16    4.07
   4  -2  -9    6.81    3.84
   4  -2  -9    5.49    0.62
   4  -2  -9    5.57    0.57
   6   2 -11    1.68    0.54
   6   2 -11    0.57    0.53
   6  -2 -11    0.91    0.57
   6  -2 -11    0.71    0.52
   6  -2 -11   -0.10    0.57
   8   2 -13    0.20    0.90
   8   2 -13   -0.20    0.83
   8  -2 -13   -0.53    0.85
  10   2 -15   -0.44    1.39
  10  -2 -15   -0.34    1.40
  13   3  -8    0.24    1.52
  13   3  -8   -0.49    1.60
  13  -3  -8   -1.13    1.46
  13  -3  -8    0.03    1.69
  11   3  -6    0.20    1.10
  11   3  -6   -1.25    0.92
  11   3  -6   -0.07    0.93
  11  -3  -6   -1.00    0.88
  11  -3  -6   -0.19    0.93
   9   3  -4    4.09    0.64
   9   3  -4    4.62    0.61
   9   3  -4    6.35    0.67
   9  -3  -4    5.25    0.66
   9  -3  -4    5.11    0.64
   9  -3  -4    5.19    0.61
   7   3  -2    7.72    0.65
   7   3  -2    5.17    0.65
   7   3  -2    6.15    0.66
   7   3  -2    9.54    6.16
  -7   3   2    7.84    5.49
   7  -3  -2    7.45    0.63
   7  -3  -2   12.21    5.09
   7  -3  -2    6.11    0.64
   5   3   0    5.26    0.42
  -5   3   0    4.53    2.63
   5   3   0    3.86    0.42
   5   3   0    6.85    2.34
   5   3   0    4.23    0.42
   5   3   0    3.90    0.42
  -5  -3   0    3.62    2.31
   5  -3   0    5.09    0.43
   5  -3   0    4.99    0.40
   5  -3   0    4.24    2.61
   3   3   2   20.53    0.89
  -3   3  -2   22.95    2.61
   3   3   2   22.65    2.78
  -3   3  -2   20.87    0.83
   3   3   2   18.54    0.85
   3   3   2   20.41    0.85
   3   3   2   19.32    0.86
   3  -3   2   22.15    2.99
   3  -3   2   19.71    0.85
   3  -3   2   19.33    0.85
  -3  -3  -2   20.25    2.54
  -1   3  -4   16.01    0.79
   1   3   4   15.73    0.71
  -1   3  -4   15.55    0.67
   1   3   4   16.20    2.76
   1   3   4   15.37    0.70
  -1   3  -4   14.91    1.99
   1  -3   4   14.94    0.68
   1  -3   4   16.05    2.00
  -1  -3  -4   20.73    3.53
  -1  -3  -4   15.14    0.70
   1   3  -6   12.10    0.59
   1   3  -6   13.94    2.02
   1   3  -6   11.44    0.56
  -1   3   6   11.84    0.59
   1   3  -6   11.90    0.63
   1   3  -6   12.74    0.60
  -1   3   6   10.92    0.62
   1  -3  -6   14.60    2.70
   1  -3  -6   11.70    0.60
  -1  -3   6   13.00    0.59
  -1  -3   6   13.79    2.41
   3   3  -8   17.28    0.82
   3   3  -8   15.96    0.81
   3   3  -8   17.49    2.41
   3   3  -8   15.97    0.80
   3   3  -8   17.10    0.82
   3   3  -8   15.69    2.39
   3  -3  -8   16.48    0.81
   3  -3  -8    8.49    3.50
   3  -3  -8   10.35    3.68
   5   3 -10    2.00    0.44
   5   3 -10    1.02    3.76
   5   3 -10    1.00    0.43
   5  -3 -10    1.96    0.47
   5  -3 -10    2.05    0.67
   5  -3 -10    1.77    0.48
   5  -3 -10    2.57    0.48
   5  -3 -10    1.11    6.97
   7   3 -12    1.32    0.66
   7   3 -12    0.10    0.83
   7   3 -12    0.53    0.68
   7  -3 -12    0.75    0.83
   7  -3 -12    0.45    0.78
   7  -3 -12    1.81    0.72
   9   3 -14   -0.01    1.19
   9   3 -14   -0.36    1.07
   9  -3 -14   -0.86    1.13
  12   4  -7    2.78    1.26
  12   4  -7    2.43    1.25
  12  -4  -7    2.86    1.64
  12  -4  -7    1.54    1.19
  10   4  -5    6.37    0.85
  10   4  -5    6.42    0.86
  10  -4  -5    6.86    0.87
  10  -4  -5    7.29    0.99
  10  -4  -5    6.70    0.82
   8   4  -3    9.83    0.87
   8   4  -3    8.32    0.85
   8   4  -3    9.50    0.83
   8  -4  -3    9.68    0.88
   8  -4  -3    9.97    0.86
   8  -4  -3    4.85    7.66
   6   4  -1   24.60    1.14
   6   4  -1   22.89    3.48
   6   4  -1   21.72    1.08
   6   4  -1   23.60    1.10
  -6   4   1   28.07    5.44
  -6  -4   1   32.42    5.85
   6  -4  -1   25.20    1.08
   6  -4  -1   24.46    1.09
  -4   4  -1   30.49    4.98
   4   4   1   20.95    1.01
   4   4   1   23.32    3.38
  -4   4  -1   23.04    0.97
   4   4   1   22.28    1.01
   4   4   1   22.10    1.00
   4   4   1   26.13    1.05
  -4  -4  -1   27.27    3.23
   4  -4   1   23.79    1.00
   4  -4   1   23.91    3.57
   4  -4   1   23.66    1.00
  -2   4  -3   11.47    0.61
   2   4   3   12.54    0.63
   2   4   3   11.97    0.60
   2   4   3   12.44    0.60
  -2   4  -3   12.59    0.57
   2   4   3   13.50    2.14
   2  -4   3   12.99    0.59
   2  -4   3   11.72    1.94
  -2  -4  -3   11.22    2.17
   0   4  -5    0.34    0.19
   0   4  -5   -0.03    0.21
   0   4   5    0.30    1.84
   0   4  -5    0.06    0.18
   0   4  -5   -0.12    1.25
   0   4   5    0.03    0.21
   0  -4  -5   -0.51    2.12
   0  -4  -5    0.25    0.26
   0  -4   5    0.15    0.19
   0  -4   5    0.07    1.37
   2   4  -7    0.27    0.22
   2   4  -7    0.65    0.28
   2   4  -7    0.40    1.38
   2   4  -7    0.49    0.26
   2   4  -7    0.03    0.27
   2   4  -7    0.17    0.26
  -2  -4   7    0.47    0.26
   2  -4  -7    3.44    3.47
   2  -4  -7    0.67    0.29
   4   4  -9    3.00    0.46
   4   4  -9    2.71    0.41
   4   4  -9    3.97    0.48
   4   4  -9    5.09    0.45
   4  -4  -9    3.39    0.44
   4  -4  -9    1.41    4.15
   4  -4  -9    4.60    0.49
   4  -4  -9   -0.98    5.95
   6   4 -11    5.38    0.66
   6   4 -11    4.75    0.63
   6  -4 -11    4.71    0.70
   6  -4 -11    3.85    0.63
   8   4 -13    3.97    0.96
   8   4 -13    4.41    0.92
   8  -4 -13    3.66    0.97
  10   4 -15    1.01    1.45
  10  -4 -15    2.15    1.46
  13   5  -8   -1.14    1.82
  13   5  -8   -0.08    2.06
  13  -5  -8    0.91    2.18
  13  -5  -8    1.15    1.62
  11   5  -6   -0.78    1.02
  11   5  -6    0.25    0.99
  11   5  -6    1.08    1.21
  11  -5  -6    0.65    1.08
  11  -5  -6   -0.25    1.13
  11  -5  -6    0.24    0.96
   9   5  -4    0.58    0.62
   9   5  -4   -0.04    0.63
   9   5  -4    0.42    0.62
   9  -5  -4    0.06    0.58
   9  -5  -4    0.26    0.66
   9  -5  -4   -0.53    0.61
   7   5  -2   33.11    1.51
   7   5  -2   33.93    1.59
   7   5  -2   33.97    1.53
   7  -5  -2   34.33    1.52
   7  -5  -2   44.06    7.23
   7  -5  -2   34.36    1.53
  -5   5   0   34.22    5.39
  -5   5   0   35.62    1.46
   5   5   0   36.67    1.50
   5   5   0   37.70    1.54
   5   5   0   34.64    1.51
   5   5   0   34.47    1.49
   5   5   0   38.56    4.46
   5  -5   0   36.18    1.50
   5  -5   0   35.90    1.49
   5  -5   0   34.40    5.21
   3   5   2   75.63    2.84
   3   5   2   77.09    4.72
  -3   5  -2   73.01    2.84
   3   5   2   79.41    2.91
  -3   5  -2   72.39    2.85
   3   5   2   69.87    2.86
  -3   5  -2   70.67    4.63
   3   5   2   70.11    2.86
   3  -5   2   66.36    4.59
   3  -5   2   72.02    2.85
  -3  -5  -2   70.25    4.74
   1   5   4  151.97    6.31
  -1   5  -4  166.30    6.32
  -1   5  -4  173.76    8.55
   1   5   4  170.66    8.01
  -1   5  -4  155.66    6.31
  -1   5  -4  164.46    6.35
   1   5   4  165.95    6.36
   1  -5   4  168.31    7.28
   1  -5   4  167.87    6.31
  -1  -5  -4  160.10    6.32
  -1  -5  -4  157.87    7.92
   1   5  -6  254.49    9.64
   1   5  -6  246.87   10.04
  -1   5   6  239.93    9.62
   1   5  -6  254.86    9.62
   1   5  -6  250.05    9.60
  -1   5   6  244.61   11.62
   1   5  -6  253.75    9.61
   1   5  -6  249.44    9.60
  -1  -5   6  244.01    9.61
  -1  -5   6  257.21   10.15
   1  -5  -6  248.58    9.61
   3   5  -8   53.58    2.11
   3   5  -8   51.85    2.10
   3   5  -8   48.99    2.08
   3   5  -8   53.88    2.09
   3   5  -8   49.85    2.06
   3  -5  -8   50.54    2.09
   3  -5  -8   43.22    7.86
   5   5 -10   64.47    2.62
   5   5 -10   65.58    2.62
   5   5 -10   61.01    2.64
   5  -5 -10   64.58    2.63
   5  -5 -10   60.65    2.65
   7   5 -12   28.13    1.72
   7  -5 -12   32.37    1.77
   9   5 -14    8.30    1.31
   9   5 -14    6.18    1.22
   9  -5 -14    8.91    1.34
  12   6  -7    2.29    1.43
  12   6  -7    2.02    1.44
  12  -6  -7    1.83    1.32
  10   6  -5    9.27    1.00
  10   6  -5    8.95    1.00
  10   6  -5    7.58    1.03
  10  -6  -5    7.15    0.94
  10  -6  -5   11.32    1.04
  10  -6  -5    9.33    1.09
   8   6  -3   29.40    1.48
   8   6  -3   29.78    1.45
   8   6  -3   27.16    1.46
   8  -6  -3   17.63    9.63
   8  -6  -3   28.23    1.47
   6   6  -1   29.88    1.45
   6   6  -1   32.95    1.42
  -6   6   1   53.06   10.62
   6  -6  -1   57.04    9.39
   6  -6  -1   31.90    1.42
   6  -6  -1   31.98    1.43
   6  -6  -1   33.17    1.44
   4   6   1   33.62    1.46
  -4   6  -1   37.14    6.12
   4   6   1   34.41    1.47
   4   6   1   36.70    1.52
   4   6   1   35.51    1.46
   4   6   1   35.76    4.37
  -4   6  -1   34.26    1.44
   4  -6   1   34.98    1.47
   4  -6   1   35.35    4.75
   2   6   3   45.78    1.82
  -2   6  -3   45.01    1.87
  -2   6  -3   44.08    1.82
   2   6   3   49.14    1.89
   2   6   3   40.01    4.56
  -2   6  -3   46.34    1.84
  -2   6  -3   53.82    3.74
   2   6   3   43.07    1.85
   2  -6   3   44.00    3.71
  -2  -6  -3   46.34    4.60
   2  -6   3   42.82    1.83
   0   6  -5   19.55    0.92
   0   6   5   19.72    0.97
   0   6  -5   19.08    2.36
   0   6  -5   19.22    0.90
   0   6  -5   20.38    0.93
   0   6   5   24.61    3.84
   0  -6  -5   20.47    0.93
   0  -6   5   18.95    2.60
   0  -6  -5   16.92    3.61
  -2   6   7    0.50    0.36
   2   6  -7    0.70    0.36
   2   6  -7    0.65    0.29
   2   6  -7    1.33    0.33
   2   6  -7    0.78    0.33
   2   6  -7    0.80    0.34
   2  -6  -7    3.44    7.29
  -2  -6   7    0.25    0.30
   2  -6  -7    1.32    5.20
   2  -6  -7    0.73    0.37
   4   6  -9   -0.05    0.39
   4   6  -9   -0.04    0.48
   4   6  -9    0.82    0.49
  -4   6   9    0.50    0.50
   4   6  -9    0.19    0.48
   4   6  -9    0.36    0.39
   4  -6  -9    3.13    9.17
   4  -6  -9   -0.81    8.16
   4  -6  -9   -0.35    0.46
   6   6 -11   -0.73    0.70
  -6   6  11   -0.23    0.87
   6   6 -11    0.75    0.63
   6   6 -11    0.30    0.78
   6  -6 -11    1.08    0.69
   6  -6 -11    0.57    0.76
   6  -6 -11   -0.40    0.70
   8   6 -13    1.11    1.08
   8   6 -13    1.52    0.93
   8  -6 -13    1.27    1.09
  10   6 -15    0.16    1.66
  10  -6 -15    1.06    1.74
  11   7  -6   -0.35    1.37
  11  -7  -6    3.01    1.29
  11  -7  -6    0.91    2.02
   9   7  -4    0.71    0.74
   9   7  -4   -0.08    0.73
   9   7  -4   -0.25    0.78
   9  -7  -4    0.12    0.72
   7   7  -2   18.81    1.11
  -7   7   2    5.90    9.94
   7   7  -2   16.53    1.05
   7   7  -2   17.33    1.13
   7  -7  -2   18.59    1.11
   7  -7  -2   22.43   15.31
   7  -7  -2   17.95    1.13
   5   7   0    2.15    0.43
   5   7   0    1.43    0.37
  -5   7   0    0.50    4.59
  -5   7   0    1.32    0.37
   5   7   0    1.47    0.55
   5   7   0    1.66    0.39
   5  -7   0    1.15    0.38
   5  -7   0    0.86    5.03
  -3   7  -2    1.41    0.32
   3   7   2    1.21    0.32
   3   7   2    1.92    0.38
  -3   7  -2    1.58    0.35
   3   7   2    1.43    0.45
   3   7   2    1.10    2.89
  -3   7  -2    0.43    2.64
   3  -7   2    1.33    0.32
   3  -7   2    0.52    2.69
  -1   7  -4    0.27    0.28
   1   7   4   -0.50    3.28
  -1   7  -4    0.97    0.28
   1   7   4    0.56    0.29
  -1   7  -4    0.37    0.23
   1   7   4    0.45    0.31
   1   7   4    0.42    0.29
  -1   7  -4    0.60    1.93
   1  -7   4    0.30    2.20
  -1  -7  -4    0.58    0.30
  -1  -7  -4    0.26    3.63
   1  -7   4    0.34    0.29
   1   7  -6   16.94    0.81
   1   7  -6   17.01    0.86
   1   7  -6   16.98    0.87
  -1   7   6   16.16    0.86
  -1   7   6   16.55    0.89
   1   7  -6   15.86    0.86
   1  -7  -6   16.26    0.88
   1  -7  -6   12.85    4.52
   1  -7  -6   16.28    4.51
   3   7  -8    3.18    0.45
   3   7  -8    3.85    0.48
  -3   7   8    4.28    0.50
   3   7  -8    3.53    0.49
   3   7  -8    2.56    0.41
   3   7  -8    3.90    0.50
   3  -7  -8   -1.11    7.91
   3  -7  -8    2.58    0.49
   3  -7  -8    1.82    8.27
   5   7 -10    4.04    0.73
  -5   7  10    3.92    0.73
   5   7 -10    5.88    0.72
   5   7 -10    4.61    0.62
   5  -7 -10    4.35    0.68
  -7   7  12    3.12    1.36
   7   7 -12    1.80    0.94
   7   7 -12   -0.17    1.15
   7   7 -12    2.32    0.81
   7  -7 -12    2.06    0.95
   7  -7 -12    1.20    0.93
   7  -7 -12   -0.30    1.05
   9   7 -14    2.48    1.46
   9  -7 -14    0.38    1.44
  12   8  -7    3.98    1.60
  12   8  -7    2.93    1.68
  12  -8  -7    3.30    1.59
  10   8  -5    3.65    1.06
  10   8  -5    3.77    1.08
  10   8  -5    4.97    1.08
  10  -8  -5    4.41    1.10
  10  -8  -5    4.94    1.10
   8   8  -3   12.67    1.16
   8   8  -3   13.63    1.21
   8   8  -3   13.11    1.22
   8  -8  -3   11.33    1.24
   6   8  -1    2.67    0.50
   6   8  -1    2.87    0.54
  -6   8   1    2.99    0.53
  -6   8   1    2.40    8.66
   6   8  -1    2.31    0.52
   6   8  -1    3.73    0.60
   6  -8  -1    3.76    0.52
   6  -8  -1    2.86    0.50
   6  -8  -1    3.89    7.96
  -4   8  -1    3.33    0.40
   4   8   1    2.48    0.41
  -4   8  -1   -0.42    4.05
   4   8   1    2.35    0.44
   4   8   1    4.41    0.44
  -4   8  -1    4.53    0.46
   4  -8   1    2.97    0.41
   4  -8   1    2.69    3.95
  -2   8  -3    2.69    2.79
   2   8   3    4.19    3.68
  -2   8  -3    2.38    0.34
  -2   8  -3    3.83    0.41
   2   8   3    2.75    0.38
  -2   8  -3    4.04    0.52
   2   8   3    2.08    0.38
   2   8   3    2.87    0.42
  -2  -8  -3    2.02    0.37
   2  -8   3    2.28    0.35
   2  -8   3    2.36    3.08
  -2  -8  -3    1.67    3.81
   0   8  -5    4.68    0.52
   0   8  -5    5.63    0.59
   0   8   5    6.32    0.63
   0   8  -5    6.38    0.48
   0  -8  -5    5.84    0.50
   0  -8   5    5.11    0.58
   0  -8   5    6.74    2.26
   2   8  -7    1.28    0.35
   2   8  -7    1.11    0.41
   2   8  -7    1.84    0.45
   2   8  -7    1.02    0.44
   2   8  -7    1.00    0.42
  -2   8   7    0.69    0.42
  -2   8   7    1.00    0.48
   2  -8  -7    1.87    0.48
   2  -8  -7   -1.65    7.04
   2  -8  -7   -1.81    7.03
   4   8  -9    0.21    0.57
   4   8  -9    0.40    0.60
   4   8  -9    0.14    0.49
   4   8  -9    0.67    0.49
  -4   8   9    0.40    0.64
   4   8  -9    0.61    0.58
   4  -8  -9   -0.02    0.61
  -6   8  11    0.95    1.09
   6   8 -11   -0.17    0.95
   6   8 -11   -0.18    0.83
   6  -8 -11   -0.86    0.83
   6  -8 -11   -0.33    0.86
   8   8 -13    0.05    1.06
   8   8 -13    0.95    1.31
   8  -8 -13   -0.38    1.26
  11   9  -6    3.70    1.43
  11   9  -6   -0.21    1.51
  11   9  -6    2.20    1.46
  11  -9  -6    2.18    1.61
  11  -9  -6    1.29    1.45
   9   9  -4   15.02    1.52
   9   9  -4   18.51    1.58
   9   9  -4   17.62    1.69
   9  -9  -4   19.28    1.75
   7   9  -2    5.10    0.72
   7   9  -2    4.59    0.68
   7   9  -2    4.40    0.68
   7  -9  -2    3.40    0.68
   7  -9  -2    3.79    0.67
  -5   9   0   24.08    1.26
   5   9   0   27.03    1.32
   5   9   0   24.56    1.26
   5   9   0   26.21    1.33
   5   9   0   23.74    1.30
   5  -9   0   23.51    1.30
   5  -9   0   24.64    1.26
   3   9   2   37.84    1.61
  -3   9  -2   35.10    1.64
  -3   9  -2   36.40    1.56
  -3   9  -2   35.43    1.63
   3   9   2   36.53    1.66
   3   9   2   39.67    1.62
   3  -9   2   36.76    5.63
   3  -9   2   34.58    1.59
  -3  -9  -2   33.87    1.60
  -1   9  -4   26.02    1.26
   1   9   4   26.04    1.24
   1   9   4   27.12    1.29
  -1   9  -4   25.60    1.19
  -1   9  -4   27.98    1.25
   1   9   4   25.42    1.26
   1  -9   4   26.40    4.82
   1  -9   4   26.23    1.23
  -1  -9  -4   27.96    1.25
  -1   9   6   10.63    0.89
   1   9  -6   12.85    1.33
  -1   9   6   11.37    0.91
   1   9  -6   12.24    0.83
   1   9  -6   13.53    0.76
  -1  -9   6   11.39    0.82
   1  -9  -6   11.04    0.84
   1  -9  -6    4.22    4.08
   3   9  -8   49.54    2.06
  -3   9   8   42.60    2.10
  -3   9   8   42.71    2.07
   3   9  -8   48.03    2.01
   3   9  -8   46.06    2.01
   3   9  -8   44.92    1.96
   3   9  -8   45.02    2.01
   3  -9  -8   43.71    2.05
   3  -9  -8   48.55    2.11
  -5   9  10   14.22    1.13
   5   9 -10   14.26    1.25
   5   9 -10   14.60    1.33
   5   9 -10   17.55    1.24
   5   9 -10   15.05    1.32
   5   9 -10   14.17    1.38
   5  -9 -10   12.73    1.06
   5  -9 -10   13.19    1.52
   7   9 -12    9.47    1.08
   7   9 -12   10.38    1.27
  -7   9  12    9.12    1.66
   7  -9 -12    8.18    1.24
   7  -9 -12    8.97    1.32
   9   9 -14    3.23    1.82
   9   9 -14    6.51    1.49
   9  -9 -14    7.81    1.90
  10  10  -5   -0.16    1.20
  10  10  -5    1.46    1.33
  10  10  -5    0.81    1.23
  10 -10  -5   -0.06    1.33
   8  10  -3    4.08    0.98
   8  10  -3    1.49    0.86
   8 -10  -3    2.52    0.90
   8 -10  -3    3.05    1.02
   6  10  -1    2.64    0.71
   6  10  -1    0.77    0.53
   6  10  -1    2.31    0.63
  -6  10   1    0.49    0.62
   6  10  -1    0.43    0.72
   6 -10  -1    0.52    0.64
   6 -10  -1    1.02    0.64
   4  10   1    0.95    0.44
   4  10   1    1.07    0.56
  -4  10  -1    1.73    0.51
   4  10   1    0.66    0.51
  -4  10  -1    1.02    0.49
   4 -10   1    1.18    0.50
  -2  10  -3    3.42    0.49
   2  10   3    3.82    0.53
  -2  10  -3    4.00    0.46
   2  10   3    2.34    0.48
   2  10   3    3.59    0.52
  -2 -10  -3    4.28    0.52
  -2 -10  -3    5.04    6.34
   2 -10   3    4.34    0.50
   2 -10   3    2.26    4.86
   0  10   5    1.22    0.51
   0  10  -5    1.23    0.37
   0  10   5    0.83    0.47
   0 -10   5    0.46    0.46
   0 -10  -5    1.18    0.50
   2  10  -7    0.64    0.45
   2  10  -7    2.55    0.55
   2  10  -7    2.00    0.52
  -2  10   7    0.71    0.58
  -2  10   7    2.20    0.67
   2  10  -7    2.04    0.57
   2 -10  -7    1.39    0.60
   2 -10  -7    0.79    0.62
   4  10  -9    0.89    0.70
   4  10  -9   -0.03    0.80
   4  10  -9    1.44    0.64
  -4  10   9   -0.29    0.81
   4  10  -9    0.45    0.73
   4  10  -9    0.90    0.65
   4 -10  -9    0.69    0.80
   6  10 -11   -0.46    1.05
   6  10 -11   -0.29    1.44
   6  10 -11   -0.55    0.89
  -6  10  11    0.27    1.29
   6  10 -11   -0.04    1.07
   6 -10 -11   -0.61    1.09
   6 -10 -11   -0.32    1.07
   8  10 -13    0.79    1.25
   8  10 -13    0.85    1.50
   8 -10 -13    1.35    1.57
  11  11  -6    0.14    1.68
  11 -11  -6   -1.41    2.01
   9  11  -4    0.81    1.02
   9 -11  -4    1.41    1.45
   7  11  -2    0.10    0.85
   7  11  -2    0.82    0.92
   7 -11  -2   -0.04    0.82
   7 -11  -2    0.09    0.82
  -5  11   0    9.15    0.77
   5  11   0    9.70    0.87
   5  11   0    7.45    0.81
   5  11   0   10.33    1.02
   5 -11   0   11.82    1.07
  -3  11  -2   15.07    1.07
   3  11   2   17.87    1.16
   3  11   2   19.75    1.19
  -3  11  -2   15.86    1.12
   3 -11   2   14.24    1.12
  -3 -11  -2   17.91    1.12
  -1  11  -4   29.28    1.54
   1  11   4   31.29    1.60
  -1  11  -4   31.75    1.48
   1  11   4   32.38    1.57
  -1 -11  -4   32.75    1.58
   1 -11   4   27.22    5.62
   1 -11   4   34.33    1.54
  -1  11   6   11.16    1.09
  -1  11   6   12.54    1.09
   1  11  -6    9.85    0.89
   1  11  -6   11.33    0.94
   1  11  -6   12.86    1.04
  -1 -11   6   12.55    1.05
   1 -11  -6    9.69    0.81
   3  11  -8   38.85    1.83
   3  11  -8   38.53    1.93
  -3  11   8   35.97    2.13
   3  11  -8   39.18    1.90
   3  11  -8   35.32    2.01
  -3  11   8   41.52    2.06
  -3 -11   8   42.25    1.99
   3 -11  -8   41.35    2.13
   3 -11  -8   42.16    1.99
   5  11 -10    4.57    0.91
   5  11 -10    7.55    0.98
   5  11 -10    5.19    1.07
  -5  11  10    6.70    1.22
   5  11 -10    5.51    1.09
   5  11 -10    5.10    1.01
   5 -11 -10    3.97    1.10
   5 -11 -10    5.04    1.18
   7  11 -12    4.05    1.50
   7  11 -12    2.57    1.17
  -7  11  12    2.62    1.96
   7 -11 -12    4.48    1.51
   7 -11 -12    3.97    1.40
  10  12  -5    7.23    1.60
  10  12  -5    6.72    1.49
  10  12  -5    8.75    1.70
  10 -12  -5    8.09    1.68
   8  12  -3    5.24    1.24
   8  12  -3    6.29    1.07
   8 -12  -3    5.84    1.18
   8 -12  -3    5.53    1.33
  -6  12   1   25.39    1.71
   6  12  -1   22.90    1.71
   6  12  -1   24.08    1.57
   6  12  -1   27.36    1.71
  -6 -12   1   25.87    1.77
   6 -12  -1   25.72    1.69
   4  12   1   17.42    1.30
   4  12   1   18.18    1.38
   4  12   1   20.85    1.40
  -4  12  -1   17.98    1.28
  -4  12  -1   18.70    1.33
  -4 -12  -1   18.54    1.38
   4 -12   1   18.02    1.31
  -2  12  -3   11.86    1.06
   2  12   3   12.75    1.12
  -2  12  -3   11.26    1.09
  -2 -12  -3   11.73    1.20
   0  12   5    1.09    0.68
   0  12  -5    1.10    0.54
   0  12  -5    0.70    0.53
   0  12   5    1.62    0.67
   0 -12  -5    0.15    0.66
   0 -12   5    1.05    0.65
  -2  12   7    3.32    0.84
  -2  12   7    3.25    0.90
   2  12  -7    4.52    0.65
   2  12  -7    3.04    0.67
   2 -12  -7    5.33    0.82
   2 -12  -7    4.37    0.87
   4  12  -9    2.52    0.89
  -4  12   9    2.19    1.09
   4  12  -9    0.98    0.98
   4  12  -9    2.76    0.84
   4  12  -9    1.63    0.87
   4  12  -9    1.46    0.90
   4 -12  -9    2.54    1.21
   4 -12  -9    3.37    1.03
   6  12 -11    3.32    1.12
   6  12 -11    0.22    1.29
   6  12 -11    2.50    1.42
   6  12 -11   -0.54    1.36
  -6  12  11    2.98    1.62
   6 -12 -11    2.66    1.41
   6 -12 -11    1.15    1.32
   9  13  -4   -0.39    1.36
   9  13  -4    1.87    1.52
   9 -13  -4   -0.95    1.56
  -9 -13   4    1.12    1.83
  -7  13   2    6.41    1.22
   7  13  -2    5.55    1.19
   7  13  -2    0.49    1.30
   7  13  -2    2.36    0.91
   7 -13  -2    3.77    1.13
  -7 -13   2    1.36    1.22
   7 -13  -2    3.54    1.12
   5  13   0    3.20    1.00
  -5  13   0    3.08    0.84
   5  13   0    2.52    0.77
   5  13   0    2.29    0.96
   5 -13   0    4.76    0.87
  -5 -13   0    2.40    0.96
  -3  13  -2    4.92    0.74
  -3  13  -2    5.09    0.77
   3  13   2    5.54    0.88
   3  13   2    4.76    0.79
   3  13   2    5.82    0.85
  -3 -13  -2    6.83    0.90
   3 -13   2    6.57    0.85
   1  13   4   12.21    1.22
  -1  13  -4   12.50    1.12
  -1  13  -4   12.82    1.06
   1  13   4   10.82    0.95
  -1 -13  -4   12.22    0.99
   1 -13   4   12.79    1.24
  -1  13   6   15.34    1.47
  -1  13   6   16.45    1.56
   1  13  -6   16.84    1.27
   1  13  -6   19.85    1.72
   1 -13  -6   15.41    1.52
  -1 -13   6   16.57    1.46
   1 -13  -6   18.27    1.58
   3  13  -8    3.22    0.87
  -3  13   8    2.69    1.35
   3  13  -8    4.52    0.82
  -3  13   8    3.12    1.09
   3 -13  -8    2.59    1.18
  -3 -13   8    2.83    1.06
   3 -13  -8    3.16    1.00
   5  13 -10    7.46    1.25
   5  13 -10    4.76    1.19
  -5  13  10    8.46    1.48
   5 -13 -10    6.71    1.48
   5 -13 -10    6.99    1.38
   8  14  -3    1.14    1.73
   8  14  -3    0.15    1.47
   8 -14  -3   -0.85    1.68
  -8 -14   3    2.13    1.74
   8 -14  -3    0.58    1.48
   6  14  -1    2.95    1.63
   6  14  -1    0.91    0.99
  -6  14   1    0.55    1.07
   6  14  -1    2.18    1.25
   6 -14  -1    2.66    1.29
  -6 -14   1    1.60    1.30
   4  14   1    2.11    0.88
   4  14   1    2.72    1.02
   4  14   1    2.18    1.04
  -4  14  -1    2.55    0.84
  -4 -14  -1    3.22    1.06
   4 -14   1    2.76    0.95
   2  14   3    0.37    0.79
   2  14   3    0.30    0.87
  -2  14  -3    0.19    0.74
  -2  14  -3    0.63    0.72
  -2 -14  -3    1.12    0.95
   2 -14   3   -0.16    0.83
   0  14   5    1.89    0.92
   0  14  -5    0.70    0.70
   0  14   5    0.96    0.90
   0  14  -5    0.50    0.73
   0 -14  -5    0.57    0.97
   0 -14   5    0.56    0.89
  -2  14   7    2.86    1.26
  -2  14   7    4.64    1.10
   2  14  -7    4.54    0.85
   2  14  -7    4.20    0.87
   2 -14  -7    4.55    1.19
   2 -14  -7    4.89    1.09
   4  14  -9    0.30    1.02
   4  14  -9    1.11    1.10
  -4  14   9   -0.03    1.35
   4 -14  -9    1.79    1.61
   4 -14  -9    1.41    1.25
   6  14 -11   -0.17    1.58
  -6  14  11   -0.46    2.07
   6 -14 -11   -0.10    1.85
   7  15  -2   -1.02    2.08
  -7  15   2    1.11    1.70
   7  15  -2    4.44    1.52
   7  15  -2    2.05    1.41
  -7 -15   2    2.87    1.73
   7 -15  -2    2.41    1.42
   7 -15  -2    2.79    1.59
   5  15   0    1.06    0.96
  -5  15   0    0.27    1.06
   5  15   0    1.21    1.22
   5  15   0    2.12    2.30
   5 -15   0    0.15    1.10
  -5 -15   0    1.55    1.29
  -3  15  -2    4.00    0.99
   3  15   2    3.55    1.13
  -3  15  -2    2.63    0.85
   3  15   2    2.39    0.93
   3 -15   2    4.71    1.07
  -3 -15  -2    5.72    1.15
   1  15   4    2.46    1.00
  -1  15  -4    2.18    0.84
  -1  15  -4    2.96    0.88
   1  15   4    3.18    1.05
   1 -15   4    2.45    1.05
  -1 -15  -4    1.97    1.14
   1  15  -6    9.01    1.32
   1  15  -6    9.39    1.11
  -1  15   6    9.70    1.33
  -1  15   6   10.59    1.42
  -1 -15   6   10.71    1.23
   1 -15  -6    9.46    1.31
   1 -15  -6   10.78    1.50
   3  15  -8    1.11    1.02
   3  15  -8    0.97    1.03
  -3  15   8    1.25    1.41
   3 -15  -8    0.12    1.32
   3 -15  -8    2.20    1.50
  -3 -15   8    0.88    1.44
  -5  15  10    5.77    1.85
   5  15 -10    8.58    1.44
   5  15 -10    7.75    1.70
   5 -15 -10    3.76    1.97
   6  16  -1    0.05    1.16
   6  16  -1   -0.82    1.68
  -6  16   1    0.30    1.47
   6  16  -1    0.65    1.52
   6 -16  -1    0.32    1.45
   6 -16  -1    0.69    1.54
  -6 -16   1    2.10    1.66
   4  16   1    1.94    1.09
   4  16   1    1.04    1.35
  -4  16  -1    2.10    1.10
   4 -16   1    2.43    1.25
  -4 -16  -1    1.67    1.37
  -2  16  -3    1.61    0.99
  -2  16  -3    1.72    1.00
   2  16   3    0.93    1.03
   2  16   3    2.68    1.21
   2 -16   3    1.95    1.19
  -2 -16  -3   -0.20    1.25
   0  16   5    2.14    1.24
   0  16   5    1.74    1.22
   0  16  -5    4.14    1.01
   0  16  -5    2.63    0.95
   0 -16  -5    3.65    1.25
   0 -16   5    5.61    1.30
   0 -16  -5    4.03    1.28
  -2  16   7    0.15    1.38
  -2  16   7   -0.16    2.04
   2  16  -7    0.09    1.00
   2  16  -7   -0.28    1.04
   2 -16  -7   -0.25    1.57
  -2 -16   7   -0.54    1.45
   2 -16  -7   -0.32    1.40
   4  16  -9    0.62    1.24
  -4  16   9    3.14    1.80
   4  16  -9    1.52    1.48
   4 -16  -9    1.81    1.69
   4 -16  -9    0.95    2.13
  -5  17   0   -0.46    1.53
   5  17   0   -0.79    1.76
   5  17   0   -0.33    1.21
  -5 -17   0   -0.26    2.45
   3  17   2    0.53    1.44
  -3  17  -2    0.11    1.18
   3  17   2    0.03    1.26
  -3 -17  -2   -0.26    1.52
   3 -17   2    0.40    1.37
   1  17   4    0.40    1.40
  -1  17  -4    0.32    1.09
   1  17   4    0.87    1.29
  -1  17  -4    0.00    1.35
  -1 -17  -4    1.02    1.42
   1 -17   4    0.61    1.36
  -1 -17  -4   -0.08    1.46
  -1  17   6    1.95    1.59
   1  17  -6    0.45    1.16
   1  17  -6    1.30    1.04
  -1  17   6    1.43    1.49
   1 -17  -6    0.76    1.51
   1 -17  -6    1.09    1.63
  -1 -17   6    0.32    1.58
  12   0  -6   45.47    2.43
  12   0  -6   42.58    2.47
  10   0  -4   13.21    1.19
  10   0  -4   14.08    1.19
   8   0  -2  235.45    8.80
   8   0  -2  224.15    8.82
   8   0  -2  222.55    8.85
   6   0   0    3.48    3.19
  -6   0   0    2.47    3.52
   6   0   0    2.51    0.30
   6   0   0    2.04    0.30
   6   0   0    1.53    0.33
   6   0   0    1.50    0.31
   4   0   2  425.90   16.21
   4   0   2  419.52   17.34
   4   0   2  423.93   16.21
   4   0   2  418.90   16.21
   2   0   4   16.71    0.72
  -2   0  -4   17.03    0.75
   2   0   4   15.51    2.32
  -2   0  -4   18.63    3.07
   2   0   4   16.21    0.73
   0   0   6  254.57   11.05
   0   0   6  261.28    9.94
   0   0  -6  261.47   10.93
   0   0  -6  256.27    9.95
   2   0  -8   10.21    0.61
  -2   0   8   11.18    3.03
  -2   0   8   10.08    0.60
   2   0  -8    9.04    0.61
   2   0  -8    4.81    2.44
   4   0 -10  166.68    6.47
   4   0 -10  158.99    6.33
   6   0 -12    2.00    0.60
   6   0 -12    2.64    0.62
   8   0 -14   18.61    1.71
   8   0 -14   17.67    1.79
  10   0 -16    0.40    1.58
  13   1  -7   11.46    1.66
  13   1  -7   14.94    1.60
  13  -1  -7   13.69    1.70
  13  -1  -7   10.93    1.55
  11   1  -5   11.19    1.04
  11   1  -5   11.11    1.07
  11  -1  -5   11.49    1.08
  11  -1  -5   11.82    1.41
   9   1  -3   25.80    1.33
   9   1  -3   24.49    1.33
   9   1  -3   24.77    1.33
   9  -1  -3   25.97    1.32
   9  -1  -3   24.06    1.29
   9  -1  -3   23.33    1.30
   7   1  -1   84.53    3.41
   7   1  -1   87.21    7.42
  -7   1   1   91.34    8.27
   7   1  -1   87.97    3.40
   7   1  -1   88.37    3.45
   7  -1  -1   82.45    3.38
   7  -1  -1   81.71    3.41
   7  -1  -1   90.69    7.72
  -7  -1   1   93.58    7.99
   7  -1  -1   85.31    3.40
   5   1   1   73.90    4.98
  -5   1  -1   67.00    5.06
   5   1   1   61.72    2.51
   5   1   1   61.59    2.52
   5   1   1   62.60    2.50
   5  -1   1   63.75    2.52
   5  -1   1   63.95    2.51
   5  -1   1   59.13    2.52
  -5  -1  -1   66.87    4.83
   5  -1   1   71.16    5.00
   3   1   3  225.52    8.60
  -3   1  -3  234.24    9.76
   3   1   3  222.67    8.59
   3   1   3  213.01    9.66
  -3  -1  -3  212.20    9.70
   3  -1   3  227.32    9.69
   3  -1   3  225.40    8.59
   3  -1   3  225.33    8.60
  -1   1  -5  141.27    5.16
  -1   1  -5  134.19    6.14
   1   1   5  125.53    5.13
  -1  -1  -5  129.52    5.13
  -1  -1  -5  138.18    6.34
   1  -1   5  130.01    5.13
   1  -1   5  131.32    6.17
   1   1  -7  153.13    5.81
  -1   1   7  151.81    5.82
   1   1  -7  144.24    6.94
  -1   1   7  158.87    7.65
   1   1  -7  147.88    5.82
  -1  -1   7  150.88    7.33
   1  -1  -7  148.32    7.35
  -1  -1   7  151.70    5.81
   1  -1  -7  147.97    5.81
   3   1  -9   42.00    4.93
   3   1  -9   53.01    2.05
   3   1  -9   52.25    5.14
   3   1  -9   49.37    2.06
   3  -1  -9   50.82    2.05
   3  -1  -9   51.09    5.85
   3  -1  -9   50.69    2.06
   5   1 -11   50.48    2.23
   5   1 -11   53.03    2.23
   5  -1 -11   55.30    2.25
   5  -1 -11   52.21    2.22
   7   1 -13    8.31    0.88
   7   1 -13    9.02    0.86
   7  -1 -13    7.78    0.92
   7  -1 -13    7.43    0.89
   9   1 -15   16.74    1.58
   9   1 -15   21.51    2.08
   9  -1 -15   18.24    2.07
  12   2  -6   25.88    2.04
  12   2  -6   25.89    2.02
  12  -2  -6   23.18    2.09
  12  -2  -6   22.18    1.89
  10   2  -4   39.92    1.94
  10   2  -4   37.15    1.85
  10  -2  -4   38.84    1.89
  10  -2  -4   39.14    1.92
   8   2  -2   26.77    1.22
   8   2  -2   25.94    1.26
   8   2  -2   24.27    1.24
   8  -2  -2   14.77    6.19
   8  -2  -2   23.36    1.19
   8  -2  -2   24.50    1.18
   8  -2  -2   22.60    1.19
   6   2   0  104.44    4.34
   6   2   0  118.59    4.39
   6   2   0  103.68    4.32
   6   2   0  116.28    6.97
   6  -2   0  108.34    4.33
   6  -2   0  103.87    7.04
   6  -2   0  117.02    4.33
  -6  -2   0  118.70    7.26
  -4   2  -2   84.42    4.97
   4   2   2   77.39    2.95
   4   2   2   69.62    4.70
   4   2   2   74.72    2.95
   4  -2   2   72.47    4.82
   4  -2   2   75.05    2.95
   4  -2   2   72.86    2.95
  -4  -2  -2   78.41    4.89
   2   2   4  626.68   25.95
   2   2   4  662.64   24.99
  -2   2  -4  648.56   25.00
   2   2   4  648.93   25.00
  -2   2  -4  656.89   24.99
  -2   2  -4  676.68   25.88
   2  -2   4  665.78   24.99
   2  -2   4  625.04   25.79
   2  -2   4  652.41   25.00
   0   2   6  152.19    5.89
   0   2  -6  144.05    5.88
   0   2   6  162.07    7.60
   0   2  -6  147.97    6.83
   0   2   6  152.74    5.88
   0  -2   6  153.86    5.88
   0  -2   6  153.81    6.93
   0  -2  -6  152.36    7.35
   2   2  -8  137.05    5.27
   2   2  -8  132.93    5.28
  -2   2   8  138.93    5.27
   2   2  -8  121.58    6.57
  -2   2   8  145.12    8.05
   2  -2  -8  126.91    8.35
  -2  -2   8  146.86    7.12
   2  -2  -8  133.08    5.27
  -2  -2   8  140.69    5.27
   4   2 -10   30.62    1.34
   4   2 -10   29.88    1.36
   4  -2 -10   30.22    1.38
   4  -2 -10   28.29    1.37
   6   2 -12   21.58    1.39
   6   2 -12   22.86    1.37
   6  -2 -12   25.60    1.43
   6  -2 -12   24.40    1.40
   8   2 -14   34.06    2.08
   8   2 -14   35.52    2.14
   8  -2 -14   33.29    2.11
  10   2 -16    6.12    2.54
  10  -2 -16    4.95    2.52
  13   3  -7    2.08    1.59
  13   3  -7    1.71    1.50
  13  -3  -7    2.76    1.37
  13  -3  -7    0.75    1.73
  11   3  -5   34.72    2.04
  11   3  -5   35.23    2.02
  11  -3  -5   35.63    2.05
  11  -3  -5   33.02    1.97
   9   3  -3   10.12    0.96
   9   3  -3   10.77    1.02
   9   3  -3   13.06    1.00
   9  -3  -3   12.12    0.96
   9  -3  -3   12.38    1.00
   9  -3  -3   11.58    1.04
   7   3  -1   71.00    2.81
   7   3  -1   70.54    2.87
  -7   3   1   94.04   10.60
   7   3  -1   93.65   10.13
   7  -3  -1   67.39    2.80
   7  -3  -1   60.54    7.96
   7  -3  -1   67.03    2.81
   5   3   1   90.24    5.80
   5   3   1  100.34    3.73
   5   3   1   93.54    3.69
   5   3   1   94.92    3.68
  -5   3  -1   94.29    6.47
   5   3   1   90.63    3.68
  -5  -3  -1   92.98    6.13
   5  -3   1   98.12    3.69
   5  -3   1   95.08    3.69
   5  -3   1   89.06    6.06
   3   3   3   97.12    3.53
   3   3   3   85.47    3.48
  -3   3  -3   84.92    5.01
   3   3   3   90.01    5.19
  -3   3  -3   87.35    3.47
   3   3   3   89.23    3.49
   3  -3   3   88.02    3.49
  -3  -3  -3  106.87    5.85
   3  -3   3   86.54    5.02
   3  -3   3   85.54    3.48
   1   3   5  413.37   15.06
  -1   3  -5  396.03   15.03
   1   3   5  384.89   15.04
   1   3   5  373.10   15.01
  -1   3  -5  390.05   15.02
  -1   3  -5  374.21   15.80
   1   3   5  396.26   16.34
   1  -3   5  398.41   15.87
   1  -3   5  390.46   15.04
  -1  -3  -5  395.56   15.02
  -1   3   7    3.24    0.41
   1   3  -7    3.33    0.35
   1   3  -7    3.70    0.42
  -1   3   7    2.89    0.31
  -1   3   7    8.15    5.41
   1   3  -7    3.68    0.33
   1   3  -7    5.90    1.92
  -1  -3   7    5.85    2.28
   1  -3  -7    2.72    2.83
  -1  -3   7    3.54    0.31
   1  -3  -7    4.08    0.33
   3   3  -9  233.41   10.42
   3   3  -9  235.60    9.15
   3   3  -9  241.88    9.14
   3   3  -9  239.19   10.44
   3  -3  -9  241.90   12.29
   3  -3  -9  246.43    9.16
   3  -3  -9  214.26   12.23
   5   3 -11    1.45    0.51
   5   3 -11    0.59    0.48
   5   3 -11    1.15    4.79
   5  -3 -11    2.12    0.55
   5  -3 -11    1.41    0.60
   7   3 -13   83.38    3.69
   7   3 -13   84.03    3.56
   7  -3 -13   84.33    3.57
   9   3 -15    0.40    1.22
   9   3 -15    0.80    1.22
   9  -3 -15    0.94    1.25
  12   4  -6   -0.02    1.24
  12   4  -6    0.55    1.21
  12  -4  -6   -0.03    1.49
  12  -4  -6   -0.08    1.14
  10   4  -4   47.88    2.24
  10   4  -4   48.18    2.23
  10   4  -4   46.39    2.28
  10  -4  -4   49.08    2.27
  10  -4  -4   45.42    2.24
  10  -4  -4   47.58    2.28
  -8   4   2   -2.67    9.26
   8   4  -2    0.65    0.47
   8   4  -2    0.56    0.43
   8   4  -2    0.22    0.47
   8  -4  -2    0.14    0.45
   8  -4  -2    2.49   11.57
   6   4   0  317.25   12.20
   6   4   0  319.96   14.07
   6   4   0  314.99   12.24
  -6  -4   0  317.93   14.32
   6  -4   0  310.44   12.19
   6  -4   0  316.80   12.18
   4   4   2   10.96    0.60
   4   4   2   12.40    0.64
  -4   4  -2   10.58    0.57
   4   4   2   10.91    0.62
   4   4   2   10.60    0.60
  -4   4  -2   10.38    2.97
   4   4   2   11.64    0.61
   4   4   2   18.17    2.91
   4  -4   2   10.64    0.59
   4  -4   2   11.20    0.60
   4  -4   2   10.44    2.38
  -4  -4  -2   12.10    2.74
  -2   4  -4  360.93   13.66
   2   4   4  351.04   13.66
   2   4   4  370.09   15.05
   2   4   4  345.91   13.67
  -2   4  -4  348.27   13.65
   2   4   4  375.26   13.71
  -2  -4  -4  324.99   16.51
   2  -4   4  358.19   13.66
   2  -4   4  350.30   13.67
   2  -4   4  365.93   14.73
   0   4  -6   18.73    0.86
   0   4  -6   18.91    0.83
   0   4   6   19.56    0.87
   0   4   6   18.06    0.86
   0   4  -6   18.57    2.63
   0   4   6   17.54    3.51
   0   4  -6   19.63    0.86
   0  -4  -6   18.54    0.87
   0  -4   6   17.75    2.75
   0  -4  -6   20.44    3.17
   0  -4   6   18.34    0.84
   2   4  -8  253.65    9.69
   2   4  -8  234.75   10.44
   2   4  -8  253.09    9.70
   2   4  -8  257.16    9.67
   2   4  -8  243.88    9.67
   2  -4  -8  250.63    9.67
  -2  -4   8  255.68    9.67
   2  -4  -8  259.46   12.58
   4   4 -10    8.20    0.77
   4   4 -10    9.03    0.80
   4  -4 -10    2.45    5.94
   4  -4 -10    7.75    0.80
   6   4 -12   39.53    1.85
   6   4 -12   36.85    1.83
   6  -4 -12   34.45    1.86
   8   4 -14    3.10    0.97
   8   4 -14    2.34    1.05
   8  -4 -14    2.56    1.07
  13   5  -7    2.57    1.64
  13   5  -7    2.99    1.65
  13  -5  -7    1.21    1.52
  11   5  -5   18.78    1.73
  11   5  -5   20.61    1.85
  11  -5  -5   16.83    1.77
  11  -5  -5   16.73    1.66
   9   5  -3    6.88    0.76
   9   5  -3    8.14    1.04
   9  -5  -3    8.49    0.75
   9  -5  -3   10.48    1.05
   7   5  -1   82.75    3.39
   7   5  -1   77.24    3.32
   7   5  -1   85.73    3.35
  -7   5   1   90.08   11.31
   7  -5  -1   87.17    3.33
   7  -5  -1   77.37   10.47
   7  -5  -1   83.45    3.33
   5   5   1   39.94    5.00
  -5   5  -1   39.29    1.55
   5   5   1   35.47    1.57
  -5   5  -1   37.66    5.83
   5   5   1   40.43    1.63
   5   5   1   41.38    1.57
   5   5   1   36.78    1.59
   5  -5   1   37.17    1.57
   5  -5   1   34.68    1.57
   5  -5   1   30.54    4.48
  -3   5  -3  119.64    6.52
  -3   5  -3  119.40    4.67
   3   5   3  130.66    4.75
  -3   5  -3  119.50    4.69
   3   5   3  126.68    4.68
   3   5   3  120.80    6.75
   3   5   3  124.50    4.70
   3  -5   3  114.90    4.69
   3  -5   3  118.00    4.69
  -3  -5  -3  113.62    6.77
   3  -5   3  115.82    6.46
  -1   5  -5   66.24    2.60
  -1   5  -5   62.51    4.07
   1   5   5   70.03    2.65
  -1   5  -5   67.16    2.64
  -1   5  -5   65.86    2.60
   1   5   5   65.59    2.60
  -1  -5  -5   66.06    2.61
   1  -5   5   64.76    4.23
  -1  -5  -5   64.38    5.53
   1  -5   5   62.97    2.61
   1  -5   5   68.68    2.60
   1   5  -7   74.13    2.91
  -1   5   7   70.49    2.94
   1   5  -7   74.23    2.93
   1   5  -7   76.18    2.95
  -1   5   7   82.79    6.93
   1   5  -7   73.50    2.91
   1   5  -7   73.90    4.12
  -1  -5   7   70.70    2.92
  -1  -5   7   80.29    5.65
   1  -5  -7   73.09    2.92
   3   5  -9   66.06    2.76
   3   5  -9   70.94    2.78
   3   5  -9   69.69    2.76
   3  -5  -9   75.48    9.61
   3  -5  -9   65.65    2.75
   5   5 -11   20.18    1.23
   5   5 -11   19.85    1.19
   5  -5 -11   20.00    1.26
  -7   5  13   14.81    1.44
   7   5 -13   13.58    1.49
   7   5 -13   13.93    1.40
   7  -5 -13   13.35    1.56
   9   5 -15    5.67    1.92
   9   5 -15    4.07    1.45
   9  -5 -15    5.14    1.42
  12   6  -6   37.08    2.50
  12   6  -6   31.64    2.46
  12  -6  -6   33.88    2.72
  12  -6  -6   29.45    2.37
  10   6  -4    6.38    0.96
  10   6  -4    7.87    0.99
  10   6  -4    5.73    0.96
  10  -6  -4    4.97    0.89
  10  -6  -4    6.99    0.97
   8   6  -2   73.06    2.93
   8   6  -2   70.17    2.99
   8   6  -2   71.20    2.95
   8  -6  -2   68.76    2.93
  -6   6   0   10.33    5.80
   6   6   0    8.81    0.72
  -6   6   0    8.49    0.73
   6   6   0    8.45    0.74
   6  -6   0   10.03    0.69
   6  -6   0    8.77    5.58
   6  -6   0    9.04    0.71
   4   6   2  155.70    5.99
  -4   6  -2  153.73    5.99
   4   6   2  147.41    6.00
   4   6   2  150.75    6.00
   4   6   2  160.72    6.06
  -4   6  -2  150.39    8.54
   4   6   2  166.83    8.41
  -4   6  -2  153.11    5.98
   4  -6   2  158.31    8.47
   4  -6   2  151.64    6.00
  -2   6  -4  123.16    4.86
  -2   6  -4  123.08    4.86
   2   6   4  126.01    4.86
   2   6   4  124.08    4.87
  -2   6  -4  131.86    6.49
   2   6   4  128.72    4.91
  -2   6  -4  125.02    4.90
   2   6   4  122.19    7.55
  -2  -6  -4  124.59    7.56
   2  -6   4  121.97    4.86
   0   6   6  192.86    9.88
   0   6  -6  179.05    6.87
   0   6  -6  173.11    6.83
   0   6  -6  170.51    7.71
   0   6   6  181.89    6.86
   0   6  -6  170.34    6.82
   0  -6  -6  174.31    6.82
   0  -6   6  177.08    7.97
   0  -6  -6  170.60    9.81
  -2   6   8   38.50    1.83
   2   6  -8   43.89    1.81
   2   6  -8   47.10    1.87
   2   6  -8   45.64    1.83
   2   6  -8   43.95    1.82
   2  -6  -8   47.21    8.07
  -2  -6   8   44.55    1.82
   2  -6  -8   42.55    1.84
   2  -6  -8   51.66    8.98
   4   6 -10   30.57    1.48
   4   6 -10   29.56    1.49
   4   6 -10   30.82    1.46
   4  -6 -10   28.48    1.48
   6   6 -12   21.14    1.49
  -6   6  12   26.20    2.19
   6   6 -12   22.65    1.47
   6  -6 -12   18.34    1.59
   6  -6 -12   21.70    1.56
   8   6 -14   11.50    1.25
   8   6 -14   14.29    1.39
   8  -6 -14   14.36    1.42
  11   7  -5   12.74    1.59
  11   7  -5   14.14    1.90
  11  -7  -5   12.75    1.64
  11  -7  -5   13.50    1.38
   9   7  -3   17.29    1.31
   9   7  -3   12.33    1.29
   9   7  -3   15.89    1.36
   9  -7  -3   13.48    1.31
   7   7  -1   51.11    2.24
   7   7  -1   53.94    2.27
   7   7  -1   53.34    2.19
   7  -7  -1   51.55    2.22
   7  -7  -1   46.92    2.19
   5   7   1   11.71    0.79
   5   7   1   11.20    0.74
  -5   7  -1   10.59    0.73
   5   7   1   11.17    0.76
  -5   7  -1   -1.89    5.05
   5  -7   1    5.05    4.12
   5  -7   1   10.59    0.74
  -3   7  -3  192.57    7.32
   3   7   3  192.48    7.34
   3   7   3  184.57    7.39
  -3   7  -3  182.47    9.38
  -3   7  -3  190.96    7.32
   3   7   3  184.13   13.18
  -3   7  -3  186.05    7.38
   3   7   3  192.07    7.32
   3  -7   3  192.06    7.33
   3  -7   3  172.63    9.31
  -3  -7  -3  211.06   10.48
   1   7   5   16.43    4.49
  -1   7  -5   17.12    2.69
   1   7   5   17.20    0.88
  -1   7  -5   16.81    0.81
  -1   7  -5   16.83    0.88
   1   7   5   16.37    0.90
  -1   7  -5   16.52    0.82
   1   7   5   17.04    0.86
   1  -7   5   17.30    3.00
   1  -7   5   17.36    0.85
  -1  -7  -5   17.18    4.19
  -1  -7  -5   16.38    0.87
   1   7  -7  172.76    6.62
  -1   7   7  165.05    6.63
  -1   7   7  163.64    6.66
   1   7  -7  172.14    6.63
   1   7  -7  175.39    6.68
   1  -7  -7  164.91    6.63
   1  -7  -7  163.66   10.98
   1  -7  -7  201.02   13.60
  -1  -7   7  172.98    6.64
   3   7  -9    0.55    0.52
   3   7  -9    0.26    0.38
  -3   7   9    0.09    0.51
   3   7  -9    0.10    0.52
   3   7  -9    0.98    0.51
   3   7  -9    0.20    0.44
   3  -7  -9    0.12    9.13
   3  -7  -9    0.92    0.50
   3  -7  -9   -4.93    7.09
  -5   7  11   85.10    3.51
   5   7 -11   79.98    3.39
   5   7 -11   80.39    3.42
   5  -7 -11   83.81    3.46
   5  -7 -11   82.27    3.47
   7   7 -13   -0.91    0.87
  -7   7  13    0.25    1.52
   7   7 -13    0.31    1.07
   7  -7 -13   -0.42    1.04
   9   7 -15   33.08    3.06
   9   7 -15   27.49    2.47
   9  -7 -15   29.85    2.90
  12   8  -6    5.17    1.63
  12   8  -6    6.65    1.67
  12  -8  -6    6.11    1.53
  12  -8  -6    4.04    1.74
  10   8  -4    1.36    0.98
  10   8  -4    2.60    1.03
  10   8  -4    1.63    1.04
  10  -8  -4    1.88    1.02
  10  -8  -4    2.30    1.06
   8   8  -2   38.92    1.94
   8   8  -2   36.81    1.91
   8   8  -2   39.91    1.91
   8  -8  -2   41.86    2.01
   8  -8  -2   37.96    1.93
  -6   8   0   16.46    1.08
   6   8   0   16.99    1.12
   6   8   0   18.30    1.20
   6   8   0   18.75    1.09
   6   8   0   18.29    1.07
   6  -8   0   20.67    1.12
   6  -8   0   18.77    1.07
   4   8   2   52.76    2.41
  -4   8  -2   57.42    2.36
   4   8   2   60.83    2.40
  -4   8  -2   55.07    2.33
   4   8   2   62.64    2.37
   4  -8   2   55.26    7.44
   4  -8   2   58.30    2.36
   2   8   4    8.48    0.69
   2   8   4   11.09    4.58
  -2   8  -4    7.33    0.62
  -2   8  -4    9.73    3.30
   2   8   4    7.21    0.75
   2   8   4    8.70    0.69
  -2   8  -4   10.02    0.63
  -2  -8  -4   10.85    5.02
  -2  -8  -4    9.86    0.68
   2  -8   4    8.07    3.44
   2  -8   4    8.86    0.67
   0   8   6   37.22    1.64
   0   8  -6   38.67    1.69
   0   8   6   38.90    1.70
   0   8  -6   39.89    1.62
   0   8  -6   38.93    1.66
   0  -8  -6   36.00    6.27
   0  -8  -6   38.96    1.68
   0  -8   6   37.47    4.02
  -2   8   8   17.44    1.02
   2   8  -8   16.10    1.02
   2   8  -8   17.52    1.03
   2   8  -8   17.66    0.93
   2   8  -8   17.22    1.02
  -2   8   8   15.90    1.08
  -2  -8   8   17.72    1.02
   2  -8  -8   18.14    1.08
   2  -8  -8    6.00    5.28
   2  -8  -8   15.22    8.33
   4   8 -10   44.66    2.00
   4   8 -10   44.22    2.07
  -4   8  10   47.19    2.11
   4   8 -10   41.60    2.06
   4   8 -10   44.22    1.97
   6   8 -12    6.15    0.92
  -6   8  12    6.30    1.22
   6   8 -12    9.18    1.05
   6  -8 -12    5.59    1.06
   6  -8 -12    8.33    1.06
   8   8 -14    4.77    1.17
   8   8 -14    5.24    1.48
   8  -8 -14    3.61    1.47
  11   9  -5    2.33    1.42
  11   9  -5    6.09    1.40
  11   9  -5    5.49    1.46
  11  -9  -5    9.04    1.54
  11  -9  -5    6.41    1.44
   9   9  -3   10.66    1.13
   9   9  -3    9.74    1.05
   9   9  -3   11.71    1.35
   9  -9  -3    6.81    1.05
   7   9  -1   23.14    1.42
   7   9  -1   23.89    1.44
   7   9  -1   23.42    1.41
   7  -9  -1   24.88    1.42
   7  -9  -1   24.46    1.45
  -5   9  -1   45.05    2.00
   5   9   1   45.64    2.03
  -5   9  -1   45.26    1.95
   5   9   1   46.40    2.06
   5   9   1   46.50    2.03
   5  -9   1   45.86    2.00
   3   9   3   10.97    0.86
  -3   9  -3    0.12    4.70
   3   9   3   11.09    0.86
   3   9   3   12.03    0.87
  -3   9  -3   11.42    0.74
  -3   9  -3   11.27    0.81
   3  -9   3    6.80    4.36
   3  -9   3   13.28    0.82
  -3  -9  -3   12.56    0.84
  -1   9  -5   59.99    2.57
   1   9   5   60.30    2.53
   1   9   5   62.32    2.55
  -1   9  -5   61.64    2.52
  -1   9  -5   60.87    2.50
   1   9   5   64.16    2.61
   1  -9   5   54.32    6.14
  -1  -9  -5   65.05    2.54
   1  -9   5   63.29    2.52
   1   9  -7    7.27    0.77
  -1   9   7    7.85    0.87
   1   9  -7    7.72    0.80
  -1   9   7    7.53    0.90
   1   9  -7    7.92    0.67
   1  -9  -7    1.98    7.70
   1  -9  -7    7.50    0.64
  -3   9   9   71.38    2.99
   3   9  -9   71.12    2.93
   3   9  -9   69.97    2.90
   3   9  -9   69.29    2.98
   3   9  -9   69.18    2.94
  -3  -9   9   75.78    2.97
   3  -9  -9   67.36    2.98
   5   9 -11    3.94    0.94
  -5   9  11    2.59    1.05
   5   9 -11    1.85    0.91
   5   9 -11    0.07    0.89
   5  -9 -11    1.45    0.92
   5  -9 -11    2.78    0.96
   7   9 -13   15.60    1.57
   7   9 -13   17.35    1.77
   7  -9 -13   14.47    1.50
   7  -9 -13   17.36    1.55
  10  10  -4   34.10    2.30
  10  10  -4   41.33    2.54
  10  10  -4   39.04    2.59
  10 -10  -4   42.54    2.59
   8  10  -2    0.54    0.92
   8  10  -2    0.51    0.88
   8  10  -2    0.08    0.72
   8 -10  -2    0.02    0.94
   8 -10  -2   -0.01    0.86
  -6  10   0   76.37    3.22
   6  10   0   78.36    3.28
   6  10   0   81.93    3.29
   6  10   0   75.55    3.30
   6 -10   0   77.22    3.25
  -4  10  -2    3.28    0.50
   4  10   2    2.51    0.60
   4  10   2    2.78    0.60
   4  10   2    1.63    0.52
   4 -10   2    1.77    0.52
  -4 -10  -2    2.15    0.59
   2  10   4  144.42    5.56
   2  10   4  141.25    5.53
   2  10   4  142.90    5.61
  -2  10  -4  144.10    5.61
  -2  10  -4  140.30    5.51
   2 -10   4  140.75    5.54
   2 -10   4  123.91    9.80
  -2 -10  -4  141.61    5.54
   0  10   6   15.14    1.12
   0  10   6   15.04    1.07
   0  10  -6   15.43    0.95
   0  10  -6   16.53    1.05
   0  10  -6   16.51    1.04
   0 -10   6   19.70    1.06
   0 -10  -6   17.89    1.09
  -2  10   8   54.41    2.46
   2  10  -8   53.59    2.32
  -2  10   8   53.78    2.81
   2  10  -8   54.99    2.37
   2  10  -8   50.19    2.26
   2 -10  -8   55.48    2.44
  -2 -10   8   54.17    2.34
   4  10 -10    8.56    1.10
   4  10 -10    7.37    0.81
   4  10 -10    8.35    0.83
   4  10 -10    6.82    0.92
  -4  10  10   10.39    1.04
   4 -10 -10    6.90    0.98
  -6  10  12   12.66    1.54
   6  10 -12   10.76    1.12
   6  10 -12   10.45    1.32
   6 -10 -12   12.82    1.37
   6 -10 -12   10.65    1.66
   8  10 -14   11.59    1.46
   8  10 -14   11.72    1.86
  11  11  -5    5.19    1.62
  11  11  -5    6.98    1.98
  11  11  -5    7.89    2.08
  11 -11  -5    8.49    2.19
   9  11  -3   14.23    1.63
   9 -11  -3   18.31    2.10
   7  11  -1    5.42    0.96
   7  11  -1    4.22    0.77
  -7  11   1    4.29    0.94
   7 -11  -1    3.57    0.88
   7 -11  -1    3.90    0.91
   5  11   1   36.03    1.85
   5  11   1   39.70    1.90
  -5  11  -1   39.83    1.77
   5  11   1   34.64    1.82
   5 -11   1   36.03    1.82
  -5 -11  -1   37.01    1.87
  -3  11  -3    9.96    0.87
   3  11   3   12.40    1.06
  -3  11  -3   10.76    0.95
   3  11   3   10.89    1.08
   3  11   3    9.91    0.99
  -3 -11  -3   12.75    1.05
   3 -11   3   12.38    0.97
  -1  11  -5   83.91    3.43
   1  11   5   87.51    3.48
   1  11   5   86.06    3.54
  -1  11  -5   82.65    3.51
   1 -11   5   84.61    3.45
  -1 -11  -5   84.97    3.48
  -1  11   7    2.07    0.68
   1  11  -7    3.84    0.66
   1  11  -7    3.19    0.54
  -1  11   7    1.86    0.73
   1  11  -7    3.15    0.62
   1 -11  -7    2.61    0.69
   3  11  -9   37.72    1.91
   3  11  -9   41.14    1.96
  -3  11   9   36.37    2.16
   3  11  -9   37.03    1.86
   3 -11  -9   38.02    2.24
   3 -11  -9   39.69    2.03
   5  11 -11   -0.41    1.16
   5  11 -11    1.07    0.93
   5  11 -11    0.10    1.02
  -5  11  11    2.63    1.29
   5 -11 -11    1.24    1.20
   5 -11 -11    1.79    1.16
   7  11 -13   19.91    1.98
   7  11 -13   22.82    2.07
   7 -11 -13   24.22    1.85
   7 -11 -13   24.27    2.71
  10  12  -4    1.54    1.60
  10  12  -4    0.35    1.40
  10 -12  -4   -0.01    1.50
   8  12  -2   17.18    1.65
   8  12  -2   18.49    2.01
   8 -12  -2   21.07    1.98
   8 -12  -2   20.74    2.22
   6  12   0    3.83    1.03
   6  12   0    3.86    0.97
   6  12   0    2.53    0.74
  -6  12   0    3.86    0.86
  -6 -12   0    5.58    0.97
   6 -12   0    5.82    0.94
   4  12   2   31.66    1.76
  -4  12  -2   33.58    1.63
   4  12   2   33.67    1.80
   4  12   2   34.49    1.79
  -4 -12  -2   32.79    1.76
   4 -12   2   29.98    1.71
   2  12   4    0.36    0.64
  -2  12  -4    1.10    0.57
  -2  12  -4    1.50    0.64
   2  12   4    0.17    0.67
   2 -12   4    0.94    0.63
  -2 -12  -4    0.40    0.71
   0  12   6   23.16    1.53
   0  12  -6   24.16    1.43
   0  12   6   23.22    1.59
   0  12  -6   27.73    1.39
   0 -12  -6   28.41    1.54
   0 -12   6   26.26    1.52
   2  12  -8    4.77    0.83
  -2  12   8    2.58    1.03
   2  12  -8    3.82    0.68
   2  12  -8    3.84    0.74
  -2  12   8    2.08    0.89
   2 -12  -8    3.63    0.90
  -2 -12   8    3.54    0.85
   2 -12  -8    2.84    0.95
  -4  12  10   23.37    2.27
   4  12 -10   22.97    1.65
   4  12 -10   24.62    1.68
   4  12 -10   19.23    1.70
   4 -12 -10   23.51    1.99
  -6  12  12    1.73    1.84
   6  12 -12    3.41    1.37
   6 -12 -12    4.21    1.51
   6 -12 -12    4.27    1.43
   9  13  -3    7.34    2.00
   9  13  -3   11.26    1.63
  -9 -13   3   11.75    1.80
   9 -13  -3    8.79    1.55
   7  13  -1    7.93    1.09
  -7  13   1    5.54    1.24
   7  13  -1   10.11    1.27
   7 -13  -1    8.03    1.16
   7 -13  -1    7.01    1.24
  -7 -13   1    4.86    1.22
   5  13   1   11.06    1.15
   5  13   1    8.90    1.34
   5  13   1   13.45    1.15
  -5  13  -1   13.26    1.02
  -5 -13  -1   12.18    1.11
   5 -13   1   12.76    1.05
   3  13   3   16.89    1.37
   3  13   3   16.62    1.52
   3  13   3   17.89    1.52
  -3  13  -3   15.20    1.32
  -3  13  -3   17.03    1.42
   3 -13   3   18.80    1.40
  -3 -13  -3   21.15    1.55
  -1  13  -5    1.69    0.63
  -1  13  -5    0.42    0.71
   1  13   5    0.54    0.75
   1  13   5    0.10    0.80
  -1 -13  -5   -0.44    0.83
   1 -13   5    0.83    0.77
   1  13  -7   38.87    1.95
  -1  13   7   38.96    2.15
  -1  13   7   35.71    2.13
   1  13  -7   38.24    1.88
   1 -13  -7   39.34    2.20
  -1 -13   7   36.95    2.10
   1 -13  -7   37.38    2.11
  -3  13   9    0.87    1.14
   3  13  -9    1.01    0.85
   3  13  -9    1.71    0.90
   3 -13  -9    0.52    1.32
  -3 -13   9    1.65    1.16
   3 -13  -9    0.10    1.10
   5  13 -11   24.46    2.13
  -5  13  11   26.80    2.91
   5 -13 -11   31.55    2.59
   5 -13 -11   28.83    2.62
   8  14  -2   26.21    2.54
  -8 -14   2   30.17    2.71
   8 -14  -2   26.31    2.56
   8 -14  -2   22.68    2.00
  -6  14   0    0.28    1.05
   6  14   0    0.45    0.97
   6  14   0    0.19    1.30
   6 -14   0    0.21    1.69
   4  14   2   54.49    2.76
  -4  14  -2   55.30    2.54
   4  14   2   60.00    2.71
   4  14   2   48.00    2.60
   4 -14   2   53.00    2.59
  -4 -14  -2   49.35    2.69
  -2  14  -4    1.27    0.73
   2  14   4    0.69    0.82
   2  14   4    1.60    0.94
  -2  14  -4    0.49    0.75
   2 -14   4    0.69    0.87
  -2 -14  -4    0.51    0.98
   0  14   6   58.74    2.84
   0  14   6   55.52    2.81
   0  14  -6   58.73    2.69
   0  14  -6   57.45    2.64
   0 -14   6   58.92    2.76
   0 -14  -6   61.78    2.84
   2  14  -8    1.44    0.86
  -2  14   8    1.41    1.46
   2  14  -8    1.53    0.89
  -2  14   8    0.69    1.20
   2 -14  -8    1.09    1.29
  -2 -14   8    1.97    1.10
   2 -14  -8    2.65    1.16
   4  14 -10   15.16    1.76
  -4  14  10   13.06    1.66
   4  14 -10   15.52    1.38
   4 -14 -10   15.65    1.60
   7  15  -1    4.95    1.55
  -7  15   1    3.48    1.70
   7  15  -1    3.68    1.21
   7  15  -1   -0.05    2.08
  -7 -15   1    4.85    1.68
   7 -15  -1    3.37    1.34
   7 -15  -1    4.86    1.52
  -5  15  -1    7.86    1.15
   5  15   1    7.43    1.36
   5  15   1    8.96    1.41
   5  15   1    6.07    1.11
  -5 -15  -1    9.76    1.39
   5 -15   1   11.80    1.31
   3  15   3   12.96    1.55
   3  15   3   16.06    1.37
  -3  15  -3   14.20    1.56
   3 -15   3   15.04    1.30
  -3 -15  -3   15.52    1.37
   1  15   5   10.73    1.62
  -1  15  -5   14.26    1.38
  -1  15  -5   14.73    1.50
   1  15   5   14.80    1.30
   1 -15   5   15.61    1.76
  -1 -15  -5   14.92    1.35
   1  15  -7   12.33    1.11
  -1  15   7   12.41    1.51
  -1  15   7   14.95    1.38
   1  15  -7   12.12    1.41
   1 -15  -7   13.49    1.41
   1 -15  -7   10.17    1.45
  -1 -15   7   12.95    1.44
  -3  15   9    2.10    1.51
   3  15  -9    1.72    1.08
   3  15  -9    3.37    1.18
   3 -15  -9    2.95    1.48
  -3 -15   9    1.56    1.64
   3 -15  -9    0.99    1.75
   6  16   0   12.80    1.95
   6  16   0   17.20    1.79
   6  16   0   16.40    1.77
  -6  16   0   16.02    1.77
  -6 -16   0   18.03    1.82
   6 -16   0   14.49    1.75
   6 -16   0   20.68    1.72
  -4  16  -2   -0.60    1.09
   4  16   2   -0.93    1.44
   4  16   2    0.22    1.08
   4 -16   2    0.17    1.26
  -4 -16  -2    0.47    1.39
   2  16   4   14.33    1.46
  -2  16  -4   14.58    1.21
   2  16   4   13.22    1.75
  -2 -16  -4   10.97    1.47
   2 -16   4   15.48    1.39
   0  16  -6   -0.10    0.92
   0  16   6   -0.39    1.30
   0  16  -6    0.73    1.00
   0  16   6    0.37    1.28
   0 -16  -6    0.88    1.34
   0 -16   6   -0.21    1.31
   0 -16   6    1.20    1.28
   0 -16  -6    0.82    1.34
  -2  16   8    6.79    1.59
   2  16  -8    9.24    1.24
   2  16  -8   10.61    1.24
   2 -16  -8    9.20    1.82
   2 -16  -8    9.43    1.58
  -2 -16   8    7.50    1.64
  -5  17  -1    7.18    1.55
   5  17   1    4.18    1.81
   5  17   1    7.02    1.42
   5 -17   1   10.42    1.72
   5 -17   1    9.04    1.67
  -5 -17  -1   10.42    1.84
  -3  17  -3    1.09    1.21
   3  17   3    0.23    1.53
   3  17   3    0.72    1.26
  -3 -17  -3    1.40    1.56
   3 -17   3    0.89    1.43
   3 -17   3    0.57    1.44
   1  17   5    7.14    1.51
   1  17   5    6.00    1.46
  -1  17  -5    6.99    1.17
   1 -17   5    8.97    1.60
  -1 -17  -5    6.59    1.53
   1 -17   5    9.92    1.54
  -1 -17  -5    5.52    1.51
   1  17  -7   -0.07    1.06
  -1  17   7   -0.33    1.83
  -1 -17   7    0.76    1.70
  12   0  -5    0.74    1.01
  12   0  -5   -0.40    1.17
  10   0  -3    0.26    0.67
  10   0  -3   -0.39    0.70
  10   0  -3    0.52    0.65
   8   0  -1    0.05    0.45
   8   0  -1    0.60    0.44
   8   0  -1   -0.33    0.41
   6   0   1    0.34    0.27
   6   0   1    0.76    3.46
   6   0   1   -0.06    0.29
   6   0   1    0.22    0.30
   6   0   1    0.21    0.29
  -6   0  -1    0.82    3.85
   4   0   3    0.30    0.22
   4   0   3   -0.21    0.22
   4   0   3    0.50    1.89
   4   0   3   -0.15    0.22
  -4   0  -3    0.47    2.46
  -2   0  -5    0.01    0.24
   2   0   5    0.15    0.20
   2   0   5    1.14    3.63
  -2   0  -5    0.80    2.08
   0   0   7    0.34    0.23
   0   0   7    0.26    2.41
   0   0  -7   -0.47    1.96
   0   0  -7    0.21    0.26
   2   0  -9   -0.36    3.14
   2   0  -9   -0.11    0.32
  -2   0   9    1.49    3.73
   2   0  -9   -0.25    0.33
  -2   0   9   -0.18    0.34
   4   0 -11   -0.28    6.38
   4   0 -11    0.52    0.45
   4   0 -11    0.55    0.43
   6   0 -13   -0.16    0.67
   6   0 -13    1.52    0.71
   8   0 -15   -0.28    1.12
   8   0 -15   -0.34    1.13
  13   1  -6    2.54    1.55
  13   1  -6    1.89    1.37
  13  -1  -6    1.42    1.58
  13  -1  -6    1.44    1.34
  11   1  -4    4.34    0.93
  11   1  -4    4.18    0.87
  11  -1  -4    4.86    0.96
  11  -1  -4    4.38    0.87
   9   1  -2    7.75    0.69
   9   1  -2    7.32    0.87
   9   1  -2    6.54    0.65
   9  -1  -2    8.42    0.87
   9  -1  -2    5.68    0.62
   9  -1  -2    6.85    0.66
   9  -1  -2    6.14    0.90
   7   1   0   13.92    0.83
   7   1   0   18.62    4.71
  -7   1   0   18.05    6.42
   7   1   0   15.20    0.84
   7   1   0   14.41    0.87
  -7  -1   0   11.84    5.66
   7  -1   0   12.48    0.79
   7  -1   0   13.05    0.80
   7  -1   0   11.19    6.82
   5   1   2   19.07    3.34
   5   1   2   15.11    0.77
   5   1   2   15.66    0.80
   5   1   2   17.22    0.79
  -5   1  -2   27.13    4.03
   5  -1   2   16.32    0.78
  -5  -1  -2   28.10    4.89
   5  -1   2   16.00    0.78
   5  -1   2   16.66    0.77
   5  -1   2   18.97    3.33
   3   1   4    5.13    2.26
   3   1   4    5.01    0.40
   3   1   4    5.84    0.41
  -3   1  -4   11.19    4.42
  -3  -1  -4    8.22    2.23
   3  -1   4    5.43    0.38
   3  -1   4    8.13    2.16
   3  -1   4    5.31    0.40
   3  -1   4    5.26    0.40
  -1   1  -6    2.90    0.31
   1   1   6    1.40    1.89
   1   1   6    2.52    0.24
  -1   1  -6    3.45    2.08
  -1  -1  -6    2.65    1.85
   1  -1   6    3.20    2.13
   1  -1   6    2.09    0.24
  -1  -1  -6    3.41    0.31
   1   1  -8   20.81    2.89
  -1   1   8   16.47    3.47
   1   1  -8   17.63    0.87
  -1   1   8   18.95    0.89
   1   1  -8   18.28    0.88
  -1  -1   8   23.51    3.52
   1  -1  -8   19.33    0.89
  -1  -1   8   19.08    0.88
   1  -1  -8   18.86    3.35
   3   1 -10   25.28    1.25
   3   1 -10   29.09    1.26
   3  -1 -10   28.79    1.27
   3  -1 -10   27.24    1.27
   3  -1 -10   19.37    5.48
   5   1 -12    1.51    0.58
   5   1 -12    0.90    0.55
   5  -1 -12    1.48    0.61
   5  -1 -12    1.94    0.57
   7   1 -14   15.85    1.51
   7   1 -14   14.64    1.49
   7  -1 -14   14.31    1.11
   7  -1 -14   12.66    1.15
   9   1 -16    4.99    1.47
   9  -1 -16    6.36    1.46
  12   2  -5   15.50    1.77
  12   2  -5   14.82    1.38
  12  -2  -5   11.74    1.37
  12  -2  -5   11.77    1.23
  10   2  -3   28.69    1.65
  10   2  -3   31.95    1.61
  10  -2  -3   30.93    1.66
  10  -2  -3   32.90    1.66
  10  -2  -3   29.81    1.66
   8   2  -1   66.99    2.69
   8   2  -1   67.36    2.71
   8   2  -1   63.84    2.74
   8  -2  -1   63.25    2.68
   8  -2  -1   51.16    8.05
   8  -2  -1   67.76    2.69
   8  -2  -1   70.44    2.71
   6   2   1  128.19    5.09
   6   2   1  126.94    5.11
  -6   2  -1  150.70    8.83
   6   2   1  133.30    5.15
   6   2   1  133.26    7.94
   6  -2   1  124.94    5.10
  -6  -2  -1  144.66    8.44
   6  -2   1  121.64    5.10
   6  -2   1  131.16    5.10
  -4   2  -3  170.49    8.07
   4   2   3  156.30    7.86
   4   2   3  151.61    6.10
   4   2   3  159.90    6.11
   4   2   3  154.48    6.09
   4  -2   3  151.39    6.10
   4  -2   3  167.93    7.99
   4  -2   3  155.18    6.11
  -2   2  -5  180.93    8.38
   2   2   5  186.00    7.10
   2   2   5  182.77    8.62
  -2   2  -5  187.13    7.10
   2  -2   5  186.47    8.36
   2  -2   5  177.58    7.10
  -2  -2  -5  183.91    8.64
   2  -2   5  185.45    7.08
   0   2   7  135.21    5.33
   0   2   7  145.76    7.74
   0   2  -7  131.50    5.32
   0   2  -7  133.42    6.68
   0   2   7  136.51    5.33
   0  -2   7  145.36    6.85
   0  -2  -7  139.05    7.40
   0  -2   7  135.76    5.32
   2   2  -9   81.42    3.16
   2   2  -9   79.17    3.17
   2   2  -9   71.37    5.49
  -2   2   9   86.41    7.67
   2  -2  -9   75.91    6.90
  -2  -2   9   86.66    6.46
   2  -2  -9   80.51    3.16
   4   2 -11   31.50    1.47
   4   2 -11   34.07    1.49
   4  -2 -11   30.84    1.52
   6   2 -13   16.73    1.37
   6   2 -13   16.76    1.33
   6  -2 -13   19.05    1.40
   6  -2 -13   15.96    1.43
   8   2 -15    5.58    1.14
   8   2 -15    4.09    2.04
  13   3  -6    2.31    1.62
  13   3  -6    1.79    1.45
  13  -3  -6    2.82    1.34
  11   3  -4    3.51    0.98
  11   3  -4    2.77    0.91
  11  -3  -4    1.72    0.98
  11  -3  -4    3.39    0.89
  11  -3  -4   -0.26    1.02
   9   3  -2    0.84    0.54
   9   3  -2    0.63    0.54
   9   3  -2    0.52    0.59
   9  -3  -2   -0.03    0.54
   9  -3  -2   -0.33    0.52
  -7   3   0    5.60    9.27
   7   3   0    2.18    0.40
   7   3   0    1.46    0.38
   7   3   0    1.41    0.42
   7   3   0    2.31    0.42
   7  -3   0    1.94    0.38
   7  -3   0    2.17    0.34
   7  -3   0    1.64    0.44
   7  -3   0    2.45    5.44
   5   3   2   12.05    0.68
   5   3   2    8.94    3.21
   5   3   2   10.30    0.65
  -5   3  -2   14.22    3.85
   5   3   2   11.44    0.63
   5   3   2   10.03    0.64
  -5  -3  -2    8.15    3.40
   5  -3   2   11.18    0.61
   5  -3   2   11.88    3.47
   5  -3   2   10.08    0.60
   3   3   4   17.53    0.82
  -3   3  -4   17.40    0.78
  -3   3  -4   17.73    2.78
  -3   3  -4   18.38    0.81
   3   3   4   18.55    0.84
   3   3   4   19.53    0.87
   3   3   4   20.70    3.06
   3  -3   4   19.97    2.89
   3  -3   4   17.15    0.80
  -3  -3  -4   14.67    3.05
   3  -3   4   17.84    0.82
  -1   3  -6   14.17    2.38
   1   3   6    9.15    0.59
  -1   3  -6   10.65    0.63
   1   3   6   10.65    0.61
   1   3   6    8.42    2.78
  -1   3  -6    9.98    0.52
  -1  -3  -6   17.85    5.67
   1  -3   6   13.05    2.58
   1  -3   6    9.52    0.55
   1   3  -8    0.73    0.31
   1   3  -8    0.51    2.33
  -1   3   8    0.74    0.30
  -1   3   8    0.79    0.32
  -1   3   8   -0.97    4.02
  -1  -3   8    0.20    0.27
   1  -3  -8    2.89    5.44
  -1  -3   8    1.75    2.88
   3   3 -10    1.23    3.60
   3   3 -10    0.06    0.39
   3   3 -10    0.37    0.37
   3  -3 -10    0.07    0.41
   3  -3 -10   -2.28    5.82
   3  -3 -10   -0.60    5.43
   5   3 -12   11.27    1.02
   5   3 -12    9.86    1.02
   5  -3 -12   10.62    1.07
   5  -3 -12   11.50    1.21
   7   3 -14   -0.37    0.88
   7   3 -14    0.13    0.97
   7  -3 -14    0.12    0.91
   7  -3 -14    0.35    1.14
   9   3 -16   -0.76    1.42
   9   3 -16    0.73    1.39
   9  -3 -16    0.06    1.36
  12   4  -5    0.34    1.45
  12   4  -5    1.38    1.21
  12  -4  -5    0.65    1.12
  10   4  -3    1.05    0.80
  10   4  -3    0.13    0.72
  10   4  -3   -0.32    0.71
  10  -4  -3   -0.66    0.69
  10  -4  -3    0.01    0.72
   8   4  -1    0.49    0.52
   8   4  -1    1.18    0.49
  -8   4   1    8.53   16.22
   8   4  -1    1.31    0.48
   8  -4  -1   -1.69    7.27
   8  -4  -1    1.12    0.42
   8  -4  -1    0.91    0.45
   8  -4  -1    0.46    0.52
   6   4   1    5.02    0.60
   6   4   1    5.27    0.60
   6   4   1    5.74    0.60
   6   4   1    5.88    0.63
  -6   4  -1    5.65    7.34
   6   4   1    5.72    3.78
   6  -4   1    4.90    0.53
   6  -4   1    2.88    4.37
  -6  -4  -1    5.30    4.16
   6  -4   1    5.41    0.56
  -4   4  -3    4.76    2.94
   4   4   3    4.94    3.12
   4   4   3    4.28    0.47
   4   4   3    5.27    0.53
  -4   4  -3    6.46    0.45
   4   4   3    6.75    0.54
  -4  -4  -3    9.35    3.42
   4  -4   3    6.06    0.47
   4  -4   3    5.23    0.44
   2   4   5   11.35    0.63
   2   4   5   22.84    5.39
  -2   4  -5   14.17    2.78
  -2   4  -5   10.12    0.64
   2   4   5    9.90    0.58
  -2   4  -5    9.04    0.54
   2   4   5    9.16    0.57
   2  -4   5    9.76    0.56
   2  -4   5   10.39    2.44
   2  -4   5   10.97    0.56
  -2  -4  -5    7.17    2.53
   0   4  -7   21.08    0.93
   0   4  -7   21.68    1.00
   0   4   7   19.72    3.68
   0   4   7   19.55    0.99
   0   4  -7   22.04    3.32
   0   4   7   23.36    1.01
   0  -4   7   20.68    0.95
   0  -4  -7   30.60    4.48
   0  -4   7   23.35    3.67
   2   4  -9   11.41    1.12
   2   4  -9    7.25    3.38
   2   4  -9   11.67    0.74
  -2  -4   9   11.52    0.74
   2  -4  -9   11.02    0.75
   2  -4  -9   10.11    5.29
   4   4 -11    3.91    3.76
   4   4 -11    4.06    0.57
   4   4 -11    2.20    0.54
   4  -4 -11    3.14    0.56
   6   4 -13    1.22    0.72
   6   4 -13    1.33    0.79
   6  -4 -13    0.71    0.77
   8   4 -15    0.08    1.17
   8   4 -15    0.23    1.08
   8  -4 -15    0.77    1.15
  13   5  -6    3.27    1.60
  13   5  -6    2.97    1.64
  13  -5  -6    5.48    1.53
  11   5  -4    4.29    1.09
  11   5  -4    5.91    1.04
  11  -5  -4    5.39    0.98
  11  -5  -4    4.21    1.04
   9   5  -2    7.73    1.02
   9   5  -2    5.76    0.75
   9  -5  -2    6.50    0.73
   7   5   0    1.48    0.47
   7   5   0    1.44    0.47
   7   5   0    2.08    0.42
  -7   5   0   -0.37    7.47
   7  -5   0    1.66    0.43
   7  -5   0    1.38    0.41
   7  -5   0    4.60    8.01
   5   5   2   42.54    1.66
   5   5   2   42.52    1.69
   5   5   2   38.36    1.67
   5   5   2   42.02    1.73
  -5   5  -2   39.31    1.64
  -5   5  -2   39.70    6.29
   5   5   2   41.32    6.93
   5  -5   2   38.62    1.67
   5  -5   2   39.06    6.34
   5  -5   2   36.34    1.65
  -5  -5  -2   38.66    6.30
   3   5   4    0.39    3.19
   3   5   4    1.65    0.29
  -3   5  -4    1.81    0.32
  -3   5  -4    1.67    0.26
   3   5   4    0.50    0.28
   3   5   4    1.23    0.30
   3  -5   4    1.38    0.26
   3  -5   4    4.27    2.94
   3  -5   4    1.30    0.28
  -3  -5  -4    2.60    2.99
  -1   5  -6    1.21    2.24
  -1   5  -6    0.59    0.24
   1   5   6    1.12    3.25
   1   5   6    0.52    0.31
   1   5   6    1.06    0.31
  -1   5  -6    0.88    0.29
  -1  -5  -6    2.37    3.64
   1  -5   6    2.13    2.64
  -1  -5  -6    1.30    0.33
   1   5  -8    4.43    2.60
   1   5  -8    5.22    0.59
   1   5  -8    5.77    0.49
  -1   5   8    6.02    0.61
  -1   5   8    5.61    5.15
   1  -5  -8    6.48    0.48
  -1  -5   8   11.29    2.92
   1  -5  -8    4.20    5.01
   3   5 -10    7.13    0.59
   3   5 -10    5.90    0.55
   3  -5 -10    5.43    7.78
   3  -5 -10   -0.85    8.78
   5   5 -12   37.57    1.83
   5   5 -12   36.36    1.82
   5  -5 -12   39.22    1.90
   7   5 -14    5.74    1.07
   7   5 -14    6.27    0.97
  -7   5  14    7.46    1.55
   7  -5 -14    6.28    1.09
   9   5 -16    8.40    2.72
   9   5 -16    5.97    1.46
   9  -5 -16    8.12    1.64
  12   6  -5    3.57    1.37
  12   6  -5   -0.12    1.56
  12   6  -5    0.82    1.38
  12  -6  -5    0.47    1.25
  12  -6  -5    1.36    1.38
  10   6  -3    3.68    0.89
  10   6  -3    0.96    0.89
  10   6  -3    2.75    0.86
  10  -6  -3    2.87    0.84
  10  -6  -3    1.82    0.85
   8   6  -1    7.24    0.91
   8   6  -1    7.09    0.74
   8   6  -1    8.92    1.00
   8  -6  -1    7.68    0.73
   8  -6  -1    8.52    0.90
   6   6   1    9.22    0.78
   6   6   1   10.79    0.77
   6   6   1    9.28    0.74
   6   6   1   10.00    0.85
  -6   6  -1   -1.58    9.85
   6  -6   1    5.90    4.88
   6  -6   1    9.80    0.71
   6  -6   1    8.19    0.74
   4   6   3   42.59    7.36
   4   6   3   47.57    1.95
   4   6   3   45.85    1.92
   4   6   3   46.32    1.97
  -4   6  -3   47.19    5.96
  -4   6  -3   44.70    1.91
   4  -6   3   50.37    5.93
  -4  -6  -3   51.31    6.56
   4  -6   3   46.57    1.92
   4  -6   3   48.43    1.92
   2   6   5   44.26    1.82
  -2   6  -5   44.54    1.83
  -2   6  -5   40.50    4.86
   2   6   5   46.98    1.88
   2   6   5   41.05    6.38
  -2   6  -5   41.21    1.79
   2  -6   5   44.85    1.81
   2  -6   5   44.52    1.82
   2  -6   5   48.12    4.97
  -2  -6  -5   40.25    6.56
  -2  -6  -5   44.77    1.82
   0   6   7   49.13    1.98
   0   6  -7   47.15    1.95
   0   6  -7   48.31    1.96
   0   6   7   38.54    5.74
   0   6  -7   47.95    4.16
   0   6  -7   48.40    1.91
   0  -6  -7   45.48    1.96
   0  -6  -7   52.88    8.04
   0  -6   7   45.00    5.80
   0  -6   7   45.26    1.93
   2   6  -9   28.20    1.31
   2   6  -9   29.45    1.38
   2   6  -9   31.50    1.39
   2  -6  -9   28.11    1.40
   2  -6  -9   50.83   12.70
   2  -6  -9   30.42    8.66
  -2  -6   9   30.43    1.36
   4   6 -11   30.70    1.53
   4   6 -11   28.66    1.58
   4  -6 -11   30.54    1.61
   4  -6 -11   31.17    1.62
  -6   6  13    4.90    1.19
   6   6 -13    4.00    0.86
   6   6 -13    4.95    0.94
   6  -6 -13    6.14    0.96
   8   6 -15    0.51    1.15
   8   6 -15    1.27    1.36
   8  -6 -15    1.32    1.32
  13   7  -6    0.48    1.74
  11   7  -4    0.48    1.14
  11   7  -4    1.48    1.22
  11   7  -4    1.27    1.41
  11  -7  -4    1.21    1.15
  11  -7  -4   -0.35    1.33
   9   7  -2    0.08    0.78
   9   7  -2   -0.08    0.75
   9   7  -2    0.64    0.71
   9  -7  -2    0.01    0.71
   7   7   0    2.82    0.51
   7   7   0    2.28    0.54
   7   7   0    3.90    0.62
   7  -7   0    3.18    0.57
   7  -7   0    2.69    0.51
   5   7   2    0.47    0.45
  -5   7  -2    0.81    0.36
   5   7   2    0.86    0.46
  -5   7  -2   -1.64    5.40
   5   7   2    0.61    0.37
   5  -7   2    1.59    0.40
   5  -7   2   -0.64    6.14
   5  -7   2    0.91    0.37
   3   7   4   16.60    4.54
  -3   7  -4   11.99    0.85
   3   7   4   14.14    0.85
   3   7   4   14.43    0.80
  -3   7  -4   13.72    0.73
   3   7   4   13.18    0.84
   3  -7   4   16.47    4.47
   3  -7   4   11.91    0.74
   3  -7   4   13.35    0.77
  -3  -7  -4   12.76    5.26
   1   7   6    8.73    0.70
   1   7   6    9.22    0.71
  -1   7  -6    9.68    0.63
  -1   7  -6    7.55    0.62
   1   7   6    8.42    0.67
  -1   7  -6   12.42    2.93
   1   7   6    9.06    4.41
  -1   7  -6    7.81    0.59
  -1  -7  -6    6.96    0.69
   1  -7   6   10.57    3.32
   1  -7   6    8.67    0.68
   1  -7   6    7.04    0.62
  -1   7   8    0.73    0.45
   1   7  -8    0.24    0.43
   1   7  -8    0.36    0.34
   1   7  -8    0.71    0.39
  -1  -7   8    0.65    0.39
   1  -7  -8    1.27    0.46
   1  -7  -8    2.93    8.75
   3   7 -10    0.32    0.59
   3   7 -10    0.10    0.48
  -3   7  10   -0.40    0.57
   3   7 -10   -0.23    0.56
   3   7 -10    0.17    0.45
   3  -7 -10   -3.63   13.83
   3  -7 -10    0.60    0.59
  -5   7  12    4.93    0.94
   5   7 -12    2.26    0.71
   5   7 -12    2.58    0.85
   5  -7 -12    2.75    0.87
   5  -7 -12    4.27    0.86
  -7   7  14   -0.61    1.76
   7   7 -14    1.20    1.51
   7   7 -14   -0.67    1.00
   7  -7 -14    0.27    1.18
  12   8  -5    2.95    1.57
  12   8  -5   -0.01    1.70
  12   8  -5    1.85    1.55
  12  -8  -5    1.01    1.62
  12  -8  -5    4.43    1.44
  10   8  -3   10.94    1.20
  10   8  -3   10.28    1.19
  10   8  -3    9.37    1.14
  10  -8  -3    9.60    1.10
  10  -8  -3   11.75    1.21
   8   8  -1   15.74    1.23
   8   8  -1   14.35    1.21
   8   8  -1   12.38    1.23
   8  -8  -1   15.02    1.21
   8  -8  -1   14.17    1.32
   6   8   1   17.63    1.15
   6   8   1   18.71    1.13
  -6   8  -1   17.65    1.09
  -6   8  -1   17.73    1.14
   6   8   1   17.47    1.24
   6   8   1   17.82    1.10
   6  -8   1   17.75    1.08
   6  -8   1   18.80    1.06
  -4   8  -3   30.58    1.35
   4   8   3   28.57    1.45
   4   8   3   31.67    1.43
   4   8   3   29.04    1.41
   4  -8   3   18.84    4.89
   4  -8   3   31.51    1.37
   2   8   5   21.35    9.40
  -2   8  -5   24.46    1.08
  -2   8  -5   21.13    1.02
   2   8   5   21.77    1.08
  -2   8  -5   22.37    1.08
   2   8   5   21.25    1.11
   2   8   5   17.13    1.24
   2  -8   5   22.52    1.07
  -2  -8  -5   21.47    1.08
   2  -8   5   23.26    4.64
   0   8  -7    3.78    0.50
   0   8   7    4.21    0.54
   0   8  -7    4.62    0.47
   0   8   7    3.33    0.45
   0   8  -7    3.78    0.40
   0  -8  -7    3.09    0.51
   0  -8  -7    4.36    9.03
   0  -8   7    4.00    0.46
  -2   8   9    3.59    0.61
   2   8  -9    5.69    0.83
   2   8  -9    4.68    0.50
   2   8  -9    3.11    0.54
   2  -8  -9    3.56    0.62
   2  -8  -9    0.80   14.02
  -2  -8   9    3.57    0.58
  -4   8  11    4.06    0.84
   4   8 -11    2.27    0.65
   4   8 -11    3.72    0.84
   4  -8 -11    1.59    0.81
   6   8 -13   -0.85    0.90
  -6   8  13   -0.50    1.27
   6   8 -13    0.21    1.11
   6  -8 -13    0.07    1.08
   6  -8 -13   -0.91    1.08
   8   8 -15   -0.54    1.26
   8   8 -15    0.07    1.67
   8  -8 -15    1.22    1.60
  11   9  -4    1.27    1.43
  11   9  -4    3.44    1.33
  11   9  -4    2.10    1.39
  11  -9  -4    2.92    1.37
  11  -9  -4    2.57    1.41
   9   9  -2    2.09    0.99
   9   9  -2    1.90    1.00
   9   9  -2    1.06    0.86
   9  -9  -2   -0.12    0.89
   9  -9  -2   -0.43    1.09
   7   9   0    2.78    0.73
   7   9   0    2.72    0.71
   7   9   0    1.73    0.59
  -7   9   0    1.72    0.71
   7  -9   0    2.05    0.70
   7  -9   0    2.95    0.65
   5   9   2   10.29    1.02
  -5   9  -2   11.95    0.91
   5   9   2   11.81    1.06
  -5   9  -2   13.69    1.04
   5   9   2   10.26    0.95
   5  -9   2   13.01    0.93
   3   9   4    0.19    0.49
   3   9   4   -0.24    0.48
   3   9   4   -0.20    0.47
  -3   9  -4    0.18    0.47
  -3   9  -4    2.19    4.79
  -3   9  -4   -0.34    0.38
  -3  -9  -4   -0.19    0.46
   3  -9   4    0.35    0.44
   3  -9   4   -2.29    5.82
  -1   9  -6    8.82    3.75
   1   9   6    9.63    0.85
  -1   9  -6    8.52    0.78
   1   9   6    9.77    0.88
  -1   9  -6    7.88    0.70
  -1   9  -6    8.88    0.83
   1  -9   6    8.10    4.35
   1  -9   6    9.69    0.80
  -1  -9  -6    8.94    0.86
   1   9  -8    8.16    0.85
   1   9  -8    7.02    0.72
  -1   9   8    5.88    0.72
  -1   9   8    6.57    0.65
   1   9  -8    7.97    0.86
  -1  -9   8    9.05    0.88
   1  -9  -8    7.01    0.69
  -3   9  10    9.18    0.90
   3   9 -10   11.10    1.12
   3   9 -10   10.44    1.07
   3   9 -10   10.44    0.96
   3  -9 -10   13.89    1.25
  -5   9  12   -0.19    1.10
   5   9 -12    0.44    0.80
   5   9 -12    0.22    1.07
   5  -9 -12    0.67    1.01
   5  -9 -12    0.74    1.07
   7   9 -14    5.00    1.19
   7   9 -14    3.40    1.56
   7  -9 -14    6.36    1.49
  10  10  -3   -0.23    1.31
  10  10  -3   -1.55    1.24
  10  10  -3   -0.77    1.07
  10 -10  -3    0.59    1.21
   8  10  -1    0.02    0.89
   8  10  -1   -0.38    0.73
   8  10  -1    0.52    0.94
   8 -10  -1   -0.78    0.83
   8 -10  -1    0.13    0.94
   6  10   1    2.10    0.80
   6  10   1    2.75    0.75
  -6  10  -1    2.44    0.68
   6  10   1    2.44    0.65
   6 -10   1    1.15    0.63
   6 -10   1    1.38    0.66
  -4  10  -3    2.04    0.50
   4  10   3    2.29    0.57
   4  10   3    2.31    0.63
   4  10   3    1.69    0.62
  -4 -10  -3    2.76    0.58
   4 -10   3    3.91    0.58
  -2  10  -5    0.25    0.48
   2  10   5    0.73    0.48
   2  10   5    1.19    0.54
   2  10   5    1.21    0.59
  -2  10  -5    0.59    0.44
  -2  10  -5    0.85    0.54
  -2 -10  -5    0.44    0.56
   2 -10   5    0.34    0.50
   0  10  -7    0.75    0.44
   0  10  -7    2.82    0.56
   0  10   7    1.10    0.59
   0  10   7    1.49    0.62
   0  10  -7    3.08    0.56
   0 -10   7    2.09    0.54
   0 -10  -7    2.65    0.63
   2  10  -9    1.19    0.60
   2  10  -9    0.14    0.54
   2  10  -9    1.28    0.64
  -2  10   9    1.06    1.77
  -2  10   9    1.54    0.73
  -2 -10   9    0.29    0.68
   2 -10  -9    1.40    0.73
   2 -10  -9    1.00    0.86
   4  10 -11    5.19    0.83
   4  10 -11    5.05    0.96
   4  10 -11    5.09    0.83
  -4  10  11    4.80    1.10
   4 -10 -11    5.69    1.03
   6  10 -13   -0.91    1.02
   6  10 -13   -0.87    1.40
  -6  10  13   -1.02    1.60
   6 -10 -13   -0.72    1.33
   6 -10 -13   -1.15    1.31
  11  11  -4    0.89    1.50
  11  11  -4    0.20    1.75
  11 -11  -4    1.89    1.76
   9  11  -2    1.89    0.99
   9 -11  -2    1.53    1.42
   7  11   0    7.53    1.05
  -7  11   0    6.58    1.00
   7 -11   0    7.16    0.94
   7 -11   0    7.46    0.90
   5  11   2   -0.20    0.75
   5  11   2   -0.04    0.55
  -5  11  -2    0.39    0.98
   5  11   2   -1.22    0.76
  -5 -11  -2    1.25    0.73
   5 -11   2   -0.03    0.65
   3  11   4    5.06    0.72
   3  11   4    4.32    0.75
  -3  11  -4    4.71    0.59
  -3 -11  -4    5.09    0.73
   3 -11   4    3.03    0.63
   1  11   6   -0.53    0.61
   1  11   6    0.00    0.70
  -1  11  -6    0.48    0.58
  -1  11  -6   -0.45    0.53
  -1  11  -6    0.18    0.54
  -1 -11  -6   -0.41    0.74
   1 -11   6    0.40    0.60
  -1  11   8    3.08    0.83
   1  11  -8    2.45    0.65
  -1  11   8    1.39    0.76
   1  11  -8    3.18    0.70
   1  11  -8    3.48    0.59
   1 -11  -8    3.85    0.78
  -1 -11   8    4.49    0.74
   3  11 -10    5.62    1.06
   3  11 -10    6.62    0.80
  -3  11  10    6.11    1.06
   3  11 -10    6.62    0.97
   3 -11 -10    5.75    1.01
   5  11 -12    2.50    1.02
   5 -11 -12    0.73    1.26
   5 -11 -12    3.67    1.33
   7  11 -14    4.93    1.35
   7 -11 -14    4.92    1.71
   7 -11 -14    5.81    1.90
  10  12  -3    0.31    1.29
  10  12  -3    1.71    1.62
  10 -12  -3   -0.58    1.47
   8  12  -1    4.34    1.30
   8  12  -1    3.12    0.99
   8 -12  -1    5.03    1.18
   8 -12  -1    5.94    1.27
   6  12   1   15.32    1.22
   6  12   1   12.54    1.30
   6  12   1   12.77    1.59
  -6  12  -1   12.47    1.04
   6 -12   1   12.75    1.08
  -6 -12  -1   15.69    1.49
   6 -12   1   14.90    1.45
   4  12   3   13.91    1.36
   4  12   3   12.74    1.23
   4  12   3   16.33    1.43
  -4  12  -3   12.88    1.21
  -4 -12  -3   11.97    1.00
   4 -12   3   12.13    1.22
   2  12   5   20.86    1.44
  -2  12  -5   19.02    1.30
  -2  12  -5   20.21    1.30
   2  12   5   21.75    1.50
   2 -12   5   22.02    1.35
  -2 -12  -5   20.00    1.47
   0  12   7   31.99    1.86
   0  12   7   30.70    1.82
   0  12  -7   32.78    1.71
   0  12  -7   32.37    1.62
   0 -12  -7   31.30    1.81
   0 -12   7   33.57    1.75
   2  12  -9   15.15    1.38
  -2  12   9   19.37    1.76
   2  12  -9   16.38    1.29
  -2  12   9   14.03    1.91
   2  12  -9   14.07    1.59
  -2 -12   9   17.18    1.54
   2 -12  -9   17.19    1.66
   2 -12  -9   19.62    1.88
   4  12 -11    6.44    1.17
   4  12 -11    5.20    1.00
   4  12 -11    5.44    1.13
  -4  12  11    6.36    1.84
  -6  12  13    3.44    3.42
   6  12 -13    4.56    1.28
   6 -12 -13    3.63    1.59
   6 -12 -13    2.79    1.67
   9  13  -2    0.81    1.30
   9  13  -2    1.32    1.54
   9 -13  -2    1.13    1.40
   9 -13  -2    0.96    1.83
  -9 -13   2    0.99    1.65
   7  13   0    0.49    1.46
   7  13   0   -0.56    0.90
   7  13   0    0.38    1.41
  -7  13   0   -2.04    1.19
  -7 -13   0    0.20    1.36
   7 -13   0    0.64    1.12
  -5  13  -2    5.88    0.90
   5  13   2    5.78    1.04
   5  13   2    7.29    1.13
   5  13   2    4.98    0.87
  -5 -13  -2    5.74    1.04
   5 -13   2    7.13    0.94
   5 -13   2    6.40    0.97
   3  13   4   -0.35    0.91
  -3  13  -4    0.69    0.70
   3  13   4    1.19    0.89
   3  13   4    0.30    0.77
   3 -13   4    0.17    0.78
  -3 -13  -4   -0.28    0.86
  -1  13  -6    0.83    0.66
  -1  13  -6    1.44    0.72
   1  13   6    0.71    0.86
   1  13   6    0.04    0.87
   1 -13   6    0.60    0.81
  -1 -13  -6    1.47    0.90
   1  13  -8   -0.13    0.72
  -1  13   8   -0.62    1.03
   1  13  -8    0.20    0.76
  -1  13   8    0.25    1.09
  -1 -13   8    0.72    0.89
   1 -13  -8   -0.05    1.11
   1 -13  -8    0.84    0.98
   3  13 -10   -0.69    0.96
   3 -13 -10    0.39    1.52
   3 -13 -10   -0.57    1.88
   5  13 -12    4.93    1.28
  -5  13  12    2.01    1.88
   5 -13 -12    4.39    1.59
   5 -13 -12    4.06    1.67
   8  14  -1    3.44    1.64
   8  14  -1    2.48    1.59
   8 -14  -1    3.33    1.42
  -8 -14   1    2.66    1.61
   8 -14  -1    3.44    1.61
   6  14   1   13.71    1.57
   6  14   1   15.30    1.47
   6  14   1   12.11    1.54
  -6 -14  -1   14.69    1.40
   6 -14   1   12.45    1.28
   6 -14   1   14.04    1.38
   4  14   3    1.75    0.93
   4  14   3    0.87    1.12
  -4  14  -3    0.68    0.83
   4  14   3    1.69    1.11
  -4 -14  -3    0.67    1.09
   4 -14   3    1.88    0.94
  -2  14  -5    8.82    0.90
   2  14   5    6.59    1.08
  -2  14  -5    5.91    0.95
   2  14   5    6.86    1.06
  -2 -14  -5    6.01    1.08
   2 -14   5    5.18    0.98
   0  14   7    4.56    1.14
   0  14  -7    4.87    0.86
   0  14   7    4.77    1.12
   0  14  -7    3.92    0.84
   0 -14   7    4.82    1.10
   0 -14   7    4.63    1.08
   0 -14  -7    4.66    1.11
   2  14  -9    2.10    0.96
  -2  14   9    5.19    1.36
   2  14  -9    4.14    0.98
   2 -14  -9    4.92    1.81
   2 -14  -9    5.23    1.25
   4  14 -11    0.37    1.33
  -4  14  11   -0.20    1.69
   4 -14 -11   -0.08    1.51
   4 -14 -11   -0.04    1.61
   7  15   0   -0.97    2.40
   7  15   0   -0.59    1.56
  -7  15   0   -0.71    1.68
   7  15   0   -0.51    1.15
  -7 -15   0    1.06    1.61
   7 -15   0    0.41    1.39
   7 -15   0    0.73    1.47
   5  15   2    0.56    1.47
  -5  15  -2    0.85    1.07
   5  15   2    0.60    1.05
   5  15   2    0.49    1.33
   5 -15   2   -1.07    1.21
   5 -15   2    1.07    1.17
  -5 -15  -2    0.64    1.29
  -3  15  -4    0.38    1.23
   3  15   4    2.29    2.19
   3  15   4    0.99    1.02
   3 -15   4    0.97    1.08
  -3 -15  -4    1.00    1.23
  -1  15  -6    1.60    0.86
   1  15   6    2.00    1.19
   1  15   6    0.78    1.12
  -1  15  -6    1.84    0.91
  -1 -15  -6    1.06    1.24
   1 -15   6    0.97    1.16
  -1  15   8    0.83    1.57
   1  15  -8    2.01    0.97
  -1  15   8   -1.60    1.28
   1  15  -8    0.82    0.96
   1 -15  -8    0.45    1.50
  -1 -15   8   -0.06    1.24
   1 -15  -8    0.62    1.35
  -3  15  10    4.07    1.69
   3  15 -10    2.65    1.25
   3 -15 -10    2.01    1.55
   6  16   1    1.79    1.60
   6  16   1    1.75    1.23
  -6 -16  -1    2.73    1.66
   6 -16   1    2.23    1.47
   6 -16   1    1.40    1.49
   4  16   3    7.31    1.59
   4  16   3    4.80    1.26
  -4  16  -3    5.45    1.16
   4 -16   3    7.23    1.41
  -4 -16  -3    6.96    1.45
   4 -16   3    8.86    1.42
   2  16   5    5.18    1.35
  -2  16  -5    5.91    1.07
   2  16   5    4.12    1.26
   2 -16   5    5.75    1.28
   2 -16   5    6.01    1.32
  -2 -16  -5    4.33    1.41
   0  16   7    0.01    1.39
   0  16   7    1.66    2.35
   0  16  -7    1.13    1.04
   0 -16   7    2.04    1.38
   0 -16  -7    2.22    1.47
   0 -16  -7    2.53    1.43
   2  16  -9    4.35    1.51
  -2  16   9    2.33    1.96
  -2 -16   9    3.25    1.94
   2 -16  -9    2.27    1.88
  -3  17  -4    0.51    1.37
   3  17   4    0.31    1.33
   3  17   4    0.19    1.85
   3 -17   4    1.80    2.56
   3 -17   4    1.40    1.48
  -3 -17  -4    1.80    1.68
   1  17   6    1.08    1.63
  -1  17  -6   -0.69    1.22
   1  17   6    0.16    1.50
  -1 -17  -6    0.70    1.70
  -1 -17  -6    0.37    1.78
   1 -17   6   -0.69    2.37
   1 -17   6   -1.28    2.03
  14   0  -6   11.82    1.83
  12   0  -4    0.77    1.20
  12   0  -4    0.95    1.05
  12   0  -4    0.41    1.26
  10   0  -2  126.31    4.99
  10   0  -2  122.91    5.03
  10   0  -2  124.08    5.00
   8   0   0    0.37    0.48
   8   0   0    1.02    0.45
   6   0   2  482.87   19.78
   6   0   2  462.25   17.57
   6   0   2  437.89   17.57
   6   0   2  447.66   17.58
   4   0   4   35.85    1.53
   4   0   4   51.04    6.06
  -4   0  -4   40.08    5.23
   4   0   4   35.45    1.53
   4   0   4   38.36    1.52
  -2   0  -6  648.15   25.33
   2   0   6  679.10   26.69
  -2   0  -6  673.62   26.67
   2   0   6  640.39   25.34
   0   0   8    0.74    0.27
   0   0  -8    0.98    0.32
   0   0  -8    0.75    2.54
   0   0   8    2.25    2.96
   0   0  -8    0.66    0.30
   2   0 -10  397.76   15.27
   2   0 -10  377.81   15.27
  -2   0  10  411.29   15.27
  -2   0  10  401.18   18.08
   4   0 -12    0.43    0.54
   4   0 -12    1.11    0.54
   6   0 -14   56.94    2.65
   6   0 -14   60.45    2.70
   8   0 -16   -1.22    1.27
   8   0 -16    1.43    1.29
  13   1  -5   -0.08    1.63
  13   1  -5    1.48    1.31
  13  -1  -5    2.23    1.69
  13  -1  -5   -0.47    1.27
  11   1  -3   50.71    2.40
  11   1  -3   45.06    2.35
  11  -1  -3   48.02    2.35
  11  -1  -3   47.33    2.39
   9   1  -1    5.42    0.62
   9   1  -1    5.13    0.66
   9   1  -1    5.51    0.63
   9  -1  -1    4.50    0.63
   9  -1  -1    5.01    0.62
   9  -1  -1    4.03    0.57
   7   1   1   89.33    8.53
  -7   1  -1  114.47    9.90
   7   1   1  102.27    3.82
   7   1   1   96.66    3.79
   7   1   1   92.49    3.86
   7  -1   1   93.91    9.45
   7  -1   1   95.24    3.80
  -7  -1  -1   91.11    9.25
   7  -1   1   92.79    3.80
   7  -1   1   97.70    3.83
  -5   1  -3   81.45    6.65
   5   1   3   68.65    2.79
   5   1   3   86.28    7.63
   5   1   3   70.18    2.79
   5  -1   3   72.08    6.00
   5  -1   3   69.62    2.79
   5  -1   3   70.06    2.79
   5  -1   3   66.19    2.79
   3   1   5   78.31    3.25
   3   1   5  102.10    7.13
  -3   1  -5   77.40    3.24
  -3   1  -5   88.56    5.73
  -3  -1  -5   83.51    3.25
   3  -1   5   92.56    5.57
   3  -1   5   80.64    3.25
   3  -1   5   79.25    3.24
   1   1   7  189.93    9.22
  -1   1  -7  184.21    7.15
   1   1   7  181.39    7.15
  -1   1  -7  197.02    8.88
   1  -1   7  180.44    7.16
   1  -1   7  181.97    8.86
  -1  -1  -7  185.33    7.15
  -1  -1  -7  182.19    9.09
   1   1  -9   26.42    1.23
   1   1  -9   28.82    1.21
  -1   1   9   27.21    1.23
   1   1  -9   18.33    3.53
  -1   1   9   37.59    6.56
  -1  -1   9   27.45    1.21
   1  -1  -9   28.05    1.22
  -1  -1   9   33.46    4.58
   1  -1  -9   28.19    1.24
   1  -1  -9   24.12    4.01
   3   1 -11   91.46    3.72
   3   1 -11   91.04    3.70
   3  -1 -11   96.51    3.71
   3  -1 -11   93.46    3.71
   5   1 -13    6.09    0.74
   5   1 -13    6.23    0.91
   5  -1 -13    7.13    0.79
   5  -1 -13    4.89    0.78
   7   1 -15   29.93    1.96
   7   1 -15   25.65    1.93
   7  -1 -15   24.28    1.98
   7  -1 -15   28.45    2.11
   9  -1 -17    3.06    2.60
  12   2  -4    6.94    1.16
  12   2  -4    8.15    1.34
  12  -2  -4    6.76    1.14
  10   2  -2   16.15    1.58
  10   2  -2   11.79    1.16
  10   2  -2   13.49    1.19
  10  -2  -2   12.45    1.23
  10  -2  -2   13.17    1.23
  10  -2  -2   15.33    1.24
   8   2   0    5.92    0.58
   8   2   0    5.75    0.59
   8   2   0    7.17    0.73
   8  -2   0    5.18    7.28
   8  -2   0    6.90    0.79
   8  -2   0    6.75    0.74
   8  -2   0    5.92    0.57
   6   2   2   68.58    2.87
   6   2   2   70.87    2.90
   6   2   2   74.09    2.94
   6   2   2   72.04    2.88
   6   2   2   79.60    7.20
  -6   2  -2   78.14    7.88
   6  -2   2   74.30    2.89
   6  -2   2   70.65    2.88
   6  -2   2   70.61    2.88
  -6  -2  -2   84.42    7.72
   6  -2   2   71.89    7.48
  -4   2  -4   91.29    6.50
   4   2   4   94.19    3.63
   4   2   4   96.39    3.61
   4   2   4   96.14    7.72
   4  -2   4   89.09    3.61
   4  -2   4   88.51    6.11
   4  -2   4   90.37    3.62
  -4  -2  -4   95.32    6.68
  -2   2  -6  113.26    4.37
   2   2   6  113.58    4.37
  -2   2  -6  117.36    6.33
   2   2   6  113.59    6.76
  -2  -2  -6  109.02    4.36
   2  -2   6  115.09    4.35
  -2  -2  -6  114.18    6.82
   2  -2   6  104.22    6.28
   2  -2   6  108.75    4.36
   0   2  -8   58.11    4.97
   0   2  -8   60.40    2.44
   0   2   8   77.83    6.73
   0   2   8   60.53    2.45
   0   2   8   59.99    2.45
   0  -2   8   59.92    2.43
   0  -2  -8   61.71    6.02
   0  -2   8   60.87    5.51
  -2   2  10   11.16    5.77
   2   2 -10    5.40    0.48
   2   2 -10    0.57    3.72
  -2  -2  10    5.53    0.49
  -2  -2  10    5.10    4.67
   2  -2 -10    2.08    5.27
   2  -2 -10    5.46    0.51
   2  -2 -10    5.95    0.51
   4   2 -12   43.07    1.91
   4   2 -12   43.68    1.92
   4  -2 -12   45.10    1.95
   4  -2 -12   40.72    1.98
   6   2 -14    6.83    1.12
   6   2 -14    6.99    0.93
   6  -2 -14    9.18    1.03
   6  -2 -14    8.39    0.95
   8   2 -16   13.67    1.53
   8   2 -16   18.05    1.49
   8  -2 -16   18.07    2.09
  13   3  -5   18.42    2.27
  13   3  -5   19.30    1.81
  13  -3  -5   18.22    2.12
  11   3  -3    1.73    1.01
  11   3  -3    1.75    0.92
  11   3  -3    1.49    0.90
  11  -3  -3    0.28    0.90
  11  -3  -3    0.44    0.84
   9   3  -1   63.57    2.76
   9   3  -1   67.08    2.81
   9   3  -1   66.52    2.75
   9  -3  -1   66.22    2.77
   9  -3  -1   64.35    2.75
   7   3   1    6.54    0.69
   7   3   1    7.10    0.69
   7   3   1    6.61    0.69
  -7   3  -1   11.15   10.62
   7   3   1    6.92    0.71
   7  -3   1    3.72    8.27
   7  -3   1    6.07    0.67
   7  -3   1    6.05    0.52
   7  -3   1    5.84    0.64
   5   3   3  195.50    7.30
  -5   3  -3  191.04   10.21
   5   3   3  188.17    7.24
   5   3   3  186.28    7.23
   5   3   3  175.21    9.79
   5  -3   3  178.75    7.23
  -5  -3  -3  200.89   10.36
   5  -3   3  181.98    7.24
   3   3   5   29.55    6.72
   3   3   5   25.54    1.15
  -3   3  -5   27.16    1.17
  -3   3  -5   27.62    4.46
   3   3   5   27.60    1.19
   3   3   5   26.21    1.17
   3  -3   5   26.76    1.13
   3  -3   5   26.57    4.26
   3  -3   5   26.58    1.18
  -1   3  -7  165.80    6.58
   1   3   7  164.15    9.22
  -1   3  -7  161.87    8.20
   1   3   7  180.34    6.61
   1  -3   7  163.23    6.58
  -1  -3  -7  194.15   10.40
   1  -3   7  165.50    8.32
   1   3  -9   33.49    5.01
  -1   3   9   35.31    1.49
   1   3  -9   33.33    1.48
  -1   3   9   34.06    5.58
  -1   3   9   32.96    1.48
   1  -3  -9   39.42    5.80
  -1  -3   9   35.31    1.47
  -1  -3   9   37.06    5.91
   3  -3 -11    0.90    7.74
   5   3 -13   44.60    2.01
   5  -3 -13   38.91    2.04
   7   3 -15    1.55    1.03
   7   3 -15    2.41    1.09
   7  -3 -15    2.61    1.06
   9   3 -17   14.95    1.71
   9   3 -17   17.67    1.92
   9  -3 -17   16.99    1.85
  12   4  -4   24.01    2.20
  12  -4  -4   24.50    1.99
  10   4  -2   11.05    1.00
  10   4  -2   11.60    1.27
  10   4  -2   10.78    1.22
  10  -4  -2   11.93    1.30
  10  -4  -2   11.95    1.27
  -8   4   0  139.02   15.59
   8   4   0  127.47    5.04
   8   4   0  128.65    5.09
   8   4   0  129.41    5.02
   8  -4   0  125.61   15.20
   8  -4   0  121.12    5.03
   8  -4   0  126.39    5.02
   8  -4   0  128.12    5.02
  -6   4  -2   10.29    5.46
   6   4   2   12.70    0.77
   6   4   2   11.80    0.81
   6   4   2   11.91    0.77
   6   4   2   11.34    4.86
   6  -4   2   12.01    0.75
   6  -4   2   11.57    0.72
   6  -4   2   10.03    5.48
  -6  -4  -2    9.37    5.77
   4   4   4  190.98    7.80
  -4   4  -4  199.31    7.81
   4   4   4  218.88   10.41
  -4   4  -4  199.45    7.78
   4   4   4  202.45    7.86
  -4   4  -4  210.89   10.27
   4   4   4  200.60    7.80
   4  -4   4  198.59   10.21
   4  -4   4  195.60    7.81
  -4  -4  -4  220.12   10.59
   4  -4   4  194.14    7.80
  -2   4  -6    2.95    0.35
  -2   4  -6    1.83    0.31
  -2   4  -6    0.21    2.79
   2   4   6    2.08    0.35
   2   4   6    1.55    0.28
   2   4   6    6.16    3.57
   2  -4   6    1.08    0.27
   2  -4   6    2.26    2.83
  -2  -4  -6    4.82    4.50
   0   4  -8  379.57   14.71
   0   4   8  383.71   14.73
   0   4  -8  385.61   16.01
   0   4   8  369.25   14.71
   0   4   8  398.47   17.58
   0  -4   8  372.96   14.71
   0  -4  -8  392.31   14.69
   0  -4   8  376.74   16.25
   2   4 -10    3.80    0.51
   2   4 -10    1.50    3.44
   2   4 -10    2.81    0.47
   2  -4 -10    1.18    6.80
  -2  -4  10    2.73    0.48
   4   4 -12  155.39    6.03
   4   4 -12  154.51    6.01
   4  -4 -12  148.83    6.04
   6   4 -14    0.82    0.83
   6   4 -14    2.23    0.94
   6  -4 -14    1.40    0.89
   8   4 -16   33.05    2.22
   8   4 -16   27.77    2.43
   8  -4 -16   26.70    2.49
  13   5  -5    3.82    1.72
  13   5  -5    2.96    1.58
  13  -5  -5    5.78    1.50
  11   5  -3   19.93    1.74
  11   5  -3   18.25    1.76
  11   5  -3   21.34    1.77
  11  -5  -3   18.11    1.66
  11  -5  -3   18.01    1.73
   9   5  -1   19.45    1.30
   9   5  -1   19.65    1.37
   9  -5  -1   20.30    1.30
   9  -5  -1   19.09    1.31
   7   5   1   45.92    2.10
   7   5   1   49.89    2.05
   7   5   1   47.35    2.07
   7  -5   1   50.68    8.71
   7  -5   1   48.76    2.03
   7  -5   1   48.56    2.06
   5   5   3   52.72    2.18
   5   5   3   56.75    7.09
  -5   5  -3   51.20    2.14
  -5   5  -3   46.87    7.17
   5   5   3   56.43    2.16
   5   5   3   54.07    2.24
   5  -5   3   51.15    2.16
   5  -5   3   59.63    7.24
  -5  -5  -3   62.16    7.94
   5  -5   3   50.94    2.17
   3   5   5   59.22    2.39
  -3   5  -5   59.31    2.31
   3   5   5   58.62    6.81
   3   5   5   59.25    2.34
   3   5   5   59.33    2.33
  -3   5  -5   57.73    2.34
   3  -5   5   55.64    5.75
   3  -5   5   53.64    2.33
  -3  -5  -5   56.57    6.72
  -1   5  -7   88.46    3.60
  -1   5  -7   87.94    3.59
  -1   5  -7   84.75    6.01
   1   5   7   95.22    3.65
   1   5   7  117.92    9.91
   1  -5   7   87.68    3.61
  -1  -5  -7   90.21    8.46
   1  -5   7   93.08    6.28
  -1  -5  -7   96.11    3.61
   1   5  -9   61.08    5.32
  -1   5   9   74.33    9.97
  -1   5   9   50.36    2.38
   1   5  -9   59.10    2.35
   1   5  -9   54.97    2.38
   1  -5  -9   60.30    2.39
   1  -5  -9   75.06   11.73
  -1  -5   9   60.90    2.38
  -1  -5   9   63.73    6.17
   3   5 -11   35.61    1.60
   3   5 -11   32.82    1.62
   5   5 -13   19.71    1.40
   5   5 -13   19.81    1.40
   5  -5 -13   17.22    1.52
   7   5 -15    5.20    1.48
   7   5 -15    5.00    1.08
  -7   5  15    7.48    1.81
   7  -5 -15    5.49    1.27
  12   6  -4    9.06    1.42
  12   6  -4    8.52    1.47
  12  -6  -4    5.87    1.38
  12  -6  -4    6.87    1.34
  10   6  -2   10.29    1.06
  10   6  -2   12.63    1.49
  10   6  -2   12.08    1.35
  10  -6  -2   10.24    1.02
  10  -6  -2   11.29    1.04
   8   6   0    0.82    0.48
   8   6   0    0.95    0.64
   8   6   0    1.31    0.62
   8  -6   0    0.76    0.62
   8  -6   0    0.53    0.51
   6   6   2   82.68    3.42
   6   6   2   84.32    3.45
   6   6   2   85.72    3.39
   6  -6   2   85.92    3.39
   6  -6   2   70.36   10.65
   6  -6   2   87.72    3.39
  -4   6  -4   13.06    0.80
   4   6   4    7.90    4.94
   4   6   4   11.51    0.80
  -4   6  -4   12.57    0.73
   4   6   4   11.33    0.79
  -4   6  -4    0.21    4.61
   4   6   4   13.95    0.76
   4  -6   4   12.35    4.50
   4  -6   4   13.31    0.74
   4  -6   4   13.25    0.74
  -4  -6  -4   21.17    5.80
  -2   6  -6  160.97    8.54
  -2   6  -6  155.31    6.17
   2   6   6  147.86    6.16
  -2   6  -6  155.24    6.16
   2   6   6  161.36    6.23
   2   6   6  179.68   10.55
  -2  -6  -6  153.72    6.16
   2  -6   6  160.82    8.80
  -2  -6  -6  190.59   12.30
   2  -6   6  151.25    6.18
   0   6   8    2.00    0.46
   0   6   8    1.56    6.03
   0   6  -8    1.32    0.42
   0   6  -8    1.71    0.34
   0  -6  -8   -0.52   10.15
   0  -6   8    2.14    0.39
   0  -6   8    4.88    3.74
   0  -6  -8    2.35    0.46
   2   6 -10   38.87    1.85
  -2  -6  10   43.35    1.85
   2  -6 -10   44.46    1.88
   2  -6 -10   35.65   12.52
   4   6 -12    4.10    0.76
   4   6 -12    2.38    0.61
   4  -6 -12    3.71    0.74
   6   6 -14   21.97    1.81
   6   6 -14   23.26    1.76
  -6   6  14   22.93    2.42
   6  -6 -14   22.82    1.94
   8   6 -16    4.49    1.65
   8   6 -16    4.66    1.33
   8  -6 -16    5.12    1.55
  13   7  -5    0.21    1.90
  13   7  -5    0.41    1.71
  13  -7  -5    0.94    1.65
  11   7  -3   38.28    2.46
  11   7  -3   48.45    2.95
  11   7  -3   39.97    2.63
  11  -7  -3   50.49    3.23
  11  -7  -3   40.07    2.48
   9   7  -1   -0.53    0.78
   9   7  -1   -0.24    0.62
   9   7  -1    0.33    0.85
   9  -7  -1    0.73    0.72
   7   7   1   78.04    3.24
   7   7   1   73.20    3.25
   7   7   1   82.50    3.21
   7  -7   1   75.27    3.18
   7  -7   1   81.16    3.20
   5   7   3   11.36    0.83
   5   7   3   12.32    0.89
  -5   7  -3   11.44    0.81
  -5   7  -3    1.59    5.84
  -5   7  -3   10.41    0.77
   5  -7   3    9.18    0.76
   5  -7   3    7.00    6.02
   5  -7   3    9.17    0.78
   3   7   5   94.54    3.70
  -3   7  -5   96.62    3.69
   3   7   5  101.41    3.90
   3   7   5   76.03    9.42
   3   7   5   91.57    3.72
   3  -7   5   89.22    3.72
   3  -7   5   93.88    3.71
   3  -7   5  101.41   10.75
  -3  -7  -5   93.11    3.71
   1   7   7   34.24    9.33
  -1   7  -7   32.09    4.14
   1   7   7   29.81    1.46
  -1   7  -7   31.94    1.40
  -1   7  -7   31.35    1.35
  -1  -7  -7   27.69    7.16
   1  -7   7   30.77    1.39
  -1  -7  -7   31.61    1.43
   1   7  -9   21.64    1.18
   1   7  -9   23.43    1.08
  -1   7   9   21.73    1.24
   1  -7  -9   23.49    1.24
   1  -7  -9   19.14   11.60
  -1  -7   9   22.70    1.14
   3   7 -11   33.41    1.63
   3  -7 -11   31.81    1.75
   5   7 -13    9.39    1.09
  -5   7  13    8.06    1.14
   5   7 -13   10.52    0.95
   5  -7 -13    9.93    1.06
  -7   7  15   17.08    2.24
   7   7 -15   14.88    1.35
   7   7 -15   14.08    1.56
   7  -7 -15   15.53    1.54
  12   8  -4    6.68    1.66
  12   8  -4    5.37    1.58
  12  -8  -4    7.83    1.51
  12  -8  -4    7.29    1.57
  10   8  -2   30.55    2.10
  10   8  -2   29.78    2.11
  10   8  -2   27.35    1.94
  10  -8  -2   31.67    2.00
  10  -8  -2   28.73    2.09
   8   8   0   22.11    1.37
   8   8   0   19.49    1.46
   8   8   0   21.75    1.47
   8  -8   0   20.95    1.83
   8  -8   0   17.16    1.37
  -6   8  -2   63.97    2.64
  -6   8  -2   67.29    2.66
   6   8   2   69.08    2.71
   6   8   2   65.04    2.68
   6   8   2   57.71    2.71
   6  -8   2   61.25    2.65
   6  -8   2   61.71    2.66
   4   8   4   14.26    0.99
   4   8   4   13.63    0.96
  -4   8  -4   14.21    0.97
   4   8   4   13.60    0.93
  -4   8  -4   -0.24    5.68
  -4   8  -4   11.38    0.83
   4  -8   4   11.70    0.87
   4  -8   4   12.31    0.84
   4  -8   4   10.00    6.58
   2   8   6   70.08    2.84
  -2   8  -6   65.05    2.84
   2   8   6   72.24    2.93
  -2   8  -6   68.31    2.82
   2   8   6   70.45    2.86
   2  -8   6   64.17    7.78
   2  -8   6   73.07    2.86
   2  -8   6   72.65    2.84
  -2  -8  -6   71.96    2.85
   0   8  -8   33.03    1.53
   0   8   8   33.70    1.60
   0   8  -8   31.89    1.55
   0   8   8   32.66    1.56
   0   8  -8   33.05    1.46
   0  -8   8   33.19    1.52
   0  -8  -8   33.53    1.57
   2   8 -10   70.48    2.97
   2   8 -10   75.13    3.02
  -2   8  10   72.81    3.07
   2  -8 -10   71.02    3.07
  -2  -8  10   75.28    3.04
  -4   8  12   18.58    1.70
   4  -8 -12   15.19    1.64
   4  -8 -12   16.19    1.21
   6   8 -14   11.87    1.21
  -6   8  14   13.16    1.73
   6   8 -14   13.64    1.48
   6  -8 -14   14.52    1.46
  11   9  -3    4.21    1.42
  11   9  -3    1.55    1.41
  11   9  -3    1.69    1.27
  11  -9  -3    1.83    1.38
  11  -9  -3    1.33    1.37
  -9   9   1   36.12    2.08
   9   9  -1   41.82    2.21
   9   9  -1   33.68    2.04
   9   9  -1   37.90    2.13
   9  -9  -1   31.32    2.05
   9  -9  -1   36.44    2.28
  -7   9  -1    8.20    0.86
  -7   9  -1    8.19    0.83
   7   9   1    9.72    1.06
   7   9   1    9.66    1.19
   7  -9   1    9.01    0.83
   7  -9   1    9.21    0.81
   5   9   3   45.07    2.16
   5   9   3   51.51    2.18
  -5   9  -3   50.63    2.12
   5   9   3   49.55    2.18
  -5   9  -3   45.53    2.07
   5  -9   3   49.60    2.11
   5  -9   3   46.99    2.10
   3   9   5   13.77    1.02
   3   9   5   14.26    1.01
  -3   9  -5   12.35    0.86
  -3   9  -5   11.36    0.94
   3   9   5   13.81    1.05
  -3  -9  -5   11.08    0.94
   3  -9   5   14.15    0.92
   3  -9   5   13.31    0.93
  -1   9  -7   52.00    2.12
  -1   9  -7   49.67    2.20
  -1   9  -7   48.41    2.17
   1   9   7   49.46    2.18
   1   9   7   51.31    2.26
  -1   9  -7   42.09    6.44
   1  -9   7   53.54    2.17
   1  -9   7   51.50    2.16
   1  -9   7   55.57    9.33
  -1  -9  -7   50.84    2.19
  -1   9   9   31.91    1.84
  -1   9   9   34.37    1.74
   1   9  -9   34.68    1.67
   1   9  -9   37.03    1.70
   1   9  -9   30.85    1.58
  -1  -9   9   38.89    1.66
   1  -9  -9   34.72    1.73
  -3   9  11   16.06    1.52
   3   9 -11   14.84    1.22
   3   9 -11   17.57    1.29
   3  -9 -11   16.47    1.53
   5   9 -13   16.38    1.55
  -5   9  13   14.90    1.46
   5  -9 -13   12.12    1.38
   5  -9 -13   15.57    1.40
   7   9 -15    3.45    1.28
   7  -9 -15    3.89    1.63
  10  10  -2    1.39    1.29
  10  10  -2    1.85    1.34
  10  10  -2    0.98    1.11
  10 -10  -2    1.46    1.20
   8  10   0   19.30    1.76
   8  10   0   19.17    1.56
  -8  10   0   18.88    1.74
   8 -10   0   19.50    1.68
   8 -10   0   21.26    1.59
   6  10   2    0.83    0.57
  -6  10  -2    0.14    0.70
   6  10   2    0.03    0.82
  -6  10  -2    0.07    0.67
   6  10   2    1.15    0.78
   6 -10   2    0.10    0.63
   6 -10   2    0.06    0.63
   4  10   4   88.86    3.68
  -4  10  -4   88.47    3.61
   4  10   4   95.06    3.67
   4  10   4   87.43    3.73
  -4  10  -4   89.15    3.64
   4 -10   4   90.04    3.68
  -4 -10  -4   91.94    3.65
   4 -10   4   84.97    3.62
  -2  10  -6    0.29    0.55
   2  10   6    0.18    0.66
   2  10   6    0.72    0.61
   2  10   6    1.23    0.60
  -2  10  -6   -0.11    0.45
   2 -10   6    0.36    0.55
   2 -10   6    0.70    0.52
  -2 -10  -6   -0.21    0.61
   0  10   8   76.26    3.07
   0  10  -8   69.01    3.06
   0  10  -8   75.04    2.98
   0  10   8   66.26    3.11
   0  10  -8   75.33    3.03
   0 -10   8   76.10    3.05
   2  10 -10    3.96    0.69
   2  10 -10    2.64    0.75
   2  10 -10    2.84    0.62
  -2  10  10    3.56    0.84
   2 -10 -10    1.38    0.87
  -4  10  12   35.14    2.38
   4  10 -12   31.69    1.91
   4 -10 -12   33.29    2.29
   4 -10 -12   35.09    2.30
   6  10 -14    0.99    1.28
  -6  10  14    1.30    1.87
   6 -10 -14    2.68    1.52
   6 -10 -14    1.73    1.49
  11  11  -3    0.77    1.85
  11  11  -3    0.58    1.43
  11 -11  -3   -1.36    2.72
  11 -11  -3   -0.83    1.83
   9  11  -1   24.51    2.10
   9  11  -1   18.60    1.71
   9 -11  -1   20.84    2.32
   9 -11  -1   18.58    1.70
   7  11   1    2.08    0.99
   7  11   1    0.36    1.14
   7  11   1    0.83    0.80
  -7  11  -1    1.24    0.97
   7 -11   1    1.48    0.87
   7 -11   1    0.91    0.86
   5  11   3   48.73    2.27
   5  11   3   45.27    2.23
  -5  11  -3   45.56    2.09
   5  11   3   44.27    2.19
  -5 -11  -3   44.89    2.14
   5 -11   3   44.34    2.12
   5 -11   3   42.86    2.12
  -3  11  -5    9.04    0.98
   3  11   5   10.68    0.87
   3  11   5    9.16    1.09
   3  11   5   11.02    1.28
   3 -11   5    7.92    0.77
  -3 -11  -5   10.30    0.85
  -1  11  -7   25.40    1.35
  -1  11  -7   24.95    1.44
  -1  11  -7   28.54    1.46
   1  11   7   24.23    1.56
   1  11   7   24.11    1.55
  -1 -11  -7   26.27    1.52
   1 -11   7   24.58    1.44
   1  11  -9    7.32    0.81
  -1  11   9    4.90    0.99
  -1  11   9    5.69    0.92
   1  11  -9    7.75    0.84
   1  11  -9    7.17    0.72
   1 -11  -9    6.60    0.92
  -1 -11   9    6.92    0.85
  -3  11  11    9.44    1.26
   3  11 -11    9.88    0.98
   3  11 -11   10.07    0.95
   3 -11 -11   11.65    1.22
  -5  11  13   11.34    1.73
   5  11 -13   11.12    1.24
   5 -11 -13   12.37    1.56
   5 -11 -13   13.13    1.56
  10  12  -2   13.91    1.91
  10  12  -2   15.41    1.85
  10 -12  -2   17.35    1.73
   8  12   0   10.19    1.19
   8 -12   0   12.16    1.36
  -6  12  -2   25.28    1.80
   6  12   2   28.38    1.74
   6  12   2   28.61    1.94
   6  12   2   29.82    2.08
   6 -12   2   26.68    1.76
  -6 -12  -2   27.99    1.82
   6 -12   2   25.71    1.77
   4  12   4    7.06    0.99
  -4  12  -4    6.20    0.77
   4  12   4    7.45    0.96
   4  12   4    4.90    0.85
  -4 -12  -4    5.77    0.89
   4 -12   4    6.21    0.82
   4 -12   4    7.75    0.83
   2  12   6   29.86    1.77
  -2  12  -6   30.82    1.75
  -2  12  -6   30.39    1.60
   2  12   6   32.83    1.81
   2 -12   6   29.76    1.70
  -2 -12  -6   28.22    1.78
   2 -12   6   30.43    1.67
   0  12  -8   10.96    1.10
   0  12  -8    9.38    1.28
   0  12   8   11.24    1.02
   0  12  -8   12.09    1.32
   0  12   8    9.53    1.41
   0 -12   8   10.47    0.95
   0 -12  -8    8.34    1.03
   2  12 -10   38.33    2.08
  -2  12  10   35.97    2.37
   2  12 -10   38.96    2.06
   2  12 -10   31.96    1.94
  -2 -12  10   38.19    2.21
   2 -12 -10   37.69    2.52
   2 -12 -10   41.22    2.28
  -4  12  12    6.31    1.53
   4  12 -12    4.04    1.06
   4 -12 -12    4.89    1.38
   4 -12 -12    4.88    1.46
   9  13  -1    1.81    1.18
   9  13  -1    3.44    1.61
  -9 -13   1    2.82    1.57
   9 -13  -1    3.07    1.43
   9 -13  -1    0.65    1.77
  -7  13  -1   28.13    2.35
   7  13   1   27.17    2.29
   7  13   1   22.69    1.86
   7 -13   1   31.70    2.32
  -7 -13  -1   25.94    2.11
   5  13   3    3.03    1.12
   5  13   3    1.68    0.89
   5  13   3    2.32    1.11
  -5  13  -3    1.41    0.85
   5 -13   3    3.33    0.92
  -5 -13  -3    2.07    0.99
   5 -13   3    1.80    0.91
   3  13   5   21.86    1.64
  -3  13  -5   22.97    1.50
   3  13   5   23.78    1.86
  -3 -13  -5   23.93    1.76
   3 -13   5   22.25    1.63
   3 -13   5   22.05    1.58
   1  13   7   10.70    1.13
   1  13   7    9.43    1.15
  -1  13  -7   10.58    0.90
   1 -13   7    8.79    1.05
   1 -13   7   12.21    1.03
  -1 -13  -7   13.19    1.12
   1  13  -9   21.60    1.77
  -1  13   9   23.66    2.07
  -1  13   9   16.30    2.07
   1  13  -9   22.49    1.54
   1  13  -9   22.24    1.58
   1 -13  -9   21.04    2.16
   1 -13  -9   20.67    1.94
  -1 -13   9   21.24    1.77
   3  13 -11   15.23    1.26
   3  13 -11   14.57    1.26
  -3  13  11   12.02    1.63
   3 -13 -11   14.87    1.57
  -5  13  13    1.31    2.09
   5  13 -13    1.49    1.37
   5 -13 -13    2.60    2.24
   5 -13 -13    2.76    1.74
   8  14   0    0.96    1.14
   8  14   0    1.62    1.63
  -8 -14   0    2.15    1.57
   8 -14   0    0.33    1.44
   8 -14   0   -1.17    1.57
   6  14   2   15.38    1.69
   6  14   2   15.00    1.82
   6  14   2   18.25    2.17
  -6  14  -2   17.61    1.39
  -6 -14  -2   14.93    1.49
   6 -14   2   18.42    1.93
   6 -14   2   17.61    1.97
   4  14   4    1.45    1.18
   4  14   4    0.56    0.96
  -4  14  -4    1.08    0.85
  -4 -14  -4    0.09    1.10
   4 -14   4   -0.20    0.94
   4 -14   4    1.28    1.00
   2  14   6   38.06    2.31
  -2  14  -6   38.96    1.96
   2  14   6   33.31    2.13
  -2 -14  -6   33.63    2.24
   2 -14   6   31.94    2.06
   2 -14   6   36.15    2.14
   0  14   8    0.56    1.68
   0  14  -8    0.36    0.99
   0  14   8    0.61    1.25
   0 -14  -8    0.79    1.56
   0 -14   8    0.40    1.04
   2  14 -10   20.64    1.83
  -2  14  10   20.21    1.71
  -2 -14  10   20.23    2.35
   2 -14 -10   21.44    1.67
   2 -14 -10   20.04    1.99
  -4  14  12   -1.11    2.42
   7  15   1    4.37    1.28
   7  15   1    6.76    1.71
  -7  15  -1    2.30    2.24
   7 -15   1    6.16    1.49
  -7 -15  -1    4.21    1.57
   7 -15   1    4.83    1.49
   5  15   3    5.83    1.54
  -5  15  -3    3.45    1.12
   5  15   3    3.33    1.16
   5 -15   3    6.05    1.23
  -5 -15  -3    6.31    1.34
   5 -15   3    4.79    1.22
  -3  15  -5   16.25    1.67
   3  15   5   17.06    1.51
   3  15   5   15.81    1.72
   3 -15   5   17.27    1.91
   3 -15   5   15.19    1.37
  -3 -15  -5   16.99    1.48
   1  15   7    0.19    1.24
  -1  15  -7    0.68    0.93
   1  15   7    1.39    1.25
  -1 -15  -7    1.10    1.29
   1 -15   7    2.20    1.19
   1 -15   7    2.19    1.27
   1  15  -9    9.55    1.18
  -1  15   9   10.27    1.51
  -1 -15   9    9.28    1.48
   1 -15  -9    8.95    1.49
   1 -15  -9    7.74    1.76
  -3  15  11   -0.32    1.84
   3  15 -11    0.52    1.45
   3 -15 -11    1.74    1.76
   6  16   2    0.68    1.25
   6  16   2   -0.26    2.02
  -6  16  -2   -0.07    1.59
   4  16   4   22.97    2.04
  -4  16  -4   27.22    2.11
   4  16   4   28.11    2.78
  -4 -16  -4   28.12    2.51
   4 -16   4   26.08    2.41
   4 -16   4   26.70    2.39
   2  16   6   -0.10    1.90
   2  16   6    0.89    1.42
  -2  16  -6    0.30    1.06
   2 -16   6    0.02    1.40
  -2 -16  -6    0.09    1.44
   2 -16   6    0.01    1.31
   0  16   8   22.81    2.65
   0  16  -8   27.95    2.10
   0  16   8   28.26    2.62
   0 -16   8   28.76    2.53
   0 -16  -8   30.53    2.65
   0 -16  -8   21.85    2.08
   3  17   5    3.26    1.46
  -3  17  -5    2.76    1.31
   3  17   5    0.77    1.72
   3 -17   5    2.43    1.63
  -3 -17  -5    3.22    1.68
   3 -17   5    4.35    1.56
  14   0  -5   -0.85    1.68
  12   0  -3   -0.33    1.11
  12   0  -3    0.44    1.03
  10   0  -1   -0.12    0.81
  10   0  -1   -0.07    0.67
  10   0  -1    0.37    0.64
   8   0   1   -0.05    0.46
   8   0   1   -0.02    0.46
   6   0   3   -0.12    0.33
  -6   0  -3    0.78    5.61
   6   0   3   -0.17    0.35
   6   0   3    0.03    0.34
   6   0   3   -0.70    6.15
   4   0   5   -0.19    0.28
  -4   0  -5   -0.99    3.80
   4   0   5    0.54    3.40
   4   0   5    0.26    0.30
   2   0   7   -0.06    0.28
   2   0   7    0.99    2.76
  -2   0  -7   -0.48    4.11
  -2   0  -7   -0.02    0.35
   0   0  -9    0.02    0.38
   0   0   9   -0.16    0.31
   0   0   9    0.32    3.90
   0   0  -9    0.02    0.34
   0   0  -9   -0.55    3.62
   2   0 -11    1.13    5.22
  -2   0  11    4.35    6.78
   2   0 -11    0.21    0.44
   4   0 -13    0.03    0.64
   4   0 -13   -0.59    0.63
   6   0 -15    0.55    0.94
   6   0 -15    0.05    0.97
   8   0 -17    0.71    1.49
   8   0 -17   -0.39    1.52
  13   1  -4    0.77    1.67
  13   1  -4    0.18    1.33
  13  -1  -4    0.38    1.29
  11   1  -2   19.03    1.75
  11   1  -2   17.35    1.55
  11   1  -2   22.70    1.59
  11  -1  -2   18.93    1.55
  11  -1  -2   16.27    1.53
   9   1   0   15.39    1.20
   9   1   0   13.48    1.08
   9   1   0   16.38    1.13
   9  -1   0   13.90    1.10
   7   1   2   16.07    0.96
   7   1   2   15.83    0.93
   7   1   2   13.84    5.67
  -7   1  -2   19.36    7.28
   7  -1   2   16.25    0.95
  -7  -1  -2   19.55    7.34
   7  -1   2   10.76    5.93
   7  -1   2   18.23    0.91
   7  -1   2   15.68    0.93
   5   1   4   15.19    0.86
   5   1   4   18.07    0.85
  -5   1  -4   38.52    8.08
   5   1   4   16.66    4.36
   5  -1   4   22.39    7.86
  -5  -1  -4   15.58    4.73
   5  -1   4   17.03    0.85
   5  -1   4   15.68    0.85
   5  -1   4   17.81    0.86
   3   1   6   54.99    2.24
   3   1   6   60.18    5.83
  -3   1  -6   61.30    5.82
  -3   1  -6   56.17    2.25
   3  -1   6   51.76    5.49
  -3  -1  -6   55.07    2.25
   3  -1   6   55.37    2.23
  -3  -1  -6   58.36    6.07
   3  -1   6   55.15    2.24
  -1   1  -8    0.39    3.29
  -1   1  -8   -0.25    0.32
   1   1   8    1.34    4.26
   1   1   8    0.33    0.29
  -1  -1  -8   -0.07    0.29
   1  -1   8    1.06    0.30
   1  -1   8   -0.68    3.02
  -1  -1  -8   -1.03    6.69
   1   1 -10    1.42    0.40
  -1   1  10    4.19    5.40
   1   1 -10    1.58    4.19
   1   1 -10    2.50    0.42
  -1   1  10    2.07    0.43
  -1  -1  10    1.33    5.14
   1  -1 -10    2.08    0.41
   1  -1 -10   -0.08    4.40
   1  -1 -10    1.35    0.42
  -1  -1  10    2.62    0.38
   3   1 -12    0.21    0.51
   3   1 -12    1.12    0.53
   3  -1 -12    1.58    0.53
   3  -1 -12    0.85    0.54
   5   1 -14   -0.44    0.75
   5   1 -14   -0.08    0.77
   5  -1 -14    0.16    0.79
   5  -1 -14    0.42    0.82
   7   1 -16    4.20    1.72
   7   1 -16    2.23    1.17
   7  -1 -16    5.16    1.22
   7  -1 -16    4.89    1.31
  14   2  -5   -0.12    1.74
  12   2  -3   -0.07    1.11
  12   2  -3   -0.09    1.09
  12   2  -3    0.21    1.25
  12  -2  -3    0.84    1.06
  12  -2  -3    0.18    1.24
  10   2  -1    3.03    0.71
  10   2  -1    2.65    0.71
  10   2  -1    4.13    0.86
  10  -2  -1    1.77    0.72
  10  -2  -1    2.96    0.75
  10  -2  -1    2.31    0.71
   8   2   1   13.50    1.01
   8   2   1   13.36    0.99
   8   2   1   12.92    0.94
   8  -2   1    9.77    9.01
   8  -2   1   13.75    0.93
   8  -2   1   13.54    0.96
   8  -2   1   13.72    0.94
  -6   2  -3   50.24    6.87
   6   2   3   30.75    1.37
   6   2   3   27.99    4.96
   6   2   3   30.71    1.39
   6   2   3   33.29    1.38
   6   2   3   30.92    1.53
   6  -2   3   29.64    5.78
   6  -2   3   31.34    1.37
   6  -2   3   30.02    1.36
   6  -2   3   30.76    1.38
  -4   2  -5   57.96    2.49
   4   2   5   61.16    6.55
   4   2   5   62.06    2.49
   4   2   5   60.45    2.46
  -4  -2  -5   67.78    7.22
   4  -2   5   65.29    2.46
   4  -2   5   60.12    2.48
   4  -2   5   71.02    6.19
  -2   2  -7   88.66    6.43
   2   2   7   92.72    7.01
   2   2   7   88.67    3.57
  -2   2  -7   90.48    3.58
   2  -2   7   87.18    3.57
  -2  -2  -7  100.85    7.26
   2  -2   7   96.98    6.58
  -2  -2  -7   89.72    3.57
   0   2  -9   82.95    3.38
   0   2   9   96.64    8.69
   0   2   9   86.37    3.39
   0   2  -9   79.99    6.60
   0   2   9   83.68    3.37
   0  -2  -9   83.51    3.37
   0  -2   9   84.46    3.37
   0  -2   9   89.09    7.33
   0  -2  -9   91.53    8.13
  -2   2  11   59.31    2.38
   2   2 -11   55.64    2.33
   2   2 -11   54.01    2.36
   2  -2 -11   54.61    2.38
   2  -2 -11   58.07    2.37
  -2  -2  11   58.09    2.37
  -2  -2  11   58.24    9.71
   4   2 -13   39.02    1.79
   4   2 -13   33.70    1.79
   4  -2 -13   36.85    1.82
   6   2 -15   18.18    1.74
   6   2 -15   17.33    1.65
   6  -2 -15   18.46    1.73
   6  -2 -15   17.93    1.89
   8   2 -17    7.05    1.64
   8   2 -17    7.03    1.46
   8  -2 -17    6.13    1.48
  13   3  -4    3.04    1.70
  13   3  -4    3.72    1.45
  13  -3  -4    2.57    1.34
  11   3  -2   -0.01    1.02
  11   3  -2   -0.22    1.03
  11   3  -2    0.19    0.92
  11  -3  -2   -0.67    0.85
  11  -3  -2    0.54    0.94
   9   3   0    4.09    0.72
   9   3   0    2.22    0.64
   9   3   0    2.54    0.60
   9  -3   0    3.14    0.62
   9  -3   0    2.73    0.67
   9  -3   0    3.10    0.73
  -7   3  -2   11.10    8.74
   7   3   2    4.44    0.53
   7   3   2    5.00    0.65
   7   3   2    5.10    0.52
   7   3   2    4.46    0.51
   7  -3   2    4.45    0.47
   7  -3   2    2.94    7.64
   7  -3   2    5.16    0.48
   7  -3   2    3.74    0.49
   5   3   4    2.70    0.40
   5   3   4    4.44    0.42
   5   3   4    2.79    4.31
  -5   3  -4    5.04    4.70
   5   3   4    4.61    0.41
   5  -3   4    3.13    0.35
   5  -3   4    3.71    0.39
   5  -3   4    4.15    4.24
  -5  -3  -4    6.28    4.82
   3   3   6   12.73    0.73
   3   3   6   12.06    0.73
   3   3   6   10.59    0.70
  -3   3  -6   12.11    0.74
  -3   3  -6   15.24    4.02
   3   3   6    9.16    3.85
   3  -3   6   12.18    0.69
  -3  -3  -6   18.13    5.23
   3  -3   6   11.41    3.42
   3  -3   6   12.07    0.66
   1   3   8    5.50    0.62
   1   3   8    7.42    0.63
  -1   3  -8    6.05    0.53
   1   3   8    5.71    4.41
  -1   3  -8    5.42    3.73
  -1  -3  -8    3.80    4.45
   1  -3   8    3.96    3.31
   1  -3   8    7.03    0.57
  -1   3  10    3.32    0.47
  -1   3  10    3.76    6.58
   1   3 -10    2.90    0.42
   1   3 -10    0.80    4.12
  -1  -3  10    7.08    5.11
   1  -3 -10    0.80    5.41
  -1  -3  10    3.09    0.45
   3   3 -12    3.50    0.56
   3   3 -12    3.76    0.61
   3  -3 -12    5.21    0.62
   5   3 -14    3.45    0.87
   5   3 -14    3.25    1.15
   5  -3 -14    2.80    0.83
   7   3 -16    0.02    1.26
   7   3 -16    0.19    1.14
   7  -3 -16    0.24    1.19
  12   4  -3   -0.22    1.21
  12   4  -3    0.26    1.20
  12  -4  -3   -0.03    1.49
  12  -4  -3   -0.09    1.12
  10   4  -1   -0.29    0.76
  10   4  -1    0.10    0.68
  10   4  -1   -0.58    0.89
  10  -4  -1    0.49    0.75
  10  -4  -1    0.16    0.71
   8   4   1    0.14    0.48
   8   4   1    1.48    0.59
  -8   4  -1    2.74   10.59
   8   4   1    0.12    0.53
   8  -4   1    2.16   10.02
   8  -4   1    0.36    0.49
   8  -4   1    0.14    0.46
   8  -4   1    0.06    0.52
   6   4   3   -0.21    0.37
  -6   4  -3   -4.15    6.93
   6   4   3   -4.64    5.61
   6   4   3    0.68    0.37
   6   4   3    0.42    0.42
   6   4   3   -0.04    0.42
   6  -4   3   -0.07    0.35
   6  -4   3    0.24    0.36
   6  -4   3    3.98    6.22
  -4   4  -5   -0.25    0.33
   4   4   5    0.14    0.36
  -4   4  -5    0.16    4.19
   4   4   5    0.09    0.33
   4   4   5   -2.24    4.49
   4   4   5   -0.22    0.32
  -4  -4  -5   -3.11    7.02
   4  -4   5    0.55    0.30
   4  -4   5    0.48    3.36
   4  -4   5   -0.20    0.29
  -2   4  -7    5.32    0.46
   2   4   7   12.07    9.60
   2   4   7    3.51    0.37
  -2   4  -7    6.91    3.76
   2   4   7    4.58    0.61
   2  -4   7    3.37    0.37
  -2  -4  -7    5.55    6.89
   2  -4   7    2.45    3.73
   2  -4   7    3.80    0.38
   0   4  -9    2.02    3.95
   0   4   9    2.13    5.68
   0   4   9    1.54    0.46
   0   4   9    1.24    0.40
   0   4  -9    2.37    0.45
   0  -4   9   -1.11    4.49
   0  -4   9    1.69    0.37
   0  -4  -9    1.31   10.45
   2   4 -11    0.46    4.49
   2  -4 -11   -1.62   11.38
   4   4 -13    3.49    0.68
   4   4 -13    3.30    0.78
   4  -4 -13    3.66    0.77
   6   4 -15    4.62    1.06
   6   4 -15    4.71    0.99
   6  -4 -15    3.36    1.05
   8   4 -17    0.48    1.98
   8   4 -17    0.51    1.41
   8  -4 -17    1.19    1.52
  13   5  -4    8.60    1.80
  13   5  -4    9.27    1.65
  13  -5  -4   11.67    1.61
  11   5  -2    4.29    1.06
  11   5  -2    4.76    1.04
  11   5  -2    6.23    1.17
  11  -5  -2    6.03    1.02
  11  -5  -2    5.10    1.00
   9   5   0   18.48    1.26
   9   5   0   16.05    1.39
   9  -5   0   18.61    1.38
   9  -5   0   20.98    1.32
   9  -5   0   18.07    1.27
   7   5   2   32.37    1.55
   7   5   2   34.00    1.54
   7   5   2   30.97    1.55
   7  -5   2   33.21    1.52
   7  -5   2   37.46    9.81
   7  -5   2   31.59    1.49
   5   5   4   33.04    1.55
   5   5   4   25.32    5.76
   5   5   4   33.92    1.50
  -5   5  -4   36.28    1.45
   5   5   4   35.04    1.50
   5   5   4   34.84    1.52
  -5   5  -4   31.38    1.47
   5  -5   4   32.92    1.46
   5  -5   4   35.65    1.48
   5  -5   4   26.93    5.62
   3   5   6   11.24    0.71
  -3   5  -6   11.13    0.63
   3   5   6   10.67    0.77
   3   5   6    8.76    5.25
  -3   5  -6    9.80    0.78
   3   5   6   10.48    0.78
   3  -5   6   14.67    4.25
  -3  -5  -6   21.59   10.88
   3  -5   6   10.82    0.65
   3  -5   6    9.54    0.68
  -1   5  -8   48.66    2.07
  -1   5  -8   51.61    2.10
   1   5   8   76.60   10.74
  -1   5  -8   47.61    6.15
   1   5   8   51.18    2.15
   1  -5   8   47.52    6.53
   1  -5   8   51.74    2.10
  -1  -5  -8   57.94    9.61
   1   5 -10   13.79    0.91
  -1   5  10   11.38    8.46
   1   5 -10    9.22    4.49
  -1  -5  10   18.10    5.30
   1  -5 -10    0.71    8.49
  -1  -5  10   13.52    0.91
   3   5 -12    1.47    0.55
   3  -5 -12    2.80    0.68
   5   5 -14    1.34    0.84
   5   5 -14    0.62    0.91
   5  -5 -14    0.82    0.91
   7   5 -16   -0.14    1.33
   7   5 -16    0.07    1.21
   7  -5 -16    2.50    1.35
  12   6  -3    2.85    1.36
  12   6  -3    0.74    1.35
  12   6  -3    0.94    1.41
  12  -6  -3    1.25    1.27
  12  -6  -3    0.26    1.27
  10   6  -1    1.44    0.97
  10   6  -1    1.20    0.94
  10   6  -1    1.21    0.82
  10  -6  -1    1.89    0.88
  10  -6  -1    0.59    0.81
   8   6   1    0.37    0.68
   8   6   1    0.93    0.55
   8   6   1   -0.35    0.66
   8  -6   1    0.81    0.63
   8  -6   1    0.78    0.65
  -6   6  -3   -2.46    7.64
   6   6   3    3.94    0.59
   6   6   3    2.33    0.46
  -6   6  -3    3.37    0.48
   6   6   3    3.61    0.59
  -6   6  -3    2.57    0.50
   6  -6   3    3.51    0.50
   6  -6   3    4.12    0.50
   6  -6   3    3.97    7.53
  -4   6  -5    3.79    0.45
   4   6   5    4.57    0.48
  -4   6  -5    4.10    0.40
   4   6   5    3.37    0.47
  -4   6  -5   -1.23    5.49
   4   6   5    3.48    0.50
   4   6   5    1.90    5.35
   4  -6   5    3.04    0.41
   4  -6   5    4.48    0.43
   4  -6   5    2.17    5.00
   2   6   7    1.38    6.31
  -2   6  -7    1.52    4.45
  -2   6  -7    2.99    0.36
   2   6   7    1.43    0.42
  -2   6  -7    2.50    0.38
   2   6   7    2.74    0.49
   2  -6   7    4.94    4.48
   2  -6   7    2.29    0.39
  -2  -6  -7    2.91    0.45
   0   6  -9    4.71    0.46
   0   6   9    6.52    0.81
   0   6  -9    3.79    4.04
   0   6  -9    6.71    0.57
   0   6   9    2.90    8.34
   0  -6  -9    5.28    8.32
   0  -6   9    3.08    5.06
   0  -6   9    6.15    0.70
   2   6 -11   14.84    1.06
   4   6 -13    5.64    0.86
   4   6 -13    7.73    1.06
   4  -6 -13    8.25    0.92
   6   6 -15    3.29    1.05
   6   6 -15    4.00    1.25
  -6   6  15    2.63    1.54
   6  -6 -15    3.64    1.98
  13   7  -4    6.48    1.76
  13   7  -4    3.54    1.95
  13   7  -4   -0.43    2.35
  13  -7  -4    4.68    1.69
  11   7  -2    1.18    1.54
  11   7  -2    0.43    1.04
  11  -7  -2    2.11    1.93
   9   7   0    9.82    1.05
   9   7   0   10.21    1.02
   9   7   0   10.99    1.21
   9  -7   0   10.73    1.01
   9  -7   0   11.99    1.28
   7   7   2   12.86    1.09
  -7   7  -2   11.12    1.05
   7   7   2   12.22    1.01
   7  -7   2   11.76    1.05
   7  -7   2   11.59    0.99
  -5   7  -4   18.26    1.07
   5   7   4   18.64    1.11
  -5   7  -4   18.47    1.02
   5   7   4   20.76    1.10
   5   7   4   18.21    1.11
   5  -7   4   17.06    1.00
   5  -7   4   16.55    1.02
  -3   7  -6   -0.05    0.36
   3   7   6   -0.28    0.43
  -3   7  -6    0.08    5.72
  -3   7  -6   -0.04    0.45
   3   7   6   -0.54    0.50
   3   7   6    0.15    0.45
   3  -7   6   -0.12    0.37
   3  -7   6    0.20    0.40
  -3  -7  -6   -0.12    0.42
   3  -7   6   -0.54    5.30
  -1   7  -8   16.22    0.99
   1   7   8    8.95    7.93
  -1   7  -8   17.30    0.89
   1   7   8   16.19    1.07
  -1  -7  -8   17.44    1.05
   1  -7   8   15.40    0.95
  -1  -7  -8   15.93    9.45
   1  -7   8   21.65    5.42
   1   7 -10   -0.02    0.42
   1   7 -10    0.75    0.49
  -1   7  10    0.22    0.65
   1  -7 -10   -4.28   11.58
   1  -7 -10    0.59    0.60
  -1  -7  10    0.32    0.54
   3   7 -12   -0.17    0.66
   3  -7 -12    0.29    0.82
   5   7 -14   -0.17    0.89
  -5   7  14   -0.67    1.24
   5  -7 -14   -1.51    1.08
   7   7 -16   -0.08    1.27
   7   7 -16    0.10    1.75
   7  -7 -16    0.43    1.48
  12   8  -3    0.28    1.55
  12   8  -3    0.09    1.49
  12   8  -3    1.24    1.61
  12  -8  -3   -0.36    1.48
  12  -8  -3    0.82    1.42
  10   8  -1    0.37    1.13
  10   8  -1    0.67    1.09
  10   8  -1   -0.36    0.95
  10  -8  -1    0.18    0.99
  10  -8  -1    0.42    1.08
   8   8   1    0.89    0.65
  -8   8  -1    1.49    0.72
   8   8   1    1.10    0.82
   8  -8   1    0.49    0.74
   8  -8   1    0.29    0.66
   6   8   3    6.53    0.74
   6   8   3    6.85    0.88
  -6   8  -3    6.39    0.69
   6   8   3    7.47    0.79
  -6   8  -3    4.82    0.64
   6  -8   3    7.37    0.67
   6  -8   3    5.18    0.62
  -4   8  -5   29.98    1.41
   4   8   5   28.61    1.50
  -4   8  -5   31.85    1.50
   4   8   5   31.57    1.50
   4   8   5   28.79    1.52
  -4  -8  -5   29.86    1.47
   4  -8   5   32.81    1.45
   4  -8   5   29.90    1.43
   2   8   7   16.32    1.06
  -2   8  -7   16.12    0.92
   2   8   7   15.09    1.10
  -2   8  -7   13.65    0.94
   2   8   7   16.33    0.99
   2  -8   7   16.21    0.98
  -2  -8  -7   14.53    1.03
   2  -8   7   15.13    8.61
   2  -8   7   16.84    0.97
   0   8   9   35.07    1.71
   0   8  -9   37.07    1.66
   0   8  -9   34.46    1.60
   0   8   9   35.56    2.19
   0  -8   9   35.86    1.66
   0  -8  -9   36.18    1.70
  -2   8  11   22.53    1.55
   2   8 -11   23.41    1.38
  -2  -8  11   21.22    1.49
   2  -8 -11   24.56    2.01
  -4   8  13   14.78    1.29
   4   8 -13   15.21    1.44
   4  -8 -13   14.93    1.30
   6   8 -15    2.06    1.12
  -6   8  15    0.41    1.76
   6  -8 -15    1.72    1.36
 -11   9   2   14.64    1.59
  11   9  -2   19.19    2.31
  11   9  -2   16.17    1.90
  11   9  -2   18.86    1.72
  11  -9  -2   21.26    2.35
  11  -9  -2   20.48    2.30
  -9   9   0   23.81    1.83
   9   9   0   25.80    1.90
   9   9   0   22.05    1.65
   9  -9   0   24.88    1.72
   9  -9   0   24.03    1.99
  -7   9  -2   29.36    1.74
   7   9   2   27.94    1.68
  -7   9  -2   28.80    1.66
   7   9   2   26.59    1.57
   7  -9   2   25.99    1.59
   7  -9   2   27.48    1.55
   5   9   4   33.72    1.73
   5   9   4   36.70    1.71
  -5   9  -4   30.71    1.70
   5   9   4   29.50    1.65
  -5   9  -4   31.71    1.58
   5  -9   4   36.17    1.63
   5  -9   4   34.30    1.60
  -3   9  -6   39.86    1.73
   3   9   6   37.43    1.85
   3   9   6   37.88    1.82
   3   9   6   39.39    1.88
  -3   9  -6   39.44    1.77
   3  -9   6   40.74    1.76
   3  -9   6   36.89    1.77
  -3  -9  -6   39.57    1.78
  -1   9  -8    5.61    0.64
   1   9   8    6.04    0.65
  -1   9  -8    5.69    0.55
   1   9   8    4.73    0.73
  -1  -9  -8    4.26    0.70
   1  -9   8    4.64    0.61
  -1   9  10    4.60    0.72
   1   9 -10    4.90    0.59
   1   9 -10    5.33    0.67
  -1   9  10    3.55    0.87
  -1  -9  10    4.69    0.71
   1  -9 -10    4.24    0.78
   3   9 -12    3.01    0.78
  -3   9  12    2.12    0.98
   3  -9 -12    1.82    1.06
  -5   9  14   -0.57    1.44
   5   9 -14   -0.68    1.00
   5  -9 -14    0.31    1.26
   5  -9 -14   -0.47    1.33
  10  10  -1    0.47    1.02
  10  10  -1    0.34    1.35
  10 -10  -1   -0.32    1.14
   8  10   1   -0.61    0.77
   8  10   1    0.85    1.03
  -8  10  -1   -0.49    0.92
   8 -10   1   -0.12    0.95
   8 -10   1    0.91    0.88
   6  10   3   -0.26    0.84
  -6  10  -3   -0.30    1.12
   6  10   3   -0.34    0.67
  -6  10  -3   -0.17    0.76
   6  10   3    0.58    0.91
   6 -10   3   -0.54    0.66
   6 -10   3   -0.25    0.68
  -4  10  -5   -0.27    0.61
  -4  10  -5    1.89    0.60
   4  10   5   -0.25    0.72
   4  10   5    0.57    0.71
   4  10   5    0.11    0.59
   4 -10   5   -0.41    1.05
   4 -10   5    0.54    0.57
  -4 -10  -5    0.23    0.64
   2  10   7    4.07    0.75
   2  10   7    1.83    0.69
  -2  10  -7    2.86    0.61
  -2  10  -7    2.36    0.54
   2 -10   7    2.31    0.67
  -2 -10  -7    3.02    0.80
   2 -10   7    1.62    0.60
   0  10  -9    1.15    0.62
   0  10  -9    1.41    0.55
   0  10   9    1.92    0.73
   0  10   9    0.96    0.81
   0 -10   9    0.44    0.62
   0 -10  -9    1.82    0.77
  -2  10  11    0.93    0.93
   2  10 -11    0.18    0.72
   2  10 -11    0.08    0.68
  -2 -10  11    0.89    0.94
   2 -10 -11   -0.42    0.94
   4  10 -13   -0.73    0.89
  -4  10  13    0.44    1.40
   4 -10 -13   -0.76    1.30
   6  10 -15    0.56    1.25
   6 -10 -15    0.29    1.57
  11  11  -2    2.35    1.39
   9  11   0    0.94    0.96
   9  11   0    1.04    1.35
   9 -11   0   -0.01    1.13
  -7  11  -2    2.81    1.04
   7  11   2    3.56    1.09
   7  11   2    2.47    0.91
   7  11   2   -0.29    1.20
   7 -11   2    3.83    0.91
   7 -11   2    2.40    0.91
  -5  11  -4    2.41    0.70
  -5  11  -4    2.59    0.76
   5  11   4    1.20    0.91
   5  11   4    1.11    0.74
   5  11   4    2.63    0.88
  -5 -11  -4    3.22    0.82
   5 -11   4    1.17    0.69
   5 -11   4    1.73    0.74
   3  11   6   15.17    1.42
   3  11   6   14.67    1.32
  -3  11  -6   14.62    1.33
  -3  11  -6   15.39    1.16
   3  11   6   17.55    1.47
   3 -11   6   13.95    1.26
   3 -11   6   16.53    1.26
  -3 -11  -6   18.85    1.34
   1  11   8    0.65    0.79
   1  11   8    0.82    0.81
  -1  11  -8    0.87    0.57
  -1  11  -8    0.49    0.65
   1 -11   8    1.27    0.70
  -1 -11  -8   -0.55    0.78
   1  11 -10    5.96    1.02
  -1  11  10    7.56    1.02
  -1  11  10    5.33    1.19
   1  11 -10    7.45    0.77
  -1 -11  10    7.47    0.97
   1 -11 -10    7.09    1.02
  -3  11  12    1.80    1.29
   3  11 -12    1.17    0.89
   3 -11 -12    2.41    1.26
  -5  11  14    0.99    1.83
   5  11 -14    0.61    1.16
   5 -11 -14   -0.46    1.54
   5 -11 -14    0.85    1.57
  10  12  -1   -0.25    1.21
  10  12  -1   -1.56    1.71
  10 -12  -1    1.12    1.48
  10 -12  -1    0.57    2.69
   8  12   1    0.25    0.91
   8  12   1   -0.43    1.28
  -8 -12  -1    0.97    1.23
   8 -12   1   -0.33    1.80
   8 -12   1   -0.10    1.08
   6  12   3    3.49    1.09
  -6  12  -3    1.78    0.91
   6  12   3    1.98    0.82
   6  12   3    2.64    1.18
  -6 -12  -3    1.06    0.96
   6 -12   3    2.08    0.91
   6 -12   3    1.83    0.88
   4  12   5   -0.36    0.76
   4  12   5   -0.12    0.92
  -4  12  -5    0.85    0.71
   4  12   5    0.16    0.99
   4 -12   5    0.17    0.78
   4 -12   5    0.09    0.76
  -4 -12  -5    0.58    0.86
   2  12   7   14.51    1.44
  -2  12  -7   15.37    1.19
  -2  12  -7   13.28    1.41
   2  12   7   12.73    1.12
   2 -12   7   14.01    1.37
   2 -12   7   13.04    1.40
  -2 -12  -7   13.30    1.13
   0  12  -9    5.32    0.79
   0  12  -9    4.55    0.87
   0  12   9    4.36    1.09
   0  12   9    5.94    1.05
   0 -12   9    3.48    0.89
   0 -12  -9    3.88    0.98
  -2  12  11    6.88    1.31
   2  12 -11    9.57    1.05
   2  12 -11    7.75    0.98
  -2 -12  11    8.53    1.34
   2 -12 -11    8.06    1.25
   4  12 -13    4.57    1.64
  -4  12  13    5.84    1.68
   4 -12 -13    5.01    1.54
   4 -12 -13    5.87    1.59
   9  13   0    1.93    1.66
   9  13   0    1.13    1.17
   9 -13   0    0.88    1.48
   9 -13   0    0.91    1.73
  -9 -13   0    0.38    1.53
   7  13   2   -0.75    1.99
   7  13   2    0.94    1.37
   7  13   2    2.00    1.07
  -7 -13  -2    2.16    1.22
   7 -13   2    2.88    1.14
   7 -13   2    2.03    1.16
   5  13   4    2.41    1.20
  -5  13  -4    1.97    0.89
   5  13   4    2.41    1.16
   5  13   4    1.45    0.89
   5 -13   4    1.82    0.93
  -5 -13  -4    3.01    1.04
   5 -13   4    1.75    0.96
   3  13   6    1.20    1.03
   3  13   6    1.58    0.93
  -3  13  -6    1.42    0.78
   3 -13   6    1.00    0.91
   3 -13   6    3.86    0.92
  -3 -13  -6    2.18    1.00
   1  13   8    7.71    1.20
   1  13   8    9.10    1.19
  -1  13  -8    7.90    0.89
   1 -13   8    7.23    1.05
  -1 -13  -8    8.31    1.12
   1  13 -10    3.74    1.07
  -1 -13  10    3.32    1.20
   1 -13 -10    5.08    1.43
  -3  13  12    3.67    1.66
   3  13 -12    0.22    1.31
   3 -13 -12    1.59    1.45
   8  14   1    0.94    1.15
   8  14   1    1.37    1.67
  -8 -14  -1   -0.50    1.55
   8 -14   1    2.74    1.47
   8 -14   1    2.27    1.63
   6  14   3    1.17    1.45
   6  14   3    1.44    1.53
  -6  14  -3    1.84    1.17
   6  14   3    1.81    1.10
   6 -14   3    1.42    1.14
  -6 -14  -3    1.83    1.24
   6 -14   3    2.65    1.15
   4  14   5    3.69    1.77
   4  14   5    3.57    1.09
   4 -14   5    3.15    1.33
  -4 -14  -5    3.29    1.43
   2  14   7   10.30    1.29
   2 -14   7    9.02    1.23
   0  14  -9    7.20    1.02
   0  14   9    5.11    1.50
   0  14   9    6.12    1.36
   0 -14  -9    7.86    1.53
   0 -14   9    7.42    1.23
   0 -14  -9    5.89    1.26
  -2  14  11    1.60    1.57
   2  14 -11    1.90    1.13
   2 -14 -11   -0.89    1.44
  -2 -14  11    0.34    1.77
   7  15   2    2.61    1.25
  -7  15  -2    2.93    2.06
   7  15   2    2.68    1.92
   7 -15   2    3.41    1.65
  -7 -15  -2    2.74    1.71
   7 -15   2    3.74    1.64
   5  15   4    5.58    1.23
   5  15   4    6.75    1.66
  -5  15  -4    4.37    1.20
   5 -15   4    6.61    1.31
  -5 -15  -4    7.12    1.40
   5 -15   4    5.31    1.29
   3  15   6    0.89    1.17
   3  15   6    0.80    1.32
  -3  15  -6    0.85    1.01
   3 -15   6    0.34    1.22
  -3 -15  -6    1.45    1.31
   3 -15   6    0.17    1.24
  -1  15  -8    4.71    1.08
   1  15   8    3.14    1.43
   1  15   8    3.82    1.39
   1 -15   8    3.31    1.26
  -1 -15  -8    1.90    1.37
  -1  15  10   -0.57    1.64
   1  15 -10    0.96    1.17
   1 -15 -10    0.53    1.50
   1 -15 -10    1.37    1.95
  -1 -15  10    0.13    1.59
   6  16   3    1.43    1.30
   6 -16   3    1.24    1.65
  -6 -16  -3    0.61    1.67
   4  16   5    5.26    1.34
  -4  16  -5    6.65    1.29
   4  16   5    8.92    1.75
   4 -16   5    7.74    1.46
  -4 -16  -5    7.02    1.56
   4 -16   5    7.41    1.48
   2  16   7   -0.29    1.45
  -2  16  -7   -0.03    1.14
   2  16   7    0.47    1.52
   2 -16   7    2.15    1.44
  -2 -16  -7    0.42    1.49
   0 -16   9    5.70    1.74
   0 -16  -9    7.21    2.06
  14   0  -4   10.63    1.81
  12   0  -2    0.33    1.08
  12   0  -2    0.93    1.07
  10   0   0   40.11    2.05
  10   0   0   42.73    2.06
   8   0   2   15.52    1.06
   8   0   2   13.87    0.99
  -6   0  -4   29.84   10.64
   6   0   4   11.80    0.83
   6   0   4   17.51    5.99
   6   0   4   12.87    0.78
   4   0   6   96.02    3.83
  -4   0  -6  108.09    9.01
  -4   0  -6   90.99    3.82
   4   0   6   99.07    3.80
   4   0   6  101.26    7.89
  -2   0  -8    6.99    0.69
  -2   0  -8    7.05    4.57
   2   0   8    9.67    4.56
   2   0   8    7.12    0.60
   0   0 -10  231.20    9.06
   0   0 -10  236.68    9.05
   0   0  10  233.39    9.07
   0   0  10  237.03   13.45
  -2   0  12    3.26    0.63
   2   0 -12    3.87    0.58
   2   0 -12    2.73    0.54
   4   0 -14   65.98    2.90
   4   0 -14   68.11    2.92
   6   0 -16    2.49    1.10
   6   0 -16    2.76    1.18
   8   0 -18   24.71    2.01
   8   0 -18   20.35    2.06
  13   1  -3   10.70    1.49
  13  -1  -3    8.91    1.45
  11   1  -1    4.08    0.93
  11   1  -1    6.11    1.03
  11  -1  -1    4.35    0.94
  11  -1  -1    6.46    0.95
   9   1   1   56.61    2.55
   9   1   1   58.06    2.51
   9  -1   1   56.36    2.49
   9  -1   1   59.87    2.51
   7   1   3    4.22    0.53
   7   1   3    6.61    7.01
   7   1   3    3.93    0.49
   7  -1   3    5.56    0.50
   7  -1   3    6.11    0.54
   7  -1   3    4.57    6.05
   7  -1   3    3.59    0.49
  -7  -1  -3    5.77    9.38
   5   1   5  165.38    6.43
   5   1   5  154.84    6.44
   5   1   5  200.83   11.77
   5  -1   5  162.19    6.45
   5  -1   5  155.44    6.43
   5  -1   5  163.41    6.43
  -5  -1  -5  185.59   11.61
  -3   1  -7   14.45    0.84
   3   1   7   13.84    0.77
   3   1   7   17.98    5.25
  -3   1  -7   14.15    4.44
   3  -1   7   16.68    4.54
  -3  -1  -7   13.98    0.85
  -3  -1  -7   16.22    4.87
   3  -1   7   13.54    0.78
   1   1   9  129.94    5.03
   1   1   9  124.58    9.59
  -1   1  -9  125.12    5.01
  -1  -1  -9  129.11    9.44
   1  -1   9  130.11    5.02
   1  -1   9  131.55    8.99
  -1  -1  -9  127.88    5.01
  -1   1  11   25.26    1.26
  -1   1  11   22.87    1.23
  -1   1  11   20.24    7.59
   1   1 -11   24.89    1.21
   1  -1 -11   23.19    1.25
  -1  -1  11   24.26    1.24
  -1  -1  11   28.72    7.17
   3   1 -13   27.22    1.46
   3   1 -13   27.11    1.47
   3  -1 -13   26.83    1.54
   3  -1 -13   27.70    1.53
   5   1 -15   21.51    1.64
   5   1 -15   22.66    1.72
   5  -1 -15   19.42    1.78
   5  -1 -15   17.95    1.66
   7   1 -17    2.92    1.50
   7   1 -17    2.82    1.33
   7  -1 -17    3.97    1.34
   7  -1 -17    3.61    1.50
  12   2  -2    7.15    1.23
  12   2  -2   11.17    1.38
  12   2  -2    8.33    1.46
  12  -2  -2    8.99    1.26
  10   2   0   22.75    1.51
  10   2   0   22.04    1.48
  10   2   0   21.85    1.62
  10  -2   0   19.07    1.47
  10  -2   0   21.29    1.49
   8   2   2   37.51    1.68
   8   2   2   35.18    1.71
   8   2   2   36.64    1.67
   8   2   2   36.95    1.70
   8  -2   2   35.00    1.67
   8  -2   2   34.51    1.63
   8  -2   2   34.48    1.66
   8  -2   2   35.12   10.95
   6   2   4  125.58   11.01
  -6   2  -4  120.18   10.93
   6   2   4  111.94    4.35
   6   2   4  109.30    4.36
   6   2   4  105.91    4.42
   6  -2   4  108.15    9.37
   6  -2   4  110.81    4.36
   6  -2   4  111.78    4.35
   6  -2   4  107.83    4.35
   4   2   6  111.79    8.75
   4   2   6  107.15    4.09
  -4   2  -6   97.79    4.08
   4   2   6  102.92    4.06
   4  -2   6  100.06    8.31
   4  -2   6  102.83    4.07
   4  -2   6  103.80    4.09
  -4  -2  -6  111.02    9.50
  -4  -2  -6  105.27    4.08
   4  -2   6  103.49    4.05
   2   2   8   61.83    7.75
   2   2   8   57.44    2.37
  -2   2  -8   58.47    2.38
  -2   2  -8   55.52    6.84
   2  -2   8   60.20    6.84
   2  -2   8   57.74    2.37
  -2  -2  -8   70.38    9.48
  -2  -2  -8   57.71    2.36
   0   2  10   56.41    7.42
   0   2 -10   47.14    2.07
   0   2  10   51.91    2.07
   0   2  10   48.56    2.08
   0  -2  10   48.39    2.06
   0  -2 -10   47.28    2.06
   0  -2  10   57.99    8.51
   2   2 -12   41.22    1.89
   2   2 -12   42.71    1.91
  -2   2  12   42.37    1.97
   2  -2 -12   43.50    1.92
   4   2 -14   35.25    1.92
   4   2 -14   35.62    1.96
   4  -2 -14   37.16    1.90
   6   2 -16   22.90    1.93
   6   2 -16   22.78    2.10
   6  -2 -16   21.31    2.22
   6  -2 -16   21.24    1.99
  13   3  -3    0.97    1.44
  13   3  -3   -1.00    1.74
  13   3  -3   -0.07    1.81
  13  -3  -3   -0.02    1.32
  11   3  -1   45.04    2.52
  11   3  -1   49.37    2.40
  11   3  -1   41.94    2.33
  11  -3  -1   47.89    2.37
   9   3   1    0.65    0.61
   9   3   1    0.57    0.74
   9  -3   1   -0.08    0.88
   9  -3   1    0.00    0.57
   9  -3   1    0.51    0.66
   7   3   3  122.87    4.84
   7   3   3  130.01    4.87
  -7   3  -3   99.38   13.97
   7   3   3  122.69    4.84
   7   3   3  119.37    4.91
   7  -3   3  112.82   12.74
   7  -3   3  125.69    4.85
   7  -3   3  121.25    4.84
   7  -3   3  127.40    4.85
   5   3   5    7.78    0.71
  -5   3  -5   15.88    7.00
   5   3   5    7.77    0.71
  -5   3  -5    7.56    0.71
   5   3   5    5.27    5.58
   5   3   5    7.99    0.71
   5  -3   5    9.25    0.70
   5  -3   5    4.06    5.76
   5  -3   5    7.69    0.66
   5  -3   5    9.33    0.66
   3   3   7  157.16    6.47
  -3   3  -7  166.11    6.43
   3   3   7  166.93   10.46
   3   3   7  159.24    6.43
   3  -3   7  161.03    6.43
  -3  -3  -7  181.83   11.16
   3  -3   7  176.57    9.90
   1   3   9   13.16   10.42
  -1   3  -9    6.66    0.67
   1   3   9    6.91    0.70
   1   3   9    7.25    0.71
  -1   3  -9    1.71    4.16
   1  -3   9    5.91    4.57
   1  -3   9    6.80    0.63
  -1  -3  -9   11.51   11.43
  -1   3  11  115.72    4.51
  -1   3  11  113.28   14.31
   1   3 -11  111.19    4.51
  -1  -3  11  113.80    4.50
  -1  -3  11  115.80   11.64
   3   3 -13    5.13    0.73
   3  -3 -13    4.77    0.74
   5   3 -15   30.90    1.99
   5   3 -15   36.35    1.98
   5  -3 -15   34.87    2.03
   7   3 -17    1.53    1.46
   7   3 -17    2.24    1.79
   7  -3 -17    3.96    1.40
  12   4  -2   12.40    1.38
  12   4  -2    9.20    1.31
  12  -4  -2    8.78    1.29
  10   4   0   21.15    1.50
  10   4   0   25.87    1.70
  10   4   0   23.46    1.64
  10  -4   0   23.82    1.55
  10  -4   0   23.00    1.57
   8   4   2   12.85    1.04
   8   4   2   11.46    0.97
   8   4   2    9.59    1.08
   8  -4   2    8.98    0.94
   8  -4   2    9.62    1.01
   8  -4   2   10.49    0.99
   6   4   4   31.46    1.40
   6   4   4   29.90    1.45
   6   4   4   33.14    1.43
   6   4   4   28.02    1.53
   6  -4   4   32.69    7.67
   6  -4   4   29.24    1.36
   6  -4   4   29.04    1.40
  -4   4  -6   11.77    0.83
  -4   4  -6    0.34    5.14
   4   4   6   14.08    0.83
   4   4   6   13.37    1.16
   4   4   6   13.57    0.85
   4   4   6   13.56    5.81
  -4  -4  -6   10.84    8.06
   4  -4   6   12.75    0.79
   4  -4   6   18.13    5.18
   4  -4   6   13.68    0.79
   2   4   8   91.49    3.76
   2   4   8   99.56    3.80
  -2   4  -8   91.15    3.74
   2   4   8  103.55   10.14
   2  -4   8   92.18    3.76
  -2  -4  -8  134.09   14.12
   2  -4   8   86.59    8.51
   0   4  10   20.43    1.21
   0   4 -10   24.56    1.21
   0   4  10   23.87    1.21
   0   4  10   36.26   13.37
   0  -4  10   21.44    1.15
   0  -4  10   26.30    6.53
   2   4 -12   58.15    2.40
  -2  -4  12   55.52    2.42
   2  -4 -12   52.67    2.44
   4   4 -14    0.81    0.85
   4  -4 -14    1.25    0.86
   6   4 -16   21.30    1.92
   6  -4 -16   20.16    2.13
  13   5  -3    6.15    1.93
  13   5  -3    7.74    1.68
  13  -5  -3   11.32    1.59
  11   5  -1    6.45    1.03
  11   5  -1    6.67    1.21
  11   5  -1    8.66    1.18
  11  -5  -1    8.24    1.11
  11  -5  -1    7.45    1.04
   9   5   1   36.71    1.88
   9   5   1   37.95    1.94
   9   5   1   38.47    1.99
   9  -5   1   36.59    1.84
   9  -5   1   36.33    1.92
   9  -5   1   35.87    1.91
   7   5   3    8.95    0.74
   7   5   3    7.05    0.80
   7  -5   3    7.62    0.63
   7  -5   3    7.16    0.65
   5   5   5   79.39    3.18
  -5   5  -5   77.27    3.17
   5   5   5   81.46    3.26
   5   5   5   80.85    3.18
   5  -5   5   78.65    9.90
   5  -5   5   76.74    3.15
   5  -5   5   77.96    3.17
   3   5   7   29.31   13.93
   3   5   7   19.02    1.34
  -3   5  -7   19.28    1.04
   3   5   7   17.67    0.99
   3   5   7   17.73    1.04
   3  -5   7   20.31    5.58
   3  -5   7   18.99    0.95
   3  -5   7   18.21    0.96
   1   5   9   88.08   12.01
   1   5   9   89.60    3.56
  -1   5  -9   86.55    3.51
  -1  -5  -9   95.13   12.75
   1  -5   9   78.82    8.97
   1  -5   9   89.25    3.51
   1   5 -11   18.32    1.13
  -1  -5  11   19.83    1.16
   3   5 -13   20.61    1.47
   3  -5 -13   24.93    1.56
   5   5 -15    8.39    1.02
   5   5 -15    6.74    1.18
   5  -5 -15    8.90    1.17
   7   5 -17    8.66    1.45
   7   5 -17    8.03    1.77
   7  -5 -17    9.57    1.62
  12   6  -2    0.98    1.52
  12   6  -2    0.61    1.26
  12   6  -2    0.09    1.40
  12  -6  -2    0.79    1.26
  12  -6  -2    0.91    1.27
  12  -6  -2   -1.35    1.65
  10   6   0   27.46    1.78
  10   6   0   30.88    1.98
  10   6   0   29.81    1.98
  10  -6   0   30.37    1.89
  10  -6   0   29.75    1.84
   8   6   2   16.05    1.20
   8  -6   2   17.77    1.18
   8  -6   2   20.72    1.30
  -6   6  -4   60.29    2.48
   6   6   4   61.96    2.52
   6   6   4   55.87    2.56
   6   6   4   62.38    2.52
   6  -6   4   58.53    2.47
   6  -6   4   58.60    2.49
  -4   6  -6   97.22    3.78
   4   6   6   92.86    3.84
  -4   6  -6   93.76    3.72
   4   6   6   91.30    3.77
   4  -6   6   94.47    3.75
   4  -6   6   98.06    3.75
   4  -6   6   87.00   10.13
  -2   6  -8   -0.03    5.46
   2   6   8   11.81    1.10
  -2   6  -8   11.35    0.73
   2   6   8   13.28    7.20
  -2   6  -8    9.73    0.81
   2  -6   8   14.52    6.31
  -2  -6  -8   10.55    0.90
  -2  -6  -8    8.65    9.21
   2  -6   8   10.91    0.78
   0   6 -10   82.48    3.31
   0   6  10   68.18   12.20
   0   6  10   80.57    3.36
   0  -6  10   72.06   10.43
   0  -6  10   86.16    3.31
   2   6 -12    3.43    0.64
  -2  -6  12    1.86    0.78
   4   6 -14   72.07    3.14
   4  -6 -14   70.34    3.27
   6   6 -16    0.25    1.49
  -6   6  16    2.57    1.79
   6   6 -16    3.44    1.17
   6  -6 -16    1.64    1.34
  13   7  -3    0.04    1.87
  11   7  -1    1.85    1.30
  11   7  -1    0.91    1.05
  11  -7  -1    0.43    1.13
  11  -7  -1    1.78    1.17
   9   7   1   85.55    3.70
   9   7   1   90.36    3.77
   9   7   1   79.12    4.12
   9  -7   1   86.07    3.72
   9  -7   1   88.91    3.64
   9  -7   1   90.25    3.74
  -7   7  -3    2.05    0.57
   7   7   3    1.74    0.53
   7   7   3    2.85    0.72
   7  -7   3    3.64    0.63
   7  -7   3    2.05    0.65
  -5   7  -5  202.37    7.66
   5   7   5  200.29    7.70
   5   7   5  206.04    7.68
  -5   7  -5  197.61    7.69
   5   7   5  182.26    7.77
   5  -7   5  198.19    7.68
   5  -7   5  193.97    7.70
   3   7   7    3.30    0.55
  -3   7  -7    4.32    0.45
   3   7   7    3.96    0.55
   3   7   7    3.14    0.60
  -3   7  -7    3.39    0.46
  -3  -7  -7    2.59    0.52
   3  -7   7    2.81    0.48
   3  -7   7    3.37    0.52
  -1   7  -9  143.47    5.45
  -1   7  -9  135.45    5.47
   1   7   9  139.28    5.53
   1  -7   9  137.98    5.48
   1   7 -11    0.70    0.57
  -1  -7  11    0.32    0.65
   3   7 -13   66.06    2.82
   3  -7 -13   60.94    2.95
   5   7 -15    3.50    1.00
   5  -7 -15    3.71    1.31
  12   8  -2    3.27    1.63
 -12   8   2    3.89    1.47
  12   8  -2    3.12    1.43
  12  -8  -2    1.94    1.44
  12  -8  -2    3.66    1.52
  10   8   0   17.25    1.93
 -10   8   0   18.23    1.84
  10   8   0   14.41    1.58
  10  -8   0   18.05    1.78
  10  -8   0   17.26    1.91
   8   8   2    5.29    0.81
  -8   8  -2    8.68    0.84
   8   8   2    7.75    1.01
   8  -8   2    7.78    0.89
   8  -8   2    7.42    0.79
   6   8   4   12.88    1.26
  -6   8  -4    9.91    1.04
   6   8   4    9.56    1.02
  -6   8  -4    8.15    0.78
   6   8   4   11.19    1.18
   4   8   6   21.16    1.25
  -4   8  -6   21.06    1.14
   4   8   6   20.85    1.31
   4   8   6   18.46    1.24
  -4   8  -6   20.31    1.25
   4  -8   6   21.12    1.17
   4  -8   6   20.01    1.17
  -4  -8  -6   21.09    1.21
   2   8   8   18.11    1.22
  -2   8  -8   20.27    1.14
   2   8   8   17.00    1.18
  -2   8  -8   18.77    1.06
   2  -8   8   17.74    1.11
  -2  -8  -8   16.67    1.20
   0   8  10   47.61    2.09
   0   8 -10   44.59    2.03
   0   8  10   42.11    2.15
   0   8 -10   44.87    1.96
   0  -8  10   45.80    2.04
   0  -8 -10   45.83    2.12
   2   8 -12    5.77    0.75
  -2   8  12    5.47    0.92
  -2  -8  12    5.93    1.20
   2  -8 -12    3.82    0.98
  -4   8  14   12.10    1.35
   4   8 -14    9.95    1.08
   4  -8 -14   11.42    1.29
   6   8 -16    0.97    1.24
  -6   8  16    4.25    2.06
   6  -8 -16    1.54    1.54
 -11   9   1   20.20    1.70
  11   9  -1   16.02    1.94
  11   9  -1   22.67    2.43
  11  -9  -1   20.97    2.37
  11  -9  -1   22.58    2.26
  -9   9  -1    1.33    0.96
   9   9   1    1.83    0.91
   9   9   1    1.27    1.11
   9  -9   1    1.64    0.97
   9  -9   1    1.56    1.09
  -7   9  -3   37.25    1.96
   7   9   3   36.03    1.95
  -7   9  -3   36.79    1.91
   7   9   3   32.13    1.84
   7  -9   3   35.57    1.88
   7  -9   3   34.20    1.83
   5   9   5    1.78    0.78
  -5   9  -5    1.09    0.67
   5   9   5    0.54    0.76
  -5   9  -5    1.58    0.59
   5   9   5    0.68    0.63
  -5  -9  -5    0.73    0.67
   5  -9   5    2.46    0.73
   5  -9   5    1.65    0.57
  -3   9  -7   64.41    2.69
   3   9   7   63.88    2.82
   3   9   7   61.68    2.80
  -3   9  -7   63.90    2.71
   3   9   7   67.31    2.76
  -3  -9  -7   65.68    2.73
   3  -9   7   65.97    2.73
   1   9   9    5.31    0.82
  -1   9  -9    5.33    0.59
   1   9   9    4.45    0.69
  -1   9  -9    6.06    0.65
   1  -9   9    4.69    1.14
  -1   9  11   42.11    2.04
   1   9 -11   39.90    1.91
  -1   9  11   31.19    2.19
   1  -9 -11   41.46    2.09
  -1  -9  11   39.28    1.98
   3   9 -13    1.94    0.86
  -3   9  13    2.31    1.12
   3  -9 -13    1.61    1.20
  -5   9  15    9.44    1.74
   5   9 -15    9.62    1.29
   5  -9 -15   14.13    1.62
 -10  10   0    2.12    1.24
  10  10   0    3.53    1.41
  10  10   0    2.69    1.11
  10 -10   0    5.20    1.44
  10 -10   0    3.79    1.18
  10 -10   0    0.76    1.59
   8  10   2   21.13    1.64
  -8  10  -2   20.06    1.79
   8  10   2   21.13    1.89
   8 -10   2   24.02    1.81
   8 -10   2   21.38    1.71
   6  10   4   33.63    2.01
  -6  10  -4   28.22    1.77
  -6  10  -4   29.50    1.75
   6  10   4   34.52    1.88
   6  10   4   25.27    1.84
  -6 -10  -4   33.65    1.78
   6 -10   4   30.23    1.69
   6 -10   4   29.80    1.71
  -4  10  -6   22.53    1.34
  -4  10  -6   20.24    1.27
   4  10   6   18.90    1.43
   4  10   6   17.32    1.50
   4  10   6   20.20    1.50
   4 -10   6   21.49    1.32
  -4 -10  -6   18.23    1.38
   4 -10   6   17.82    1.33
   2  10   8   44.85    2.17
   2  10   8   45.43    2.23
  -2  10  -8   49.63    2.11
  -2  10  -8   41.96    2.04
  -2 -10  -8   46.67    2.17
   2 -10   8   44.18    2.10
   0  10 -10    0.57    0.72
   0  10 -10    0.12    0.59
   0  10  10    1.25    0.94
   0  10  10    1.29    0.81
   0 -10  10    0.91    0.72
   0 -10 -10    2.52    0.86
   2  10 -12   52.98    2.55
  -2  10  12   57.12    2.77
   2 -10 -12   53.34    2.79
  -2 -10  12   52.42    2.82
  -4  10  14    2.39    1.47
   4  10 -14    0.77    1.02
   4 -10 -14    2.30    1.38
  11  11  -1   19.41    2.15
  11  11  -1   17.26    2.10
  11 -11  -1   20.60    1.97
  11 -11  -1   19.57    2.03
   9  11   1    0.84    1.41
   9  11   1    0.43    1.02
   9 -11   1    0.80    1.35
   9 -11   1   -0.33    1.10
  -7  11  -3   59.87    2.84
  -7  11  -3   63.21    2.94
   7  11   3   51.05    2.82
   7  11   3   62.83    2.95
   7 -11   3   62.01    2.85
   7 -11   3   62.11    2.81
  -7 -11  -3   58.24    2.83
   5  11   5    1.21    0.97
  -5  11  -5    0.50    0.75
  -5  11  -5   -0.15    0.83
   5  11   5   -0.53    0.94
   5  11   5    1.75    0.86
   5 -11   5   -0.21    0.76
   5 -11   5   -0.14    0.76
  -5 -11  -5    0.13    0.82
  -3  11  -7   68.31    2.98
   3  11   7   70.12    3.12
   3  11   7   67.63    3.13
  -3  11  -7   69.44    3.02
  -3 -11  -7   74.30    3.07
   3 -11   7   72.01    3.02
   3 -11   7   69.53    3.04
   1  11   9   -0.75    0.89
   1  11   9    1.46    0.92
  -1  11  -9    0.42    0.80
  -1  11  -9    0.59    0.63
  -1 -11  -9    0.96    0.87
   1 -11   9    1.12    0.79
  -1  11  11   52.27    2.69
   1  11 -11   52.03    2.42
   1  11 -11   50.56    2.39
   1 -11 -11   46.05    2.68
  -1 -11  11   51.98    2.59
   3  11 -13    1.59    0.99
  -3  11  13    1.96    1.44
   3 -11 -13    0.85    1.41
  -5  11  15   16.90    2.30
   5  11 -15   20.02    2.12
   5 -11 -15   15.13    2.36
  10  12   0    4.45    1.96
  10  12   0    3.37    1.28
  10 -12   0    4.52    1.50
  10 -12   0    0.76    2.77
   8  12   2    9.72    1.51
   8  12   2    5.89    1.06
  -8 -12  -2    6.73    1.27
   8 -12   2    8.58    1.22
   8 -12   2   10.78    1.38
   6  12   4    2.69    1.25
  -6  12  -4    2.57    1.00
   6  12   4    2.25    1.19
  -6  12  -4    2.29    1.06
   6  12   4    1.45    0.84
  -6 -12  -4    2.13    1.02
   6 -12   4    2.90    0.96
   6 -12   4    3.11    0.94
  -4  12  -6   14.76    1.11
  -4  12  -6   13.97    1.36
   4  12   6   11.57    1.27
   4  12   6   10.31    1.18
   4  12   6   11.94    1.45
  -4 -12  -6    9.54    1.12
   4 -12   6   12.66    1.44
   4 -12   6   12.49    1.38
   2  12   8    6.55    1.04
   2  12   8    6.90    1.06
  -2  12  -8    7.27    0.85
  -2  12  -8    7.84    0.92
  -2 -12  -8    6.61    1.02
   2 -12   8    6.08    0.93
   2 -12   8    5.46    1.02
   0  12  10   15.03    1.96
   0  12  10   21.73    2.00
   0  12 -10   19.55    1.64
   0  12 -10   19.28    1.47
   0 -12  10   19.69    1.70
   0 -12 -10   20.06    1.88
   2  12 -12    4.37    1.04
  -2  12  12    4.20    1.43
   2 -12 -12    3.60    1.35
  -2 -12  12    5.42    1.64
  -4  12  14    4.01    2.92
   4  12 -14    3.66    1.24
   4 -12 -14    5.05    2.62
   4 -12 -14    5.89    1.77
   9  13   1   14.14    1.84
   9  13   1   15.17    1.94
   9 -13   1   16.64    2.13
  -9 -13  -1   12.71    1.74
   9 -13   1   17.42    1.63
  -7  13  -3   -0.37    1.41
   7  13   3   -0.43    1.73
   7  13   3    0.04    1.03
   7  13   3   -0.05    1.43
   7 -13   3    0.66    1.18
  -7 -13  -3    1.07    1.23
   7 -13   3   -0.04    1.16
   5  13   5   22.62    2.09
   5  13   5   19.60    1.76
   5  13   5   20.58    2.13
  -5  13  -5   20.93    1.79
  -5 -13  -5   19.50    2.02
   5 -13   5   25.84    1.86
   5 -13   5   22.12    1.86
  -3  13  -7    1.69    0.84
   3  13   7    2.87    1.14
   3  13   7    1.36    1.00
   3 -13   7    0.79    1.01
  -3 -13  -7    1.38    1.09
   3 -13   7    1.92    0.97
  -1  13  -9   27.85    2.00
   1  13   9   25.31    2.06
   1  13   9   28.56    2.22
  -1  13  -9   26.24    1.80
  -1 -13  -9   29.04    2.19
   1 -13   9   28.42    1.99
   1  13 -11    2.00    1.00
  -1  13  11    2.51    1.39
   1  13 -11    1.68    1.09
  -1 -13  11    1.56    1.37
   1 -13 -11    4.24    1.31
   3  13 -13    5.13    1.25
  -3  13  13    7.14    1.86
   3 -13 -13    7.70    1.70
   3 -13 -13    7.27    1.68
   8  14   2    7.39    1.29
   8  14   2    9.71    2.21
   8 -14   2    8.43    2.06
  -8 -14  -2    7.42    1.71
   8 -14   2    7.81    1.57
   6  14   4    7.09    1.24
   6  14   4    5.26    1.70
   6  14   4    6.00    1.57
  -6  14  -4    9.04    1.39
  -6 -14  -4    6.95    1.41
   6 -14   4    8.21    1.30
   6 -14   4    9.53    1.36
  -4  14  -6   26.22    1.88
   4  14   6   19.28    1.90
   4  14   6   20.94    2.28
  -4 -14  -6   20.42    2.09
   4 -14   6   21.31    1.99
   4 -14   6   22.79    1.99
   2  14   8    2.66    1.27
   2  14   8    4.12    1.31
  -2  14  -8    4.46    1.00
  -2 -14  -8    3.17    1.27
   2 -14   8    4.89    1.19
   0  14 -10   13.62    1.26
   0  14  10   13.09    3.42
   0  14  10   16.71    1.63
   0 -14 -10   16.09    1.55
   0 -14 -10   14.60    1.83
   0 -14  10   16.21    1.54
  -2  14  12    3.98    1.86
   2  14 -12    0.55    1.30
   2 -14 -12    1.92    1.93
   7  15   3    5.54    1.38
   7  15   3    8.07    1.94
   7 -15   3    9.65    1.60
  -7 -15  -3    9.35    1.83
   7 -15   3    7.05    1.66
  -5  15  -5   11.68    1.42
   5  15   5   10.35    1.40
   5  15   5    9.95    1.79
   5 -15   5   11.81    1.45
  -5 -15  -5   10.72    1.51
   5 -15   5   11.84    1.54
   3  15   7    4.79    1.45
   3  15   7    5.37    1.67
  -3  15  -7    4.29    1.16
   3 -15   7    5.40    1.44
  -3 -15  -7    4.44    1.40
   3 -15   7    6.02    1.37
   1  15   9    6.87    1.60
   1  15   9    6.22    1.69
  -1  15  -9    7.37    1.19
  -1 -15  -9    4.85    1.42
  -1 -15  -9    6.71    1.76
   1 -15   9    8.06    1.49
   1  15 -11    3.33    1.38
  -1  15  11    4.27    1.85
  -1 -15  11    1.14    2.06
   1 -15 -11    3.64    1.73
  -4  16  -6    0.20    1.34
   4  16   6    0.45    1.35
   4  16   6    1.19    1.86
   4 -16   6    0.66    1.67
   4 -16   6    0.38    1.96
  -4 -16  -6   -0.37    1.99
  -2  16  -8    8.33    1.78
   2  16   8    9.57    1.96
   2  16   8    9.81    1.74
  -2 -16  -8    9.49    2.14
   2 -16   8   11.78    1.77
  14   0  -3    0.44    1.72
  12   0  -1    0.25    1.06
  12   0  -1    0.40    1.23
  10   0   1   -0.57    0.77
  10   0   1   -0.35    0.71
   8   0   3   -0.09    0.52
   8   0   3    0.22    0.55
   6   0   5    0.05    0.45
   6   0   5    1.70    8.94
   6   0   5   -0.19    0.39
  -6   0  -5   -0.60    8.26
   4   0   7    1.90    5.62
  -4   0  -7    4.38    9.95
  -2   0  -9   -0.25    6.08
   2   0   9   -0.19    0.37
   2   0   9    0.66    5.89
  -2   0  -9   -0.33    0.40
   0   0 -11    0.40    0.48
   0   0  11   -0.75    7.70
   0   0  11    0.35    0.48
   0   0 -11    2.68    6.91
  -2   0  13   -0.63    0.71
   2   0 -13   -0.20    0.62
   2   0 -13    0.31    0.62
   4   0 -15   -0.19    0.87
   4   0 -15   -0.93    1.43
   6   0 -17   -0.48    1.33
   6   0 -17    1.44    1.35
  13   1  -2    0.77    1.43
  13   1  -2    0.03    1.40
  13  -1  -2   -0.09    1.51
  13  -1  -2    0.27    1.38
  11   1   0    5.49    0.98
  11   1   0    7.22    1.02
  11  -1   0    7.93    1.01
  11  -1   0    8.46    1.00
   9   1   2    0.65    0.67
   9   1   2    0.65    0.62
   9   1   2    0.39    0.69
   9  -1   2    0.67    0.66
   9  -1   2    0.28    0.66
   7   1   4   16.24    9.94
   7   1   4   25.84    1.30
   7   1   4   23.41    1.26
   7  -1   4   24.78    1.26
   7  -1   4   30.66   10.40
   7  -1   4   27.44    1.30
   7  -1   4   22.63    1.22
   5   1   6   21.02    6.30
   5   1   6   30.54    1.37
  -5   1  -6   40.14    7.80
   5   1   6   30.45    1.38
   5  -1   6   30.23    6.27
   5  -1   6   28.70    1.34
   5  -1   6   30.01    1.37
  -5  -1  -6   30.21    7.69
   5  -1   6   30.43    1.37
  -3   1  -8   27.43    1.33
   3   1   8   44.91    9.20
   3   1   8   25.98    1.27
   3  -1   8   29.82    5.86
  -3  -1  -8   28.21    1.32
  -3  -1  -8   31.95    6.55
   3  -1   8   26.56    1.27
   1   1  10    8.93    0.81
  -1   1 -10   -0.69    5.77
   1   1  10    8.59    6.48
  -1   1 -10    9.32    0.83
   1  -1  10   11.14    0.79
   1  -1  10    6.95    6.28
  -1  -1 -10   11.87    0.87
  -1  -1 -10    1.86    6.54
   1   1 -12   37.83    1.82
  -1   1  12   42.41    1.86
  -1  -1  12   40.87    1.85
   1  -1 -12   38.80    1.84
   1  -1 -12   39.37    1.85
   3   1 -14    5.29    0.79
   3   1 -14    3.40    0.79
   3  -1 -14    4.63    0.85
   5   1 -16    3.33    1.08
   5   1 -16    3.85    1.12
   5  -1 -16    2.11    1.17
   5  -1 -16    1.72    1.09
   7   1 -18    0.36    1.52
   7   1 -18    1.31    1.96
   7  -1 -18   -0.03    1.68
  12   2  -1    6.64    1.19
  12  -2  -1    5.70    1.22
  10   2   1    7.94    1.10
  10   2   1    7.33    0.91
  10  -2   1    5.98    0.88
   8   2   3   10.11    0.98
   8   2   3   12.01    1.03
   8   2   3   11.24    1.02
   8  -2   3   11.53    0.97
   8  -2   3   11.31    0.98
   8  -2   3   10.43    1.01
   6   2   5    6.18    0.57
   6   2   5    5.62    7.43
   6   2   5    8.06    0.82
  -6   2  -5   -2.15    7.06
   6   2   5    6.60    0.60
   6  -2   5    6.95    0.79
  -6  -2  -5    9.14    8.50
   6  -2   5    7.45    0.74
   6  -2   5   11.70    6.94
   6  -2   5    7.18    0.74
   4   2   7    4.26    0.45
   4   2   7    3.19    7.86
  -4   2  -7    1.82    6.64
  -4   2  -7    2.24    0.44
  -4  -2  -7    1.30    7.08
   4  -2   7    1.12    5.25
   4  -2   7    3.12    0.42
   4  -2   7    3.06    0.45
  -2   2  -9    0.26    0.38
  -2   2  -9   -1.48    5.53
   2   2   9    7.15   10.60
   2   2   9    0.19    0.39
   2  -2   9   -2.76    5.65
   2  -2   9    0.40    0.39
  -2  -2  -9   -4.02   10.18
   0   2  11    1.06    0.52
   0   2  11    4.28    8.56
   0   2  11    1.34    0.53
   0   2 -11    0.47    0.49
   0  -2 -11   -1.70    8.63
   0  -2  11    1.00    0.47
   2   2 -13    4.23    0.66
   2  -2 -13    5.33    0.74
  -2  -2  13    7.28    0.82
   4   2 -15    7.12    0.96
   4   2 -15    6.86    0.99
   4  -2 -15    6.64    0.95
   6   2 -17    3.48    1.44
   6   2 -17    4.57    1.27
   6  -2 -17    4.25    1.31
  13   3  -2    0.11    2.71
  13   3  -2   -0.57    2.02
  13   3  -2   -0.37    1.49
  13  -3  -2   -0.14    1.40
  11   3   0    3.10    0.90
  11   3   0    1.73    1.24
  11   3   0    2.49    1.00
  11  -3   0    2.93    0.99
  11  -3   0    3.25    0.98
   9   3   2    0.97    0.58
   9   3   2    1.83    0.73
   9   3   2    0.56    0.71
   9   3   2    2.07    0.84
   9  -3   2    2.79    0.69
   9  -3   2    1.35    0.72
   9  -3   2    1.33    0.60
   7   3   4    1.32    0.52
   7   3   4   -0.08    0.42
  -7   3  -4    0.73    9.46
   7   3   4    1.09    0.54
   7  -3   4    0.71    0.47
   7  -3   4    0.54    0.45
   7  -3   4    0.73    0.51
   7  -3   4    0.08    7.99
  -5   3  -6   -0.28    0.42
   5   3   6   -0.02    0.46
  -5   3  -6    1.50    7.36
   5   3   6    0.13    0.40
   5   3   6   -2.66   10.22
   5   3   6   -0.31    0.41
   5  -3   6   -0.03    0.44
   5  -3   6   -0.08    6.55
  -5  -3  -6    2.50   13.49
   5  -3   6    0.03    0.39
  -5  -3  -6    0.04    0.47
   5  -3   6   -0.04    0.35
   3   3   8    2.63   12.63
  -3   3  -8    1.93    0.45
  -3   3  -8    0.39    6.36
   3   3   8    1.57    0.42
   3   3   8    1.42    0.45
  -3  -3  -8   -1.01    8.77
   3  -3   8    1.53    0.37
   3  -3   8    2.34    5.65
   1   3  10    7.24    9.55
  -1   3 -10    6.00    0.56
   1   3  10    5.93    0.58
  -1   3 -10    0.14    5.93
   1   3  10    6.69    0.77
   1  -3  10    3.87    6.93
   1  -3  10    5.96    0.55
  -1  -3 -10    1.44    7.91
   1   3 -12    0.71    0.53
  -1   3  12    0.65    0.65
  -1  -3  12    0.88    0.59
   1  -3 -12    0.50    0.62
   3   3 -14    2.16    0.75
   3  -3 -14    2.83    0.83
   5   3 -16    0.87    1.05
   5   3 -16   -0.07    1.18
   5  -3 -16    0.61    1.16
   7   3 -18    0.44    1.44
   7   3 -18   -1.55    1.87
  12   4  -1    0.31    1.23
  12   4  -1    0.91    1.56
  12   4  -1    0.90    1.12
  12  -4  -1   -0.13    1.28
  12  -4  -1    1.72    1.20
  10   4   1    0.36    0.91
  10   4   1    1.19    1.02
  10  -4   1    0.12    0.81
  10  -4   1    0.24    0.72
   8   4   3    0.14    0.54
   8   4   3    0.51    0.67
   8   4   3    0.09    0.64
   8  -4   3    0.65    0.60
   8  -4   3   -0.39    0.58
  -6   4  -5    2.33    9.79
   6  -4   5    5.68    8.27
   4   4   7    3.64   10.94
  -4   4  -7    0.12    7.56
   4   4   7    2.43    0.45
  -4   4  -7    1.21    0.46
   4   4   7    1.58    0.43
   4  -4   7    1.15    0.39
   4  -4   7    5.38    6.60
  -2   4  -9    1.15    0.41
   2   4   9    0.96    0.48
   2   4   9    3.68   12.40
  -2   4  -9    1.44    6.29
   2   4   9    1.84    0.43
   2  -4   9    1.88    0.44
  -2  -4  -9    9.16    9.85
   2  -4   9   -0.81    6.02
   0   4  11    2.66    0.60
   0   4 -11    1.43    0.52
   0   4  11    2.11    0.64
   0  -4  11    1.19    0.54
   2   4 -13    1.68    0.70
   4   4 -15   -0.19    1.02
   4   4 -15    2.09    0.93
   4  -4 -15    1.45    0.97
   6   4 -17   -0.03    1.51
   6   4 -17    0.46    1.25
   6  -4 -17    1.41    1.41
  13   5  -2   10.04    3.32
  13   5  -2    4.61    1.61
  13   5  -2    7.17    1.69
  13  -5  -2    6.86    1.58
  11   5   0    5.54    1.19
  11   5   0    8.43    1.33
  11   5   0    3.88    1.00
  11  -5   0    7.67    1.14
  11  -5   0    5.29    1.03
   9   5   2   45.04    2.21
   9   5   2   48.89    2.29
   9  -5   2   43.77    2.20
   9  -5   2   45.23    2.14
   9  -5   2   46.23    2.20
  -7   5  -4   23.74    1.34
   7   5   4   24.62    1.39
   7   5   4   20.41    1.33
   7  -5   4   24.30    1.28
   7  -5   4   23.75    1.33
   7  -5   4   27.12    1.38
   5   5   6   41.48    1.96
   5   5   6   43.04    1.90
   5   5   6   41.88    1.89
  -5   5  -6   43.83    1.90
   5  -5   6   44.81    1.88
   5  -5   6   43.67    1.86
   3   5   8   43.29    9.13
   3   5   8   42.81    1.92
   3   5   8   44.16    1.85
  -3   5  -8   43.29    1.86
   3  -5   8   40.48    1.83
   3  -5   8   28.20    7.34
  -3  -5  -8   48.02   10.41
  -1   5 -10   55.97    2.30
   1   5  10   37.11   10.35
   1   5  10   53.23    2.35
   1  -5  10   56.10    2.30
   1   5 -12    5.97    0.71
  -1  -5  12    9.10    0.80
   3   5 -14   24.08    1.60
   3  -5 -14   21.62    1.70
   5   5 -16    6.74    1.14
   5  -5 -16    7.83    1.27
  12   6  -1   -0.34    1.62
  12   6  -1    0.71    1.21
  12   6  -1    0.14    1.47
  12  -6  -1    0.47    1.32
  12  -6  -1   -0.08    1.56
  12  -6  -1    0.85    1.29
  10   6   1    1.67    0.87
  10   6   1    2.46    1.05
  10  -6   1    1.49    0.88
  10  -6   1   -1.10    1.05
  10  -6   1    1.62    0.95
   8   6   3    0.04    0.57
  -8   6  -3    0.77    0.66
   8   6   3   -0.38    0.79
   8  -6   3    0.30    0.71
   8  -6   3   -0.61    0.67
   8  -6   3    0.32    0.63
   6   6   5   -0.57    0.53
   6   6   5   -0.69    0.64
   6   6   5    0.84    0.66
  -6   6  -5   -0.54    0.54
   6  -6   5    0.01    0.48
   6  -6   5    0.08    0.50
   4   6   7    0.28    0.61
   4   6   7    0.04    0.53
  -4   6  -7    1.37    0.53
  -4  -6  -7    0.39    0.53
   4  -6   7    0.14    0.42
   4  -6   7    0.09    0.46
   2   6   9   -1.54   15.70
  -2   6  -9   -0.14    0.42
   2   6   9    0.23    0.54
   2  -6   9    0.04    0.47
   0   6 -11    2.58    0.59
   0   6  11    2.78    0.77
   0  -6  11    3.07    0.63
   2   6 -13    0.41    0.69
   4   6 -15   -0.28    0.93
   4  -6 -15   -0.29    1.11
   6   6 -17    0.63    1.32
  -6   6  17   -0.34    2.14
   6  -6 -17    0.21    1.55
  11   7   0    0.06    1.32
  11   7   0    0.01    1.05
  11  -7   0   -0.41    1.12
  11  -7   0   -0.46    1.18
  -9   7  -2    6.82    0.93
   9   7   2    5.93    0.91
   9   7   2    4.33    1.03
   9  -7   2    4.86    0.87
   9  -7   2    5.37    0.98
   9  -7   2    7.89    0.99
  -7   7  -4    3.17    0.67
   7   7   4    2.49    0.65
   7   7   4    2.55    0.78
   7  -7   4    3.17    0.66
   7  -7   4    1.22    0.61
  -5   7  -6    7.17    0.62
   5   7   6    5.84    0.71
   5   7   6    6.90    0.80
   5   7   6    6.70    0.91
  -5   7  -6    7.53    0.71
   5  -7   6    6.35    0.64
   5  -7   6    7.06    0.64
   3   7   8   18.81    1.23
  -3   7  -8   19.45    1.06
  -3   7  -8   20.44    1.14
   3  -7   8   18.13    1.11
  -3  -7  -8   17.57    1.20
   1   7  10   18.34    1.32
  -1   7 -10   19.30    1.22
   1  -7  10   18.63    1.20
   1   7 -12    2.57    0.66
  -1  -7  12    3.76    0.86
   3   7 -14    7.07    0.95
   3  -7 -14    7.01    1.13
  -5   7  16   -0.33    1.68
   5   7 -16    3.15    1.17
   5  -7 -16    3.27    1.42
  12   8  -1    7.29    1.75
  12   8  -1    4.88    1.48
 -12   8   1    5.56    1.59
  12  -8  -1    3.84    1.49
  12  -8  -1    4.12    1.59
  10   8   1    5.55    1.01
  10   8   1    9.56    1.34
 -10   8  -1    4.96    1.13
  10  -8   1    9.30    1.22
  10  -8   1    7.90    1.33
  10  -8   1    6.03    1.21
   8   8   3    7.05    1.03
   8   8   3    4.10    0.78
   8  -8   3    8.85    0.93
   8  -8   3    6.31    0.86
  -6   8  -5    2.88    0.68
   6   8   5    2.68    0.82
  -6   8  -5    3.23    0.70
   6   8   5    3.24    0.72
   6   8   5    4.40    0.86
   6  -8   5    2.94    0.65
   6  -8   5    2.56    0.64
  -4   8  -7    3.77    0.65
  -4   8  -7    3.61    0.56
   4   8   7    3.19    0.68
   4   8   7    2.77    0.68
   4   8   7    3.93    0.78
   4  -8   7    3.33    0.59
   4  -8   7    2.23    0.62
  -4  -8  -7    3.48    0.67
   2   8   9    0.49    0.66
   2   8   9   -0.22    0.81
  -2   8  -9    0.83    0.51
  -2   8  -9    0.81    0.60
  -2  -8  -9    0.81    0.70
   0   8  11    5.50    0.96
   0   8  11    6.14    0.84
   0   8 -11    5.35    0.73
   0  -8  11    5.39    0.79
   0  -8 -11    5.98    0.90
  -2   8  13    8.72    1.10
   2   8 -13    6.00    0.88
  -4   8  15    6.20    1.52
   4   8 -15    5.87    1.08
   4  -8 -15    8.21    1.36
 -11   9   0    9.18    2.33
  11   9   0    6.91    1.64
  11   9   0    7.48    1.56
  11  -9   0   10.66    1.60
  11  -9   0    8.75    1.43
   9   9   2    2.40    0.91
   9   9   2    4.89    1.21
  -9   9  -2    4.14    1.04
   9  -9   2    3.16    1.12
   9  -9   2    3.55    0.98
  -7   9  -4   32.37    2.02
   7   9   4   36.11    2.00
   7   9   4   32.03    1.90
   7  -9   4   35.45    1.90
   7  -9   4   34.92    1.84
   5   9   6   31.01    1.83
   5   9   6   34.16    1.92
   5   9   6   38.31    1.98
  -5   9  -6   34.86    1.83
  -5   9  -6   35.30    1.71
   5  -9   6   38.07    1.75
   5  -9   6   31.91    1.72
  -5  -9  -6   32.02    1.77
  -3   9  -8   52.80    2.25
  -3   9  -8   50.57    2.28
   3   9   8   50.54    2.36
   3   9   8   54.23    2.41
   3  -9   8   52.73    2.30
   3  -9   8   52.99    2.33
  -3  -9  -8   47.49    2.34
  -1   9 -10   31.35    1.57
  -1   9 -10   26.16    1.49
   1   9  10   25.25    1.74
   1   9  10   28.59    1.64
   1  -9  10   28.35    1.59
  -1  -9 -10   29.12    1.69
  -1   9  12   56.76    2.70
   1   9 -12   51.51    2.55
  -1  -9  12   58.69    2.69
   3   9 -14    9.93    1.10
  -5   9  16    7.22    2.34
   5   9 -16    6.81    1.32
   5  -9 -16    8.01    1.67
  10  10   1    0.17    1.51
 -10  10  -1   -0.30    1.25
  10  10   1   -1.12    1.10
  10 -10   1   -1.28    1.54
  10 -10   1   -0.66    1.43
  10 -10   1   -0.23    1.21
   8  10   3    3.33    0.91
  -8  10  -3    3.71    1.01
   8  10   3    3.66    1.24
   8 -10   3    3.97    0.96
   8 -10   3    2.98    1.04
   6  10   5    1.73    0.81
   6  10   5    1.07    1.04
   6  10   5    0.30    1.02
  -6  10  -5    1.31    0.80
   6 -10   5    1.74    0.79
  -6 -10  -5    1.77    0.84
   6 -10   5    0.80    0.77
   4  10   7    1.40    0.99
   4  10   7    1.57    0.83
   4  10   7    2.53    0.89
  -4  10  -7    1.67    0.66
  -4  10  -7    1.16    0.67
   4 -10   7    1.90    0.79
  -4 -10  -7    0.63    0.81
   4 -10   7    2.00    0.73
   2  10   9   -0.35    0.83
   2  10   9    0.60    0.83
  -2  10  -9    0.19    0.60
  -2  10  -9    0.58    0.71
  -2 -10  -9   -0.18    0.84
   2 -10   9   -0.02    0.69
   0  10  11    1.00    0.93
   0  10 -11    2.63    0.78
   0  10  11    2.05    1.15
   0 -10  11    1.71    0.91
   0 -10 -11    2.58    0.99
  -2  10  13    1.77    1.22
   2  10 -13    2.75    0.97
   2 -10 -13    1.11    1.32
  -4  10  15    2.61    1.72
   4  10 -15    0.87    1.16
   4 -10 -15    0.43    1.49
   9  11   2    1.70    1.52
  -9  11  -2    1.63    1.26
   9  11   2    2.45    1.09
   9 -11   2    3.42    1.22
   9 -11   2    0.43    1.38
   7  11   4    5.86    1.04
  -7  11  -4    8.38    1.10
   7  11   4    7.25    1.29
  -7  11  -4    5.97    1.20
   7 -11   4    7.41    1.10
   7 -11   4    7.65    1.05
  -7 -11  -4    7.32    1.11
   5  11   6    5.19    0.99
   5  11   6    7.55    1.15
  -5  11  -6    6.77    0.90
   5  11   6    7.27    1.19
  -5  11  -6    8.96    0.93
   5 -11   6    8.42    0.95
  -5 -11  -6    8.17    1.01
   5 -11   6    7.83    0.98
  -3  11  -8    2.42    0.82
   3  11   8    2.39    0.89
  -3  11  -8    2.33    0.73
   3  11   8    1.94    0.98
   3 -11   8    1.98    0.82
  -3 -11  -8    3.05    0.93
  -1  11 -10    2.74    0.75
   1  11  10    1.59    1.14
   1  11  10    2.36    1.01
  -1  11 -10    1.98    0.82
  -1 -11 -10    1.66    1.02
   1 -11  10    1.80    0.91
   1  11 -12    6.78    0.99
  -1  11  12    5.00    1.30
  -1 -11  12    3.87    1.26
   1 -11 -12    5.20    1.26
   3  11 -14   -0.18    1.17
  -3  11  14    1.73    1.62
   3 -11 -14    0.91    1.50
   3 -11 -14    0.74    1.67
  10  12   1    0.55    1.29
  10  12   1   -0.49    1.94
  10 -12   1   -1.27    2.63
  10 -12   1    0.97    1.89
  10 -12   1   -0.76    2.07
   8  12   3    1.27    1.50
   8  12   3    1.34    1.09
   8 -12   3    0.63    1.26
   8 -12   3    0.33    1.18
  -8 -12  -3    0.30    1.26
   6  12   5   -0.48    1.30
  -6  12  -5    1.26    1.05
   6  12   5    0.83    1.32
   6  12   5    0.55    0.99
  -6  12  -5    0.14    1.03
   6 -12   5    0.13    1.02
   6 -12   5    0.03    0.98
  -6 -12  -5    0.01    1.09
  -4  12  -7    1.12    0.84
   4  12   7    1.59    0.94
   4  12   7    0.16    1.15
  -4  12  -7    1.38    0.94
   4 -12   7    1.87    1.00
   4 -12   7    0.96    0.91
  -4 -12  -7    1.97    1.04
   2  12   9    0.10    1.11
  -2  12  -9    1.40    0.80
   2  12   9    1.23    1.07
  -2  12  -9    1.01    0.92
   2 -12   9    0.54    0.92
  -2 -12  -9    2.36    1.08
   0  12  11    0.07    1.69
   0  12 -11    1.10    0.96
   0  12 -11    0.35    1.13
   0 -12  11   -0.12    1.21
  -2  12  13    1.69    1.55
   2  12 -13    0.58    1.10
   2 -12 -13    1.24    1.53
   9  13   2    6.73    2.04
   9  13   2    6.86    1.33
   9 -13   2    7.37    1.83
   7  13   4    1.22    1.58
  -7  13  -4   -0.18    1.51
   7  13   4    0.46    1.09
   7  13   4   -0.91    1.88
   7 -13   4    0.81    1.26
   7 -13   4    0.50    1.25
  -7 -13  -4    0.79    1.30
   5  13   6    5.47    1.45
   5  13   6    3.76    1.13
  -5  13  -6    3.09    1.06
   5 -13   6    5.48    1.17
  -5 -13  -6    3.93    1.23
   5 -13   6    4.50    1.10
  -3  13  -8    1.23    1.07
   3  13   8    0.55    1.70
   3  13   8    1.25    1.14
  -3  13  -8    1.67    1.06
   3 -13   8    1.30    1.29
   3 -13   8    1.61    1.10
  -3 -13  -8    1.76    1.46
   1  13  10    5.05    1.35
  -1  13 -10    5.47    0.99
   1  13  10    4.16    1.45
  -1  13 -10    4.96    1.10
   1 -13  10    4.64    1.18
  -1 -13 -10    5.37    1.30
  -1  13  12    0.15    1.51
   1  13 -12    0.19    1.71
   1 -13 -12   -1.07    1.46
  -1 -13  12   -1.41    1.61
   8  14   3    2.76    1.99
   8  14   3    2.52    1.26
  -8 -14  -3    2.88    1.77
   8 -14   3    3.72    1.68
   8 -14   3    3.54    1.52
  -6  14  -5    0.19    1.36
   6  14   5    0.15    1.90
   6  14   5    0.30    1.69
   6  14   5   -0.80    1.74
   6 -14   5    0.88    1.27
  -6 -14  -5    0.04    1.41
   6 -14   5    0.22    1.31
   4  14   7   -0.21    1.20
   4  14   7    0.64    1.45
  -4  14  -7    0.29    1.08
   4 -14   7    0.09    1.22
  -4 -14  -7   -0.15    1.28
   4 -14   7   -1.05    1.34
   2  14   9    0.23    1.41
  -2  14  -9    2.03    1.04
   2  14   9    1.12    1.35
   2 -14   9    0.79    1.30
  -2 -14  -9    1.01    1.33
   0  14  11    0.22    1.62
   0  14 -11    0.08    1.28
   0  14 -11   -0.49    1.13
   0 -14 -11   -1.49    1.91
   0 -14  11   -0.24    1.54
   0 -14 -11   -0.34    1.50
   5  15   6    2.91    1.35
   5  15   6    5.76    2.09
  -5  15  -6    4.55    2.29
  -5 -15  -6    3.03    1.53
   5 -15   6    5.60    1.42
   5 -15   6    3.86    1.88
   3  15   8    6.67    1.60
  -3  15  -8    6.24    1.27
   3  15   8    9.68    1.52
  -3 -15  -8    8.28    1.56
   3 -15   8    7.36    1.48
  -1  15 -10    6.68    1.99
   1  15  10    7.55    2.36
  -1 -15 -10    2.89    2.83
  12   0   0   52.11    2.83
  12   0   0   47.39    2.62
  10   0   2    0.88    0.83
  10   0   2    0.37    0.72
   8   0   4  109.65    4.35
   8   0   4  106.49    4.33
  -6   0  -6    0.86    0.51
   6   0   6    1.24    0.55
   6   0   6    1.11    0.46
   6   0   6    3.03    8.27
  -6   0  -6   -1.62    9.83
  -4   0  -8  230.06    9.19
   4   0   8  238.00    9.20
   4   0   8  247.63   15.02
   2   0  10   14.47    0.94
   2   0  10   11.65    8.20
  -2   0 -10   13.80    0.94
  -2   0 -10   -4.43    7.11
   0   0 -12   89.64    3.69
   0   0  12   92.56    3.71
   2   0 -14    6.80    0.89
   2   0 -14    9.74    0.91
  -2   0  14   10.91    1.02
   4   0 -16   10.80    1.21
   4   0 -16   11.91    1.21
   6   0 -18   18.34    1.89
   6   0 -18   15.56    1.74
  13   1  -1   12.69    1.57
  13   1  -1    2.93    2.34
  13  -1  -1    0.39    2.14
  13  -1  -1   12.46    1.55
  11   1   1    8.09    0.99
  11   1   1    7.14    1.09
  11  -1   1    5.06    0.99
  11  -1   1    5.04    1.06
   9   1   3   27.33    1.59
   9   1   3   29.93    2.22
   9   1   3   29.87    1.62
   9  -1   3   26.74    1.60
   7   1   5   28.91    1.49
   7   1   5   31.96    1.53
   7  -1   5   29.59   11.15
   7  -1   5   28.97    1.46
   7  -1   5   31.27    1.52
   5   1   7   31.68    1.39
  -5   1  -7   29.28    1.42
   5   1   7   23.94    8.09
  -5   1  -7    3.04    9.69
  -5  -1  -7   28.94    1.44
   5  -1   7   29.33    1.39
  -5  -1  -7   29.29   10.23
   5  -1   7   23.79    7.91
  -3   1  -9   82.31    3.42
   3   1   9   80.51   11.60
   3   1   9   86.68    3.42
   3  -1   9   85.82    3.42
   3  -1   9   85.28   11.13
  -3  -1  -9   85.98    3.43
  -1   1 -11    9.03    0.69
   1   1  11    8.45    0.89
   1  -1  11    7.83    0.83
  -1  -1 -11    7.93    0.70
   1   1 -13   75.07    3.11
  -1   1  13   78.21    3.14
   1  -1 -13   74.15    3.12
  -1  -1  13   73.60    3.12
   1  -1 -13   70.24    3.10
   3   1 -15    2.75    0.92
   3  -1 -15    1.64    0.94
   3  -1 -15    2.20    0.92
   5   1 -17   24.83    2.36
   5   1 -17   28.74    2.16
   5  -1 -17   24.60    2.29
   5  -1 -17   26.13    2.41
  12   2   0    0.27    1.07
  12   2   0    0.70    1.23
  12  -2   0    1.21    1.14
  12  -2   0    2.01    1.22
  10   2   2   22.28    1.67
  10   2   2   20.77    2.06
  10  -2   2   21.99    1.62
   8   2   4   26.72    1.48
   8   2   4   27.59    1.54
   8   2   4   25.45    1.47
   8  -2   4   27.67    1.49
   8  -2   4   25.60    1.45
  -6   2  -6   23.42    1.30
   6   2   6   26.67    1.37
   6   2   6   24.05    1.32
   6   2   6   21.72   10.09
   6   2   6   26.00    1.38
  -6   2  -6   -0.51   10.56
   6  -2   6   26.83    1.35
   6  -2   6   27.08    1.31
  -6  -2  -6   28.72    1.39
   6  -2   6   28.03    1.33
   6  -2   6   22.95    9.61
   4   2   8   43.65    9.80
  -4   2  -8   33.81    1.63
   4   2   8   33.70    1.59
  -4  -2  -8   32.39    8.77
   4  -2   8   47.09    8.69
   4  -2   8   35.92    1.58
   2   2  10    1.53    8.38
   2   2  10    8.55    0.86
   2   2  10    7.49    0.92
  -2   2 -10    8.68    0.76
  -2  -2 -10   -1.13   10.39
   2  -2  10    6.28    0.61
   0   2  12   38.67    1.96
   0   2  12   45.59    1.96
   0   2 -12   41.75    1.91
   0  -2  12   44.01    1.91
   0  -2 -12   40.93    1.94
   2   2 -14   18.51    1.37
   2  -2 -14   16.09    1.54
   4   2 -16   16.81    1.73
   4  -2 -16   17.53    1.84
   6   2 -18    1.90    1.75
   6   2 -18    1.67    1.46
   6  -2 -18    3.59    1.61
  13   3  -1   11.54    1.64
  13   3  -1    8.73    1.52
  13  -3  -1   14.25    1.64
  11   3   1    2.45    0.91
  11   3   1    2.66    1.07
  11  -3   1    1.25    0.97
  11  -3   1    0.92    1.03
   9   3   3   62.81    2.98
   9   3   3   72.75    3.00
   9   3   3   66.98    2.97
   9  -3   3   69.94    2.94
   9  -3   3   70.92    2.95
   7   3   5   -0.27    0.57
   7   3   5    1.20    0.63
   7   3   5    0.61    0.54
  -7   3  -5    0.12    0.52
   7  -3   5    0.23    0.53
   7  -3   5    0.62    0.57
   7  -3   5    1.48    0.52
   5   3   7  109.43   13.61
  -5   3  -7  131.73    5.38
   5   3   7  140.38    5.39
   5   3   7  139.03    5.46
   5  -3   7  140.98    5.37
   5  -3   7  138.07    5.39
  -5  -3  -7  144.35   16.44
   3   3   9    0.18    0.47
  -3   3  -9    1.01    0.52
   3   3   9   -0.59    9.11
   3   3   9    0.45    0.50
   3  -3   9    0.37    0.45
  -3  -3  -9   -0.83    8.36
   1   3  11  120.78    4.80
   1   3  11  117.50    4.76
  -1   3 -11  114.96    4.76
   1  -3  11  126.34    4.77
   1   3 -13    1.76    0.67
  -1  -3  13    2.03    0.77
   1  -3 -13    1.35    0.74
   3   3 -15   52.85    2.49
   3  -3 -15   48.39    2.50
   5   3 -17   -0.44    1.44
   5   3 -17    1.62    1.21
   5  -3 -17    1.33    1.35
  12   4   0    0.38    1.12
  12   4   0    0.45    1.34
  12  -4   0    0.34    1.27
  12  -4   0    0.48    1.29
  10   4   2   58.61    2.71
  10   4   2   51.97    2.64
  10  -4   2   57.46    2.62
  10  -4   2   54.48    2.71
  10  -4   2   58.84    2.64
   8   4   4    1.49    0.76
   8   4   4    0.72    0.67
  -8   4  -4    1.75    0.65
   8   4   4    1.15    0.62
   8  -4   4    1.78    0.66
   8  -4   4    2.35    0.62
   8  -4   4    0.60    0.77
  -6   4  -6   71.96    3.00
   6   4   6   70.86    3.03
   6   4   6   70.16    3.06
   6   4   6   74.53    3.00
   6  -4   6   74.43    2.98
   6  -4   6   72.84    2.99
   6  -4   6   74.30    3.00
  -4   4  -8   32.69    1.59
   4   4   8   35.25    1.61
   4   4   8   32.14    1.55
   4   4   8   28.91   10.33
  -4  -4  -8   23.79   10.83
   4  -4   8   33.48    1.52
   2   4  10   84.94    3.35
   2   4  10   82.69    3.29
   2   4  10   75.90   12.66
  -2   4 -10   77.26    3.26
   2  -4  10   78.43    3.28
   0   4 -12   28.97    1.49
   0   4  12   25.47    1.61
   0  -4  12   29.48    1.52
   2   4 -14   15.74    1.36
   2  -4 -14   18.03    1.53
   4   4 -16   12.02    1.19
   4  -4 -16   10.98    1.28
  -6   4  18    7.65    2.96
   6   4 -18   11.00    1.51
   6  -4 -18    9.31    2.09
  13   5  -1    5.07    1.54
  13   5  -1    4.35    2.10
  13  -5  -1    8.03    1.99
  11   5   1   13.69    1.57
  11   5   1   13.54    1.43
  11  -5   1    9.50    1.26
  11  -5   1   13.58    1.31
   9   5   3   13.48    1.57
   9  -5   3   13.61    1.42
   9  -5   3   17.14    1.36
   9  -5   3   16.34    1.47
   7   5   5   25.43    1.50
  -7   5  -5   29.04    1.44
   7   5   5   25.84    1.59
   7   5   5   26.47    1.49
   7  -5   5   26.26    1.55
   7  -5   5   25.71    1.52
   5   5   7   28.89    1.40
   5   5   7   26.23    1.46
   5   5   7   25.73    1.46
  -5   5  -7   27.15    1.43
   5  -5   7   27.12    1.46
   5  -5   7   24.24    1.35
   5  -5   7   27.74    1.37
   3   5   9   59.99    2.52
   3   5   9   57.13    2.45
   3   5   9   73.51   20.28
  -3   5  -9   53.55    2.42
   3  -5   9   59.38    2.44
   1   5  11   16.97    1.25
  -1   5 -11   14.20    1.18
   1  -5  11   17.22    1.13
   1   5 -13   34.59    1.84
  -1  -5  13   37.19    1.94
   3   5 -15    5.30    0.96
   3  -5 -15    8.60    1.14
   5   5 -17   13.74    1.42
   5  -5 -17   14.92    1.59
  12   6   0    9.44    1.39
  12   6   0   12.40    1.70
  12  -6   0   10.61    1.55
  12  -6   0   10.06    1.46
  10   6   2    1.05    1.14
  10   6   2    1.89    0.84
 -10   6  -2    1.47    0.93
  10  -6   2    1.67    1.00
  10  -6   2    2.01    0.93
  10  -6   2    0.78    1.07
   8   6   4   53.28    2.38
  -8   6  -4   49.25    2.27
   8   6   4   42.73    2.29
   8  -6   4   49.30    2.30
   8  -6   4   51.66    2.34
   8  -6   4   48.69    2.26
  -6   6  -6    6.03    0.69
   6   6   6    5.03    0.70
   6   6   6    7.53    0.81
   6   6   6    5.10    0.77
   6  -6   6    5.19    0.65
   6  -6   6    5.06    0.81
   4   6   8   36.73    1.75
  -4   6  -8   31.65    1.69
   4  -6   8   33.56    1.63
   4  -6   8   35.32    1.64
  -2   6 -10    7.67    0.68
   2   6  10    5.20    0.77
   2  -6  10    8.58    0.93
   0   6 -12   15.03    1.21
   0   6  12   13.13    1.60
   2   6 -14   30.35    1.80
   2  -6 -14   26.33    1.94
   4   6 -16    3.97    1.08
   4  -6 -16    0.18    1.24
  11   7   1   21.94    2.25
  11   7   1   18.47    1.80
 -11   7  -1   16.77    1.53
  11  -7   1   18.01    2.07
  11  -7   1   17.67    1.94
  -9   7  -3    1.51    0.84
   9   7   3    0.77    1.06
   9   7   3    1.54    0.78
   9  -7   3    1.84    0.84
   9  -7   3    2.22    0.94
   9  -7   3    0.89    0.95
   7   7   5   69.33    3.06
  -7   7  -5   70.40    3.00
   7   7   5   69.68    3.17
   7  -7   5   68.72    2.95
   7  -7   5   70.19    2.99
   5   7   7    1.27    0.70
   5   7   7    0.69    0.60
  -5   7  -7    0.34    0.65
   5   7   7    1.47    0.81
  -5  -7  -7    0.68    0.67
   5  -7   7    1.14    0.60
   5  -7   7    1.48    0.62
   3   7   9  109.59    4.39
  -3   7  -9  105.57    4.28
  -3  -7  -9  105.64    4.32
   3  -7   9  107.03    4.31
  -1   7 -11    2.41    0.62
   1   7  11    2.06    0.82
   1  -7  11    3.52    0.73
   1   7 -13  106.65    4.41
  -1  -7  13  107.58    4.48
   3   7 -15    1.15    1.00
  -3   7  15    0.35    1.26
   3  -7 -15    1.25    1.21
   5   7 -17   30.86    2.37
  -5   7  17   28.49    2.46
   5  -7 -17   25.76    2.79
  12   8   0   11.75    1.58
 -12   8   0   14.37    1.68
  12   8   0   15.30    2.29
  12  -8   0   21.79    2.60
  12  -8   0   18.63    1.99
  10   8   2    4.00    1.69
 -10   8  -2    6.10    1.18
  10   8   2    3.71    1.05
  10  -8   2    7.30    1.14
  10  -8   2    7.47    1.35
  10  -8   2    6.63    1.84
   8   8   4   20.97    1.59
  -8   8  -4   23.35    1.72
   8   8   4   24.90    1.86
   8  -8   4   22.99    1.72
   8  -8   4   27.41    1.60
   6   8   6   10.21    1.53
   6   8   6    6.10    0.83
  -6   8  -6    9.07    0.90
   6  -8   6    7.44    0.82
  -6  -8  -6   11.05    0.93
   6  -8   6    8.35    0.83
  -4   8  -8   51.83    2.38
   4   8   8   56.74    2.43
   4   8   8   53.27    2.47
  -4  -8  -8   50.82    2.42
   4  -8   8   52.59    2.39
   4  -8   8   56.48    2.39
   2   8  10   26.46    1.60
  -2   8 -10   22.99    1.48
   2   8  10   25.50    1.64
   2  -8  10   24.84    1.48
   0   8 -12   31.41    1.65
   0   8  12   29.91    1.86
   0   8  12   22.20    1.98
   0  -8  12   30.59    1.78
   2   8 -14   10.99    1.07
  -2   8  14   12.30    1.30
   2  -8 -14   11.29    1.32
   4   8 -16    4.89    1.31
  -4   8  16    6.79    1.69
   4  -8 -16    6.62    1.55
  11   9   1    5.71    1.31
  11   9   1    3.84    1.69
 -11   9  -1    4.76    1.37
  11  -9   1    4.90    1.41
  11  -9   1    2.59    1.56
   9   9   3   19.75    2.10
  -9   9  -3   17.76    1.88
   9   9   3   17.92    1.68
   9  -9   3   24.73    2.13
   9  -9   3   21.28    2.03
   9  -9   3   20.24    2.13
  -7   9  -5    3.46    0.92
   7   9   5    3.30    1.11
   7   9   5    2.35    0.79
   7   9   5    0.19    1.16
   7  -9   5    2.94    0.82
   7  -9   5    4.20    0.88
   5   9   7   44.38    2.28
   5   9   7   46.00    2.34
  -5   9  -7   45.55    2.15
   5   9   7   42.16    2.78
   5  -9   7   46.11    2.18
   5  -9   7   44.20    2.17
  -5  -9  -7   48.45    2.20
   3   9   9    7.51    0.91
  -3   9  -9    6.96    0.82
   3   9   9    5.78    0.91
  -3  -9  -9    9.49    0.94
   3  -9   9    7.50    0.84
   1   9  11   39.34    2.26
  -1   9 -11   44.08    2.03
   1   9  11   41.00    2.15
  -1  -9 -11   35.74    2.23
   1  -9  11   38.81    2.05
  -1   9  13    2.38    1.09
   1   9 -13    1.89    0.87
  -1  -9  13    1.98    1.20
  -3   9  15   24.41    2.48
   3   9 -15   22.50    1.92
   3  -9 -15   20.30    1.76
  10  10   2   18.12    1.90
 -10  10  -2   19.09    1.65
  10  10   2   16.55    1.86
  10 -10   2   19.32    1.80
  10 -10   2   20.30    2.25
  10 -10   2   20.01    2.46
   8  10   4    1.90    1.35
  -8  10  -4    0.92    1.04
   8  10   4    1.84    0.97
   8 -10   4    0.14    0.98
   8 -10   4    2.22    1.08
   6  10   6   29.94    2.12
  -6  10  -6   26.87    1.88
   6  10   6   26.05    1.77
   6  10   6   29.84    2.05
   6 -10   6   27.67    1.79
  -6 -10  -6   27.50    1.89
   6 -10   6   29.01    1.79
  -4  10  -8    1.84    0.80
   4  10   8    1.78    0.87
   4  10   8    2.65    0.98
  -4  10  -8    3.09    0.75
   4 -10   8    2.98    0.82
  -4 -10  -8    2.09    0.94
   4 -10   8    3.01    0.93
  -2  10 -10   12.24    0.97
   2  10  10    9.13    1.07
   2  10  10    8.57    1.15
  -2 -10 -10   10.13    1.11
   2 -10  10   12.51    1.37
   0  10 -12   10.04    1.02
   0  10  12    7.76    1.17
   0 -10 -12    8.27    1.27
   0 -10  12   10.88    1.17
  -2  10  14    9.74    1.45
   2  10 -14    6.51    1.09
  -4  10  16   12.29    2.14
   4  10 -16   13.91    1.41
   4 -10 -16   13.00    1.97
   9  11   3   21.24    2.57
   9  11   3   15.15    1.84
  -9  11  -3   19.98    2.14
   9 -11   3   19.09    2.10
   9 -11   3   20.68    2.35
  -9 -11  -3   20.32    1.68
  -7  11  -5    1.05    1.07
   7  11   5    1.17    0.95
   7  11   5    2.53    1.35
   7  11   5    0.10    1.46
   7 -11   5    0.93    1.20
  -7 -11  -5    0.28    1.90
   7 -11   5    3.50    1.30
   5  11   7   30.16    2.03
  -5  11  -7   31.09    1.98
   5  11   7   35.08    2.25
   5  11   7   34.37    2.31
  -5  11  -7   30.83    1.91
   5 -11   7   30.18    2.01
   5 -11   7   33.08    1.95
  -5 -11  -7   33.91    2.07
   3  11   9    0.02    0.99
  -3  11  -9    0.33    0.86
  -3  11  -9   -0.02    0.78
   3  11   9   -1.37    1.09
   3 -11   9   -0.44    0.88
  -3 -11  -9   -0.39    1.02
   1  11  11   38.33    2.40
  -1  11 -11   38.08    2.17
   1 -11  11   39.31    2.25
  -1 -11 -11   39.69    2.39
  -1  11  13    0.77    1.34
   1  11 -13    0.54    0.98
  -1 -11  13    1.04    1.51
  -3  11  15   27.26    2.51
   3  11 -15   26.22    2.12
   3 -11 -15   23.63    2.10
   8  12   4   12.37    1.78
   8  12   4   10.90    1.35
  -8  12  -4   11.44    1.47
  -8 -12  -4    9.71    1.49
   8 -12   4   11.71    1.52
   8 -12   4   11.82    1.43
  -6  12  -6    5.05    1.47
   6  12   6    3.61    1.08
  -6  12  -6    8.36    1.19
   6  12   6    5.60    2.59
  -6 -12  -6    7.01    1.25
   6 -12   6    8.12    1.16
   6 -12   6    5.69    1.15
   4  12   8   18.73    2.03
   4  12   8   17.90    1.76
  -4  12  -8   15.80    1.26
  -4  12  -8   18.12    1.78
   4 -12   8   15.39    1.39
  -4 -12  -8   16.22    1.43
   4 -12   8   19.66    2.07
   2  12  10   14.81    1.95
  -2  12 -10   21.28    2.10
   2  12  10   16.83    2.49
  -2  12 -10   19.31    1.80
   0  12  12   10.08    1.53
   0  12 -12   13.36    1.17
   0 -12  12   10.20    1.50
   0 -12 -12   10.64    1.55
  -2  12  14   11.73    1.87
   2  12 -14    8.15    1.30
   7  13   5   17.27    2.03
   7  13   5   15.05    2.08
   7 -13   5   18.69    1.55
  -7 -13  -5   18.25    1.63
   7 -13   5   16.83    1.56
   5  13   7    2.85    1.52
   5  13   7    0.05    1.11
  -5  13  -7    0.93    1.10
   5 -13   7    0.14    1.27
  -5 -13  -7    1.45    1.26
   5 -13   7    2.29    1.14
   3  13   9   40.12    2.67
  -3  13  -9   35.78    2.18
   3  13   9   32.93    2.37
  -3  13  -9   37.19    2.35
  -3 -13  -9   35.13    2.49
   3 -13   9   35.75    2.37
  -1  13 -11    0.18    1.11
   1  13  11    1.13    1.43
   1  13  11    0.23    1.95
   1 -13  11   -0.01    1.31
  -1 -13 -11    0.62    1.36
  -1  13  13   17.21    1.99
   1  13 -13   20.01    2.06
   1 -13 -13   16.09    2.80
  -1 -13  13   13.24    2.33
   6  14   6    4.08    2.01
  -6  14  -6    1.14    1.60
   6  14   6    1.36    1.27
  -6 -14  -6    0.49    1.47
   6 -14   6    1.98    1.35
   6 -14   6    1.23    1.48
   4  14   8    6.18    1.39
   4  14   8    6.31    1.70
  -4  14  -8    7.60    1.25
   4 -14   8    8.62    1.42
  -4 -14  -8    6.44    1.46
  -2  14 -10    2.68    1.32
  -2  14 -10    2.80    1.22
   2  14  10    1.79    1.56
   2  14  10    2.06    1.59
  -2 -14 -10    2.47    1.42
   2 -14  10    2.37    1.47
   0  14 -12    4.16    1.40
   0  14  12    2.32    2.47
   0 -14 -12    1.70    1.74
   0 -14  12    2.34    1.91
   5  15   7    0.54    1.44
   3  15   9    4.75    1.79
  -3  15  -9    5.52    1.40
   3  15   9    3.16    1.60
   3 -15   9    5.52    1.63
  -3 -15  -9    3.97    1.64
  12   0   1   -0.61    1.10
  12   0   1    0.63    1.25
  10   0   3   -0.27    0.92
  10   0   3   -0.60    0.96
  10   0   3   -0.16    0.75
   8   0   5   -0.37    0.62
   8   0   5    0.59    0.75
   6   0   7   -0.04    0.49
  -6   0  -7    0.09    0.56
   4   0   9   -0.13    0.45
  -4   0  -9   -0.06    0.57
   2   0  11   -0.51    0.53
  -2   0 -11    0.25    0.57
   0   0  13   -0.50    0.91
   0   0  13    0.16    0.70
   0   0 -13   -0.07    0.66
   2   0 -15   -0.62    0.92
   2   0 -15    0.00    0.91
   4   0 -17    0.56    1.43
   4   0 -17    1.50    1.27
  13   1   0    1.37    1.40
  13   1   0   -0.21    1.51
  13  -1   0    0.47    1.43
  13  -1   0    1.17    1.51
  11   1   2    0.67    0.88
  11   1   2   -0.32    1.07
  11  -1   2    0.15    1.04
  11  -1   2    0.55    0.90
   9   1   4    0.13    0.75
   9   1   4   -0.52    0.66
   9   1   4    1.41    0.84
   9  -1   4   -0.23    0.81
   9  -1   4    0.66    0.78
   7   1   6    9.28    1.11
  -7   1  -6    6.68    0.68
   7   1   6    8.38    0.96
   7  -1   6    8.69    0.77
   7  -1   6    7.32    0.70
  -7  -1  -6    7.67    0.77
  -5   1  -8    0.47    0.54
   5   1   8   -3.35   12.22
   5   1   8    1.34    0.52
  -5  -1  -8    0.55    0.57
  -5  -1  -8   -3.90   14.08
   5  -1   8    0.93    0.49
  -3   1 -10    5.64    0.63
   3   1  10    8.00    0.89
  -3  -1 -10    8.91    0.95
   3  -1  10    8.02    0.85
   1   1  12   14.23    1.18
   1   1  12   15.83    1.14
  -1   1 -12   13.87    1.20
  -1  -1 -12   15.58    1.23
   1  -1  12   14.93    1.14
   1   1 -14   15.63    1.37
   1  -1 -14   14.15    1.40
   1  -1 -14   13.89    1.44
  -1  -1  14   14.73    1.64
   3   1 -16    3.02    1.04
   3  -1 -16    2.22    1.08
   3  -1 -16    1.87    1.11
   5   1 -18    1.50    1.78
   5  -1 -18    7.02    1.57
  12   2   1   11.80    1.69
  12   2   1    9.07    1.42
  12  -2   1    9.83    1.27
  12  -2   1   11.52    1.41
  10   2   3   17.33    1.50
  10   2   3   21.25    1.70
  10  -2   3   19.17    1.68
  10  -2   3   22.77    1.66
  -8   2  -5   31.64    1.68
   8   2   5   30.41    2.23
   8   2   5   32.25    1.75
   8   2   5   28.30    1.67
   8  -2   5   32.32    1.83
   8  -2   5   33.34    1.72
   6   2   7   39.44    1.75
   6   2   7   36.94    1.79
  -6   2  -7   33.11    1.75
   6  -2   7   38.28    1.74
  -6  -2  -7   38.89    1.81
  -4   2  -9   38.15    1.77
   4   2   9   37.82    1.74
   4   2   9   38.57    1.81
   4   2   9   29.90   10.87
  -4  -2  -9   -0.36   14.36
   4  -2   9   38.44    1.74
   2   2  11   30.88    1.63
  -2   2 -11   31.73    1.58
   2   2  11   31.00    1.57
   2  -2  11   32.73    1.55
   0   2  13   19.66    1.34
   0   2  13   15.44    1.47
   0   2 -13   17.87    1.33
   0  -2  13   19.49    1.36
   2   2 -15    6.94    0.97
   2  -2 -15    7.83    1.04
   4   2 -17    2.16    1.16
   4  -2 -17    3.26    1.50
  13   3   0   -0.14    1.37
  13   3   0    0.61    1.63
  13  -3   0    0.76    1.53
  13  -3   0   -0.29    1.56
  11   3   2    0.31    1.16
  11   3   2    0.03    0.93
  11  -3   2    1.12    1.09
  11  -3   2    0.16    0.97
   9   3   4   -0.53    0.72
   9   3   4    0.58    0.83
   9   3   4   -0.65    0.89
   9  -3   4    0.17    0.76
   9  -3   4   -0.58    0.69
   9  -3   4   -0.06    0.81
   7   3   6    7.24    0.86
   7   3   6    6.88    0.75
   7   3   6    7.23    0.97
  -7   3  -6    7.85    0.72
   7  -3   6    8.84    0.81
   7  -3   6    9.79    1.16
  -7  -3  -6    8.02    0.85
   7  -3   6    7.24    1.17
  -5   3  -8    1.49    0.56
   5   3   8    1.97    0.56
   5   3   8    1.33    0.57
   5  -3   8    1.12    0.51
   5  -3   8    1.07    0.58
   3   3  10    0.61    0.58
   3   3  10   -0.35    0.54
  -3   3 -10    0.23    0.50
   3  -3  10    0.90    0.52
  -1   3 -12   -0.18    0.62
   1   3  12   -0.35    0.75
   1   3  12    0.18    0.61
   1  -3  12   -0.34    0.63
   1   3 -14    0.41    0.77
   1  -3 -14   -0.95    0.87
  -1  -3  14   -0.13    0.91
   3   3 -16    4.49    1.04
   3  -3 -16    3.76    1.15
   5   3 -18   -0.40    1.36
   5  -3 -18    1.18    1.59
  12   4   1    2.68    1.48
  12   4   1    1.39    1.12
  12  -4   1    2.40    1.31
  12  -4   1    4.45    1.38
  10   4   3    3.83    1.11
  10   4   3    3.47    0.92
  10  -4   3    4.26    0.90
  10  -4   3    3.04    1.03
  10  -4   3    4.19    1.01
   8   4   5    8.03    1.04
   8   4   5    6.48    0.96
   8   4   5    6.43    0.85
  -8   4  -5    5.97    0.75
   8  -4   5    6.43    0.85
   8  -4   5    6.23    0.79
   8  -4   5    7.34    0.76
   6   4   7    1.80    0.59
   6   4   7    0.72    0.58
  -6   4  -7    2.73    0.61
   6  -4   7    2.49    0.61
  -4   4  -9    1.60    0.57
   4   4   9    1.92    0.61
   4   4   9    1.91    0.54
   4  -4   9    1.98    0.54
  -2   4 -11   -0.33    0.60
   2   4  11   -0.71    0.68
   2   4  11    0.36    0.60
   2  -4  11    0.33    0.59
   0   4 -13    0.06    0.69
   0  -4  13    0.86    0.78
   2   4 -15    0.52    0.86
   2  -4 -15    0.99    1.04
   4   4 -17    0.51    1.16
   4  -4 -17    0.67    1.33
  13   5   0    0.54    1.48
  13   5   0    0.84    1.82
  13  -5   0   -0.35    1.86
  13  -5   0    0.76    1.71
  11   5   2    1.57    1.42
 -11   5  -2    0.74    1.11
  11   5   2    0.62    0.96
  11  -5   2    1.18    1.62
  11  -5   2    1.37    1.10
  -9   5  -4    4.70    0.84
   9   5   4    5.48    1.08
   9   5   4    5.19    0.90
   9  -5   4    2.65    0.80
   9  -5   4    4.87    0.96
   9  -5   4    6.91    0.90
   7   5   6    3.73    0.72
  -7   5  -6    4.73    0.73
   7   5   6    3.69    0.75
   7   5   6    4.94    0.90
   7  -5   6    4.62    0.70
   7  -5   6    2.97    0.69
   7  -5   6    4.42    0.82
   5   5   8   29.67    1.84
  -5   5  -8   32.69    1.66
   5   5   8   31.80    1.70
   5  -5   8   33.35    1.62
   5  -5   8   32.59    1.56
  -3   5 -10   31.89    1.59
   3   5  10   34.54    1.73
   3   5  10   31.74    1.80
   1   5  12   20.05    1.53
  -1   5 -12   20.46    1.36
   1  -5  12   22.29    1.41
   1   5 -14   20.54    1.58
   1  -5 -14   21.64    1.73
  -1  -5  14   21.03    1.82
   3   5 -16   20.22    1.85
   3  -5 -16   17.27    1.57
   5   5 -18    3.26    1.43
  -5   5  18    2.14    2.73
 -12   6  -1    8.88    1.52
  12   6   1    7.08    1.38
  12   6   1    9.68    1.77
  12  -6   1   11.34    1.62
  12  -6   1    8.37    1.61
  10   6   3    7.44    1.34
 -10   6  -3    8.91    1.12
  10   6   3    7.32    1.08
  10  -6   3    9.37    1.07
  10  -6   3   11.61    1.23
  10  -6   3   11.13    1.20
  -8   6  -5   11.65    1.02
   8   6   5   14.15    1.60
   8   6   5   12.47    1.28
   8  -6   5   10.90    1.00
   8  -6   5   11.89    1.47
   8  -6   5   13.53    1.30
  -6   6  -7   11.47    1.26
   6   6   7   10.02    1.17
   6   6   7   13.51    1.36
   6   6   7   11.76    1.41
   6  -6   7   14.17    1.14
   6  -6   7   11.61    1.18
   6  -6   7   14.50    1.38
   4   6   9   10.91    1.14
  -4   6  -9   10.49    1.01
   4  -6   9    9.87    1.05
  -2   6 -11    2.11    0.65
   2   6  11    2.44    0.78
   2  -6  11    1.02    0.65
   0   6 -13    1.12    0.89
   0  -6  13    2.24    0.90
   2   6 -15    0.52    0.91
   2  -6 -15    0.86    1.13
   4   6 -17    0.14    1.70
  -4   6  17    0.12    1.67
   4  -6 -17   -0.33    1.50
  11   7   2    0.98    1.53
 -11   7  -2   -0.08    1.22
  11   7   2   -0.67    1.09
  11  -7   2    0.97    1.37
  11  -7   2   -0.40    1.14
   9   7   4    0.17    0.78
   9   7   4    0.43    1.19
  -9   7  -4   -0.81    0.93
   9  -7   4    0.72    1.05
   9  -7   4    1.55    0.91
   9  -7   4    0.72    0.98
   7   7   6    1.31    1.64
   7   7   6    3.19    0.78
   7   7   6    2.77    1.04
   7  -7   6    2.95    0.78
   7  -7   6    3.61    0.97
   7  -7   6    3.50    0.79
  -5   7  -8    3.38    0.72
   5   7   8    2.28    0.70
   5   7   8    2.72    0.82
   5  -7   8    3.14    0.73
  -5  -7  -8    2.20    0.83
   5  -7   8    3.23    0.66
  -3   7 -10    0.42    0.64
   3   7  10    0.03    0.74
   3  -7  10    0.58    0.65
   1   7  12    0.26    1.01
   1  -7  12    0.69    0.78
   1   7 -14    0.05    0.87
  -1  -7  14    0.10    1.18
  -3   7  16    7.89    1.50
   3   7 -16    3.83    1.14
   3  -7 -16    5.61    1.47
 -12   8  -1    0.60    1.52
  12   8   1    0.81    1.92
  12   8   1   -0.77    1.31
  12  -8   1    0.01    1.60
  12  -8   1    1.92    1.75
  10   8   3    2.02    1.44
  10   8   3    2.91    1.08
 -10   8  -3    1.87    1.13
  10  -8   3    1.37    1.10
  10  -8   3    2.17    1.35
  10  -8   3    3.07    1.31
  -8   8  -5    0.67    0.91
   8   8   5    0.93    0.82
   8   8   5    1.34    1.17
   8  -8   5    1.42    1.11
   8  -8   5    1.54    0.88
   8  -8   5    1.37    0.90
   6   8   7   11.10    1.31
  -6   8  -7   11.56    1.00
   6   8   7   10.86    1.23
   6   8   7   12.50    1.12
   6  -8   7   11.30    0.96
  -6  -8  -7    7.32    1.03
   6  -8   7    8.53    0.95
  -4   8  -9    4.23    0.73
   4   8   9    4.91    0.87
   4   8   9    2.84    0.80
   4  -8   9    4.88    0.75
  -4  -8  -9    4.68    0.92
   2   8  11    6.56    0.95
   2   8  11    4.95    1.02
  -2   8 -11    6.56    0.85
   2  -8  11    6.00    0.88
   0   8 -13    0.51    0.84
   0   8  13    1.41    1.04
   0  -8  13    0.19    1.05
   2   8 -15    2.20    1.04
  -2   8  15    2.86    1.34
   2  -8 -15    2.30    1.28
  -4   8  17   -0.06    3.50
   4   8 -17    0.37    1.26
  11   9   2   -0.03    1.23
 -11   9  -2   -0.32    1.38
  11   9   2   -0.44    1.81
  11  -9   2   -0.80    3.57
  11  -9   2    1.15    1.61
  11  -9   2    0.76    1.40
  -9   9  -4   -0.04    1.07
   9   9   4   -0.22    0.91
   9   9   4    0.00    1.43
   9  -9   4    0.88    1.11
   9  -9   4    0.22    1.17
   9  -9   4    0.49    1.33
   7   9   6    2.31    1.28
   7   9   6    1.71    0.86
   7   9   6    0.43    1.31
  -7   9  -6    4.47    0.97
  -7  -9  -6    3.00    1.04
   7  -9   6    2.83    0.91
   7  -9   6    1.70    0.89
  -5   9  -8    0.61    0.79
   5   9   8    0.60    0.83
   5   9   8   -0.09    1.23
   5   9   8    1.41    0.98
   5  -9   8   -0.76    0.77
   5  -9   8    1.09    0.89
  -5  -9  -8    0.58    0.97
   3   9  10    4.71    0.98
   3   9  10    3.42    1.04
  -3   9 -10    4.03    0.82
   3  -9  10    3.95    0.86
  -3  -9 -10    4.50    1.02
  -1   9 -12   11.71    1.02
   1   9  12    9.26    1.17
   1   9  12   12.09    1.41
   1  -9  12   10.84    1.12
   1   9 -14    9.07    1.08
  -1   9  14    8.34    1.31
  -1  -9  14    9.57    1.66
   3   9 -16    4.38    1.22
  -3   9  16    7.03    1.66
   3  -9 -16    5.75    1.60
  10  10   3    1.64    1.84
 -10  10  -3    1.10    1.33
  10  10   3   -0.14    1.09
  10 -10   3   -0.02    1.61
  10 -10   3    0.38    1.30
  10 -10   3   -1.12    1.66
   8  10   5   -0.04    2.31
  -8  10  -5   -0.29    1.07
   8  10   5   -0.48    0.94
   8 -10   5   -0.24    1.13
   8 -10   5    1.08    1.07
  -8 -10  -5   -0.75    1.21
   6  10   7    0.52    1.34
   6  10   7    0.20    0.94
   6  10   7   -0.84    1.23
  -6  10  -7    0.03    0.93
   6 -10   7    0.32    0.92
  -6 -10  -7   -0.07    1.07
   6 -10   7   -0.09    0.97
   4  10   9    0.22    1.07
  -4  10  -9    0.01    0.90
   4  10   9   -0.50    0.92
  -4 -10  -9   -0.25    1.01
   4 -10   9   -0.27    0.87
  -2  10 -11    1.62    0.89
   2  10  11    2.85    1.09
   2  10  11    1.97    1.19
   2 -10  11    2.03    0.96
  -2 -10 -11    2.25    1.13
   0  10 -13    1.10    0.95
   0  10  13    0.48    1.21
  -2  10  15   -0.79    1.55
   2  10 -15    0.05    1.89
   2 -10 -15    0.02    1.52
   9  11   4   -0.33    1.15
   9  11   4    0.29    1.83
  -9  11  -4    0.25    1.33
   9 -11   4    0.09    1.47
  -9 -11  -4   -0.72    1.46
   9 -11   4   -0.64    1.30
   9 -11   4   -0.23    1.68
   7  11   6    7.11    1.61
   7  11   6    5.93    1.11
  -7  11  -6    9.72    1.23
  -7 -11  -6    8.15    1.34
   7 -11   6    8.45    1.20
   7 -11   6    8.67    1.23
   5  11   8    0.92    1.25
  -5  11  -8    1.58    1.00
   5  11   8    0.12    1.06
   5 -11   8    1.05    1.08
  -5 -11  -8    0.69    1.18
   5 -11   8    0.23    1.11
   3  11  10    8.46    1.28
   3  11  10   10.79    1.36
  -3  11 -10   13.08    1.12
   3 -11  10    8.57    1.17
  -3 -11 -10    9.81    1.28
  -1  11 -12    3.59    1.01
   1  11  12    5.20    1.31
   1  11  12    1.31    2.29
   1 -11  12    2.17    1.21
  -1 -11 -12    4.44    1.32
  -1  11  14    6.93    1.56
  -1 -11  14    4.78    1.92
   8  12   5    7.95    1.31
  -8  12  -5   11.03    1.43
   8  12   5   11.58    1.97
   8 -12   5   12.85    1.52
  -8 -12  -5   11.43    1.60
   8 -12   5   10.38    1.47
   6  12   7   -0.62    1.75
   6  12   7    1.82    1.16
  -6  12  -7    1.46    1.15
   6  12   7    1.72    1.59
  -6 -12  -7    1.18    1.32
   6 -12   7    1.77    1.23
   6 -12   7    1.92    1.16
  -4  12  -9    4.56    1.09
   4  12   9    5.27    1.25
   4  12   9    4.22    1.41
   4 -12   9    5.85    1.21
  -4 -12  -9    5.35    1.31
   2  12  11    0.84    1.41
  -2  12 -11    0.85    1.08
   2  12  11    1.03    1.47
  -2 -12 -11    1.98    1.34
   2 -12  11   -0.21    1.17
   0  12 -13    0.17    1.21
   0  12  13    0.24    1.59
   0 -12  13    0.87    1.68
   7  13   6   -1.37    3.42
   7  13   6   -0.54    1.21
   7 -13   6    2.35    1.39
  -7 -13  -6    0.22    1.57
   7 -13   6    0.32    1.41
   5  13   8    3.97    1.69
   5 -13   8    6.36    1.34
  -5 -13  -8    1.59    1.37
   5 -13   8    4.39    1.55
   3  13  10    3.71    1.54
   3  13  10    0.51    2.49
   3 -13  10    2.33    1.31
  -3 -13 -10    2.40    1.44
   1  13  12    1.94    1.59
  -1  13 -12    0.79    1.16
  -1 -13 -12    0.66    1.66
   1 -13  12    0.12    1.59
   6  14   7    2.94    1.38
   6  14   7    1.85    2.18
  -6 -14  -7    2.30    1.61
   6 -14   7    1.79    1.47
   6 -14   7    0.35    1.66
   4  14   9    4.60    2.50
   4  14   9    1.16    1.50
  -4 -14  -9    0.66    2.16
   4 -14   9    2.09    1.58
   2  14  11    5.02    2.39
  -2  14 -11    4.63    1.43
   2 -14  11    5.85    1.69
  -2 -14 -11    4.34    1.65
  12   0   2    0.28    1.11
  12   0   2    1.10    1.40
  10   0   4   39.98    2.25
  10   0   4   40.16    2.20
  10   0   4   36.52    2.07
   8   0   6    1.40    0.73
   8   0   6    2.48    0.89
  -8   0  -6    2.90    0.77
   6   0   8  130.73    5.03
  -6   0  -8  117.59    4.95
   4   0  10    0.38    0.60
  -4   0 -10    0.82    0.58
   2   0  12  115.25    4.70
  -2   0 -12  113.22    4.60
   0   0 -14    5.98    0.90
   0   0  14    7.00    0.90
   0   0  14    6.36    1.07
   2   0 -16   58.65    2.88
   4   0 -18   -1.14    1.63
  13   1   1    4.10    1.40
  13   1   1    6.37    1.74
  13  -1   1    4.95    1.45
  13  -1   1    5.34    1.70
  11   1   3    9.50    1.15
  11   1   3   11.10    1.32
  11  -1   3   13.02    1.37
  11  -1   3   12.04    1.56
   9   1   5   13.21    1.41
   9   1   5    9.97    1.27
   9   1   5   15.32    1.56
  -9   1  -5   15.59    1.51
   9  -1   5   13.08    1.52
   9  -1   5   11.37    1.05
  -7   1  -7   28.19    1.66
   7   1   7   29.63    1.58
   7  -1   7   27.05    1.71
   7  -1   7   30.32    1.55
  -7  -1  -7   30.48    1.67
  -5   1  -9   23.98    1.45
  -5  -1  -9   24.51    1.47
  -3   1 -11   28.92    1.54
  -3  -1 -11   30.30    1.60
   1   1  13   29.60    1.63
   1   1  13   25.45    1.66
  -1   1 -13   26.07    1.64
  -1  -1 -13   25.04    1.68
   1  -1  13   30.06    1.62
   1   1 -15    9.54    1.01
  -1   1  15    9.52    1.15
  -1  -1  15   10.46    1.18
   1  -1 -15   10.23    1.13
   3   1 -17   22.00    2.04
   3  -1 -17   23.68    2.24
   5   1 -19    0.52    1.68
   5  -1 -19    2.42    2.29
  12   2   2   16.33    1.72
  12   2   2   18.75    1.88
  12  -2   2   19.49    1.83
  12  -2   2   18.17    1.68
  10   2   4    9.49    1.21
  10   2   4   13.33    1.34
  10   2   4   11.00    1.24
  10  -2   4    9.87    1.19
  10  -2   4   13.50    1.22
   8   2   6   49.57    2.51
   8   2   6   54.32    2.48
   8   2   6   54.37    2.56
  -8   2  -6   59.17    2.47
   8  -2   6   53.98    2.46
  -8  -2  -6   53.74    2.59
   8  -2   6   56.97    2.57
   6   2   8    6.08    0.74
   6   2   8    6.55    0.97
  -6   2  -8    6.87    0.73
   6  -2   8    8.14    0.74
  -6  -2  -8    7.92    0.83
   4   2  10   42.59    2.28
   4   2  10   44.91    2.08
  -4   2 -10   43.30    1.99
  -4  -2 -10   46.65    2.10
  -2   2 -12   27.87    1.57
   2   2  12   27.18    1.57
   2   2  12   24.30    1.56
   2  -2  12   27.95    1.51
   0   2 -14   34.32    1.97
   0   2  14   37.78    2.01
   0  -2  14   36.45    2.01
   2   2 -16   24.81    1.88
   2  -2 -16   20.91    1.99
   4  -2 -18    5.43    1.58
  13   3   1   17.04    2.11
  13  -3   1   17.18    2.25
  13  -3   1   17.10    3.34
  11   3   3    2.27    1.01
  11   3   3    3.22    1.55
  11  -3   3    1.64    1.48
  11  -3   3    3.03    1.08
  11  -3   3   -0.84    1.35
   9   3   5   25.98    1.73
   9   3   5   24.93    1.91
   9   3   5   22.05    1.59
  -9   3  -5   27.59    1.70
   9  -3   5   26.04    1.80
   9  -3   5   25.05    1.68
   7   3   7   24.22    1.49
  -7   3  -7   25.01    1.54
   7   3   7   22.32    1.45
   7  -3   7   25.10    1.60
  -7  -3  -7   25.78    1.66
   7  -3   7   25.83    1.46
   5   3   9    8.65    1.05
   5   3   9   10.64    1.09
  -5   3  -9    7.61    0.81
   5  -3   9    9.81    1.02
   3   3  11   66.67    2.93
  -3   3 -11   71.08    2.88
   3   3  11   69.29    2.92
   3  -3  11   66.27    2.90
   1   3  13    1.82    0.81
  -1   3 -13    1.91    0.75
   1   3  13    1.08    0.90
   1  -3  13    1.85    0.77
   1   3 -15   60.96    2.79
   1  -3 -15   58.70    2.89
  -1  -3  15   58.63    2.89
   3   3 -17   -1.35    1.14
   3  -3 -17    2.47    1.39
 -12   4  -2   26.24    2.85
  12   4   2   29.64    2.65
  12   4   2   21.38    2.07
  12  -4   2   24.26    2.30
  12  -4   2   27.84    2.51
 -10   4  -4    5.45    1.02
  10   4   4    6.49    1.29
  10   4   4    4.62    0.94
  10  -4   4    5.68    1.16
  10  -4   4    5.34    1.16
  -8   4  -6   77.93    3.52
   8   4   6   74.71    3.30
   8   4   6   84.69    3.44
   8   4   6   71.27    3.42
   8  -4   6   78.99    3.72
   8  -4   6   79.73    3.29
   8  -4   6   71.96    3.28
   6   4   8    2.66    0.68
   6   4   8    1.16    0.69
  -6   4  -8    2.33    0.71
   6  -4   8    2.48    0.65
   6  -4   8    2.54    0.71
  -4   4 -10  124.20    5.03
   4   4  10  126.63    5.06
   4   4  10  129.60    5.13
   4  -4  10  124.27    5.06
   2   4  12    0.19    0.71
   2   4  12    0.99    0.82
  -2   4 -12    1.55    0.71
   2  -4  12    0.61    0.72
   0   4 -14   40.02    2.14
   0  -4  14   43.92    2.25
   0  -4 -14   40.98    2.30
   2   4 -16    0.13    1.04
   2  -4 -16   -0.11    1.16
   4   4 -18   17.07    1.53
   4  -4 -18   14.64    1.83
  11   5   3    5.25    1.53
  11   5   3    5.01    1.11
 -11   5  -3    4.65    1.23
  11  -5   3    4.63    1.35
  11  -5   3   -0.03    1.50
   9   5   5   12.03    1.43
  -9   5  -5   18.35    1.66
   9   5   5   16.02    1.39
   9  -5   5   13.42    1.53
   9  -5   5   13.95    1.58
   9  -5   5   15.89    1.71
   7   5   7   20.59    1.49
   7   5   7   20.44    1.72
   7   5   7   19.94    1.43
  -7   5  -7   16.61    1.68
   7  -5   7   20.67    1.61
   7  -5   7   17.48    1.43
   7  -5   7   20.01    1.44
   5   5   9   19.39    1.38
   5   5   9   19.31    1.35
  -5   5  -9   15.82    1.38
   5  -5   9   17.17    1.32
   5  -5   9   18.94    1.46
   3   5  11   28.21    1.77
  -3   5 -11   28.84    1.65
   3   5  11   31.31    1.73
   3  -5  11   32.01    1.68
  -1   5 -13    8.52    1.14
   1   5  13    9.72    1.16
   1  -5  13    9.99    0.98
   1   5 -15   15.44    1.63
   1  -5 -15   16.63    1.93
  -1  -5  15   17.96    2.06
   3   5 -17    8.92    1.29
   3  -5 -17    8.78    1.53
 -12   6  -2    4.24    1.44
  12   6   2    5.97    1.82
  12   6   2    4.92    1.32
  12  -6   2    6.73    1.74
  12  -6   2    5.43    1.56
 -10   6  -4   26.02    2.09
  10   6   4   26.07    2.50
  10   6   4   21.73    1.82
  10  -6   4   27.86    2.20
  10  -6   4   25.54    2.16
  10  -6   4   24.65    2.11
  -8   6  -6   10.70    1.03
   8   6   6   11.70    1.27
   8   6   6   10.70    1.34
   8  -6   6    9.61    1.06
   8  -6   6   10.38    1.14
   8  -6   6   10.81    1.00
   6   6   8   36.79    2.08
   6   6   8   34.91    1.96
  -6   6  -8   34.62    2.37
   6  -6   8   38.32    1.91
   6  -6   8   36.68    1.92
  -4   6 -10    7.10    0.77
   4   6  10    6.62    0.89
   4  -6  10    5.40    0.78
   2   6  12   45.30    2.27
  -2   6 -12   39.05    2.52
   2  -6  12   43.62    2.16
   0   6 -14   14.03    1.13
   0  -6  14   15.22    1.31
   2   6 -16   28.72    2.07
   2  -6 -16   23.29    2.38
   4   6 -18    3.84    1.39
  -4   6  18    2.92    1.97
   4  -6 -18    2.13    1.75
 -11   7  -3   18.18    2.19
  11   7   3   11.36    1.54
  11   7   3   12.78    1.84
  11  -7   3   17.29    1.68
  11  -7   3   10.17    1.40
   9   7   5    6.77    1.02
  -9   7  -5   11.50    1.16
   9   7   5   10.34    1.45
   9  -7   5   10.43    1.20
   9  -7   5   10.10    1.13
   9  -7   5   10.37    1.26
   7   7   7   11.75    1.43
   7   7   7   15.27    1.43
  -7   7  -7   14.41    1.60
   7  -7   7   16.61    1.51
   7  -7   7   16.77    1.33
   7  -7   7   18.07    1.49
  -7  -7  -7   15.23    1.27
   5   7   9   21.96    1.69
   5   7   9   17.13    1.69
  -5   7  -9   21.62    1.46
   5  -7   9   22.08    1.59
   5  -7   9   19.87    1.49
  -3   7 -11    8.84    0.93
   3   7  11   10.65    1.42
   3  -7  11    9.59    0.94
   1   7  13   31.89    2.35
  -1   7 -13   39.58    2.05
   1  -7  13   39.36    2.13
   1   7 -15    3.17    0.98
   1  -7 -15    1.73    1.34
  -1  -7  15    1.59    1.46
   3   7 -17   22.29    2.17
  -3   7  17   22.06    1.99
   3  -7 -17   22.74    1.88
  10   8   4    6.83    1.17
  10   8   4    6.49    1.66
 -10   8  -4    8.25    1.27
  10  -8   4    4.83    1.47
  10  -8   4    6.00    1.48
  10  -8   4    7.34    1.27
   8   8   6    3.79    1.43
   8   8   6    2.05    0.94
  -8   8  -6    3.60    1.05
   8  -8   6    3.93    1.00
   8  -8   6    4.19    0.99
   8  -8   6    3.77    1.27
   6   8   8   26.25    2.02
   6   8   8   25.70    1.76
  -6   8  -8   25.69    1.82
  -6  -8  -8   21.97    1.92
   6  -8   8   24.20    1.72
   6  -8   8   25.67    1.80
   4   8  10    8.93    1.07
  -4   8 -10    7.25    0.85
   4   8  10    6.24    1.04
   4  -8  10    7.93    0.94
   2   8  12   23.18    1.92
   2   8  12   22.24    2.04
  -2   8 -12   24.30    1.71
   2  -8  12   22.43    1.76
   0   8 -14    0.91    0.95
   0   8  14    1.41    1.32
   0  -8  14    1.21    1.27
   2   8 -16    9.53    1.52
  -2   8  16   11.00    1.64
   2  -8 -16   10.90    1.62
  11   9   3    1.90    1.26
  11   9   3    2.75    2.07
 -11   9  -3    3.20    1.42
  11  -9   3    2.88    1.82
  11  -9   3    4.09    2.06
   9   9   5    8.11    1.16
  -9   9  -5    8.22    1.24
   9   9   5    6.79    1.75
   9  -9   5    7.61    1.37
   9  -9   5    6.20    1.24
   9  -9   5    7.45    1.55
  -7   9  -7   16.96    1.76
   7   9   7   13.67    1.59
   7   9   7   13.68    1.63
   7  -9   7   13.16    1.24
   7  -9   7   12.72    1.23
   7  -9   7   15.23    1.57
  -7  -9  -7   11.84    1.37
  -5   9  -9    9.32    0.98
   5   9   9   10.23    1.20
   5   9   9   10.31    1.49
  -5  -9  -9    8.58    1.20
   5  -9   9    8.72    1.05
   5  -9   9    9.32    1.16
  -3   9 -11   21.31    1.66
   3   9  11   19.31    1.90
   3   9  11   18.24    1.84
   3  -9  11   17.76    1.70
   1   9  13    3.56    1.76
  -1   9 -13    5.34    0.97
   1  -9  13    5.03    1.22
  -1   9  15   14.70    1.62
   1   9 -15   14.39    1.30
   1  -9 -15   14.25    1.67
  10  10   4    1.90    1.20
 -10  10  -4    2.85    1.39
  10 -10   4    2.75    2.82
  10 -10   4    2.74    1.49
 -10 -10  -4    1.59    1.78
  10 -10   4    3.89    3.02
  -8  10  -6   34.50    2.30
   8  10   6   31.04    2.21
   8  10   6   37.67    2.85
   8 -10   6   34.33    2.35
  -8 -10  -6   31.56    2.57
   8 -10   6   33.23    2.79
   8 -10   6   32.77    2.36
  -6  10  -8    1.11    1.02
   6  10   8    1.41    1.05
   6  10   8    0.78    1.69
   6  10   8   -0.01    1.37
   6 -10   8    1.44    1.17
   6 -10   8    2.33    1.84
  -6 -10  -8    1.50    1.70
   4  10  10   31.08    2.30
   4  10  10   28.72    2.12
  -4  10 -10   31.58    2.07
   4 -10  10   34.65    2.04
  -4 -10 -10   31.55    2.27
   2  10  12    4.32    1.30
  -2  10 -12    4.17    1.02
   2  10  12    2.13    1.43
   2 -10  12    3.45    1.42
   0  10 -14   28.58    2.02
   0  10  14   27.20    2.50
   0 -10  14   25.78    2.69
  -2  10  16    4.63    1.80
   2  10 -16    5.92    1.30
   2 -10 -16    5.59    1.82
  -9  11  -5   10.24    1.44
   9  11   5    8.16    1.40
   9 -11   5    9.48    1.68
   9 -11   5    9.20    1.53
  -9 -11  -5   10.00    1.74
   7  11   7    7.79    1.27
  -7  11  -7    9.99    1.29
   7  11   7    7.50    2.00
   7  11   7    0.66    1.89
   7 -11   7    9.77    2.09
   7 -11   7    8.55    1.33
  -7 -11  -7    7.82    1.50
   7 -11   7   10.20    1.33
   5  11   9    8.59    1.46
   5  11   9    4.78    1.26
  -5  11  -9    6.20    1.15
   5 -11   9    5.72    1.17
  -5 -11  -9    5.75    1.32
  -3  11 -11   14.43    1.28
   3  11  11   17.12    1.58
   3  11  11   13.80    2.04
  -3 -11 -11   15.90    1.52
   3 -11  11   15.33    1.43
   1  11  13    8.46    1.54
  -1  11 -13    7.08    1.18
   1 -11  13    8.39    1.54
   1  11 -15   16.10    1.46
   1 -11 -15   10.77    2.62
  -8  12  -6   -0.56    1.38
   8  12   6   -1.70    2.30
   8  12   6   -0.22    1.24
  -8 -12  -6    1.56    2.48
   8 -12   6    0.17    1.78
   8 -12   6   -0.12    3.02
   6  12   8   16.82    1.93
   6  12   8   11.02    2.50
   6 -12   8   16.56    1.66
   6 -12   8   19.83    2.12
  -6 -12  -8   15.90    1.63
   4  12  10    1.30    1.36
   4  12  10    1.97    1.51
  -4  12 -10    1.66    1.15
  -4 -12 -10    1.29    1.45
   4 -12  10    2.31    1.27
  -2  12 -12   14.14    1.66
   2  12  12   13.27    1.72
   2  12  12   11.76    2.88
   2 -12  12   14.41    1.58
  -2 -12 -12   10.32    1.62
   0  12 -14    2.06    1.28
   0  12  14    1.87    2.40
   0 -12  14   -0.05    2.08
  -7  13  -7    7.10    1.49
   7  13   7    4.80    1.45
  -7 -13  -7    5.09    1.74
   7 -13   7    6.92    1.54
   7 -13   7    6.01    1.71
   5  13   9    9.94    1.56
  -5  13  -9   11.06    1.42
   5  13   9   10.44    2.07
   5 -13   9    6.63    1.46
  -5 -13  -9    9.78    1.67
   3  13  11    2.57    1.78
   3  13  11    1.95    1.80
  -3  13 -11    1.39    1.30
   3 -13  11    2.87    1.62
  -3 -13 -11    1.47    1.90
  12   0   3   -0.17    1.12
  12   0   3   -0.51    1.51
  10   0   5    0.02    0.85
  10   0   5    0.60    1.08
 -10   0  -5    0.02    1.08
  10   0   5    0.47    1.21
   8   0   7    0.89    1.03
   8   0   7   -0.37    0.76
  -8   0  -7   -0.48    1.26
   6   0   9    0.05    0.68
  -6   0  -9    0.81    0.79
  -4   0 -11   -0.09    0.73
   4   0  11    0.17    0.68
  -2   0 -13    0.13    0.79
   2   0  13    0.31    0.76
   0   0 -15   -0.15    0.94
   0   0  15    0.15    0.99
   2   0 -17   -0.18    1.22
  13   1   2    5.77    1.92
  13   1   2    5.15    1.47
  13  -1   2    5.84    1.87
  13  -1   2    4.56    1.50
 -11   1  -4    1.82    1.19
  11   1   4   -0.06    1.61
  11   1   4    1.23    1.03
  11   1   4    0.23    2.16
  11  -1   4    0.13    2.27
  11  -1   4   -0.27    1.65
  11  -1   4    0.03    1.01
   9   1   6    0.94    0.81
   9   1   6    0.85    1.15
   9   1   6    0.74    0.92
  -9   1  -6    1.67    0.92
   9  -1   6    1.31    1.11
  -9  -1  -6    1.05    0.98
   9  -1   6    1.69    0.93
   7   1   8    0.47    0.69
   7   1   8    0.18    0.72
  -7   1  -8    0.55    0.78
   7  -1   8    1.49    0.72
  -7  -1  -8    0.01    0.82
   5   1  10    1.54    0.71
  -5   1 -10    2.92    0.74
  -5  -1 -10    2.58    0.79
   5  -1  10    3.43    0.69
   3   1  12    3.84    0.85
   3   1  12    2.63    0.75
  -3   1 -12    3.36    0.79
  -3  -1 -12    2.64    0.81
   3  -1  12    2.45    0.73
   1   1  14    0.84    0.88
  -1   1 -14    0.21    0.86
   1   1  14    0.41    0.96
   1  -1  14    0.50    0.84
  -1  -1 -14   -0.94    0.91
   1   1 -16    1.87    1.04
  -1  -1  16    0.30    1.29
   3   1 -18    0.96    1.60
  12   2   3   10.45    1.69
 -12   2  -3   14.42    2.33
  12   2   3    7.46    1.47
  12  -2   3    7.06    1.66
  12  -2   3    9.00    1.53
  10   2   5   15.54    1.45
 -10   2  -5   14.52    1.27
  10   2   5   13.41    1.33
  10   2   5   13.85    1.50
  10  -2   5   11.93    1.29
 -10  -2  -5   14.03    1.36
  10  -2   5   13.15    1.43
   8   2   7   21.32    1.53
  -8   2  -7   25.22    1.69
   8   2   7   22.74    1.62
   8  -2   7   23.70    1.55
  -8  -2  -7   24.61    1.77
   6   2   9   24.70    1.55
   6   2   9   26.55    1.60
  -6   2  -9   23.41    1.64
   6  -2   9   29.08    1.54
  -6  -2  -9   25.56    1.71
  -4   2 -11   34.05    1.87
   4   2  11   37.72    1.92
   4   2  11   36.24    1.88
   4  -2  11   37.34    1.86
   2   2  13   26.16    1.69
   2   2  13   26.77    1.67
  -2   2 -13   28.78    1.67
   2  -2  13   26.90    1.67
   0   2 -15   24.56    1.79
   0   2  15   20.68    1.86
   0  -2  15   22.92    1.83
   2   2 -17   11.00    1.31
   4   2 -19    5.49    1.59
 -11   3  -4    0.17    1.23
  11   3   4    0.13    1.54
  11   3   4    0.06    1.04
  11  -3   4   -0.47    1.33
  11  -3   4   -1.12    1.41
  11  -3   4    0.23    1.06
   9   3   6    1.13    1.25
  -9   3  -6    0.23    0.96
   9   3   6    0.24    0.98
   9   3   6    0.23    0.80
   9  -3   6    0.12    0.91
  -9  -3  -6    0.62    1.15
   9  -3   6   -0.06    1.13
   7   3   8    0.39    0.77
  -7  -3  -8    0.97    0.95
   7  -3   8   -0.67    0.71
  -5   3 -10    1.32    0.76
   5   3  10    1.55    0.73
   5   3  10    1.87    0.73
   5  -3  10    1.44    0.70
   3   3  12    0.12    0.74
   3   3  12    0.87    0.83
  -3   3 -12    0.29    0.74
   3  -3  12    0.40    0.75
   1   3  14    0.09    0.89
  -1   3 -14    0.72    0.86
   1   3  14    0.78    1.15
   1  -3  14    1.45    0.94
   1   3 -16    0.20    1.03
  -1  -3  16    1.08    1.38
   1  -3 -16   -0.42    1.23
   3   3 -18    1.77    1.72
   3  -3 -18    1.51    1.73
  12   4   3   -0.26    1.18
 -12   4  -3   -0.67    1.43
  12   4   3    0.00    1.76
  12  -4   3   -0.65    1.65
  12  -4   3   -0.11    1.34
  10   4   5    0.21    0.90
 -10   4  -5    1.40    1.08
  10   4   5    0.60    1.43
  10  -4   5    1.43    1.14
  10  -4   5    0.48    1.29
 -10  -4  -5    1.10    1.40
  -8   4  -7    0.20    0.87
   8   4   7    2.03    0.88
   8   4   7    0.71    0.84
   8  -4   7    1.89    0.85
   6   4   9    4.02    0.82
  -6   4  -9    3.63    1.31
   6   4   9    4.67    0.86
   6  -4   9    5.80    0.79
   4   4  11    4.63    0.83
   4   4  11    7.05    0.94
  -4   4 -11    5.11    0.75
   4  -4  11    4.63    0.79
  -2   4 -13    4.16    0.86
   2   4  13    6.15    1.07
   2   4  13    5.54    0.94
   2  -4  13    4.77    0.87
   0   4 -15    0.87    0.95
   0  -4  15    0.66    1.18
   0  -4 -15    2.15    1.21
   2   4 -17    0.76    1.17
   2  -4 -17    2.17    1.49
  11   5   4   10.54    1.70
  11   5   4    6.13    1.24
 -11   5  -4    9.53    1.34
  11  -5   4   10.51    1.69
  11  -5   4   10.95    1.61
  -9   5  -6    5.99    1.11
   9   5   6    6.44    1.03
   9   5   6    8.10    1.45
   9  -5   6    8.07    1.05
   9  -5   6    8.87    1.32
   9  -5   6    7.46    1.11
   7   5   8    6.40    1.00
   7   5   8    7.41    0.93
  -7   5  -8    7.13    0.99
   7  -5   8    6.70    0.88
   7  -5   8    7.56    0.97
  -5   5 -10    0.29    0.73
   5   5  10   -0.56    0.79
   5   5  10    0.69    0.78
   5  -5  10    0.20    0.74
   3   5  12    2.45    0.93
  -3   5 -12    2.28    0.79
   3  -5  12    2.52    0.82
  -1   5 -14    3.02    0.91
   1  -5  14    3.10    1.03
  -1  -5 -14    4.09    1.15
   1   5 -16    3.25    1.12
  -1  -5  16    2.57    1.69
   1  -5 -16    1.21    2.54
   3   5 -18    4.39    1.34
   3  -5 -18    2.72    2.15
  12   6   3    1.37    2.12
  12   6   3    0.63    1.24
 -12   6  -3    1.12    1.41
  12  -6   3   -0.81    1.83
  12  -6   3    0.36    1.50
 -10   6  -5    3.16    1.17
  10   6   5    4.00    1.65
  10   6   5    3.21    1.07
  10  -6   5    3.62    1.29
  10  -6   5    5.41    1.22
  10  -6   5    5.64    1.49
   8   6   7    7.25    1.04
   8   6   7    6.25    1.43
  -8   6  -7    8.00    1.07
   8  -6   7    5.16    1.00
   8  -6   7    7.80    1.36
   8  -6   7    6.23    1.01
   6   6   9   17.15    1.54
  -6   6  -9   18.40    1.57
   6   6   9   20.46    1.87
   6  -6   9   18.19    1.52
   6  -6   9   17.45    1.69
  -4   6 -11    8.46    0.90
   4   6  11   10.14    1.24
   4  -6  11    8.79    0.95
  -2   6 -13   15.99    1.55
   2   6  13   15.79    1.75
   2  -6  13   15.71    1.60
   0   6 -15    8.77    1.11
   0  -6  15    8.28    1.38
   0  -6 -15    8.28    1.34
   2  -6 -17    4.79    1.56
  11   7   4    0.00    1.94
  11   7   4   -0.51    1.16
 -11   7  -4    1.31    1.35
  11  -7   4    0.39    1.78
  11  -7   4   -0.88    1.80
  11  -7   4    0.11    1.39
   9   7   6    0.25    1.00
  -9   7  -6    1.57    1.08
   9  -7   6    1.17    1.05
   9  -7   6   -0.50    1.87
   9  -7   6   -0.67    1.13
   7   7   8    0.55    1.26
  -7   7  -8    0.72    0.96
   7   7   8    0.45    0.89
   7  -7   8   -0.03    0.92
   7  -7   8   -0.14    0.95
   5   7  10   -0.37    1.04
  -5   7 -10   -0.06    0.82
   5   7  10    1.01    0.94
   5  -7  10   -0.21    0.82
   3   7  12    1.67    1.05
  -3   7 -12    1.39    0.84
   3  -7  12    1.54    0.91
  -1   7 -14   -0.85    0.93
   1  -7  14    0.38    1.16
   1   7 -16    1.11    1.09
   1  -7 -16    1.20    1.48
  10   8   5    0.60    1.92
  10   8   5    0.00    1.67
  10  -8   5    0.65    1.26
  10  -8   5    0.35    1.41
  10  -8   5    0.20    1.67
  -8   8  -7    4.21    1.12
   8   8   7    2.37    0.97
   8   8   7    3.08    1.75
  -8  -8  -7    2.84    1.75
   8  -8   7    3.22    1.10
   8  -8   7    2.81    1.16
   8  -8   7    2.37    1.53
   6   8   9    3.77    1.25
  -6   8  -9    2.45    0.96
   6   8   9    2.04    0.96
   6  -8   9    1.72    0.99
   6  -8   9    1.12    1.12
  -4   8 -11    1.60    0.92
   4   8  11    0.75    1.04
   4   8  11    0.99    1.14
   4  -8  11    2.76    0.97
   2   8  13    2.16    1.20
   2   8  13    1.40    1.40
  -2   8 -13    1.00    0.92
   2  -8  13    1.79    1.08
   0   8 -15    5.25    1.12
   0   8  15    3.70    1.44
   0  -8 -15    4.10    1.49
   0  -8  15    3.35    1.52
   2   8 -17    0.86    1.30
   2  -8 -17   -0.48    2.21
  -9   9  -6    2.35    1.44
   9   9   6   -0.34    1.18
   9   9   6    1.48    2.02
   9  -9   6    1.17    1.30
   9  -9   6    0.67    1.38
  -9  -9  -6    0.97    1.56
   9  -9   6    1.15    1.79
   7   9   8    0.56    1.03
  -7   9  -8   -0.50    1.06
  -7  -9  -8    0.41    1.38
   7  -9   8   -0.92    1.05
   7  -9   8   -0.58    1.17
  -5   9 -10    2.30    0.99
   5   9  10    4.67    1.31
   5   9  10    2.97    1.10
  -5  -9 -10    2.75    1.26
   3   9  12    1.30    2.31
   3   9  12    1.21    1.28
  -3   9 -12    0.50    0.98
   3  -9  12    0.93    1.36
   1   9  14    2.26    1.36
  -1   9 -14    1.96    1.05
   1  -9  14    0.95    1.39
  -1   9  16   -0.76    1.67
   1   9 -16    0.35    1.21
   1  -9 -16   -0.62    1.74
   8  10   7    0.91    1.40
   8 -10   7    0.28    1.34
   8 -10   7    2.43    1.34
  -8 -10  -7   -0.72    1.58
   6  10   9    3.36    1.25
   6  10   9    3.48    1.58
  -6  10  -9    3.79    1.12
  -6 -10  -9    3.15    1.45
   6 -10   9    3.88    1.17
   6 -10   9    4.08    1.37
   4  10  11    1.50    1.32
   4  10  11   -0.44    1.38
  -4  10 -11   -0.46    1.04
   4 -10  11   -0.28    1.12
   2  10  13    2.59    1.43
  -2  10 -13    2.90    1.06
   2 -10  13    2.74    1.35
   0  10 -15   -0.28    1.21
   0  10  15    0.70    1.63
   0 -10  15   -0.72    2.26
   9  11   6    3.32    1.38
   7  11   8    2.56    1.28
   7  11   8    1.35    2.12
  -7  11  -8    3.35    1.27
  -7 -11  -8    2.33    1.57
   7 -11   8    1.89    1.45
   7 -11   8    3.10    1.34
   5  11  10    2.98    1.60
  -5  11 -10    1.39    1.14
   5  11  10   -0.02    1.33
  -5 -11 -10    0.09    1.50
   5 -11  10    0.86    1.25
   3  11  12   -0.56    1.57
  -3  11 -12    0.88    1.73
   3 -11  12   -0.03    1.37
  -1  11 -14    0.13    1.19
   1  11  14   -0.18    1.65
   6  12   9    8.30    1.51
  -6  12  -9    9.43    1.37
  -6 -12  -9    8.96    1.97
   6 -12   9    8.65    1.51
  -4  12 -11    6.95    1.33
   4  12  11    6.93    1.64
   4  12  11   11.79    1.74
   4 -12  11   12.29    1.58
   2  12  13   10.77    3.52
  -2  12 -13    9.15    1.39
   2 -12  13    9.71    1.77
 -12   0  -4   34.30    2.80
  12   0   4   24.36    2.09
  12   0   4   26.56    3.00
 -10   0  -6    0.41    1.17
  10   0   6    0.58    1.51
  10   0   6    0.84    1.18
  10   0   6    0.57    0.93
  -8   0  -8   84.02    3.56
   8   0   8   83.70    3.50
   8   0   8   74.43    3.51
  -6   0 -10    0.79    0.90
   6   0  10    0.95    0.79
  -4   0 -12   85.16    3.59
   4   0  12   83.64    3.59
  -2   0 -14    0.19    0.95
   2   0  14    1.16    1.10
   2   0  14    0.22    0.89
   0   0  16   56.28    2.91
   0   0 -16   54.13    2.83
  11   1   5   -0.09    1.59
 -11   1  -5    4.99    1.33
  11   1   5    4.99    1.13
  11   1   5    5.16    1.67
 -11  -1  -5    4.20    1.44
  11  -1   5    3.21    1.57
  11  -1   5    5.85    1.62
  11  -1   5    3.92    1.12
   9   1   7   15.39    1.50
  -9   1  -7   18.09    1.80
   9   1   7   12.37    1.26
  -9  -1  -7   17.55    1.86
   9  -1   7   15.69    1.66
   9  -1   7   15.47    1.56
   7   1   9   17.38    1.43
   7   1   9   17.54    1.51
  -7   1  -9   18.00    1.66
  -7  -1  -9   20.84    1.94
   7  -1   9   17.85    1.47
  -5   1 -11   15.94    1.53
   5   1  11   15.92    1.39
   5   1  11   16.83    1.43
   5  -1  11   15.98    1.40
  -5  -1 -11   15.09    1.56
   3   1  13   18.85    1.63
   3   1  13   24.69    1.72
  -3  -1 -13   22.31    1.70
   3  -1  13   23.89    1.64
  -1   1 -15   10.98    1.17
   1   1  15   11.58    1.24
   1   1  15    8.74    1.54
   1  -1  15   12.57    1.49
   1  -1  15   12.32    1.20
   1   1 -17   15.27    1.42
  -1  -1  17   13.01    1.83
   3   1 -19    5.28    1.66
 -12   2  -4   15.27    1.61
  12   2   4   13.77    1.87
  12   2   4   12.03    2.07
 -12  -2  -4   15.48    1.84
  12  -2   4   10.36    1.42
  12  -2   4   11.84    2.00
  10   2   6    4.83    1.62
  10   2   6    4.88    1.10
  10   2   6    5.07    1.52
 -10   2  -6    6.17    1.22
 -10  -2  -6    6.55    1.31
  10  -2   6    4.81    1.56
  10  -2   6    4.00    2.15
  10  -2   6    6.26    1.15
   8   2   8    6.56    1.01
   8   2   8    7.04    0.98
  -8   2  -8    7.95    1.04
   8  -2   8    6.69    0.98
  -8  -2  -8    9.75    1.15
   6   2  10   11.84    1.35
  -6   2 -10   11.20    1.05
   6   2  10   11.90    1.40
   6  -2  10   15.72    1.32
  -6  -2 -10   14.91    1.59
   4   2  12    9.17    0.98
   4   2  12    7.67    1.01
  -4   2 -12    6.65    1.06
   4  -2  12    6.75    0.91
   2   2  14   35.52    2.03
  -2   2 -14   31.58    2.05
   2   2  14   35.59    2.19
   2  -2  14   35.50    2.06
   0   2 -16    3.35    1.09
   0  -2  16    3.53    1.35
   2   2 -18    8.17    1.92
  11   3   5   32.60    2.15
 -11   3  -5   37.31    2.46
  11   3   5   33.36    2.97
 -11  -3  -5   31.70    2.81
  11  -3   5   28.46    2.13
  11  -3   5   32.06    2.86
  11  -3   5   30.16    2.67
   9   3   7   -0.54    0.84
   9   3   7    0.66    1.12
  -9   3  -7    0.62    1.05
   9  -3   7    0.62    1.01
  -9  -3  -7    0.33    1.22
   7   3   9   50.78    2.58
  -7   3  -9   51.32    2.60
   7   3   9   56.66    2.59
   7  -3   9   55.28    2.53
  -5   3 -11    2.92    0.85
   5   3  11    2.07    0.93
   5   3  11    1.29    0.84
   5  -3  11    1.72    0.80
  -3   3 -13   43.17    2.16
   3   3  13   38.20    2.26
   3   3  13   39.67    2.16
   3  -3  13   39.74    2.12
  -1   3 -15    8.62    1.08
   1  -3  15    8.51    1.21
   1   3 -17    6.41    1.30
  12   4   4    4.49    2.11
  12   4   4    3.91    1.30
 -12   4  -4    4.89    1.45
  12  -4   4    4.40    2.03
  12  -4   4    5.27    1.46
 -12  -4  -4    1.85    1.93
  10   4   6   20.99    2.00
 -10   4  -6   22.71    2.13
  10   4   6   19.80    1.81
  10  -4   6   19.42    2.12
  10  -4   6   20.37    1.92
   8   4   8    4.34    0.99
  -8   4  -8    7.49    1.09
   8   4   8    5.91    1.07
   8  -4   8    7.50    1.01
   6   4  10   71.35    3.16
   6   4  10   69.47    3.22
  -6   4 -10   73.47    3.16
   6  -4  10   68.49    3.12
   4   4  12   -0.21    0.89
  -4   4 -12    1.01    0.84
   4   4  12    0.47    0.94
   4  -4  12    0.91    0.84
   2   4  14   53.50    3.20
  -2   4 -14   63.81    2.86
   2  -4  14   63.98    2.89
   0   4 -16    0.51    1.07
   2   4 -18   44.57    2.75
  11   5   5    8.42    2.07
  11   5   5    6.64    1.30
 -11   5  -5    4.17    1.40
  11  -5   5    6.26    1.89
  11  -5   5    7.51    1.72
   9   5   7   11.09    2.00
   9   5   7   11.37    1.54
  -9   5  -7   12.22    1.25
   9  -5   7   12.78    1.57
  -7   5  -9   18.52    1.71
   7   5   9   15.10    1.54
   7  -5   9   17.59    1.58
  -5   5 -11   15.73    1.60
   5   5  11   14.03    1.63
   5   5  11   12.00    1.55
   5  -5  11   15.28    1.47
   3   5  13   12.91    1.71
  -3   5 -13   11.29    1.08
   3  -5  13   11.20    1.13
  -1   5 -15   17.33    1.80
   1  -5  15   18.22    2.06
   1   5 -17    5.08    1.33
   1  -5 -17    4.70    1.69
  10   6   6    2.72    1.15
 -10   6  -6    5.17    1.22
  10   6   6    2.62    1.99
  10  -6   6    2.88    1.35
  10  -6   6    3.57    2.30
  -8   6  -8   14.76    1.26
   8   6   8   11.31    1.58
  -6   6 -10    3.01    0.94
   6   6  10    3.96    1.24
   6   6  10    2.71    0.95
   6  -6  10    2.01    0.91
   4   6  12   24.55    1.94
  -4   6 -12   24.39    1.80
   4  -6  12   24.22    1.78
  -2   6 -14    5.39    1.01
   2   6  14    3.05    1.47
   2  -6  14    4.87    1.13
   0   6 -16   19.84    1.92
   0  -6 -16   19.15    1.82
   0  -6  16   19.30    1.94
   2   6 -18   -0.28    1.40
   2  -6 -18    0.93    1.99
  11   7   5    0.07    1.18
  11   7   5    2.02    2.48
 -11   7  -5    0.39    1.37
  11  -7   5    0.54    1.88
   9   7   7   24.33    2.00
  -9   7  -7   30.07    2.16
   9  -7   7   26.48    2.30
   9  -7   7   27.51    2.20
   7   7   9    0.88    1.44
  -7   7  -9    0.50    0.94
   7   7   9    1.08    0.99
   7  -7   9   -0.04    1.26
   7  -7   9    0.71    1.23
  -5   7 -11   37.71    2.10
   5   7  11   30.28    2.12
   5   7  11   35.50    2.40
   5  -7  11   31.71    2.07
   3   7  13    2.75    1.32
  -3   7 -13    5.66    1.06
   3  -7  13    4.40    1.28
  -1   7 -15   21.92    1.92
   1  -7  15   18.26    1.67
  -1  -7 -15   19.66    1.79
  -1   7  17    1.67    1.73
   1   7 -17    2.62    1.30
   1  -7 -17    3.17    2.35
  10   8   6    5.16    1.26
 -10   8  -6    5.82    1.36
  10  -8   6    3.51    1.73
  10  -8   6    6.87    1.52
 -10  -8  -6    4.73    1.94
   8   8   8   14.04    1.75
  -8   8  -8   17.25    1.46
   8  -8   8   18.10    1.54
  -8  -8  -8   20.09    1.77
   8  -8   8   17.79    2.00
  -6   8 -10   15.70    1.23
   6   8  10   10.34    1.29
   6  -8  10   15.93    1.82
   4   8  12   18.09    1.57
   4   8  12   16.86    1.98
  -4   8 -12   17.86    1.82
   4  -8  12   16.77    1.87
   2   8  14    9.82    1.46
  -2   8 -14    6.61    1.12
   2  -8  14    5.92    1.35
   0   8 -16   13.42    1.35
   0   8  16   12.09    1.74
   0  -8  16   10.49    2.15
   0  -8 -16   11.92    1.89
   9   9   7    2.14    1.21
  -9   9  -7    1.54    1.29
   9  -9   7    2.38    1.48
  -9  -9  -7    1.55    1.85
   9  -9   7    1.83    1.44
   7   9   9   22.87    2.06
  -7   9  -9   27.52    2.19
   7  -9   9   26.72    2.45
   7  -9   9   24.16    2.21
   5   9  11    3.31    1.25
  -5   9 -11    4.34    1.14
   5   9  11    4.68    1.50
   5  -9  11    3.86    1.24
   3   9  13   15.41    1.61
   3   9  13   11.46    1.79
  -3   9 -13   11.90    1.27
   3  -9  13   10.03    1.41
   1   9  15    7.58    1.65
  -1   9 -15    8.28    1.22
   1  -9  15    5.59    1.75
   8  10   8    0.91    1.31
  -8  10  -8    1.07    1.31
   8 -10   8   -0.83    1.93
   8 -10   8    0.00    1.47
   6  10  10   14.55    1.96
   6  10  10   12.06    2.49
   6 -10  10   18.49    1.56
   4  10  12   -0.99    1.59
  -4  10 -12   -0.62    1.65
   4 -10  12    0.25    1.33
   2  10  14   32.06    2.83
  -2  10 -14   27.61    2.23
   2 -10  14   29.34    2.73
   7  11   9   17.36    2.21
  -7  11  -9   18.29    1.55
   7 -11   9   16.16    1.96
   5  11  11    0.61    1.83
   5  11  11    0.86    1.51
  -5  11 -11    0.68    1.24
   5 -11  11    1.93    1.45
  -3  11 -13   16.12    1.48
 -12   0  -5    0.58    1.56
  12   0   5    0.04    1.25
  10   0   7    1.87    1.33
 -10   0  -7   -1.08    1.26
  10   0   7   -0.18    1.03
  -8   0  -9   -0.99    1.10
   8   0   9    0.53    1.00
   8   0   9    0.94    0.84
   6   0  11    0.40    0.92
  -6   0 -11   -0.29    1.00
   6   0  11    0.23    0.92
   4   0  13    0.77    0.93
  -4   0 -13    0.62    0.99
   4   0  13   -0.13    1.00
  -2   0 -15    0.87    1.09
   2   0  15   -0.05    1.10
   2   0  15   -0.29    1.29
   0   0  17    0.22    1.57
  11   1   6    2.64    1.50
  11   1   6   -0.31    1.65
  11  -1   6    0.77    1.45
  11  -1   6    0.68    1.63
   9   1   8   10.58    1.99
  -9   1  -8    7.58    1.19
   9   1   8    4.79    0.99
   9  -1   8    7.27    1.11
  -9  -1  -8    5.97    1.24
   7   1  10    3.68    0.96
  -7   1 -10    4.35    1.04
   7   1  10    4.84    1.01
   7  -1  10    5.38    0.99
  -7  -1 -10    5.36    1.13
  -5   1 -12    1.98    0.96
   5   1  12    2.78    0.99
   5   1  12    4.72    0.97
  -5  -1 -12    2.85    1.06
   5  -1  12    2.05    0.93
   3   1  14    0.52    1.09
   3   1  14    1.42    1.01
  -3   1 -14    1.60    1.02
   3  -1  14    1.03    0.97
  -3  -1 -14    1.16    1.10
  -1   1 -16    4.54    1.19
   1   1 -18   -0.18    1.45
  12   2   5    0.05    1.27
 -12   2  -5    0.08    1.48
  12  -2   5   -0.24    1.22
 -12  -2  -5    0.58    1.72
 -10   2  -7    0.82    1.25
  10   2   7   -0.34    1.36
  10   2   7    2.11    1.03
  10  -2   7    0.41    1.05
 -10  -2  -7   -0.75    1.38
  10  -2   7    0.60    1.29
   8   2   9    1.53    0.88
  -8   2  -9    1.91    1.08
   8   2   9    1.67    1.09
  -8  -2  -9    2.53    1.21
   8  -2   9    3.35    1.01
   6   2  11    7.37    1.04
   6   2  11    7.50    1.06
  -6   2 -11    6.78    1.03
   6  -2  11    6.28    0.99
  -4   2 -13    7.63    1.06
   4   2  13    8.12    1.15
   4   2  13    6.41    1.06
   4  -2  13    7.86    1.09
   2   2  15    7.51    1.23
  -2   2 -15    9.29    1.18
   2   2  15    8.17    1.53
   2  -2  15    7.97    1.23
   0   2 -17    4.94    1.28
   0  -2  17    7.05    1.67
  11   3   6    0.62    1.16
 -11   3  -6    1.44    1.39
  11  -3   6    3.04    1.71
  11  -3   6    1.86    1.17
 -11  -3  -6    2.19    1.62
   9   3   8    0.02    1.22
  -9   3  -8    2.05    1.16
   9   3   8    0.10    1.05
   9  -3   8    1.48    1.16
  -9  -3  -8    1.29    1.34
  -7   3 -10    0.27    1.02
   7   3  10   -0.09    0.95
   7   3  10   -0.24    0.99
   7  -3  10    0.20    0.92
   5   3  12    1.21    0.97
  -5   3 -12    0.01    0.91
   5   3  12    0.21    1.02
   5  -3  12    1.12    0.92
   3   3  14    0.26    1.21
  -3   3 -14   -0.45    0.98
   3   3  14   -0.46    1.05
   3  -3  14   -0.68    1.03
  -1   3 -16    2.97    1.18
   1  -3  16    3.57    1.36
   1   3 -18    1.39    1.38
 -10   4  -7   -0.09    1.26
  10   4   7    0.24    1.12
  10  -4   7    0.55    1.34
  -8   4  -9   -0.07    1.07
   8   4   9   -0.33    0.96
   8  -4   9   -0.72    1.33
  -6   4 -11    0.29    0.92
   6   4  11   -0.57    1.01
   6   4  11    0.10    1.00
   6  -4  11    0.46    0.95
   4   4  13    1.50    1.06
   4   4  13    0.38    1.15
  -4   4 -13    1.40    0.96
   4  -4  13    0.63    0.97
  -2   4 -15   -0.75    1.06
   2  -4  15   -0.35    1.69
   0   4 -17    3.68    1.47
   0  -4  17    3.47    1.81
 -11   5  -6    7.44    1.41
  11   5   6    8.41    1.35
  11  -5   6    5.42    3.26
  -9   5  -8    7.85    1.27
   9   5   8    6.64    1.16
   9  -5   8    6.45    1.34
  -7   5 -10   12.20    1.18
   7   5  10   13.86    1.66
   7  -5  10    8.57    1.99
  -5   5 -12   18.79    1.77
   5   5  12   15.41    1.78
   5  -5  12   19.21    1.67
  -3   5 -14   12.95    1.21
   3   5  14   11.25    1.48
   3  -5  14   11.39    1.72
  -1   5 -16    5.21    1.22
   1  -5  16    4.37    1.59
   1   5 -18    4.58    1.42
  10   6   7    1.09    1.15
 -10   6  -7    0.61    1.31
  10  -6   7   -0.45    1.52
   8   6   9   -0.01    1.09
  -8   6  -9    0.01    1.15
   8  -6   9   -0.28    1.17
   6   6  11    1.92    2.11
   6   6  11    0.48    1.08
  -6   6 -11   -0.22    1.02
   6  -6  11   -0.49    1.04
   4   6  13    0.50    1.22
  -4   6 -13    1.87    1.04
   4  -6  13    1.63    1.11
  -2   6 -15    2.79    1.11
   2  -6  15    1.81    1.33
   0   6 -17    2.18    1.31
  -9   7  -8    1.26    1.28
   9   7   8    1.09    1.15
   9  -7   8    0.87    1.35
  -7   7 -10    3.10    1.11
   7   7  10    1.77    1.68
   7   7  10    1.74    1.16
   7  -7  10    3.01    1.18
   5   7  12    0.03    1.20
   5   7  12    0.38    1.43
  -5   7 -12    1.30    1.04
   5  -7  12    0.32    1.11
  -3   7 -14    1.80    1.10
   3   7  14    2.24    1.68
   3   7  14    1.31    1.47
   3  -7  14    1.06    1.25
   1   7  16    0.18    1.62
  -1   7 -16    0.35    1.18
  -1  -7 -16    0.09    1.93
   1  -7  16    1.02    1.79
  -8   8  -9    1.00    1.27
   8   8   9    0.83    1.15
   8  -8   9    0.96    1.33
  -6   8 -11    5.82    1.17
   6   8  11    3.81    1.28
   6   8  11    5.19    1.66
   6  -8  11    4.77    1.23
   4   8  13    2.76    1.52
  -4   8 -13    1.72    1.10
   4   8  13    1.85    1.53
   4  -8  13    1.30    1.25
   2   8  15    9.12    1.69
  -2   8 -15    6.65    1.24
   2  -8  15    6.04    1.57
  -7   9 -10   10.68    1.34
   7   9  10   -0.19    2.18
   7   9  10    7.25    1.41
   7  -9  10    8.49    1.41
  -5   9 -12    3.07    1.31
   5   9  12    3.52    1.66
   5   9  12    3.12    1.50
   5  -9  12    3.54    1.34
  -3   9 -14    4.62    1.24
   3   9  14    3.41    1.65
   3  -9  14    3.34    1.51
  -6  10 -11    0.68    1.27
   6  10  11   -0.32    2.24
   6  10  11    0.89    1.46
   6 -10  11   -0.28    1.67
  -4  10 -13   -0.21    1.23
   4  10  13    1.07    1.91
  10   0   8    4.22    1.49
  10   0   8    6.74    1.36
 -10   0  -8    7.71    2.14
   8   0  10   10.99    1.29
   8   0  10   11.19    1.29
  -8   0 -10   10.28    1.34
   6   0  12   16.61    1.91
  -6   0 -12   17.25    1.38
   6   0  12   13.22    1.65
  -4   0 -14    1.20    1.15
   4   0  14    2.26    1.22
   2   0  16   25.71    2.25
  -2   0 -16   20.71    2.23
  11   1   7   13.00    1.89
 -11   1  -7   18.29    1.70
  11  -1   7   21.09    3.23
  11  -1   7   17.58    1.89
 -11  -1  -7   18.53    1.77
   9   1   9    1.93    1.00
   9   1   9    1.90    1.27
  -9   1  -9    2.32    1.26
  -9  -1  -9    1.33    1.31
   9  -1   9    2.45    1.05
   9  -1   9    1.34    1.24
   7   1  11   23.98    2.15
  -7   1 -11   23.93    2.08
   7   1  11   26.27    1.84
  -7  -1 -11   26.79    2.24
   7  -1  11   25.60    2.01
   7  -1  11   22.67    1.90
  -5   1 -13    5.27    1.12
   5   1  13    7.76    1.74
   5   1  13    4.19    1.15
   5  -1  13    7.36    1.65
  -5  -1 -13    6.35    1.23
   3   1  15   15.82    2.16
  -3   1 -15   20.60    1.99
   3   1  15   14.98    1.46
   3  -1  15   18.53    1.96
   3  -1  15   17.75    2.10
   1   1  17   10.01    1.78
  -1   1 -17   10.13    1.50
   1  -1  17   10.55    1.68
 -10   2  -8   10.83    2.28
  10   2   8    9.69    2.03
  10   2   8   11.25    1.61
 -10  -2  -8   10.31    2.11
  10  -2   8   11.62    1.56
  10  -2   8    9.28    1.83
  -8   2 -10    5.38    1.22
   8   2  10    6.19    1.15
   8   2  10    8.67    1.27
  -8  -2 -10    6.41    1.40
   8  -2  10    5.45    1.20
  -6   2 -12   27.78    2.02
   6   2  12   25.48    2.61
   6   2  12   21.20    1.86
   6  -2  12   25.15    2.37
  -4   2 -14   14.74    1.32
   4   2  14   15.88    1.91
   4   2  14   16.16    1.84
   4  -2  14   14.75    1.40
  -2   2 -16   16.54    1.46
   2   2  16   16.45    1.60
   2  -2  16   16.34    1.56
   2  -2  16   14.67    1.96
   0   2 -18   11.84    1.60
  11   3   7    1.32    1.26
 -11   3  -7    3.18    1.46
  11  -3   7    0.06    1.79
  11  -3   7    1.60    1.36
  -9   3  -9   24.90    2.22
   9   3   9   25.90    1.97
   9   3   9   23.15    2.24
   9  -3   9   19.88    2.18
   7   3  11    1.22    1.06
  -7   3 -11    0.43    1.11
   7   3  11    1.32    1.16
   7  -3  11    2.42    1.12
  -5   3 -13   45.67    2.53
   5   3  13   45.33    2.59
   5   3  13   47.00    2.65
   5  -3  13   48.68    2.56
   3   3  15    1.25    1.28
   3   3  15    0.28    1.57
  -3   3 -15   -0.92    1.12
   3  -3  15   -0.39    1.23
  -1   3 -17   34.50    2.59
   1  -3  17   34.76    2.98
 -10   4  -8   14.71    1.54
  10   4   8   14.40    1.84
  10  -4   8   10.56    1.63
  -8   4 -10    5.68    1.24
   8   4  10    5.04    1.39
   8   4  10    5.12    1.19
   8  -4  10    3.45    1.23
   6   4  12   12.23    1.38
  -6   4 -12    9.40    1.26
   6   4  12   13.32    1.39
   6  -4  12   15.02    1.34
  -4   4 -14    4.99    1.12
   4   4  14    3.90    1.40
   4  -4  14    4.64    1.23
  -2   4 -16    7.31    1.30
   2  -4  16    6.91    1.53
   0   4 -18   12.26    1.58
  -9   5  -9    2.45    1.38
   9   5   9    1.58    1.15
   9  -5   9    3.28    1.39
   7   5  11   14.30    1.88
  -7   5 -11   18.24    1.91
   7  -5  11   15.43    1.42
  -5   5 -13    3.99    1.11
   5   5  13    4.96    1.36
   5  -5  13    5.85    1.19
  -3   5 -15   15.34    1.34
   3   5  15   10.03    1.99
   3  -5  15   11.54    1.47
  -1   5 -17    8.42    1.35
 -10   6  -8    5.75    1.47
  10   6   8    4.36    1.28
  10  -6   8    6.77    1.78
   8   6  10    8.04    1.57
  -8   6 -10    6.32    1.78
   8  -6  10    8.04    1.37
   6   6  12   19.47    2.08
   6   6  12   21.35    1.94
  -6   6 -12   25.29    2.05
   6  -6  12   22.36    2.08
  -4   6 -14    8.71    1.23
   4   6  14    6.64    1.57
   4  -6  14    8.03    1.39
  -2   6 -16   24.69    2.19
   2  -6  16   25.43    2.77
   9   7   9    0.98    1.26
  -9   7  -9    0.59    1.38
   9  -7   9    0.39    2.73
   7   7  11   34.88    2.53
  -7   7 -11   47.81    2.56
   7  -7  11   40.91    2.60
   5   7  13   -0.09    1.58
   5   7  13    2.94    1.68
   5  -7  13    0.56    1.27
   3   7  15   40.37    2.97
  -3   7 -15   36.71    2.42
   3  -7  15   30.87    2.71
  -8   8 -10    6.59    1.41
   8   8  10    4.64    1.39
   8  -8  10    5.92    1.96
  -6   8 -12    6.87    1.28
   6   8  12    5.78    1.98
   6   8  12    4.83    1.50
   6  -8  12    6.35    1.48
   4   8  14    2.88    1.89
   4   8  14    3.16    1.78
  -4   8 -14    4.30    1.29
   4  -8  14    4.89    1.51
  -5   9 -13   15.63    1.51
   5   9  13   14.33    2.12
   5   9  13   16.23    1.98
   5  -9  13   16.55    1.78
  10   0   9    1.40    1.97
 -10   0  -9    1.17    1.50
  10   0   9    0.05    1.17
   8   0  11   -0.35    1.31
   8   0  11    0.73    1.15
  -8   0 -11    0.05    1.41
   6   0  13   -0.16    1.21
   6   0  13   -0.10    1.18
  -6   0 -13    0.61    1.24
   4   0  15   -0.28    1.31
  -4   0 -15   -1.00    1.33
   4   0  15   -0.27    1.36
   2   0  17   -0.38    1.67
   9   1  10    5.25    1.24
  -9   1 -10    5.94    1.43
   9   1  10    4.21    1.48
   9  -1  10    6.63    1.43
  -9  -1 -10    5.73    1.53
   9  -1  10    4.02    1.21
  -7   1 -12   -0.79    1.28
   7   1  12    0.71    1.08
   7   1  12    1.84    1.25
   7  -1  12    1.66    1.15
  -7  -1 -12    1.20    1.42
   7  -1  12    0.90    1.23
   5   1  14    6.72    1.39
  -5   1 -14    7.47    1.29
   5   1  14    5.46    1.32
   5  -1  14    5.61    1.39
   5  -1  14    5.81    1.31
   3   1  16    4.06    1.46
   3  -1  16    2.36    2.94
   3  -1  16    5.19    1.48
  -1   1 -18    3.58    1.66
   1  -1  18    3.22    2.04
 -10   2  -9    5.45    1.50
  10   2   9    6.06    1.34
  10  -2   9    6.09    1.31
   8   2  11    4.11    1.34
   8   2  11    2.65    1.38
  -8   2 -11    4.67    1.78
   8  -2  11    5.43    1.36
   8  -2  11    2.87    1.30
   6   2  13    2.49    1.27
  -6   2 -13    3.63    1.21
   6   2  13    1.53    1.26
   6  -2  13    3.10    1.27
   4   2  15    0.83    1.36
  -4   2 -15    0.65    1.27
   4   2  15    0.51    1.52
   4  -2  15    0.76    1.29
   4  -2  15    1.21    1.43
  -2   2 -17    0.36    1.39
   2  -2  17    1.09    1.68
   9   3  10    0.36    1.18
   9   3  10    0.60    1.60
  -9   3 -10   -0.61    1.35
   9  -3  10    0.06    1.43
   9  -3  10   -1.26    1.22
   7   3  12   -0.01    1.34
   7   3  12    1.97    1.23
  -7   3 -12    0.86    1.28
   7  -3  12    3.69    1.29
   5   3  14    0.47    1.40
  -5   3 -14   -0.75    1.18
   5   3  14    0.57    1.32
   5  -3  14    0.58    1.32
  -3   3 -16   -0.44    1.26
   3  -3  16   -0.35    1.73
   3  -3  16   -1.30    1.45
   8   4  11    0.45    1.22
  -8   4 -11    1.48    1.30
   8  -4  11   -0.37    1.34
  -6   4 -13    1.15    1.68
   6   4  13    1.66    1.80
   6  -4  13   -0.56    1.28
  -4   4 -15   -0.04    1.28
   4   4  15   -0.72    1.68
   4  -4  15    0.84    1.39
  -2   4 -17    1.18    1.35
   2  -4  17    1.09    1.79
   9   5  10    0.98    1.28
  -9   5 -10    1.62    1.42
   9  -5  10    1.48    1.63
  -7   5 -12   10.09    1.39
   7   5  12    1.81    2.13
   7   5  12    7.22    1.44
   7  -5  12   11.51    1.50
   5   5  14    2.89    1.55
  -5   5 -14    4.55    1.24
   5  -5  14    3.97    1.42
  -3   5 -16    7.70    1.33
   3  -5  16   11.72    2.51
  -8   6 -11    2.44    1.37
   8   6  11    2.02    1.38
   6   6  13   -0.03    1.44
  -6   6 -13   -0.21    1.26
   6   6  13    1.73    2.05
   6  -6  13    0.23    1.40
  -4   6 -15    0.21    1.27
   4   6  15    0.24    2.16
   4  -6  15    2.81    2.15
  -7   7 -12    5.43    1.36
   7   7  12    3.29    1.47
   7  -7  12    5.47    1.55
   5   7  14    2.53    1.99
   5   7  14    3.35    1.84
  -5   7 -14    1.82    1.33
   5  -7  14    2.26    1.52
   8   0  12    1.82    1.24
   8   0  12    1.77    1.46
  -8   0 -12    0.92    1.58
   6   0  14   39.23    2.62
   6   0  14   34.94    2.45
  -6   0 -14   38.76    2.75
   4   0  16    0.85    1.66
   4   0  16    1.27    1.90
  -9   1 -11   10.05    1.65
   9   1  11    8.75    1.42
   9   1  11    9.00    1.75
  -9  -1 -11   10.54    1.78
   9  -1  11    9.01    1.41
   9  -1  11    9.25    1.76
  -7   1 -13    2.94    1.39
   7   1  13    4.40    1.45
   7   1  13    2.92    1.39
   7  -1  13    1.39    1.46
   7  -1  13    2.06    1.35
   5   1  15   21.45    2.36
   5   1  15   20.34    2.46
  -5   1 -15   21.11    1.74
   5  -1  15   19.62    2.25
   5  -1  15   21.65    2.40
  -3   1 -17    1.73    1.62
   3   1  17    0.44    1.81
   3  -1  17    1.77    1.79
   8   2  12    3.60    1.37
   8   2  12    2.85    2.19
  -8   2 -12    4.74    1.48
   8  -2  12    4.22    1.34
   8  -2  12    5.52    2.24
   6   2  14    8.21    1.57
  -6   2 -14   10.15    1.47
   6   2  14   12.27    1.61
   6  -2  14   11.46    1.57
   6  -2  14    9.99    1.56
   4   2  16    5.47    2.40
  -4   2 -16    4.12    1.49
   4  -2  16    5.92    1.90
  -7   3 -13   17.49    1.57
   7   3  13   17.63    2.16
   7   3  13   17.48    2.01
   7  -3  13   23.31    2.56
   7  -3  13   15.33    2.03
  -5   3 -15    2.05    1.36
   5   3  15    1.49    1.74
   5  -3  15    1.64    1.70
   5  -3  15    1.47    1.56
   6   4  14    0.38    1.60
  -6   4 -14    0.68    1.32
   0   0   0    0.00    0.00
;
_shelx_hkl_checksum              48434
loop_
_space_group_symop_operation_xyz
'x, y, z'
'-x, y, -z+1/2'
'x+1/2, y+1/2, z'
'-x+1/2, y+1/2, -z+1/2'
'-x, -y, -z'
'x, -y, z-1/2'
'-x+1/2, -y+1/2, -z'
'x+1/2, -y+1/2, z-1/2'
loop_
_atom_site_label
_atom_site_type_symbol
_atom_site_fract_x
_atom_site_fract_y
_atom_site_fract_z
_atom_site_U_iso_or_equiv
_atom_site_adp_type
_atom_site_occupancy
_atom_site_site_symmetry_order
_atom_site_calc_flag
_atom_site_refinement_flags_posn
_atom_site_refinement_flags_adp
_atom_site_refinement_flags_occupancy
_atom_site_disorder_assembly
_atom_site_disorder_group
Cu1 Cu 0.7500 0.2500 0.5000 0.00871(6) Uani 1 2 d S . P . .
S1 S 0.67137(4) 0.10163(3) 0.18602(3) 0.00814(6) Uani 1 1 d . . . . .
O1 O 0.81856(14) 0.16069(11) 0.32185(11) 0.01117(16) Uani 1 1 d . . . . .
O2 O 0.5000 0.00598(14) 0.2500 0.0105(2) Uani 1 2 d S T P . .
O3 O 0.55482(15) 0.22392(11) 0.09276(12) 0.01286(17) Uani 1 1 d . . . . .
O4 O 0.75838(15) -0.00981(11) 0.10642(12) 0.01457(18) Uani 1 1 d . . . . .
loop_
_atom_site_aniso_label
_atom_site_aniso_U_11
_atom_site_aniso_U_22
_atom_site_aniso_U_33
_atom_site_aniso_U_23
_atom_site_aniso_U_13
_atom_site_aniso_U_12
Cu1 0.00865(9) 0.01008(9) 0.00701(10) -0.00209(6) 0.00128(7) -0.00113(6)
S1 0.00878(12) 0.00792(11) 0.00745(12) -0.00126(8) 0.00154(9) 0.00023(8)
O1 0.0091(4) 0.0149(4) 0.0086(4) -0.0033(3) 0.0008(3) -0.0013(3)
O2 0.0107(5) 0.0076(4) 0.0140(6) 0.000 0.0047(4) 0.000
O3 0.0106(4) 0.0137(4) 0.0133(4) 0.0052(3) 0.0012(3) 0.0008(3)
O4 0.0155(4) 0.0133(4) 0.0166(5) -0.0069(3) 0.0072(3) 0.0000(3)
loop_
_atom_type_symbol
_atom_type_description
_atom_type_scat_dispersion_real
_atom_type_scat_dispersion_imag
_atom_type_scat_source
O O 0.0106 0.0060 'International Tables Vol C Tables 4.2.6.8 and 6.1.1.4'
S S 0.1246 0.1234 'International Tables Vol C Tables 4.2.6.8 and 6.1.1.4'
Cu Cu 0.3201 1.2651 'International Tables Vol C Tables 4.2.6.8 and 6.1.1.4'
loop_
_geom_angle_atom_site_label_1
_geom_angle_atom_site_label_2
_geom_angle_atom_site_label_3
_geom_angle
_geom_angle_site_symmetry_1
_geom_angle_site_symmetry_3
_geom_angle_publ_flag
O1 Cu1 O1 180.0 . 7_656 ?
O1 Cu1 O3 88.21(4) . 8_556 ?
O1 Cu1 O3 91.79(4) 7_656 8_556 ?
O1 Cu1 O3 91.79(4) . 2_655 ?
O1 Cu1 O3 88.21(4) 7_656 2_655 ?
O3 Cu1 O3 180.0 8_556 2_655 ?
O1 Cu1 O4 89.79(4) . 6_556 ?
O1 Cu1 O4 90.21(4) 7_656 6_556 ?
O3 Cu1 O4 90.80(4) 8_556 6_556 ?
O3 Cu1 O4 89.20(4) 2_655 6_556 ?
O1 Cu1 O4 90.21(4) . 4_655 ?
O1 Cu1 O4 89.79(4) 7_656 4_655 ?
O3 Cu1 O4 89.20(4) 8_556 4_655 ?
O3 Cu1 O4 90.80(4) 2_655 4_655 ?
O4 Cu1 O4 180.0 6_556 4_655 ?
O4 S1 O3 115.67(7) . . ?
O4 S1 O1 113.58(6) . . ?
O3 S1 O1 111.91(6) . . ?
O4 S1 O2 103.89(6) . . ?
O3 S1 O2 105.45(5) . . ?
O1 S1 O2 105.03(4) . . ?
S1 O1 Cu1 126.42(6) . . ?
S1 O2 S1 118.42(8) . 2_655 ?
S1 O3 Cu1 131.27(6) . 2_655 ?
S1 O4 Cu1 150.22(6) . 4_645 ?
loop_
_geom_bond_atom_site_label_1
_geom_bond_atom_site_label_2
_geom_bond_distance
_geom_bond_site_symmetry_2
_geom_bond_publ_flag
Cu1 O1 1.9472(9) . ?
Cu1 O1 1.9472(9) 7_656 ?
Cu1 O3 1.9952(10) 8_556 ?
Cu1 O3 1.9952(10) 2_655 ?
Cu1 O4 2.3025(10) 6_556 ?
Cu1 O4 2.3025(10) 4_655 ?
S1 O4 1.4182(10) . ?
S1 O3 1.4553(10) . ?
S1 O1 1.4561(10) . ?
S1 O2 1.6314(7) . ?
O2 S1 1.6314(7) 2_655 ?
O3 Cu1 1.9952(10) 2_655 ?
O4 Cu1 2.3025(10) 4_645 ?
