#------------------------------------------------------------------------------
#$Date: 2022-03-10 01:54:36 +0200 (Thu, 10 Mar 2022) $
#$Revision: 273574 $
#$URL: file:///home/coder/svn-repositories/cod/cif/7/70/96/7709698.cif $
#------------------------------------------------------------------------------
#
# This file is available in the Crystallography Open Database (COD),
# http://www.crystallography.net/
#
# All data on this site have been placed in the public domain by the
# contributors.
#
data_7709698
loop_
_publ_author_name
'Hylland, Knut T.'
'Schmidtke, Inga L.'
'Wragg, David S.'
'Nova, Ainara'
'Tilset, Mats'
_publ_section_title
;
 Synthesis of substituted (N,C) and (N,C,C) Au(iii) complexes: the
 influence of sterics and electronics on cyclometalation reactions
;
_journal_name_full               'Dalton Transactions'
_journal_paper_doi               10.1039/D2DT00371F
_journal_year                    2022
_chemical_formula_moiety         'C15 H6 Au F8 N O4'
_chemical_formula_sum            'C15 H6 Au F8 N O4'
_chemical_formula_weight         613.17
_space_group_crystal_system      triclinic
_space_group_IT_number           2
_space_group_name_Hall           '-P 1'
_space_group_name_H-M_alt        'P -1'
_atom_sites_solution_hydrogens   geom
_audit_creation_date             2021-10-13
_audit_creation_method
;
Olex2 1.3
(compiled 2020.11.12 svn.r5f609507 for OlexSys, GUI svn.r6408)
;
_audit_update_record
;
2021-10-13 deposited with the CCDC.	2022-03-04 downloaded from the CCDC.
;
_cell_angle_alpha                99.749(2)
_cell_angle_beta                 103.932(2)
_cell_angle_gamma                94.850(2)
_cell_formula_units_Z            2
_cell_length_a                   9.0823(9)
_cell_length_b                   9.6035(9)
_cell_length_c                   9.6741(9)
_cell_measurement_reflns_used    9887
_cell_measurement_temperature    100.0
_cell_measurement_theta_max      28.38
_cell_measurement_theta_min      2.17
_cell_volume                     800.19(13)
_computing_cell_refinement       'SAINT V8.40A (Bruker, 2019)'
_computing_data_reduction        'SAINT V8.40A (Bruker, 2019)'
_computing_molecular_graphics    'Olex2 1.3 (Dolomanov et al., 2009)'
_computing_publication_material  'Olex2 1.3 (Dolomanov et al., 2009)'
_computing_structure_refinement  'SHELXL 2018/3 (Sheldrick, 2015)'
_computing_structure_solution    'SHELXT 2014/5 (Sheldrick, 2014)'
_diffrn_ambient_temperature      100.0
_diffrn_detector                 'Bruker Photon 100 area detector'
_diffrn_detector_area_resol_mean 10.42
_diffrn_detector_type            'CMOS area detector'
_diffrn_measured_fraction_theta_full 1.000
_diffrn_measured_fraction_theta_max 0.999
_diffrn_measurement_device       'three-circle diffractometer'
_diffrn_measurement_device_type  'Bruker D8 Venture'
_diffrn_measurement_method       '\w and \f shutterless scans'
_diffrn_radiation_monochromator  'mirror optics'
_diffrn_radiation_probe          x-ray
_diffrn_radiation_type           MoK\a
_diffrn_radiation_wavelength     0.71073
_diffrn_reflns_av_R_equivalents  0.0549
_diffrn_reflns_av_unetI/netI     0.0375
_diffrn_reflns_Laue_measured_fraction_full 1.000
_diffrn_reflns_Laue_measured_fraction_max 0.999
_diffrn_reflns_limit_h_max       12
_diffrn_reflns_limit_h_min       -12
_diffrn_reflns_limit_k_max       12
_diffrn_reflns_limit_k_min       -12
_diffrn_reflns_limit_l_max       12
_diffrn_reflns_limit_l_min       -12
_diffrn_reflns_number            23774
_diffrn_reflns_point_group_measured_fraction_full 1.000
_diffrn_reflns_point_group_measured_fraction_max 0.999
_diffrn_reflns_theta_full        25.242
_diffrn_reflns_theta_max         28.426
_diffrn_reflns_theta_min         2.170
_diffrn_source                   'microfocus sealed X-ray tube'
_diffrn_source_current           1.0
_diffrn_source_power             0.05
_diffrn_source_type              'Incoatec I\ms'
_diffrn_source_voltage           50.0
_diffrn_standards_number         0
_exptl_absorpt_coefficient_mu    9.307
_exptl_absorpt_correction_T_max  0.7457
_exptl_absorpt_correction_T_min  0.4812
_exptl_absorpt_correction_type   multi-scan
_exptl_absorpt_process_details
;
SADABS-2016/2 (Bruker,2016/2) was used for absorption correction.
wR2(int) was 0.1222 before and 0.0611 after correction.
The Ratio of minimum to maximum transmission is 0.6453.
The \l/2 correction factor is Not present.
;
_exptl_crystal_colour            colourless
_exptl_crystal_colour_primary    colourless
_exptl_crystal_density_diffrn    2.545
_exptl_crystal_description       plate
_exptl_crystal_F_000             572
_exptl_crystal_size_max          0.4
_exptl_crystal_size_mid          0.14
_exptl_crystal_size_min          0.05
_refine_diff_density_max         1.858
_refine_diff_density_min         -0.928
_refine_diff_density_rms         0.157
_refine_ls_extinction_method     none
_refine_ls_goodness_of_fit_ref   1.040
_refine_ls_hydrogen_treatment    constr
_refine_ls_matrix_type           full
_refine_ls_number_parameters     262
_refine_ls_number_reflns         4025
_refine_ls_number_restraints     0
_refine_ls_restrained_S_all      1.040
_refine_ls_R_factor_all          0.0315
_refine_ls_R_factor_gt           0.0254
_refine_ls_shift/su_max          0.001
_refine_ls_shift/su_mean         0.000
_refine_ls_structure_factor_coef Fsqd
_refine_ls_weighting_details
'w=1/[\s^2^(Fo^2^)+(0.0158P)^2^+2.0088P] where P=(Fo^2^+2Fc^2^)/3'
_refine_ls_weighting_scheme      calc
_refine_ls_wR_factor_gt          0.0502
_refine_ls_wR_factor_ref         0.0516
_reflns_Friedel_coverage         0.000
_reflns_number_gt                3665
_reflns_number_total             4025
_reflns_threshold_expression     'I > 2\s(I)'
_cod_data_source_file            d2dt00371f2.cif
_cod_data_source_block           mo_il_ma_48_0m_a
_cod_database_code               7709698
_shelx_shelxl_version_number     2018/3
_shelx_space_group_comment
;
The symmetry employed for this shelxl refinement is uniquely defined
by the following loop, which should always be used as a source of
symmetry information in preference to the above space-group names.
They are only intended as comments.
;
_shelx_estimated_absorpt_t_max   0.653
_shelx_estimated_absorpt_t_min   0.118
_olex2_refinement_description
;
1. Fixed Uiso
 At 1.2 times of:
  All C(H) groups
2.a Aromatic/amide H refined with riding coordinates:
 C1(H1), C7(H7), C4(H4), C9(H9), C3(H3), C2(H2)
;
_shelx_res_file
;
TITL mo_IL_MA_48_0m_a.res in P-1
    mo_il_ma_48_0m_a.res
    created by SHELXL-2018/3 at 18:28:21 on 13-Oct-2021
REM Old TITL mo_IL_MA_48_0m in P1
REM SHELXT solution in P-1
REM R1 0.060, Rweak 0.013, Alpha 0.028, Orientation as input
REM Formula found by SHELXT: C15 Au F8 N O4
CELL 0.71073 9.0823 9.6035 9.6741 99.749 103.932 94.85
ZERR 2 0.0009 0.0009 0.0009 0.002 0.002 0.002
LATT 1
SFAC C H Au F N O
UNIT 30 12 2 16 2 8

L.S. 10
PLAN  5
SIZE 0.05 0.14 0.4
TEMP -173.15
CONF
BOND $H
LIST 6
MORE -1
fmap 2
acta
REM <olex2.extras>
REM <HklSrc "%.\\mo_IL_MA_48_0m_a.hkl">
REM </olex2.extras>

WGHT    0.015800    2.008800
FVAR       0.37178
AU1   3    0.419282    0.477976    0.235717    11.00000    0.01871    0.01382 =
         0.01193    0.00399    0.00471    0.00503
F2    4    0.477246    0.146405    0.091789    11.00000    0.03051    0.01496 =
         0.02194    0.00172    0.01073    0.00152
F1    4    0.931472    0.275582   -0.028279    11.00000    0.02944    0.02424 =
         0.03630    0.00394    0.02013    0.00978
O3    6    0.265967    0.590003    0.321187    11.00000    0.02190    0.02112 =
         0.01750    0.00741    0.00764    0.00839
O1    6    0.276461    0.300579    0.213094    11.00000    0.01640    0.01981 =
         0.01973    0.00463    0.00457    0.00318
F7    4    0.094954    0.631779    0.610360    11.00000    0.04676    0.04681 =
         0.02377    0.01433    0.01967    0.02480
F8    4    0.010184    0.667674    0.395594    11.00000    0.02615    0.05598 =
         0.02495    0.00640    0.00362    0.02078
O2    6    0.443392    0.217319    0.385572    11.00000    0.02449    0.02301 =
         0.01895    0.00702    0.00427    0.00507
O4    6    0.292847    0.477505    0.512024    11.00000    0.02291    0.01929 =
         0.01620    0.00473    0.00281    0.00729
F3    4    0.243960   -0.023732    0.312067    11.00000    0.04422    0.02511 =
         0.09676    0.02529    0.02100    0.00639
F6    4    0.207938    0.799013    0.539334    11.00000    0.04115    0.01784 =
         0.08196   -0.01005    0.03174   -0.00220
N1    5    0.551029    0.659052    0.244370    11.00000    0.01942    0.01339 =
         0.01218    0.00340    0.00572    0.00670
F4    4    0.094976    0.061295    0.154285    11.00000    0.07710    0.05890 =
         0.06696    0.03067   -0.03493   -0.04072
F5    4    0.111187    0.129684    0.380513    11.00000    0.06697    0.04248 =
         0.12280   -0.01201    0.07359   -0.00934
C1    1    0.518500    0.788867    0.298529    11.00000    0.02295    0.01773 =
         0.01461    0.00372    0.00607    0.00724
AFIX  43
H1    2    0.431397    0.795978    0.336168    11.00000   -1.20000
AFIX   0
C5    1    0.675320    0.645718    0.189037    11.00000    0.02056    0.01703 =
         0.01304    0.00540    0.00241    0.00661
C6    1    0.690687    0.495592    0.133901    11.00000    0.02050    0.01719 =
         0.00849    0.00130    0.00207    0.00379
C8    1    0.814316    0.315091    0.026942    11.00000    0.02106    0.02526 =
         0.01675    0.00428    0.00896    0.01210
C14   1    0.243123    0.564067    0.442557    11.00000    0.01103    0.01635 =
         0.01737    0.00000    0.00240   -0.00077
C11   1    0.574886    0.392648    0.143707    11.00000    0.01448    0.02151 =
         0.00897    0.00511    0.00041    0.00586
C7    1    0.812158    0.458191    0.076883    11.00000    0.01965    0.02179 =
         0.01683    0.00527    0.00443    0.00408
AFIX  43
H7    2    0.890317    0.528342    0.072560    11.00000   -1.20000
AFIX   0
C4    1    0.769312    0.765175    0.187261    11.00000    0.01689    0.02068 =
         0.01974    0.00444    0.00485    0.00447
AFIX  43
H4    2    0.855026    0.756422    0.147767    11.00000   -1.20000
AFIX   0
C9    1    0.704666    0.209574    0.032550    11.00000    0.02997    0.01731 =
         0.01656    0.00263    0.00796    0.01002
AFIX  43
H9    2    0.709873    0.111950   -0.002163    11.00000   -1.20000
AFIX   0
C3    1    0.737335    0.899200    0.244076    11.00000    0.02514    0.01443 =
         0.02065    0.00365    0.00359    0.00053
AFIX  43
H3    2    0.802222    0.982412    0.244787    11.00000   -1.20000
AFIX   0
C15   1    0.137475    0.666326    0.496983    11.00000    0.01451    0.02002 =
         0.01756    0.00306    0.00181    0.00176
C2    1    0.610695    0.910844    0.299532    11.00000    0.02886    0.01260 =
         0.01654    0.00300    0.00370    0.00616
AFIX  43
H2    2    0.587723    1.001834    0.337780    11.00000   -1.20000
AFIX   0
C10   1    0.586101    0.251482    0.090972    11.00000    0.02289    0.01790 =
         0.01216    0.00535    0.00410    0.00287
C12   1    0.320429    0.214382    0.300666    11.00000    0.02498    0.01593 =
         0.01696    0.00170    0.01059    0.00360
C13   1    0.190512    0.094653    0.285953    11.00000    0.03132    0.02093 =
         0.03333    0.00689    0.01122    0.00694
HKLF 4




REM  mo_IL_MA_48_0m_a.res in P-1
REM wR2 = 0.0516, GooF = S = 1.040, Restrained GooF = 1.040 for all data
REM R1 = 0.0254 for 3665 Fo > 4sig(Fo) and 0.0315 for all 4025 data
REM 262 parameters refined using 0 restraints

END

WGHT      0.0157      2.0139

REM Highest difference peak  1.858,  deepest hole -0.928,  1-sigma level  0.157
Q1    1   0.4682  0.4693  0.3179  11.00000  0.05    1.86
Q2    1   0.4791  0.5278  0.2150  11.00000  0.05    1.17
Q3    1   0.1395  0.7964  0.4457  11.00000  0.05    1.05
Q4    1   0.1685  0.7086  0.6231  11.00000  0.05    1.00
Q5    1   0.5197  0.5392  0.3356  11.00000  0.05    0.93
;
_shelx_res_checksum              6292
_shelx_hkl_file
;
  -1   0   0 2553.74  127.39
  -1   0   0 2576.04  127.29
  -1   0   0 2855.01  127.89
  -1   0   0 2929.21  127.79
   1   0   0 2551.44  127.29
   1   0   0 2451.65  127.39
   1   0   0 2685.53  127.59
   1   0   0 2753.02  127.79
  -2   0   0   94.79    6.60
  -2   0   0   95.79    7.60
  -2   0   0  102.49    6.90
  -2   0   0   90.09    6.90
   2   0   0   95.59    6.60
   2   0   0  134.49    8.90
   2   0   0   99.59    7.00
   2   0   0  110.29    7.40
   2   0   0  110.39    7.00
   2   0   0  122.79    7.30
   2   0   0  118.59    8.10
  -3   0   0   98.59    8.70
  -3   0   0  123.69    9.90
  -3   0   0  115.19    8.40
  -3   0   0  102.09    8.20
   3   0   0  118.19    9.90
   3   0   0  112.29    8.70
   3   0   0  116.59    8.40
  -4   0   0   25.10    6.60
  -4   0   0   31.40    6.20
  -4   0   0   19.20    7.70
  -4   0   0   10.80    5.30
  -4   0   0   26.70    5.00
   4   0   0   15.70    5.90
   4   0   0   22.60    4.30
   4   0   0   30.60    5.80
   4   0   0   28.80    5.80
   4   0   0   31.10    5.40
   4   0   0   28.20    5.90
   4   0   0   25.30    7.50
  -5   0   0  553.64   31.10
  -5   0   0  586.54   32.20
  -5   0   0  600.54   30.70
   5   0   0  580.54   31.10
   5   0   0  556.34   30.60
   5   0   0  572.34   33.20
   5   0   0  585.34   31.40
   5   0   0  541.45   31.30
  -6   0   0 1914.51   90.89
  -6   0   0 1865.91   91.29
  -6   0   0 1870.11   91.79
   6   0   0 1848.92   91.29
   6   0   0 1827.52   93.39
   6   0   0 1712.13   90.59
  -7   0   0 1003.00   56.09
  -7   0   0 1075.89   56.29
  -7   0   0 1023.80   56.19
   7   0   0 1048.60   58.69
   7   0   0 1093.59   56.19
   7   0   0 1142.99   56.49
  -8   0   0  400.66   29.60
  -8   0   0  357.66   27.20
  -8   0   0  384.76   30.60
   8   0   0  332.87   31.90
   8   0   0  328.77   28.50
   8   0   0  379.46   27.70
  -9   0   0    3.50   17.30
  -9   0   0    6.80   17.20
  -9   0   0   33.70   20.50
   9   0   0   37.50   17.00
   9   0   0    4.80   22.10
   9   0   0   27.10   17.90
 -10   0   0   82.59   26.60
 -10   0   0   69.69   22.50
 -10   0   0   85.59   23.50
  10   0   0   79.59   22.60
  10   0   0   80.49   23.50
  10   0   0   74.59   28.60
 -11   0   0  158.58   29.10
 -11   0   0  135.59   31.70
  11   0   0   87.89   33.70
  11   0   0  222.68   30.90
  11  -1   0  124.89   30.30
  11  -1   0  111.29   34.20
 -11   1   0  129.79   27.40
 -11   1   0  197.08   30.60
 -11   1   0  122.99   36.80
  10  -1   0   83.19   23.20
  10  -1   0   -4.10   24.90
  10  -1   0  -11.40   27.20
 -10   1   0   41.40   22.10
 -10   1   0   -9.30   24.60
 -10   1   0   34.30   21.70
   9  -1   0   24.90   16.90
   9  -1   0   38.40   22.30
   9  -1   0   18.50   18.30
  -9   1   0    5.40   17.90
  -9   1   0   24.70   17.70
  -9   1   0   -4.30   21.50
   8  -1   0  365.36   32.80
   8  -1   0  329.27   28.40
   8  -1   0  390.36   27.60
  -8   1   0  406.36   29.70
  -8   1   0  357.36   28.30
  -8   1   0  357.86   28.10
   7  -1   0 1094.09   57.89
   7  -1   0 1072.49   57.39
   7  -1   0 1055.79   60.09
  -7   1   0 1180.18   57.79
  -7   1   0 1067.99   59.29
  -7   1   0 1111.49   57.79
   6  -1   0  428.46   29.90
   6  -1   0  459.15   27.80
   6  -1   0  434.26   27.50
  -6   1   0  520.25   28.60
  -6   1   0  455.85   27.60
  -6   1   0  496.05   28.10
   5  -1   0  543.85   29.90
   5  -1   0  595.44   30.30
   5  -1   0  515.75   30.60
  -5   1   0  591.44   31.10
  -5   1   0  543.05   31.20
  -5   1   0  555.74   30.10
   4  -1   0   79.69   10.30
   4  -1   0   85.09   10.30
   4  -1   0   82.49    8.70
   4  -1   0   96.49   10.80
   4  -1   0   77.49    8.80
   4  -1   0   73.79    6.80
   4  -1   0   74.59    7.30
  -4   1   0   83.09    9.80
  -4   1   0   55.09    8.20
  -4   1   0   60.09    8.30
  -4   1   0   82.29   10.50
  -4   1   0   72.79    6.90
  -4   1   0   61.89    7.50
   3  -1   0   15.80    3.90
   3  -1   0   13.40    3.00
   3  -1   0   12.50    4.70
   3  -1   0   11.80    3.20
   3  -1   0    0.60    4.00
   3  -1   0   14.80    3.60
  -3   1   0    7.70    2.60
  -3   1   0    2.40    3.50
  -3   1   0    7.90    2.90
  -3   1   0    7.40    3.70
  -3   1   0   13.60    3.00
  -3   1   0    7.80    3.90
   2  -1   0 2089.89  102.29
   2  -1   0 2282.77  102.79
   2  -1   0 1940.91  102.19
   2  -1   0 2207.18  102.59
   2  -1   0 2048.10  102.09
  -2   1   0 2108.29  102.29
  -2   1   0 2067.09  102.29
  -2   1   0 2065.99  102.29
  -2   1   0 1978.10  102.69
  -2   1   0 2098.59  102.19
  -2   1   0 2391.66  102.89
  -2   1   0 2368.76  102.79
   1  -1   0 2938.21  122.29
   1  -1   0 2530.95  122.19
   1  -1   0 2489.65  122.19
   1  -1   0 2389.96  122.19
   1  -1   0 2380.26  122.19
   1  -1   0 2625.44  122.39
  -1   1   0 2863.31  122.29
  -1   1   0 2676.93  122.49
  -1   1   0 2463.75  122.19
  -1   1   0 2486.85  122.19
  -1   1   0 2399.56  122.19
  -1   1   0 2506.55  122.29
   0  -1   0 3025.20  169.58
   0  -1   0 3627.64  169.58
   0  -1   0 3775.02  169.58
   0  -1   0 3808.62  169.48
   0   1   0 3457.85  169.58
   0   1   0 3743.13  169.68
   0   1   0 3838.92  169.58
   0   1   0 3220.48  169.48
  -1  -1   0 2000.90   93.69
  -1  -1   0 2122.19   93.99
  -1  -1   0 1824.02   93.39
  -1  -1   0 2129.59   93.59
  -1  -1   0 1680.93   93.39
  -1  -1   0 1950.60   93.59
   1   1   0 2059.99   93.69
   1   1   0 2152.18   93.99
   1   1   0 1761.72   93.39
   1   1   0 2169.68   93.59
   1   1   0 1935.11   93.59
   1   1   0 1787.32   93.49
   1   1   0 1870.01   93.39
  -2  -1   0   13.80    2.30
  -2  -1   0   20.90    3.60
  -2  -1   0   19.80    2.90
  -2  -1   0   17.40    3.40
   2   1   0   16.90    2.50
   2   1   0   24.10    3.90
   2   1   0   14.70    2.60
   2   1   0   16.70    3.20
  -3  -1   0  219.28   13.70
  -3  -1   0  211.98   13.90
  -3  -1   0  208.88   13.90
  -3  -1   0  219.18   12.60
  -3  -1   0  242.38   14.30
   3   1   0  245.28   15.00
   3   1   0  228.68   12.90
   3   1   0  219.98   12.60
   3   1   0  208.38   13.40
   3   1   0  222.38   12.90
   3   1   0  189.38   13.00
  -4  -1   0  467.85   25.10
  -4  -1   0  469.25   33.40
  -4  -1   0  502.15   25.50
  -4  -1   0  421.26   26.10
  -4  -1   0  506.75   26.70
   4   1   0  477.95   26.40
   4   1   0  503.55   26.10
   4   1   0  445.96   25.10
   4   1   0  413.96   29.90
   4   1   0  548.75   29.60
  -5  -1   0 1131.99   57.99
  -5  -1   0 1189.28   58.69
  -5  -1   0 1178.88   59.39
  -5  -1   0 1253.07   59.79
   5   1   0 1213.48   59.19
   5   1   0 1070.89   58.29
   5   1   0 1146.49   61.29
  -6  -1   0 1741.13   82.99
  -6  -1   0 1721.93   83.39
  -6  -1   0 1701.33   82.99
  -6  -1   0 1617.14   81.59
  -6  -1   0 1598.94   82.09
   6   1   0 1682.63   82.89
   6   1   0 1487.15   82.89
   6   1   0 1610.54   85.39
   6   1   0 1731.03   82.79
   6   1   0 1689.53   82.79
  -7  -1   0 1122.29   60.79
  -7  -1   0 1149.19   59.39
  -7  -1   0 1190.48   61.09
   7   1   0 1221.98   60.49
   7   1   0 1201.38   60.89
   7   1   0 1095.39   63.29
  -8  -1   0  443.86   30.60
  -8  -1   0  327.77   28.20
  -8  -1   0  372.66   27.80
   8   1   0  441.46   28.90
   8   1   0  424.56   29.60
   8   1   0  388.66   33.70
  -9  -1   0  -20.20   17.00
  -9  -1   0   35.90   20.40
   9   1   0   -4.20   23.20
   9   1   0  -15.20   18.10
   9   1   0   22.40   17.30
 -10  -1   0   72.09   25.00
 -10  -1   0   74.49   24.00
  10   1   0  112.49   23.20
  10   1   0   34.90   27.90
 -11  -1   0  174.58   30.10
 -11  -1   0   97.89   34.80
  11   1   0  113.99   29.30
  11   1   0  150.28   35.20
  11  -2   0   63.49   30.60
  11  -2   0   76.59   35.70
 -11   2   0   86.19   48.50
 -11   2   0   93.49   27.80
 -11   2   0  126.59   28.50
  10  -2   0  -16.90   22.90
  10  -2   0   21.00   27.80
  10  -2   0   -9.80   20.50
 -10   2   0   34.80   26.20
 -10   2   0  -14.80   23.50
 -10   2   0   32.00   22.20
   9  -2   0   74.59   18.10
   9  -2   0   61.89   23.60
  -9   2   0  128.09   21.50
  -9   2   0   79.99   19.70
  -9   2   0   68.49   19.70
   8  -2   0  336.77   28.00
   8  -2   0  373.56   32.80
   8  -2   0  359.06   29.00
  -8   2   0  405.46   34.30
  -8   2   0  373.16   28.90
  -8   2   0  378.36   29.50
   7  -2   0  608.14   41.90
   7  -2   0  659.43   39.20
   7  -2   0  704.93   40.30
  -7   2   0  751.32   40.90
  -7   2   0  698.93   39.60
  -7   2   0  792.72   41.00
   6  -2   0 1050.39   59.59
   6  -2   0 1212.28   60.99
   6  -2   0 1200.88   58.59
   6  -2   0 1086.49   59.09
  -6   2   0 1163.98   58.59
  -6   2   0 1244.08   59.89
  -6   2   0 1102.99   59.79
   5  -2   0  833.22   39.90
   5  -2   0  688.33   38.60
   5  -2   0  784.12   37.90
   5  -2   0  732.63   37.60
  -5   2   0  693.73   40.40
  -5   2   0  654.83   38.90
  -5   2   0  689.93   38.30
  -5   2   0  781.02   37.60
   4  -2   0  140.19    9.50
   4  -2   0  169.28   11.30
   4  -2   0  144.09   12.90
   4  -2   0  158.48   11.00
   4  -2   0  156.88   10.10
   4  -2   0  141.59   13.40
  -4   2   0  136.89    9.60
  -4   2   0  131.29   11.90
  -4   2   0  144.39    9.50
  -4   2   0  127.69    9.60
  -4   2   0  167.58   12.50
  -4   2   0  156.58   11.50
  -4   2   0  142.89    9.70
  -4   2   0  134.09   10.10
   3  -2   0   29.50    4.00
   3  -2   0   52.19    6.20
   3  -2   0   50.19    6.20
   3  -2   0   30.60    5.10
   3  -2   0   36.70    5.00
   3  -2   0   33.30    4.60
  -3   2   0   46.30    5.50
  -3   2   0   40.60    4.50
  -3   2   0   33.40    4.40
  -3   2   0   36.90    4.80
  -3   2   0   39.60    6.40
  -3   2   0   39.60    5.10
  -3   2   0   43.10    5.80
   2  -2   0 1471.45   71.49
   2  -2   0 1457.25   71.09
   2  -2   0 1371.96   71.09
  -2   2   0 1521.75   71.19
  -2   2   0 1392.96   71.09
  -2   2   0 1479.45   71.09
  -2   2   0 1448.76   70.99
  -2   2   0 1600.84   71.19
  -2   2   0 1524.15   71.69
   1  -2   0  667.53   32.40
   1  -2   0  669.43   32.30
   1  -2   0  653.43   32.30
   1  -2   0  655.53   32.00
   1  -2   0  655.53   32.20
  -1   2   0  661.23   32.40
  -1   2   0  651.63   32.30
  -1   2   0  666.93   32.00
  -1   2   0  655.63   32.20
  -1   2   0  675.33   32.60
   0  -2   0 1194.18   58.99
   0  -2   0 1203.28   58.89
   0  -2   0 1145.59   58.69
   0  -2   0 1304.47   59.29
   0  -2   0 1227.28   58.79
   0  -2   0 1239.28   58.99
   0   2   0 1217.28   59.09
   0   2   0 1193.28   58.79
   0   2   0 1251.37   58.99
   0   2   0 1257.57   58.99
   0   2   0 1198.78   58.89
   0   2   0 1252.37   58.79
  -1  -2   0 2572.64  136.79
  -1  -2   0 3240.98  138.09
  -1  -2   0 2813.42  136.69
  -1  -2   0 2875.21  137.39
   1   2   0 2674.43  136.59
   1   2   0 2726.23  136.59
   1   2   0 2973.90  137.19
   1   2   0 2892.51  137.09
   1   2   0 3000.50  137.39
  -2  -2   0  373.96   18.80
  -2  -2   0  354.46   18.20
  -2  -2   0  318.87   17.90
  -2  -2   0  344.47   17.80
  -2  -2   0  376.66   20.00
  -2  -2   0  342.27   18.30
   2   2   0  379.76   18.90
   2   2   0  375.16   18.10
   2   2   0  321.67   19.20
   2   2   0  325.67   17.80
   2   2   0  334.87   18.10
   2   2   0  349.47   18.40
   2   2   0  334.27   17.90
  -3  -2   0   -1.40    3.10
  -3  -2   0   -1.50    4.40
  -3  -2   0    6.90    4.50
  -3  -2   0    5.30    4.60
  -3  -2   0    4.70    3.70
  -3  -2   0    5.80    3.40
   3   2   0    6.70    5.10
   3   2   0   -2.30    2.80
   3   2   0    1.70    3.60
   3   2   0    4.70    4.30
   3   2   0    3.30    3.60
   3   2   0    2.80    4.00
  -4  -2   0  678.33   35.80
  -4  -2   0  601.34   33.60
  -4  -2   0  650.23   33.50
  -4  -2   0  616.74   34.90
  -4  -2   0  689.43   35.50
   4   2   0  564.34   34.50
   4   2   0  697.53   36.60
   4   2   0  697.53   33.90
   4   2   0  672.23   33.70
  -5  -2   0  859.51   41.30
  -5  -2   0  790.82   41.40
  -5  -2   0  754.92   40.00
  -5  -2   0  694.73   39.20
   5   2   0  727.83   43.00
   5   2   0  797.62   40.70
   5   2   0  816.52   40.40
   5   2   0  628.54   40.00
  -6  -2   0 1053.89   53.79
  -6  -2   0  893.31   51.79
  -6  -2   0 1038.30   53.39
  -6  -2   0 1048.90   53.09
   6   2   0 1058.39   56.79
   6   2   0 1050.49   53.39
   6   2   0  944.01   55.59
   6   2   0 1058.49   53.09
  -7  -2   0  631.44   37.90
  -7  -2   0  682.83   37.30
  -7  -2   0  630.94   37.20
   7   2   0  632.54   37.60
   7   2   0  668.43   37.90
   7   2   0  562.84   41.10
  -8  -2   0    4.30   14.30
  -8  -2   0   34.50   16.70
   8   2   0   40.10   19.50
   8   2   0   38.60   16.10
   8   2   0   56.99   16.00
  -9  -2   0   40.70   17.50
   9   2   0    5.60   19.70
   9   2   0   36.10   23.70
   9   2   0    3.60   18.60
 -10  -2   0  147.69   25.40
  10   2   0  110.39   30.70
  10   2   0   92.39   25.40
 -11  -2   0  125.49   32.40
 -11  -2   0  169.98   30.60
  11   2   0  133.49   30.30
  11   2   0  113.39   35.30
  11  -3   0  133.19   37.00
  11  -3   0  107.99   32.60
 -11   3   0  150.08   32.10
 -11   3   0  141.69   31.20
  10  -3   0   25.30   29.50
  10  -3   0   17.90   25.10
  10  -3   0  -14.60   21.30
 -10   3   0   50.09   25.30
 -10   3   0    1.50   24.00
 -10   3   0   -9.50   29.00
   9  -3   0  204.38   29.80
   9  -3   0  149.29   27.10
   9  -3   0  174.98   22.20
  -9   3   0  196.88   29.90
  -9   3   0  217.68   27.90
  -9   3   0  205.48   23.60
   8  -3   0  680.23   41.30
   8  -3   0  687.73   42.80
   8  -3   0  625.34   45.00
  -8   3   0  793.32   44.30
  -8   3   0  701.63   42.90
  -8   3   0  691.13   41.20
   7  -3   0  672.83   40.00
   7  -3   0  624.34   37.10
  -7   3   0  579.54   38.00
  -7   3   0  682.33   39.60
  -7   3   0  695.23   36.70
   6  -3   0  905.81   44.80
   6  -3   0  875.01   45.20
   6  -3   0  769.12   43.90
   6  -3   0  915.71   46.10
  -6   3   0  970.90   44.60
  -6   3   0  837.92   44.00
  -6   3   0  715.53   45.10
  -6   3   0  810.22   46.10
  -6   3   0  831.22   47.90
   5  -3   0  398.36   22.90
   5  -3   0  396.86   22.50
   5  -3   0  400.46   23.40
  -5   3   0  407.46   21.90
  -5   3   0  389.46   23.50
  -5   3   0  417.96   23.60
  -5   3   0  390.26   22.20
  -5   3   0  319.87   23.90
   4  -3   0    6.80    4.30
   4  -3   0   -5.40    4.00
   4  -3   0   10.20    4.60
   4  -3   0   -1.20    4.40
   4  -3   0    4.40    5.90
  -4   3   0    4.30    5.90
  -4   3   0    5.00    3.90
  -4   3   0   -3.90    4.40
  -4   3   0    7.70    4.80
  -4   3   0   10.30    4.80
   3  -3   0 1433.76   72.69
   3  -3   0 1422.66   72.79
   3  -3   0 1477.25   72.79
   3  -3   0 1661.13   72.99
   3  -3   0 1465.85   72.79
  -3   3   0 1444.36   72.79
  -3   3   0 1431.96   72.59
  -3   3   0 1532.35   72.79
  -3   3   0 1576.24   72.89
  -3   3   0 1517.35   73.79
  -3   3   0 1496.85   72.89
   2  -3   0  712.83   36.60
   2  -3   0  726.63   36.40
   2  -3   0  838.82   36.40
   2  -3   0  742.33   36.80
   2  -3   0  713.93   36.40
   2  -3   0  700.23   36.20
  -2   3   0  761.42   37.00
  -2   3   0  702.83   38.40
  -2   3   0  734.33   36.30
  -2   3   0  744.73   36.50
  -2   3   0  728.93   36.20
  -2   3   0  701.83   36.40
   1  -3   0 4390.06  209.88
   1  -3   0 4562.64  209.98
   1  -3   0 4344.27  209.78
   1  -3   0 4512.05  209.38
   1  -3   0 4198.58  209.48
   1  -3   0 4527.25  209.88
  -1   3   0 4320.57  209.48
  -1   3   0 4293.37  209.58
  -1   3   0 4180.78  210.08
  -1   3   0 4459.75  209.88
  -1   3   0 4439.66  209.98
  -1   3   0 4454.05  209.78
   0  -3   0 2077.39   98.59
   0  -3   0 1950.20   98.29
   0  -3   0 2045.00   98.69
   0  -3   0 1969.50   98.49
   0  -3   0 2182.08   98.49
   0   3   0 1949.20   98.39
   0   3   0 2040.10   98.79
   0   3   0 2045.70   98.59
   0   3   0 2177.18   98.39
  -1  -3   0 1965.60   93.59
  -1  -3   0 1816.12   93.49
  -1  -3   0 1961.40   93.89
  -1  -3   0 2005.40   93.89
   1   3   0 1843.02   93.29
   1   3   0 2023.00   93.99
   1   3   0 1884.51   93.59
   1   3   0 2030.30   93.69
   1   3   0 1953.50   93.89
  -2  -3   0   94.69    7.30
  -2  -3   0   68.59    6.30
  -2  -3   0   80.79    7.50
  -2  -3   0   96.69    7.10
   2   3   0   92.39    7.20
   2   3   0   80.69    7.50
   2   3   0   72.99    5.70
   2   3   0   75.69    6.30
   2   3   0   76.29    7.00
   2   3   0   72.59    6.30
   2   3   0   69.19    5.80
  -3  -3   0  470.95   24.60
  -3  -3   0  453.05   23.80
  -3  -3   0  441.66   24.60
  -3  -3   0  440.76   24.90
  -3  -3   0  443.86   24.10
   3   3   0  455.55   24.70
   3   3   0  461.75   24.30
   3   3   0  493.35   26.00
   3   3   0  443.86   23.90
   3   3   0  455.45   23.70
   3   3   0  500.75   24.60
  -4  -3   0  457.55   26.70
  -4  -3   0  429.66   25.80
  -4  -3   0  454.35   26.60
  -4  -3   0  472.85   27.20
  -4  -3   0  492.55   25.10
   4   3   0  457.15   25.30
   4   3   0  483.05   26.30
   4   3   0  493.45   27.90
   4   3   0  490.55   25.70
   4   3   0  438.76   26.50
  -5  -3   0  605.54   33.80
  -5  -3   0  591.64   32.50
  -5  -3   0  580.64   34.60
   5   3   0  591.14   33.50
   5   3   0  588.04   36.10
   5   3   0  606.74   32.60
  -6  -3   0  509.45   30.30
  -6  -3   0  461.45   31.40
  -6  -3   0  542.45   30.20
   6   3   0  489.65   32.10
   6   3   0  491.15   30.70
   6   3   0  433.16   34.00
  -7  -3   0  280.77   24.70
  -7  -3   0  263.07   25.30
  -7  -3   0  244.58   22.10
   7   3   0  232.88   26.90
   7   3   0  283.27   24.90
   7   3   0  230.58   27.20
   7   3   0  216.98   24.60
  -8  -3   0   57.79   16.10
  -8  -3   0   23.70   16.90
  -8  -3   0   25.60   19.60
   8   3   0   52.49   17.20
   8   3   0   45.90   19.60
   8   3   0   52.59   19.00
  -9  -3   0  112.59   23.80
  -9  -3   0   85.99   20.80
   9   3   0   87.49   26.50
   9   3   0   79.79   23.00
 -10  -3   0  114.29   26.00
  10   3   0  135.19   27.70
  10   3   0   72.89   30.80
  11   3   0  197.38   38.10
  11  -4   0  113.69   37.90
  11  -4   0   81.99   31.40
 -11   4   0   83.89   33.10
 -11   4   0   34.50   30.40
  10  -4   0   27.30   26.20
  10  -4   0  -15.70   22.60
 -10   4   0   68.59   28.10
 -10   4   0   56.69   26.50
   9  -4   0   95.79   21.10
   9  -4   0  116.19   22.70
   9  -4   0  123.19   25.30
  -9   4   0   98.79   23.70
  -9   4   0  173.88   26.70
   8  -4   0  667.13   40.90
   8  -4   0  757.62   44.60
   8  -4   0  601.04   42.10
  -8   4   0  614.74   43.00
  -8   4   0  738.93   44.30
   7  -4   0  612.84   35.90
   7  -4   0  609.04   34.00
   7  -4   0  559.04   34.40
  -7   4   0  550.34   36.50
  -7   4   0  519.15   32.80
  -7   4   0  493.45   34.60
   6  -4   0  721.53   40.00
   6  -4   0  735.03   39.80
   6  -4   0  773.32   41.80
  -6   4   0  707.93   39.50
  -6   4   0  723.33   40.50
   5  -4   0  276.77   18.00
   5  -4   0  309.77   18.80
   5  -4   0  295.67   18.80
   5  -4   0  299.87   18.80
  -5   4   0  275.67   20.20
  -5   4   0  282.27   18.80
  -5   4   0  262.27   21.20
  -5   4   0  298.67   19.20
   4  -4   0   73.19    8.60
   4  -4   0   67.39    8.80
   4  -4   0   54.29    8.20
   4  -4   0   68.19   10.10
   4  -4   0   63.29    7.50
  -4   4   0   59.39    8.40
  -4   4   0   59.39    7.70
  -4   4   0   61.19   11.40
  -4   4   0   60.89    8.80
   3  -4   0  992.70   45.00
   3  -4   0  857.91   45.10
   3  -4   0  874.61   45.20
   3  -4   0  869.01   46.20
   3  -4   0  896.31   45.40
  -3   4   0  931.21   46.40
  -3   4   0  948.71   45.60
  -3   4   0  899.31   44.80
  -3   4   0  873.71   45.20
  -3   4   0  918.21   45.20
   2  -4   0  645.84   32.70
   2  -4   0  604.44   32.40
   2  -4   0  655.73   32.60
   2  -4   0  616.44   32.70
   2  -4   0  638.54   31.80
  -2   4   0  670.23   33.00
  -2   4   0  635.24   32.50
  -2   4   0  634.84   32.30
  -2   4   0  653.83   32.40
  -2   4   0  663.53   31.90
  -2   4   0  670.63   33.30
   1  -4   0 1468.65   72.09
   1  -4   0 1442.36   72.19
   1  -4   0 1529.95   72.19
   1  -4   0 1477.05   71.79
   1  -4   0 1505.65   71.49
  -1   4   0 1503.35   71.59
  -1   4   0 1520.05   72.39
  -1   4   0 1449.35   71.59
  -1   4   0 1463.55   72.09
  -1   4   0 1457.55   72.09
  -1   4   0 1478.75   71.89
  -1   4   0 1458.65   72.09
   0  -4   0 1565.84   75.79
   0  -4   0 1515.35   75.49
   0  -4   0 1576.64   75.59
   0  -4   0 1490.25   75.69
   0  -4   0 1542.45   76.09
   0  -4   0 1601.04   75.49
   0   4   0 1573.24   76.09
   0   4   0 1581.44   75.29
   0   4   0 1524.45   76.39
   0   4   0 1527.25   75.69
   0   4   0 1581.54   76.09
   0   4   0 1600.04   75.49
   0   4   0 1572.14   75.79
  -1  -4   0 1303.57   64.09
  -1  -4   0 1251.47   63.29
  -1  -4   0 1306.57   63.39
  -1  -4   0 1398.86   65.39
  -1  -4   0 1362.96   63.89
  -1  -4   0 1274.87   63.79
   1   4   0 1252.07   63.29
   1   4   0 1181.28   65.09
   1   4   0 1351.46   64.29
   1   4   0 1323.37   63.79
   1   4   0 1360.86   64.19
   1   4   0 1285.97   63.49
  -2  -4   0   82.49    8.60
  -2  -4   0   84.49    6.60
  -2  -4   0   82.49    8.70
  -2  -4   0   77.59    8.30
   2   4   0   85.39    9.60
   2   4   0   78.69    6.80
   2   4   0   88.09    8.70
   2   4   0   80.79    7.80
   2   4   0   71.59    6.70
  -3  -4   0  993.70   47.20
  -3  -4   0  878.11   47.10
  -3  -4   0  927.31   49.60
   3   4   0  908.31   47.70
   3   4   0  925.01   48.50
   3   4   0  980.00   47.00
   3   4   0  951.60   46.60
  -4  -4   0  582.94   33.30
  -4  -4   0  610.64   32.10
  -4  -4   0  587.54   33.20
   4   4   0  568.94   34.10
   4   4   0  626.34   31.40
   4   4   0  610.34   33.00
  -5  -4   0  990.40   49.99
  -5  -4   0  922.31   51.29
  -5  -4   0  952.10   51.09
   5   4   0 1028.00   49.60
   5   4   0  993.70   51.09
   5   4   0  876.41   52.39
  -6  -4   0  775.32   41.30
  -6  -4   0  746.13   43.30
  -6  -4   0  743.83   41.70
   6   4   0  593.84   44.60
   6   4   0  742.53   42.80
   6   4   0  749.13   41.00
  -7  -4   0  296.67   27.20
  -7  -4   0  235.58   24.00
  -7  -4   0  289.37   29.10
   7   4   0  284.37   27.10
   7   4   0  222.38   30.50
   7   4   0  312.77   31.30
  -8  -4   0   45.00   20.40
  -8  -4   0   51.79   17.60
  -8  -4   0   18.50   22.30
   8   4   0   31.70   23.60
   8   4   0   49.20   23.20
   8   4   0   65.99   23.40
   8   4   0   46.90   19.30
  -9  -4   0   52.49   24.90
  -9  -4   0   71.19   23.10
  -9  -4   0   54.29   20.70
   9   4   0   73.69   23.50
   9   4   0   61.49   30.30
   9   4   0   60.99   28.00
   9   4   0   78.09   26.10
 -10  -4   0  164.08   32.10
 -10  -4   0  193.08   28.90
  10   4   0  128.19   34.10
  10   4   0  179.58   29.00
  11  -5   0  -28.60   30.90
  11  -5   0   -0.80   38.60
 -11   5   0   79.49   31.50
 -11   5   0   10.60   34.10
  10  -5   0   12.90   27.00
  10  -5   0  -12.70   24.20
 -10   5   0   31.90   26.90
 -10   5   0   -3.40   29.70
   9  -5   0  108.59   23.60
   9  -5   0  157.58   23.20
   9  -5   0  147.79   27.30
  -9   5   0  182.68   28.00
  -9   5   0  148.49   26.80
   8  -5   0  731.43   43.10
   8  -5   0  602.54   53.89
   8  -5   0  771.72   45.40
  -8   5   0  646.54   41.90
  -8   5   0  645.34   45.00
  -8   5   0  761.02   46.90
   7  -5   0  917.71   49.90
   7  -5   0  952.90   49.80
   7  -5   0  957.30   50.49
  -7   5   0  898.41   50.49
  -7   5   0  767.62   51.99
   6  -5   0  332.77   23.70
   6  -5   0  342.97   23.30
   6  -5   0  345.67   23.50
  -6   5   0  294.87   26.40
  -6   5   0  359.86   23.50
  -6   5   0  352.06   23.90
   5  -5   0  159.48   14.50
   5  -5   0  170.88   14.80
   5  -5   0  185.08   15.10
  -5   5   0  183.48   17.80
  -5   5   0  156.18   14.60
  -5   5   0  182.18   15.90
   4  -5   0   13.70    5.80
   4  -5   0    9.00    6.40
   4  -5   0    2.50    6.10
  -4   5   0   -2.30    7.30
  -4   5   0   14.20    5.80
  -4   5   0    0.60    8.00
  -4   5   0    5.00    6.50
   3  -5   0  579.04   30.20
   3  -5   0  548.15   30.40
   3  -5   0  572.74   30.20
  -3   5   0  571.64   30.20
  -3   5   0  588.74   30.80
  -3   5   0  593.74   31.60
  -3   5   0  574.94   29.50
   2  -5   0 1305.37   61.89
   2  -5   0 1240.98   62.69
   2  -5   0 1251.37   62.39
   2  -5   0 1320.97   62.89
  -2   5   0 1251.07   61.79
  -2   5   0 1269.37   63.19
  -2   5   0 1276.07   63.09
  -2   5   0 1282.87   62.39
  -2   5   0 1220.98   62.39
   1  -5   0  839.32   43.90
   1  -5   0  883.31   43.60
   1  -5   0  879.41   43.30
  -1   5   0  850.01   44.00
  -1   5   0  892.01   43.40
  -1   5   0  885.21   43.80
  -1   5   0  891.71   44.40
   0  -5   0 1123.59   55.09
   0  -5   0 1091.09   54.79
   0  -5   0 1036.30   54.09
   0  -5   0 1078.49   54.49
   0  -5   0 1140.79   54.49
   0   5   0 1090.39   55.19
   0   5   0 1092.49   54.19
   0   5   0 1053.19   56.09
   0   5   0 1108.29   54.69
   0   5   0 1170.48   55.09
   0   5   0 1155.88   54.89
  -1  -5   0   87.79    8.60
  -1  -5   0   88.29    7.70
  -1  -5   0   94.19    7.70
  -1  -5   0   86.89    8.50
   1   5   0   87.69    8.80
   1   5   0   92.29    8.30
   1   5   0   95.19    7.80
   1   5   0   96.29    9.40
  -2  -5   0    5.40    4.90
  -2  -5   0    5.60    5.40
  -2  -5   0    4.70    4.00
   2   5   0   -1.60    5.90
   2   5   0    7.10    4.40
   2   5   0    4.40    5.60
  -3  -5   0  689.63   36.70
  -3  -5   0  676.23   37.40
   3   5   0  706.53   38.30
   3   5   0  717.33   37.70
   3   5   0  719.13   36.00
  -4  -5   0  900.31   49.60
  -4  -5   0  971.40   49.00
  -4  -5   0  952.40   49.80
   4   5   0 1007.20   48.30
   4   5   0  968.90   49.99
   4   5   0  883.71   50.59
  -5  -5   0  485.45   30.60
  -5  -5   0  521.15   29.70
  -5  -5   0  416.16   30.70
   5   5   0  485.75   28.30
   5   5   0  515.35   31.20
   5   5   0  433.86   31.90
  -6  -5   0  407.96   27.80
  -6  -5   0  405.46   30.80
  -6  -5   0  313.17   27.10
   6   5   0  359.26   30.60
   6   5   0  350.36   26.80
   6   5   0  328.87   32.70
  -7  -5   0  127.89   19.60
  -7  -5   0   83.59   38.30
  -7  -5   0  126.59   17.30
   7   5   0  140.39   23.50
   7   5   0  104.09   24.20
   7   5   0  122.09   20.30
  -8  -5   0  -18.50   26.10
  -8  -5   0   35.50   32.50
  -8  -5   0   -1.60   22.20
   8   5   0  -18.20   24.30
   8   5   0   22.00   27.50
   8   5   0  -20.00   23.20
  -9  -5   0  269.87   38.30
  -9  -5   0  162.78   31.80
  -9  -5   0  138.19   25.70
   9   5   0  159.18   28.30
   9   5   0  184.18   35.90
   9   5   0  182.38   34.80
 -10  -5   0  253.87   36.30
 -10  -5   0  182.58   30.10
  10   5   0  159.98   37.70
  10   5   0  184.68   31.90
  11  -6   0  -16.10   32.50
 -11   6   0   -3.40   36.50
 -11   6   0   15.50   33.20
  10  -6   0   47.20   29.20
  10  -6   0   57.09   25.90
 -10   6   0  -15.80   32.50
 -10   6   0    6.10   27.20
   9  -6   0  365.66   40.10
   9  -6   0  400.96   40.30
   9  -6   0  430.96   39.60
  -9   6   0  358.16   34.40
  -9   6   0  296.47   37.40
  -9   6   0  425.26   44.10
   8  -6   0  761.72   45.50
   8  -6   0  738.63   46.70
   8  -6   0  772.82   46.50
  -8   6   0  715.53   50.79
  -8   6   0  703.13   46.40
  -8   6   0  674.43   45.40
   7  -6   0 1159.88   60.69
   7  -6   0 1142.49   60.79
   7  -6   0 1177.18   60.99
  -7   6   0 1039.60   60.89
  -7   6   0 1121.39   60.79
   6  -6   0   47.00   11.30
   6  -6   0   47.30   11.40
   6  -6   0   38.50   12.10
  -6   6   0   41.00   13.20
  -6   6   0   30.70   11.50
  -6   6   0   10.30   14.30
   5  -6   0    9.10    8.70
   5  -6   0   -3.70    8.40
   5  -6   0   -3.90    8.40
  -5   6   0    8.70   11.20
  -5   6   0    5.20   10.10
  -5   6   0   12.10    8.20
   4  -6   0  179.58   14.60
   4  -6   0  180.68   14.80
   4  -6   0  172.08   14.10
  -4   6   0  189.28   17.10
  -4   6   0  162.68   13.50
  -4   6   0  170.48   15.70
   3  -6   0  428.66   32.90
   3  -6   0  521.35   28.00
   3  -6   0  542.65   28.50
  -3   6   0  517.55   28.10
  -3   6   0  530.95   29.00
  -3   6   0  525.65   29.60
   2  -6   0 1519.25   73.69
   2  -6   0 1487.65   73.19
   2  -6   0 1595.04   72.69
  -2   6   0 1534.55   74.29
  -2   6   0 1311.07   74.49
  -2   6   0 1425.96   73.39
  -2   6   0 1529.15   74.19
   1  -6   0 1832.62   84.49
   1  -6   0 1796.22   84.69
   1  -6   0 1735.63   85.09
  -1   6   0 1509.95   85.09
  -1   6   0 1737.43   85.19
  -1   6   0 1776.32   85.69
  -1   6   0 1761.02   85.09
  -1   6   0 1704.03   85.69
   0  -6   0  754.12   38.50
   0  -6   0  743.43   39.10
   0  -6   0  735.63   38.20
   0   6   0  761.92   39.70
   0   6   0  771.62   39.00
   0   6   0  762.02   39.00
  -1  -6   0    7.20    5.30
  -1  -6   0   12.70    5.70
  -1  -6   0    4.60    4.50
   1   6   0    7.80    6.40
   1   6   0    4.90    5.40
   1   6   0    4.40    5.60
  -2  -6   0   43.60    8.20
  -2  -6   0   47.50    6.20
  -2  -6   0   49.99    7.80
   2   6   0   62.49    8.60
   2   6   0   50.69    8.80
   2   6   0   46.60    6.60
  -3  -6   0  270.47   20.30
  -3  -6   0  311.67   20.00
   3   6   0  296.37   18.70
   3   6   0  307.47   20.90
   3   6   0  306.77   21.30
  -4  -6   0  650.03   35.40
  -4  -6   0  554.94   34.90
  -4  -6   0  602.44   35.40
   4   6   0  622.84   35.90
   4   6   0  563.84   36.40
   4   6   0  638.74   33.30
  -5  -6   0  628.54   37.00
  -5  -6   0  574.04   37.00
  -5  -6   0  585.24   38.20
   5   6   0  538.65   39.20
   5   6   0  643.04   38.60
   5   6   0  707.83   35.20
  -6  -6   0  188.18   24.70
  -6  -6   0  164.28   33.80
  -6  -6   0  140.29   18.50
   6   6   0  151.08   24.60
   6   6   0  185.58   28.30
   6   6   0  178.98   22.70
  -7  -6   0   17.60   19.30
  -7  -6   0   13.50   24.60
  -7  -6   0   36.80   17.40
   7   6   0   70.29   25.40
   7   6   0   51.99   20.40
   7   6   0    6.60   23.90
  -8  -6   0   40.50   28.10
  -8  -6   0   46.30   21.40
  -8  -6   0   -1.80   25.40
   8   6   0   23.10   32.10
   8   6   0  -20.10   26.60
   8   6   0  -26.20   27.50
  -9  -6   0  144.19   33.90
  -9  -6   0   41.40   25.00
   9   6   0   52.49   32.60
   9   6   0   54.99   29.60
  10  -7   0  145.29   31.40
  10  -7   0  -20.80   28.10
 -10   7   0   61.49   35.90
 -10   7   0   45.20   29.80
   9  -7   0  658.53   49.10
   9  -7   0  658.43   47.90
   9  -7   0  464.05   46.90
  -9   7   0  601.64   46.10
  -9   7   0  598.54   54.09
   8  -7   0  765.12   50.69
   8  -7   0  847.02   51.49
   8  -7   0  900.81   50.59
  -8   7   0  812.42   50.09
  -8   7   0  682.63   50.49
   7  -7   0  602.44   39.60
   7  -7   0  659.13   38.90
  -7   7   0  561.64   44.30
  -7   7   0  653.53   40.40
  -7   7   0  573.74   40.70
   6  -7   0   13.10   12.60
   6  -7   0   36.10   13.50
   6  -7   0    2.80   11.80
  -6   7   0   24.20   11.60
  -6   7   0    9.40   15.50
  -6   7   0   14.10   14.30
   5  -7   0   19.70   11.00
   5  -7   0   25.70   10.20
   5  -7   0   21.40    9.90
  -5   7   0   30.10   12.20
  -5   7   0    7.50    9.00
  -5   7   0    9.20   12.70
   4  -7   0   66.69   10.40
   4  -7   0   81.19   13.10
   4  -7   0   52.89    9.50
  -4   7   0   57.39   11.70
  -4   7   0   63.99   11.40
  -4   7   0   59.09    8.50
   3  -7   0 1027.50   52.69
   3  -7   0 1025.30   53.29
   3  -7   0 1027.10   51.69
  -3   7   0  999.10   52.39
  -3   7   0 1077.99   54.19
  -3   7   0 1042.20   53.99
   2  -7   0 1654.63   82.09
   2  -7   0 1654.03   81.49
   2  -7   0 1677.23   80.99
  -2   7   0 1642.94   82.69
  -2   7   0 1622.34   81.49
  -2   7   0 1651.63   82.39
   1  -7   0  902.51   45.10
   1  -7   0  936.11   45.40
   1  -7   0  838.52   45.70
  -1   7   0  879.91   46.70
  -1   7   0  873.31   45.60
  -1   7   0  890.01   46.10
   0  -7   0  650.93   35.90
   0  -7   0  686.33   35.40
   0  -7   0  654.03   34.90
   0   7   0  686.63   36.50
   0   7   0  692.43   36.80
   0   7   0  656.13   35.80
  -1  -7   0  114.59   10.60
  -1  -7   0   99.19   11.80
  -1  -7   0   80.69   11.70
   1   7   0  103.39   12.30
   1   7   0   95.99   11.70
   1   7   0   97.09   12.30
  -2  -7   0  332.27   21.90
  -2  -7   0  319.17   21.80
  -2  -7   0  348.67   20.20
   2   7   0  305.47   22.20
   2   7   0  349.17   23.10
   2   7   0  340.87   21.40
  -3  -7   0  905.11   49.90
  -3  -7   0  941.61   49.70
   3   7   0  938.61   47.90
   3   7   0  958.00   50.59
   3   7   0  923.81   50.89
  -4  -7   0  584.34   37.90
  -4  -7   0  702.43   38.00
   4   7   0  647.24   35.60
   4   7   0  662.43   39.30
   4   7   0  574.74   39.00
  -5  -7   0  637.24   37.60
  -5  -7   0  492.15   36.10
  -5  -7   0  575.14   43.60
   5   7   0  623.84   40.10
   5   7   0  485.55   38.90
   5   7   0  611.54   34.90
  -6  -7   0  216.98   26.30
  -6  -7   0  241.88   29.10
  -6  -7   0  199.28   30.50
   6   7   0  250.47   33.90
   6   7   0  235.98   33.60
   6   7   0  207.68   26.70
  -7  -7   0   -5.70   19.30
  -7  -7   0   11.50   27.60
  -7  -7   0   45.60   22.50
   7   7   0    7.90   29.00
   7   7   0   24.30   36.30
   7   7   0   29.80   23.00
  -8  -7   0   34.20   28.10
  -8  -7   0   40.70   31.90
  -8  -7   0  -13.20   21.60
   8   7   0  -11.20   27.20
   8   7   0   -7.00   34.20
   8   7   0  -12.20   35.70
  10  -8   0   77.59   32.70
  10  -8   0  107.39   35.20
 -10   8   0  129.39   37.00
 -10   8   0   88.59   33.70
   9  -8   0  396.76   46.70
   9  -8   0  353.36   44.50
  -9   8   0  455.45   41.40
  -9   8   0  374.36   52.49
   8  -8   0  450.25   41.60
   8  -8   0  512.35   40.80
   8  -8   0  506.45   45.50
  -8   8   0  388.46   40.90
  -8   8   0  428.36   48.40
  -8   8   0  551.54   38.00
   7  -8   0  446.76   33.70
   7  -8   0  388.26   30.90
  -7   8   0  289.37   34.20
  -7   8   0  372.56   30.30
  -7   8   0  331.37   38.60
   6  -8   0  148.39   22.70
   6  -8   0  155.08   22.40
   6  -8   0  180.68   20.90
  -6   8   0  128.49   17.30
  -6   8   0  119.89   22.00
  -6   8   0  179.18   24.90
  -6   8   0  164.08   20.20
   5  -8   0  193.88   20.40
   5  -8   0  163.08   20.30
   5  -8   0  219.98   20.30
  -5   8   0  188.38   22.70
  -5   8   0  195.78   25.20
  -5   8   0  180.28   17.00
   4  -8   0  183.18   18.80
   4  -8   0  202.48   19.40
  -4   8   0  235.98   21.90
  -4   8   0  231.58   21.10
  -4   8   0  187.78   16.70
   3  -8   0  699.43   38.50
   3  -8   0  687.73   39.30
   3  -8   0  691.33   37.20
  -3   8   0  681.73   37.80
  -3   8   0  711.73   40.20
  -3   8   0  762.42   41.60
   2  -8   0 1627.54   78.59
   2  -8   0 1514.15   78.89
   2  -8   0 1592.54   77.79
  -2   8   0 1569.24   78.39
  -2   8   0 1571.34   79.99
  -2   8   0 1561.54   79.39
   1  -8   0 1080.99   57.89
   1  -8   0 1155.08   57.19
   1  -8   0 1121.59   56.89
  -1   8   0 1135.69   57.59
  -1   8   0 1112.69   59.09
  -1   8   0 1144.69   58.29
   0  -8   0  185.08   16.90
   0  -8   0  207.78   15.60
   0  -8   0  211.68   16.50
   0   8   0  196.98   18.00
   0   8   0  182.98   16.10
   0   8   0  199.28   17.60
  -1  -8   0   28.60    8.90
  -1  -8   0   39.40    9.70
  -1  -8   0   26.40    7.70
   1   8   0   17.10    9.00
   1   8   0   20.70   10.10
   1   8   0   37.70    9.50
  -2  -8   0  315.37   22.00
  -2  -8   0  253.07   21.40
  -2  -8   0  304.87   19.20
   2   8   0  255.27   19.90
   2   8   0  263.97   23.10
   2   8   0  270.27   22.10
  -3  -8   0  631.24   36.20
  -3  -8   0  592.94   36.20
   3   8   0  515.55   36.80
   3   8   0  588.04   37.60
   3   8   0  618.54   33.60
  -4  -8   0  693.33   40.10
   4   8   0  510.45   40.30
   4   8   0  671.83   36.90
   4   8   0  623.94   41.30
  -5  -8   0  424.16   36.20
  -5  -8   0  504.55   35.90
   5   8   0  340.97   36.20
   5   8   0  422.66   62.99
   5   8   0  442.56   32.10
  -6  -8   0   93.69   20.80
  -6  -8   0  146.29   23.70
  -6  -8   0  143.89   28.40
   6   8   0  136.99   21.30
   6   8   0   75.89   27.90
   6   8   0  166.08   28.20
  -7  -8   0  -44.00   31.10
  -7  -8   0   34.40   26.40
  -7  -8   0   -6.10   25.80
   7   8   0   65.39   33.00
   7   8   0  -21.60   33.40
   7   8   0    7.60   35.10
  -8  -8   0   81.19   51.59
  -8  -8   0   -9.90   33.70
   8   8   0    0.30   42.40
   8   8   0   57.39   37.80
   9  -9   0  244.68   34.10
   9  -9   0  178.28   32.90
  -9   9   0  225.08   35.90
  -9   9   0  172.88   39.00
   8  -9   0  357.86   40.70
  -8   9   0  322.27   49.50
  -8   9   0  290.57   39.10
  -8   9   0  492.85   56.79
   7  -9   0  104.29   21.00
   7  -9   0   93.39   22.20
   7  -9   0  108.69   21.70
  -7   9   0  102.09   28.60
  -7   9   0  151.38   20.10
   6  -9   0   26.10   16.80
   6  -9   0   28.10   17.90
  -6   9   0   32.60   20.20
  -6   9   0   28.00   12.10
  -6   9   0   55.49   22.00
   5  -9   0  119.39   16.90
   5  -9   0  135.39   18.60
  -5   9   0  125.49   21.20
  -5   9   0   90.39   19.10
  -5   9   0  118.09   16.70
   4  -9   0  229.48   24.20
   4  -9   0  283.37   23.30
  -4   9   0  244.18   25.10
  -4   9   0  275.97   26.00
  -4   9   0  240.98   19.60
   3  -9   0  424.76   27.10
   3  -9   0  440.96   29.50
   3  -9   0  457.95   29.10
  -3   9   0  495.95   31.30
  -3   9   0  422.76   27.20
  -3   9   0  434.66   30.50
   2  -9   0  844.22   46.40
   2  -9   0  836.72   44.70
   2  -9   0  881.61   45.90
  -2   9   0  875.01   47.50
  -2   9   0  811.02   45.30
  -2   9   0  845.52   47.90
   1  -9   0  369.26   24.80
   1  -9   0  425.76   25.30
   1  -9   0  410.16   26.60
  -1   9   0  385.56   27.90
  -1   9   0  389.56   26.80
  -1   9   0  357.76   25.00
   0  -9   0    6.00   10.10
   0  -9   0    7.80    8.50
   0  -9   0    7.20    9.90
   0   9   0    0.50    9.40
   0   9   0   -6.80   11.50
   0   9   0   14.00   11.00
  -1  -9   0   73.39   12.80
  -1  -9   0   78.49   13.20
  -1  -9   0   62.49   13.90
   1   9   0   47.00   17.20
   1   9   0   54.79   14.00
   1   9   0   44.20   12.00
  -2  -9   0  150.58   17.30
  -2  -9   0  180.18   21.10
  -2  -9   0  141.59   16.90
   2   9   0  141.99   20.70
   2   9   0  166.98   18.90
  -3  -9   0  429.06   33.70
   3   9   0  443.46   34.40
   3   9   0  492.85   36.30
   3   9   0  486.05   30.80
  -4  -9   0  560.54   44.20
  -4  -9   0  440.46   37.40
   4   9   0  457.85   39.50
   4   9   0  509.15   40.20
   4   9   0  515.65   34.10
  -5  -9   0  176.88   24.90
  -5  -9   0  182.38   27.60
   5   9   0  174.48   20.40
   5   9   0  112.59   27.20
   5   9   0  116.69   26.20
  -6  -9   0   94.89   34.60
  -6  -9   0  156.88   26.60
   6   9   0  138.29   32.70
   6   9   0   98.49   32.60
  -7  -9   0  -32.70   30.20
  -7  -9   0  -28.90   35.10
   7   9   0   66.59   38.90
   7   9   0   15.20   37.70
   8 -10   0  551.94   46.70
   8 -10   0  485.95   47.80
  -8  10   0  447.26   55.59
  -8  10   0  324.67   46.20
   7 -10   0  228.98   29.10
   7 -10   0  238.98   34.50
  -7  10   0  199.08   34.50
  -7  10   0  198.78   30.90
   6 -10   0    1.40   21.10
   6 -10   0    1.30   18.40
  -6  10   0   21.40   23.60
  -6  10   0  -16.00   23.80
   5 -10   0   80.29   19.10
   5 -10   0   86.79   17.60
  -5  10   0   88.19   21.50
  -5  10   0   53.89   13.10
  -5  10   0   42.10   20.40
   4 -10   0  454.65   32.90
  -4  10   0  438.56   35.40
  -4  10   0  386.86   29.00
  -4  10   0  445.46   34.80
   3 -10   0  274.57   21.90
   3 -10   0  268.27   25.20
   3 -10   0  302.57   25.10
  -3  10   0  276.87   35.70
  -3  10   0  236.88   22.40
  -3  10   0  292.97   28.30
   2 -10   0  326.57   24.50
   2 -10   0  321.37   26.20
   2 -10   0  292.17   23.60
  -2  10   0  288.87   23.80
  -2  10   0  331.87   27.10
  -2  10   0  307.27   28.30
   1 -10   0  343.67   25.00
   1 -10   0  338.37   25.00
   1 -10   0  326.97   26.90
  -1  10   0  316.97   28.50
  -1  10   0  315.97   25.40
  -1  10   0  387.86   28.20
   0 -10   0   48.10   13.80
   0 -10   0   54.29   13.80
   0 -10   0   79.09   12.60
   0  10   0   58.79   13.50
   0  10   0   51.29   14.90
   0  10   0   59.19   15.30
  -1 -10   0   41.30   11.80
  -1 -10   0   76.29   15.70
  -1 -10   0   77.39   15.50
   1  10   0   85.19   15.30
   1  10   0   67.39   18.00
   1  10   0   62.29   15.50
  -2 -10   0  496.45   31.10
  -2 -10   0  458.95   35.20
  -2 -10   0  424.66   34.40
   2  10   0  432.56   38.30
   2  10   0  499.85   32.60
  -3 -10   0  301.27   32.60
  -3 -10   0  330.17   32.40
   3  10   0  251.27   33.60
   3  10   0  384.06   28.40
   3  10   0  301.57   35.60
  -4 -10   0  274.47   33.90
  -4 -10   0  231.58   28.50
   4  10   0  255.37   35.90
   4  10   0  154.98   28.70
   4  10   0  228.78   28.60
  -5 -10   0  123.59   25.80
  -5 -10   0  121.79   30.60
   5  10   0  130.49   32.00
   5  10   0   64.19   29.90
   7 -11   0   99.79   28.20
  -7  11   0  161.28   33.70
  -7  11   0   92.79   32.30
   6 -11   0   66.39   24.90
   6 -11   0   42.30   21.40
  -6  11   0   -4.00   27.30
  -6  11   0   39.90   27.40
   5 -11   0  138.69   22.60
   5 -11   0  150.68   23.70
  -5  11   0  186.38   27.30
  -5  11   0  187.88   29.40
   4 -11   0  409.86   36.00
   4 -11   0  414.26   33.40
  -4  11   0  438.56   37.50
  -4  11   0  394.66   39.80
   3 -11   0  498.05   36.70
   3 -11   0  480.35   33.90
   3 -11   0  455.35   32.40
  -3  11   0  480.05   39.70
  -3  11   0  416.16   32.00
  -3  11   0  491.15   36.30
   2 -11   0  356.56   37.30
   2 -11   0  408.06   32.30
   2 -11   0  418.16   30.30
  -2  11   0  445.16   33.50
  -2  11   0  349.37   35.70
  -2  11   0  400.76   29.70
   1 -11   0  177.08   20.80
   1 -11   0  189.98   22.00
   1 -11   0  173.88   24.60
  -1  11   0  136.69   21.90
  -1  11   0  213.78   27.00
  -1  11   0  139.09   22.80
   0 -11   0   11.00   16.10
   0 -11   0   29.10   15.90
   0 -11   0   19.30   13.40
   0  11   0    8.10   15.50
   0  11   0   14.10   18.50
   0  11   0   16.00   17.30
  -1 -11   0   55.79   18.50
  -1 -11   0   38.70   14.70
  -1 -11   0   38.90   19.40
   1  11   0   50.39   17.90
   1  11   0   55.39   17.60
   1  11   0   37.70   24.60
   1  11   0   51.69   20.50
  -2 -11   0  227.88   32.30
  -2 -11   0  219.58   32.10
  -2 -11   0  290.37   27.80
   2  11   0  206.18   33.60
   2  11   0  254.07   35.50
   2  11   0  264.07   27.20
  -3 -11   0  196.48   29.00
  -3 -11   0  251.97   34.10
   3  11   0  198.38   28.50
   3  11   0  305.47   38.80
  -4 -11   0  112.09   30.20
   4  11   0  136.39   29.50
   4  11   0  131.49   31.40
   5 -12   0   93.39   24.70
   5 -12   0  161.18   24.30
  -5  12   0  175.98   29.90
  -5  12   0  120.69   30.60
   4 -12   0  229.88   25.20
   4 -12   0  270.07   29.20
  -4  12   0  243.58   35.50
  -4  12   0  252.87   33.00
   3 -12   0  304.17   31.50
   3 -12   0  283.87   33.70
  -3  12   0  262.27   38.40
  -3  12   0  339.07   34.80
   2 -12   0  195.68   27.60
   2 -12   0  177.68   23.40
   2 -12   0  182.58   24.80
  -2  12   0  197.38   32.30
  -2  12   0  227.58   34.60
   1 -12   0  102.89   21.10
   1 -12   0   83.69   18.10
   1 -12   0   82.69   19.40
  -1  12   0   90.09   19.10
  -1  12   0  131.49   24.60
  -1  12   0   92.79   22.80
   0 -12   0   33.90   20.50
   0 -12   0   11.50   16.70
   0 -12   0   17.30   18.60
   0  12   0   15.20   19.00
   0  12   0   19.30   25.60
   0  12   0   17.40   21.70
  -1 -12   0   84.49   23.80
  -1 -12   0  146.49   23.90
   1  12   0  154.08   25.80
   1  12   0  114.09   23.80
  -2 -12   0  199.88   27.00
  -2 -12   0  153.18   28.50
   2  12   0  157.48   27.50
   2  12   0  184.78   29.30
   2  12  -1   51.19   20.90
   2  12  -1   33.70   23.50
   2  12  -1   48.20   24.10
  -2 -12   1   38.90   28.00
  -2 -12   1   27.20   19.00
  -2 -12   1   27.90   21.40
   1  12  -1  161.38   26.20
   1  12  -1  224.78   31.50
   1  12  -1  201.18   25.10
  -1 -12   1  174.28   22.20
  -1 -12   1  191.88   28.40
  -1 -12   1  223.78   32.20
   0  12  -1  509.55   42.80
   0 -12   1  572.14   38.10
   0 -12   1  525.15   42.30
   0 -12   1  544.15   40.60
  -1  12  -1  427.06   35.90
  -1  12  -1  465.45   41.20
  -1  12  -1  518.65   38.40
   1 -12   1  441.66   37.60
   1 -12   1  529.15   36.00
  -2  12  -1  147.69   20.30
  -2  12  -1  142.89   26.00
  -2  12  -1  194.58   29.00
   2 -12   1  181.78   22.00
   2 -12   1  196.98   29.50
  -3  12  -1  -28.60   19.00
  -3  12  -1    6.80   21.70
  -3  12  -1   12.70   15.60
   3 -12   1   25.50   17.00
   3 -12   1    1.70   18.80
  -4  12  -1   58.39   23.00
  -4  12  -1   67.79   27.30
   4 -12   1   80.19   20.10
   4 -12   1   83.49   22.70
  -5  12  -1  173.68   31.20
  -5  12  -1  195.38   30.00
   5 -12   1  186.78   24.80
   5 -12   1  158.68   28.00
   4  11  -1   76.29   20.60
   4  11  -1   77.39   27.30
   4  11  -1   58.49   26.70
  -4 -11   1   57.49   24.50
  -4 -11   1   44.90   30.40
   3  11  -1   11.00   21.40
   3  11  -1    7.40   23.40
   3  11  -1    9.30   17.80
  -3 -11   1   -2.80   17.20
  -3 -11   1   13.80   24.00
  -3 -11   1   25.70   20.30
   2  11  -1  165.58   24.50
   2  11  -1  142.89   22.00
  -2 -11   1  150.48   25.40
  -2 -11   1  200.38   30.10
   1  11  -1  303.97   30.90
   1  11  -1  332.87   32.50
  -1 -11   1  382.66   32.10
  -1 -11   1  311.67   32.80
  -1 -11   1  308.97   30.10
   0  11  -1  495.25   47.60
   0  11  -1  637.44   40.60
   0  11  -1  499.45   39.40
   0 -11   1  582.94   38.60
   0 -11   1  529.95   43.10
   0 -11   1  561.24   39.30
  -1  11  -1  287.67   29.10
  -1  11  -1  257.17   30.00
  -1  11  -1  250.37   26.10
   1 -11   1  301.57   27.20
   1 -11   1  289.77   27.80
  -2  11  -1   53.69   25.10
  -2  11  -1   73.59   19.40
  -2  11  -1   77.29   15.10
   2 -11   1  106.29   16.30
   2 -11   1   81.69   17.60
   2 -11   1   64.19   16.60
  -3  11  -1   19.80   13.80
  -3  11  -1   42.30   17.20
  -3  11  -1   14.60   18.70
   3 -11   1    2.30   17.10
   3 -11   1   35.50   15.40
  -4  11  -1  121.49   17.70
  -4  11  -1  204.28   29.70
  -4  11  -1  168.38   24.60
   4 -11   1  197.18   23.90
   4 -11   1  236.28   27.20
  -5  11  -1  332.67   39.60
  -5  11  -1  372.76   39.30
  -5  11  -1  346.67   29.90
   5 -11   1  350.96   35.00
   5 -11   1  367.86   38.00
  -6  11  -1  367.36   46.40
  -6  11  -1  307.37   43.80
   6 -11   1  342.27   37.50
   6 -11   1  383.36   42.00
  -7  11  -1  240.18   38.30
  -7  11  -1  177.88   36.00
   7 -11   1  300.97   40.90
   7 -11   1  213.48   31.80
   6  10  -1  309.27   45.80
   6  10  -1  219.98   38.00
  -6 -10   1  352.66   44.60
   5  10  -1  290.77   31.50
   5  10  -1  325.47   39.30
   5  10  -1  190.08   31.00
  -5 -10   1  303.77   44.00
  -5 -10   1  161.98   34.30
   4  10  -1    4.30   20.50
   4  10  -1   23.80   17.30
   4  10  -1   23.70   22.40
  -4 -10   1    9.30   19.70
  -4 -10   1    7.00   23.80
   3  10  -1  120.49   17.50
   3  10  -1   75.39   19.60
   3  10  -1  112.49   21.20
  -3 -10   1   97.69   16.30
  -3 -10   1  125.09   19.60
  -3 -10   1   73.09   21.30
   2  10  -1  255.77   37.10
   2  10  -1  299.77   26.10
   2  10  -1  272.37   29.50
  -2 -10   1  288.47   23.70
  -2 -10   1  287.37   28.20
   1  10  -1  513.85   35.30
   1  10  -1  574.74   34.50
   1  10  -1  490.15   36.90
  -1 -10   1  564.64   36.60
  -1 -10   1  561.64   33.70
  -1 -10   1  606.64   36.40
   0  10  -1  781.72   47.50
   0  10  -1  807.62   45.80
   0  10  -1  750.22   45.50
   0 -10   1  853.61   45.10
   0 -10   1  824.82   46.50
   0 -10   1  840.72   46.10
  -1  10  -1  358.66   26.80
  -1  10  -1  334.07   28.30
  -1  10  -1  363.46   26.10
   1 -10   1  360.96   26.80
   1 -10   1  369.46   26.50
   1 -10   1  356.26   26.70
  -2  10  -1   35.30   10.90
  -2  10  -1   64.09   14.40
  -2  10  -1   50.89   14.40
   2 -10   1   49.10   13.60
   2 -10   1   55.39   13.10
  -3  10  -1    1.00   10.30
  -3  10  -1    8.00   14.70
  -3  10  -1    4.40   14.60
   3 -10   1   -2.90   13.60
   3 -10   1    4.50   13.00
  -4  10  -1  143.99   20.30
  -4  10  -1  183.28   27.50
  -4  10  -1  187.38   26.30
   4 -10   1  178.98   24.70
   4 -10   1  174.18   24.40
  -5  10  -1  551.04   41.60
  -5  10  -1  522.85   42.20
  -5  10  -1  494.15   34.10
   5 -10   1  558.94   37.50
   5 -10   1  469.15   38.40
  -6  10  -1  567.24   38.70
  -6  10  -1  586.04   50.29
  -6  10  -1  521.15   46.40
   6 -10   1  630.54   42.90
   6 -10   1  618.94   45.10
   6 -10   1  617.14   43.00
  -7  10  -1  238.48   36.10
  -7  10  -1  173.08   31.50
   7 -10   1  271.67   37.90
   7 -10   1  224.38   30.30
   7 -10   1  260.87   37.20
  -8  10  -1   56.49   35.20
  -8  10  -1   34.50   29.10
   8 -10   1   30.70   30.90
   8 -10   1   74.79   28.20
   7   9  -1  249.48   37.70
   7   9  -1  289.57   39.30
   7   9  -1  196.78   37.90
  -7  -9   1  179.18   36.00
  -7  -9   1  251.17   34.00
   6   9  -1  169.48   30.70
   6   9  -1  223.48   29.20
   6   9  -1  188.98   30.50
  -6  -9   1  152.08   33.60
  -6  -9   1  214.08   27.70
   5   9  -1   87.39   18.90
   5   9  -1   95.09   22.90
   5   9  -1  102.69   23.40
  -5  -9   1   78.39   25.50
  -5  -9   1   97.99   21.50
   4   9  -1    5.90   16.30
   4   9  -1   30.40   19.20
   4   9  -1   -0.40   13.50
  -4  -9   1   -9.30   16.00
  -4  -9   1    6.80   18.40
   3   9  -1  132.39   19.40
   3   9  -1  135.69   20.70
   3   9  -1  122.69   30.70
  -3  -9   1  141.69   16.50
  -3  -9   1  143.59   19.50
   2   9  -1  435.16   31.50
   2   9  -1  476.75   32.50
   2   9  -1  508.45   30.10
  -2  -9   1  429.06   32.30
  -2  -9   1  523.35   29.50
  -2  -9   1  494.35   32.00
   1   9  -1  734.63   39.30
   1   9  -1  650.03   40.80
   1   9  -1  678.03   40.20
  -1  -9   1  714.13   38.80
  -1  -9   1  715.53   40.40
  -1  -9   1  734.23   40.60
   0   9  -1  348.27   23.90
   0   9  -1  364.16   24.20
   0   9  -1  333.47   25.50
   0  -9   1  337.97   23.10
   0  -9   1  332.07   24.20
   0  -9   1  357.26   24.40
  -1   9  -1  383.16   25.50
  -1   9  -1  380.46   24.90
  -1   9  -1  347.47   26.10
   1  -9   1  375.46   24.50
   1  -9   1  377.76   24.50
   1  -9   1  370.16   25.50
  -2   9  -1   25.50    9.30
  -2   9  -1   25.70   11.10
  -2   9  -1   17.80   12.20
   2  -9   1   39.90   10.80
   2  -9   1   20.10   11.00
   2  -9   1   20.00    9.20
  -3   9  -1  130.69   16.50
  -3   9  -1  118.79   19.40
  -3   9  -1  121.89   15.80
   3  -9   1  118.59   18.30
   3  -9   1  132.09   14.90
  -4   9  -1  546.85   36.90
  -4   9  -1  517.15   33.20
  -4   9  -1  573.84   38.00
   4  -9   1  573.74   35.20
   4  -9   1  570.74   34.70
  -5   9  -1  690.13   43.30
  -5   9  -1  629.54   38.50
  -5   9  -1  678.23   45.40
   5  -9   1  619.54   42.50
   5  -9   1  648.94   40.50
   5  -9   1  654.73   47.70
  -6   9  -1  538.75   35.90
  -6   9  -1  445.56   62.49
  -6   9  -1  534.15   45.30
   6  -9   1  571.44   40.60
   6  -9   1  578.84   39.10
   6  -9   1  601.04   38.90
  -7   9  -1  197.48   25.80
  -7   9  -1  196.98   32.00
  -7   9  -1  178.28   28.30
   7  -9   1  276.87   34.60
   7  -9   1  251.07   32.60
   7  -9   1  219.38   33.90
  -8   9  -1   60.49   34.60
  -8   9  -1   -0.60   32.10
  -8   9  -1   23.10   26.20
   8  -9   1  -11.20   26.00
   8  -9   1   25.40   26.10
   8  -9   1   64.79   27.30
  -9   9  -1   50.99   36.60
  -9   9  -1   11.20   31.80
   9  -9   1   50.19   30.00
   9  -9   1   37.70   30.50
   8   8  -1  224.88   41.00
   8   8  -1  203.58   41.90
  -8  -8   1  242.38   36.20
  -8  -8   1  231.18   36.80
   7   8  -1  320.47   50.89
   7   8  -1  212.28   36.00
   7   8  -1  321.97   44.50
  -7  -8   1  268.47   35.90
  -7  -8   1  331.77   40.60
   6   8  -1  262.47   37.30
   6   8  -1  384.96   34.10
   6   8  -1  334.27   50.59
  -6  -8   1  443.06   36.70
  -6  -8   1  360.96   40.50
   5   8  -1   91.39   16.40
   5   8  -1  101.89   19.40
   5   8  -1  109.09   21.10
  -5  -8   1   98.79   22.60
  -5  -8   1  118.69   18.90
   4   8  -1    2.80   13.10
   4   8  -1   28.60   11.60
   4   8  -1   20.40   15.20
  -4  -8   1   -0.80   13.10
  -4  -8   1   10.40   15.50
   3   8  -1  318.17   23.30
   3   8  -1  352.96   26.50
   3   8  -1  319.17   25.20
  -3  -8   1  339.37   26.80
  -3  -8   1  364.56   23.50
  -3  -8   1  367.56   25.40
   2   8  -1  219.68   19.80
   2   8  -1  219.88   18.00
   2   8  -1  201.78   18.70
  -2  -8   1  212.48   16.90
  -2  -8   1  214.28   18.70
  -2  -8   1  191.58   19.80
   1   8  -1  279.17   21.60
   1   8  -1  297.67   21.20
  -1  -8   1  301.87   21.60
  -1  -8   1  321.17   21.30
  -1  -8   1  306.77   19.90
   0   8  -1  497.75   28.90
   0   8  -1  452.75   29.60
   0   8  -1  484.85   29.30
   0  -8   1  481.95   27.70
   0  -8   1  512.05   28.40
   0  -8   1  483.15   28.60
  -1   8  -1  243.68   18.30
  -1   8  -1  224.98   17.00
  -1   8  -1  229.38   17.70
   1  -8   1  201.88   16.40
   1  -8   1  194.48   17.60
   1  -8   1  227.18   16.70
  -2   8  -1    2.30    7.10
  -2   8  -1   -4.20    8.60
  -2   8  -1    4.90    8.30
   2  -8   1    3.90    7.80
   2  -8   1    6.70    7.00
   2  -8   1    3.70    7.60
  -3   8  -1  405.56   26.00
  -3   8  -1  364.36   23.50
  -3   8  -1  336.37   25.40
   3  -8   1  376.76   23.90
   3  -8   1  357.16   24.40
  -4   8  -1  903.71   50.59
  -4   8  -1  917.41   50.19
  -4   8  -1  872.31   47.60
   4  -8   1  857.01   49.00
   4  -8   1  914.11   49.00
   4  -8   1  907.81   48.30
  -5   8  -1  546.65   37.20
  -5   8  -1  554.84   33.10
  -5   8  -1  586.44   39.20
   5  -8   1  567.24   35.40
   5  -8   1  554.94   35.40
   5  -8   1  572.44   34.60
  -6   8  -1  286.87   32.90
  -6   8  -1  366.06   30.30
   6  -8   1  335.17   28.40
   6  -8   1  305.47   28.10
   6  -8   1  297.07   33.00
  -7   8  -1   87.19   25.50
  -7   8  -1   85.49   22.40
  -7   8  -1  132.29   19.30
   7  -8   1  113.89   21.20
   7  -8   1  128.69   21.00
   7  -8   1  137.79   20.80
  -8   8  -1   43.40   28.60
  -8   8  -1   12.40   23.40
  -8   8  -1   20.20   21.40
   8  -8   1   61.39   23.30
   8  -8   1   18.70   22.90
   8  -8   1   72.29   24.00
  -9   8  -1   50.69   31.60
  -9   8  -1   75.79   27.90
  -9   8  -1   32.80   39.00
   9  -8   1   47.50   29.80
   9  -8   1   97.59   30.80
   9  -8   1   -0.20   25.30
   9   7  -1   78.89   37.00
   9   7  -1   79.29   34.60
  -9  -7   1  101.09   28.30
  -9  -7   1   60.99   31.30
  -9  -7   1  157.78   39.10
   8   7  -1  301.37   40.40
   8   7  -1  265.77   40.70
   8   7  -1  346.67   42.90
  -8  -7   1  287.67   39.30
  -8  -7   1  300.87   41.80
  -8  -7   1  318.27   43.20
   7   7  -1  324.37   34.80
   7   7  -1  275.17   40.30
   7   7  -1  343.27   39.10
  -7  -7   1  314.17   37.00
  -7  -7   1  295.67   30.00
   6   7  -1  272.27   31.00
   6   7  -1  261.37   25.90
   6   7  -1  259.47   30.70
  -6  -7   1  241.78   25.10
  -6  -7   1  309.37   29.80
  -6  -7   1  231.78   33.20
   5   7  -1   73.79   13.40
   5   7  -1   78.49   16.80
   5   7  -1   76.89   16.90
  -5  -7   1   55.89   19.50
  -5  -7   1   80.19   15.70
   4   7  -1  138.69   18.80
   4   7  -1  113.19   18.20
   4   7  -1  140.79   15.80
  -4  -7   1  147.39   18.00
  -4  -7   1  109.99   16.70
   3   7  -1  786.72   46.60
   3   7  -1  902.41   46.90
   3   7  -1  869.11   45.00
  -3  -7   1  833.22   47.10
  -3  -7   1  892.91   45.10
  -3  -7   1  891.81   46.20
   2   7  -1  803.92   44.30
   2   7  -1  790.12   43.00
   2   7  -1  780.62   41.90
  -2  -7   1  807.02   43.20
  -2  -7   1  821.22   41.80
  -2  -7   1  819.42   45.20
   1   7  -1  733.13   39.50
   1   7  -1  713.03   38.90
   1   7  -1  718.93   39.00
  -1  -7   1  707.13   37.70
  -1  -7   1  727.93   38.60
  -1  -7   1  743.33   38.70
   0   7  -1 1067.09   52.89
   0   7  -1 1010.00   52.99
   0   7  -1 1006.80   52.09
   0  -7   1 1080.59   52.29
   0  -7   1 1016.70   51.99
   0  -7   1  999.80   52.59
  -1   7  -1  414.36   23.50
  -1   7  -1  389.96   24.10
  -1   7  -1  409.36   23.80
   1  -7   1  398.96   22.80
   1  -7   1  415.46   23.40
   1  -7   1  394.16   23.90
  -2   7  -1    1.20    7.00
  -2   7  -1   -3.00    7.50
  -2   7  -1    4.50    6.00
   2  -7   1    4.80    6.20
   2  -7   1    2.60    6.30
  -3   7  -1  624.34   34.60
  -3   7  -1  673.03   36.30
  -3   7  -1  635.14   35.90
   3  -7   1  630.34   36.30
   3  -7   1  625.34   34.70
   3  -7   1  647.94   35.20
  -4   7  -1  986.30   52.19
  -4   7  -1 1060.49   53.89
  -4   7  -1 1064.19   54.99
   4  -7   1 1013.80   53.19
   4  -7   1  960.90   52.19
   4  -7   1  980.90   52.69
  -5   7  -1  701.33   40.30
  -5   7  -1  645.84   41.60
   5  -7   1  686.33   39.20
   5  -7   1  702.13   38.40
   5  -7   1  635.54   38.00
  -6   7  -1  334.97   32.70
  -6   7  -1  370.96   30.40
  -6   7  -1  392.76   26.80
   6  -7   1  388.46   28.20
   6  -7   1  429.66   28.90
   6  -7   1  380.56   28.20
  -7   7  -1   93.49   19.30
  -7   7  -1   87.09   22.20
  -7   7  -1   70.89   19.10
   7  -7   1  110.09   17.90
   7  -7   1   61.79   18.00
   7  -7   1   92.09   17.90
  -8   7  -1   10.80   25.00
  -8   7  -1    4.20   21.20
  -8   7  -1   16.80   20.60
   8  -7   1   -8.10   23.20
   8  -7   1    3.70   20.70
   8  -7   1   16.20   20.70
  -9   7  -1  224.88   35.00
  -9   7  -1  186.88   26.60
  -9   7  -1  195.18   28.90
   9  -7   1  138.79   31.20
   9  -7   1  182.68   30.90
 -10   7  -1  453.85   54.09
  10  -7   1  422.26   51.49
  10  -7   1  488.85   54.79
   9   6  -1   82.89   35.20
   9   6  -1   74.29   30.90
  -9  -6   1   74.49   32.30
  -9  -6   1  135.89   26.60
  -9  -6   1   76.09   29.60
   8   6  -1  311.07   37.80
   8   6  -1  260.97   46.20
   8   6  -1  382.46   43.40
  -8  -6   1  352.46   33.00
  -8  -6   1  313.07   38.50
  -8  -6   1  462.25   41.60
   7   6  -1  491.85   37.10
   7   6  -1  515.55   40.50
   7   6  -1  492.05   42.40
  -7  -6   1  587.94   40.30
  -7  -6   1  472.95   34.80
  -7  -6   1  534.35   39.90
   6   6  -1  205.78   21.70
   6   6  -1  148.79   24.60
   6   6  -1  161.88   24.90
  -6  -6   1  223.48   24.60
  -6  -6   1  181.48   22.60
  -6  -6   1  200.18   21.10
   5   6  -1    5.10   12.40
   5   6  -1   -2.00   11.90
   5   6  -1    4.30    9.40
  -5  -6   1   19.00   11.50
  -5  -6   1   15.70   14.70
  -5  -6   1   16.90   11.10
   4   6  -1  278.47   20.50
   4   6  -1  283.87   18.80
   4   6  -1  248.78   20.60
  -4  -6   1  277.97   19.80
  -4  -6   1  238.58   22.20
   3   6  -1  648.84   36.50
   3   6  -1  677.33   36.20
   3   6  -1  643.34   34.70
  -3  -6   1  645.44   35.50
  -3  -6   1  659.63   36.90
  -3  -6   1  680.93   34.90
   2   6  -1 2017.40   99.79
   2   6  -1 2023.10   98.79
   2   6  -1 2034.70  100.09
  -2  -6   1 1975.50   99.59
  -2  -6   1 2047.80   98.99
  -2  -6   1 2071.49   99.89
   1   6  -1  464.05   26.60
   1   6  -1  487.75   26.70
  -1  -6   1  475.15   26.50
  -1  -6   1  525.45   26.70
  -1  -6   1  450.25   25.70
   0   6  -1 1138.79   55.79
   0   6  -1  972.50   54.49
   0   6  -1 1178.88   55.69
   0   6  -1 1044.80   55.99
   0  -6   1 1100.19   55.59
   0  -6   1 1188.88   54.99
   0  -6   1 1084.09   54.79
   0  -6   1 1111.59   55.39
  -1   6  -1  186.78   13.50
  -1   6  -1  197.78   13.00
  -1   6  -1  180.08   13.70
  -1   6  -1  180.78   11.90
   1  -6   1  192.48   12.10
   1  -6   1  184.18   13.00
   1  -6   1  173.38   13.00
  -2   6  -1  541.05   30.00
  -2   6  -1  536.35   30.10
  -2   6  -1  538.95   29.20
   2  -6   1  560.64   29.90
   2  -6   1  544.95   29.20
   2  -6   1  541.85   29.40
  -3   6  -1  597.84   32.70
  -3   6  -1  638.84   33.90
  -3   6  -1  629.14   34.40
   3  -6   1  577.24   32.60
   3  -6   1  616.24   32.90
   3  -6   1  626.64   33.50
  -4   6  -1 1195.38   61.49
  -4   6  -1 1221.18   60.69
   4  -6   1 1152.48   60.09
   4  -6   1 1150.68   59.59
   4  -6   1 1179.78   59.79
  -5   6  -1 1264.27   63.19
  -5   6  -1 1167.48   65.79
  -5   6  -1 1323.57   64.99
   5  -6   1 1263.47   63.79
   5  -6   1 1221.58   63.59
   5  -6   1 1243.28   64.19
  -6   6  -1  553.04   34.40
  -6   6  -1  550.04   33.30
   6  -6   1  563.44   34.00
   6  -6   1  520.15   32.90
   6  -6   1  524.35   33.10
  -7   6  -1   59.39   15.90
  -7   6  -1   56.19   17.20
  -7   6  -1   47.90   19.30
   7  -6   1   70.69   15.30
   7  -6   1   44.50   16.00
   7  -6   1   70.99   16.80
  -8   6  -1   64.49   21.90
  -8   6  -1   55.69   19.80
  -8   6  -1   72.59   23.30
   8  -6   1   84.29   19.80
   8  -6   1   76.19   19.00
   8  -6   1  110.29   22.10
  -9   6  -1  100.89   29.10
  -9   6  -1   86.19   26.30
  -9   6  -1   76.59   22.80
   9  -6   1  101.39   27.60
   9  -6   1   89.39   25.00
   9  -6   1   33.80   22.40
 -10   6  -1  318.87   42.90
 -10   6  -1  416.96   50.09
  10  -6   1  250.07   37.00
  10   5  -1   80.49   29.80
  10   5  -1   49.60   34.40
 -10  -5   1  160.78   42.70
 -10  -5   1   67.79   28.60
 -10  -5   1   94.49   31.90
   9   5  -1  257.97   34.20
   9   5  -1  230.18   36.50
   9   5  -1  357.66   45.40
  -9  -5   1  269.67   38.90
  -9  -5   1  373.46   42.50
  -9  -5   1  247.78   35.00
   8   5  -1  295.87   41.70
   8   5  -1  396.06   37.70
   8   5  -1  434.26   39.80
  -8  -5   1  414.86   36.50
  -8  -5   1  453.45   39.60
  -8  -5   1  349.87   32.20
   7   5  -1  872.41   51.09
   7   5  -1  829.02   51.79
  -7  -5   1  839.92   49.60
  -7  -5   1  996.40   52.59
  -7  -5   1  893.01   52.49
   6   5  -1  116.39   14.40
   6   5  -1  121.99   16.80
   6   5  -1  103.89   16.50
  -6  -5   1  144.29   22.20
  -6  -5   1  112.29   15.40
  -6  -5   1  117.89   17.70
   5   5  -1    4.50   10.20
   5   5  -1   -0.30    8.50
   5   5  -1    2.00    9.90
  -5  -5   1    9.20   11.30
  -5  -5   1   10.90    8.80
  -5  -5   1    4.60   12.00
   4   5  -1  115.49   14.20
   4   5  -1  132.69   14.30
   4   5  -1  137.39   12.10
   4   5  -1  138.39   13.70
  -4  -5   1  111.89   13.90
  -4  -5   1  129.59   16.00
  -4  -5   1  121.99   12.90
   3   5  -1  468.85   26.90
   3   5  -1  452.95   25.20
   3   5  -1  482.05   26.40
  -3  -5   1  450.85   26.00
  -3  -5   1  491.15   25.50
  -3  -5   1  462.35   27.50
   2   5  -1 1204.48   59.89
   2   5  -1 1184.38   59.19
   2   5  -1 1213.28   60.29
  -2  -5   1 1205.08   59.29
  -2  -5   1 1241.18   60.29
  -2  -5   1 1149.19   59.69
   1   5  -1 1128.79   55.89
   1   5  -1 1057.99   55.19
   1   5  -1 1132.79   55.39
   1   5  -1 1182.08   56.29
  -1  -5   1 1106.39   55.79
   0   5  -1  186.08   11.80
   0   5  -1  183.28   12.50
   0   5  -1  186.78   11.30
   0   5  -1  196.38   13.00
   0   5  -1  179.08   11.80
   0  -5   1  195.38   12.60
   0  -5   1  193.98   11.80
   0  -5   1  203.28   12.60
   0  -5   1  178.48   12.10
  -1   5  -1  172.38   16.10
  -1   5  -1  221.48   13.80
  -1   5  -1  210.38   13.80
  -1   5  -1  183.68   17.60
  -1   5  -1  234.78   13.50
   1  -5   1  237.38   12.30
   1  -5   1  240.08   19.90
   1  -5   1  211.78   13.30
   1  -5   1  204.68   13.20
  -2   5  -1   12.70    4.70
  -2   5  -1    8.40    4.60
  -2   5  -1    6.40    4.20
  -2   5  -1   20.30    5.90
   2  -5   1    8.10    4.70
   2  -5   1    7.60    4.10
   2  -5   1    9.10    4.60
  -3   5  -1 1538.55   74.89
  -3   5  -1 1506.65   74.09
  -3   5  -1 1483.15   74.29
   3  -5   1 1514.25   74.09
   3  -5   1 1497.05   73.49
   3  -5   1 1416.16   73.39
  -4   5  -1 1926.11  100.79
  -4   5  -1 2094.39   99.19
  -4   5  -1 2096.29   99.89
   4  -5   1 2098.89  100.29
   4  -5   1 1896.91   99.09
   4  -5   1 1971.10   99.59
   4  -5   1 2097.59   99.19
  -5   5  -1  918.51   54.59
  -5   5  -1 1037.10   53.69
  -5   5  -1 1106.29   53.49
   5  -5   1 1092.79   52.99
   5  -5   1 1019.30   53.59
   5  -5   1 1012.80   52.89
  -6   5  -1  101.69   13.80
  -6   5  -1   73.89   15.10
  -6   5  -1   88.99   13.00
   6  -5   1   90.59   12.30
   6  -5   1  108.09   17.10
   6  -5   1  113.79   15.50
  -7   5  -1  110.89   19.00
  -7   5  -1   96.49   15.60
  -7   5  -1  111.99   17.40
   7  -5   1  128.39   18.10
   7  -5   1  166.18   19.60
   7  -5   1  133.99   17.10
  -8   5  -1   18.90   16.00
  -8   5  -1    6.50   19.50
  -8   5  -1   -2.10   19.00
   8  -5   1    7.10   15.70
   8  -5   1   10.10   18.20
   8  -5   1   20.90   20.20
  -9   5  -1  173.78   27.20
  -9   5  -1  181.68   29.40
  -9   5  -1  225.98   35.30
   9  -5   1  174.28   23.80
   9  -5   1  200.58   26.70
   9  -5   1  179.78   31.40
 -10   5  -1  367.06   43.00
 -10   5  -1  491.05   46.40
  10  -5   1  314.27   41.10
  10  -5   1  358.66   47.20
 -11   5  -1  225.58   38.60
 -11   5  -1  236.08   35.90
  11  -5   1  211.58   45.40
  11  -5   1  272.57   38.00
  10   4  -1  104.59   41.70
  10   4  -1  175.48   29.30
  10   4  -1  159.88   35.90
 -10  -4   1  120.19   28.30
 -10  -4   1  166.98   31.10
 -10  -4   1  211.58   37.70
   9   4  -1  401.86   40.20
   9   4  -1  331.37   45.00
   9   4  -1  467.45   42.80
  -9  -4   1  411.16   36.90
  -9  -4   1  478.45   41.90
  -9  -4   1  493.55   39.60
   8   4  -1  607.34   42.50
   8   4  -1  471.95   38.40
  -8  -4   1  462.25   35.20
  -8  -4   1  541.25   41.40
  -8  -4   1  500.05   42.00
   7   4  -1  371.26   36.80
   7   4  -1  497.05   33.00
   7   4  -1  472.05   33.70
  -7  -4   1  440.26   33.30
  -7  -4   1  531.35   31.70
  -7  -4   1  539.45   34.40
   6   4  -1  101.79   16.50
   6   4  -1  119.49   17.60
   6   4  -1  113.69   16.30
  -6  -4   1  130.79   19.20
  -6  -4   1  110.99   16.30
  -6  -4   1  113.09   14.40
   5   4  -1   26.30    7.30
   5   4  -1   11.90    9.40
   5   4  -1   18.30    8.80
  -5  -4   1   11.60   10.90
  -5  -4   1   15.30    9.10
  -5  -4   1    5.80    7.20
   4   4  -1  991.70   48.40
   4   4  -1  917.61   48.30
   4   4  -1  958.50   47.80
   4   4  -1  936.61   49.50
  -4  -4   1  938.11   48.50
  -4  -4   1  948.21   50.29
   3   4  -1 1132.09   56.79
   3   4  -1 1190.78   58.09
   3   4  -1 1094.59   56.89
  -3  -4   1 1171.38   57.39
  -3  -4   1 1197.08   58.49
  -3  -4   1 1113.59   57.19
   2   4  -1 2359.96  119.59
   2   4  -1 2572.24  120.19
   2   4  -1 2549.34  120.59
   2   4  -1 2501.45  120.59
   2   4  -1 2408.16  119.99
   2   4  -1 2635.04  120.19
  -2  -4   1 2596.64  119.79
  -2  -4   1 2244.08  120.79
  -2  -4   1 2473.15  120.59
   1   4  -1 3485.45  173.68
   1   4  -1 3743.33  174.38
   1   4  -1 3798.52  173.78
   1   4  -1 3539.55  174.08
  -1  -4   1 3902.51  174.18
  -1  -4   1 3435.06  173.68
  -1  -4   1 3614.64  174.28
  -1  -4   1 3668.73  174.28
  -1  -4   1 3437.76  173.98
   0   4  -1  339.27   17.90
   0   4  -1  334.97   18.10
   0   4  -1  324.67   17.70
   0   4  -1  330.07   18.20
   0   4  -1  340.57   17.30
   0   4  -1  334.37   18.50
   0   4  -1  332.27   17.60
   0  -4   1  312.47   17.60
   0  -4   1  338.57   18.00
   0  -4   1  332.67   18.10
   0  -4   1  342.67   18.30
   0  -4   1  330.67   18.30
   0  -4   1  353.66   17.60
  -1   4  -1  377.66   20.60
  -1   4  -1  374.36   20.60
  -1   4  -1  417.76   20.80
  -1   4  -1  391.86   20.20
  -1   4  -1  377.66   20.40
  -1   4  -1  387.46   20.20
   1  -4   1  381.06   21.10
   1  -4   1  390.86   20.30
   1  -4   1  370.96   20.30
   1  -4   1  376.16   20.60
   1  -4   1  392.86   20.80
  -2   4  -1  424.76   23.00
  -2   4  -1  436.36   22.60
  -2   4  -1  413.76   22.60
  -2   4  -1  427.76   23.20
  -2   4  -1  470.85   24.00
   2  -4   1  431.56   22.70
   2  -4   1  435.26   27.90
   2  -4   1  437.56   23.20
   2  -4   1  421.86   23.50
  -3   4  -1 1361.46   70.49
  -3   4  -1 1502.65   69.09
  -3   4  -1 1387.56   69.69
   3  -4   1 1310.67   69.19
   3  -4   1 1322.37   69.49
   3  -4   1 1393.56   69.79
   3  -4   1 1574.14   70.39
   3  -4   1 1456.75   69.19
  -4   4  -1 1242.78   63.19
  -4   4  -1 1287.97   64.79
  -4   4  -1 1327.77   64.29
  -4   4  -1 1131.79   65.09
   4  -4   1 1317.67   64.79
   4  -4   1 1253.37   63.79
   4  -4   1 1444.16   65.19
  -5   4  -1 1456.75   83.69
  -5   4  -1 1609.74   82.99
  -5   4  -1 1713.33   82.79
   5  -4   1 1702.93   83.19
   5  -4   1 1703.63   82.49
   5  -4   1 1786.02   82.09
  -6   4  -1   65.29   11.30
  -6   4  -1   52.09   12.50
  -6   4  -1   56.29   13.20
   6  -4   1   77.49   11.20
   6  -4   1   68.29   12.40
   6  -4   1   69.59   10.80
  -7   4  -1  -15.50   12.20
  -7   4  -1  -17.50   13.50
  -7   4  -1  -16.10   14.00
   7  -4   1   10.90   12.80
   7  -4   1  -11.50   14.30
   7  -4   1   27.80   11.50
  -8   4  -1   22.70   17.40
  -8   4  -1    6.20   14.70
  -8   4  -1   43.70   18.40
   8  -4   1   26.80   19.90
   8  -4   1   26.10   21.70
   8  -4   1   29.30   17.30
  -9   4  -1  203.48   32.80
  -9   4  -1  233.38   31.60
   9  -4   1  185.08   28.60
   9  -4   1  228.98   37.20
   9  -4   1  201.38   26.10
 -10   4  -1  358.36   41.40
 -10   4  -1  314.97   38.40
  10  -4   1  288.47   46.20
  10  -4   1  322.07   35.60
 -11   4  -1  282.77   44.20
 -11   4  -1  434.16   48.70
  11  -4   1  404.56   56.69
  11  -4   1  313.97   39.20
  11   3  -1   79.79   29.50
  11   3  -1   25.60   32.60
 -11  -3   1   65.89   29.30
 -11  -3   1   52.59   32.90
  10   3  -1  100.79   30.60
  10   3  -1  156.98   27.00
  10   3  -1  152.78   27.60
 -10  -3   1  161.58   28.30
 -10  -3   1  169.28   28.70
   9   3  -1  407.36   46.60
   9   3  -1  379.16   43.80
   9   3  -1  559.14   40.80
  -9  -3   1  567.34   40.10
  -9  -3   1  537.85   39.70
  -9  -3   1  443.96   37.80
   8   3  -1  596.64   39.80
   8   3  -1  636.44   40.40
  -8  -3   1  584.64   40.70
  -8  -3   1  567.34   37.90
  -8  -3   1  579.74   39.20
   7   3  -1   92.59   15.70
   7   3  -1  111.59   16.90
   7   3  -1   65.19   18.10
  -7  -3   1  148.99   19.70
  -7  -3   1  112.19   14.90
  -7  -3   1  102.59   23.80
   6   3  -1    4.10    9.50
   6   3  -1   18.80   12.30
   6   3  -1   25.50   19.00
  -6  -3   1   16.10    8.50
  -6  -3   1   16.10    9.90
  -6  -3   1   24.20   10.60
   5   3  -1  166.08   14.00
   5   3  -1  183.08   14.20
   5   3  -1  184.58   16.70
  -5  -3   1  172.38   14.90
  -5  -3   1  189.58   17.60
  -5  -3   1  188.68   15.50
   4   3  -1  346.47   20.80
   4   3  -1  342.97   21.20
   4   3  -1  342.77   19.40
  -4  -3   1  351.86   22.60
  -4  -3   1  325.67   19.90
  -4  -3   1  383.26   21.40
  -4  -3   1  340.97   19.40
   3   3  -1 5551.94  262.67
   3   3  -1 5467.95  264.07
   3   3  -1 5480.65  262.57
   3   3  -1 4741.33  263.57
   3   3  -1 5503.95  262.97
   3   3  -1 5464.25  262.77
   3   3  -1 5807.32  263.87
  -3  -3   1 5462.25  262.67
  -3  -3   1 5499.65  263.67
  -3  -3   1 5805.12  262.97
  -3  -3   1 5418.16  263.07
  -3  -3   1 5746.82  264.67
   2   3  -1 2821.22  139.99
   2   3  -1 2881.51  139.99
   2   3  -1 2985.00  140.49
   2   3  -1 2884.01  140.29
   2   3  -1 2868.41  140.09
   2   3  -1 3058.89  140.79
  -2  -3   1 3042.50  140.99
  -2  -3   1 2943.41  140.59
  -2  -3   1 2969.90  140.19
  -2  -3   1 2909.71  140.09
  -2  -3   1 2730.33  140.19
   1   3  -1  635.64   33.40
   1   3  -1  687.73   34.00
   1   3  -1  669.03   33.70
   1   3  -1  727.33   33.70
   1   3  -1  665.13   33.70
  -1  -3   1  650.03   33.50
  -1  -3   1  642.04   33.70
  -1  -3   1  698.83   33.90
  -1  -3   1  723.63   34.00
  -1  -3   1  683.03   34.00
   0   3  -1  170.98   10.40
   0   3  -1  184.88   10.70
   0   3  -1  177.58   10.30
   0   3  -1  188.68    9.80
   0   3  -1  179.58   10.40
   0   3  -1  181.68   10.10
   0   3  -1  179.28   10.10
   0  -3   1  180.98   10.50
   0  -3   1  190.58   10.10
   0  -3   1  175.08   10.20
   0  -3   1  173.08   10.10
   0  -3   1  198.18   11.00
  -1   3  -1  326.57   16.30
  -1   3  -1  312.47   16.40
  -1   3  -1  326.07   17.00
  -1   3  -1  309.37   16.70
  -1   3  -1  314.07   16.80
   1  -3   1  305.67   16.30
   1  -3   1  302.27   16.70
   1  -3   1  313.87   16.40
   1  -3   1  310.17   16.80
   1  -3   1  323.17   17.40
  -2   3  -1  741.33   39.10
  -2   3  -1  758.92   38.20
  -2   3  -1  796.02   38.10
  -2   3  -1  787.82   38.70
  -2   3  -1  767.12   38.60
  -2   3  -1  871.31   38.30
   2  -3   1  774.42   39.70
   2  -3   1  752.62   38.70
   2  -3   1  740.53   38.30
   2  -3   1  748.33   38.50
   2  -3   1  768.62   38.10
  -3   3  -1 2565.94  125.59
  -3   3  -1 2737.03  124.89
  -3   3  -1 2675.93  125.59
  -3   3  -1 2474.95  124.99
  -3   3  -1 2579.74  125.49
  -3   3  -1 2663.93  125.39
   3  -3   1 2582.34  126.99
   3  -3   1 2352.36  126.29
   3  -3   1 2667.83  124.89
   3  -3   1 2431.16  125.89
   3  -3   1 2517.95  125.29
   3  -3   1 2918.21  126.19
  -4   3  -1 2227.78  116.29
  -4   3  -1 2400.26  116.59
  -4   3  -1 2406.26  115.49
  -4   3  -1 2300.67  116.39
   4  -3   1 2570.94  117.29
   4  -3   1 2400.06  121.19
   4  -3   1 2397.36  116.89
   4  -3   1 2470.75  115.69
  -5   3  -1 1103.89   60.99
  -5   3  -1 1151.68   61.79
  -5   3  -1 1106.29   60.19
   5  -3   1 1266.37   60.89
   5  -3   1 1323.47   59.89
   5  -3   1 1260.47   61.69
  -6   3  -1  399.46   25.20
  -6   3  -1  413.06   26.10
  -6   3  -1  388.16   27.20
   6  -3   1  425.66   27.30
   6  -3   1  383.96   25.60
   6  -3   1  413.16   24.20
  -7   3  -1   42.50   12.50
  -7   3  -1   59.69   14.90
  -7   3  -1   44.90   13.30
   7  -3   1   46.10   15.30
   7  -3   1   45.20   12.80
   7  -3   1   40.60   11.90
  -8   3  -1   17.60   13.80
  -8   3  -1   31.10   16.00
  -8   3  -1   24.50   17.10
   8  -3   1   14.60   19.70
   8  -3   1   18.90   13.80
   8  -3   1    7.20   15.90
  -9   3  -1  406.46   34.70
  -9   3  -1  412.16   35.20
   9  -3   1  378.76   36.20
   9  -3   1  322.77   40.20
   9  -3   1  329.47   36.30
 -10   3  -1  422.76   40.00
 -10   3  -1  488.65   42.50
  10  -3   1  396.06   44.00
  10  -3   1  357.96   47.20
 -11   3  -1  278.97   43.90
 -11   3  -1  290.97   40.50
  11  -3   1  276.77   36.70
  11  -3   1  381.26   51.19
  11   2  -1   56.79   33.10
  11   2  -1   45.70   28.20
 -11  -2   1   62.29   31.40
 -11  -2   1   39.30   27.10
  10   2  -1  368.96   36.50
  10   2  -1  260.27   40.00
  10   2  -1  338.67   36.30
 -10  -2   1  227.98   34.30
 -10  -2   1  349.27   38.20
   9   2  -1  116.09   25.60
   9   2  -1  125.59   21.60
   9   2  -1  132.29   26.10
  -9  -2   1  124.49   26.10
  -9  -2   1  161.58   22.00
   8   2  -1  358.46   29.50
   8   2  -1  415.16   30.10
   8   2  -1  308.97   33.00
  -8  -2   1  355.16   28.50
  -8  -2   1  421.56   30.60
  -8  -2   1  383.76   29.80
   7   2  -1  540.15   34.70
   7   2  -1  561.14   34.50
   7   2  -1  477.75   36.70
  -7  -2   1  577.64   34.20
  -7  -2   1  606.24   34.70
  -7  -2   1  609.54   35.30
   6   2  -1  110.09   15.90
   6   2  -1   89.19   12.30
   6   2  -1  108.89   15.30
  -6  -2   1  118.09   15.40
  -6  -2   1  158.28   15.90
  -6  -2   1  114.09   14.90
   5   2  -1  342.37   20.40
   5   2  -1  341.27   22.60
  -5  -2   1  323.97   21.00
  -5  -2   1  309.27   20.90
  -5  -2   1  337.07   21.80
   4   2  -1  977.10   52.59
   4   2  -1 1112.19   53.59
  -4  -2   1 1086.49   53.69
  -4  -2   1 1043.00   52.59
  -4  -2   1 1030.20   52.19
  -4  -2   1 1023.50   52.79
  -4  -2   1 1068.79   51.59
   3   2  -1 1157.28   61.19
   3   2  -1 1235.78   61.09
   3   2  -1 1223.78   60.89
   3   2  -1 1241.78   61.49
   3   2  -1 1188.68   61.79
   3   2  -1 1382.36   61.99
  -3  -2   1 1277.37   60.99
  -3  -2   1 1358.36   61.89
  -3  -2   1 1280.97   62.49
  -3  -2   1 1149.58   61.19
   2   2  -1  564.54   28.50
   2   2  -1  491.65   28.10
   2   2  -1  566.44   28.00
   2   2  -1  541.85   27.70
   2   2  -1  553.94   27.40
   2   2  -1  510.25   27.40
   2   2  -1  594.64   28.00
  -2  -2   1  510.45   27.70
  -2  -2   1  574.74   28.90
  -2  -2   1  543.15   27.50
  -2  -2   1  541.45   27.70
  -2  -2   1  640.44   29.60
  -2  -2   1  562.64   28.20
   1   2  -1 2281.97  111.09
   1   2  -1 2415.46  111.69
   1   2  -1 2336.57  111.59
  -1  -2   1 2323.77  111.69
  -1  -2   1 2281.27  111.19
  -1  -2   1 2433.36  111.29
  -1  -2   1 2170.68  111.29
   0   2  -1   26.80    2.90
   0   2  -1   30.30    2.90
   0   2  -1   23.60    2.70
   0   2  -1   26.20    3.10
   0   2  -1   33.10    3.30
   0   2  -1   26.60    3.30
   0  -2   1   25.00    3.00
   0  -2   1   24.50    3.90
   0  -2   1   22.10    2.70
   0  -2   1   25.70    3.10
   0  -2   1   21.70    3.30
   0  -2   1   20.80    2.70
  -1   2  -1  329.37   18.10
  -1   2  -1  346.77   17.10
  -1   2  -1  337.07   17.60
  -1   2  -1  338.17   19.50
   1  -2   1  346.57   17.70
   1  -2   1  332.17   17.70
   1  -2   1  339.87   17.20
   1  -2   1  372.46   19.90
  -2   2  -1 1372.46   72.99
  -2   2  -1 1579.74   72.49
  -2   2  -1 1558.94   72.39
  -2   2  -1 1257.47   73.09
  -2   2  -1 1485.05   72.69
  -2   2  -1 1625.64   72.99
  -2   2  -1 1531.55   72.89
   2  -2   1 1476.05   72.59
   2  -2   1 1497.35   72.39
   2  -2   1 1545.05   72.09
   2  -2   1 1525.85   72.89
   2  -2   1 1531.65   74.09
  -3   2  -1 2347.27  128.59
  -3   2  -1 2502.85  127.89
  -3   2  -1 2669.13  128.49
  -3   2  -1 2690.03  127.29
  -3   2  -1 2598.14  127.99
  -3   2  -1 2609.44  127.49
  -3   2  -1 2949.80  128.49
   3  -2   1 2695.03  128.39
   3  -2   1 2776.42  128.59
   3  -2   1 2691.93  127.79
   3  -2   1 2681.63  128.29
  -4   2  -1 1482.85   69.49
  -4   2  -1 1337.57   69.79
  -4   2  -1 1304.97   68.59
  -4   2  -1 1325.77   68.69
  -4   2  -1 1448.26   69.69
  -4   2  -1 1373.66   67.79
   4  -2   1 1506.25   69.79
   4  -2   1 1394.46   69.19
   4  -2   1 1433.16   68.89
   4  -2   1 1278.37   74.39
   4  -2   1 1460.25   67.99
  -5   2  -1  686.83   36.90
  -5   2  -1  718.63   36.60
  -5   2  -1  634.74   35.40
  -5   2  -1  663.13   34.20
  -5   2  -1  598.94   35.70
   5  -2   1  673.33   36.40
   5  -2   1  707.93   37.40
   5  -2   1  683.43   35.80
  -6   2  -1  490.15   27.90
  -6   2  -1  468.05   28.70
  -6   2  -1  468.75   28.30
  -6   2  -1  422.06   26.70
   6  -2   1  406.06   29.00
   6  -2   1  460.55   25.80
   6  -2   1  438.76   28.60
  -7   2  -1  214.48   19.50
  -7   2  -1  225.58   21.60
  -7   2  -1  239.88   19.10
  -7   2  -1  184.38   19.40
   7  -2   1  144.99   20.00
   7  -2   1  178.08   23.50
   7  -2   1  202.98   21.50
   7  -2   1  168.38   18.60
  -8   2  -1  303.37   26.60
  -8   2  -1  358.56   28.40
  -8   2  -1  291.37   25.90
  -8   2  -1  332.47   25.90
   8  -2   1  272.27   31.40
   8  -2   1  331.77   28.50
   8  -2   1  243.18   25.10
  -9   2  -1  658.73   40.50
  -9   2  -1  634.04   41.30
  -9   2  -1  575.54   39.70
   9  -2   1  513.35   45.90
   9  -2   1  511.05   38.00
   9  -2   1  566.44   42.80
 -10   2  -1  509.85   46.00
 -10   2  -1  470.25   40.30
 -10   2  -1  555.64   42.30
  10  -2   1  401.06   49.10
  10  -2   1  446.76   45.20
 -11   2  -1  167.38   29.50
 -11   2  -1  234.78   38.90
  11  -2   1  198.28   36.40
  11  -2   1  132.99   38.90
  11   1  -1   69.99   27.30
  11   1  -1   91.79   33.50
 -11  -1   1   92.19   30.10
 -11  -1   1  110.09   27.60
  10   1  -1  235.28   38.20
  10   1  -1  238.08   27.40
  10   1  -1  240.38   34.50
 -10  -1   1  258.67   36.40
 -10  -1   1  256.37   32.70
   9   1  -1  212.88   27.30
   9   1  -1  196.08   25.20
   9   1  -1  139.39   25.20
  -9  -1   1  176.28   28.40
  -9  -1   1  226.48   30.10
   8   1  -1  528.65   36.40
   8   1  -1  541.15   39.40
   8   1  -1  631.84   36.50
  -8  -1   1  591.14   37.50
  -8  -1   1  616.34   38.20
   7   1  -1  416.26   32.20
   7   1  -1  443.06   29.60
   7   1  -1  486.75   29.30
  -7  -1   1  522.25   30.50
  -7  -1   1  464.45   30.00
   6   1  -1   18.60   11.10
   6   1  -1   34.30    9.20
   6   1  -1   12.80    9.10
  -6  -1   1   28.00    9.20
  -6  -1   1    7.90    9.20
  -6  -1   1   15.00    9.40
   5   1  -1 1025.50   52.59
   5   1  -1 1025.50   50.79
   5   1  -1  947.01   50.29
  -5  -1   1  916.31   50.59
  -5  -1   1 1019.90   50.79
   4   1  -1 1331.67   70.29
   4   1  -1 1488.05   66.49
   4   1  -1 1425.66   65.29
   4   1  -1 1455.15   69.09
   4   1  -1 1234.68   65.09
  -4  -1   1 1116.39   64.99
  -4  -1   1 1222.18   66.09
  -4  -1   1 1260.77   65.79
  -4  -1   1 1319.07   65.39
  -4  -1   1 1326.17   65.49
   3   1  -1  769.12   38.40
   3   1  -1  669.03   38.70
   3   1  -1  786.02   39.50
   3   1  -1  848.52   39.40
   3   1  -1  835.02   39.20
  -3  -1   1  770.52   38.80
  -3  -1   1  672.13   38.90
  -3  -1   1  861.51   39.20
  -3  -1   1  730.73   38.90
  -3  -1   1  807.72   38.60
   2   1  -1 2248.68  115.69
   2   1  -1 2107.79  115.19
   2   1  -1 2727.43  115.19
   2   1  -1 2361.16  116.09
   2   1  -1 2431.56  115.19
  -2  -1   1 2218.18  115.29
  -2  -1   1 2669.13  115.19
  -2  -1   1 2549.34  115.99
  -2  -1   1 2277.27  115.39
   1   1  -1  202.98   10.70
   1   1  -1  204.18   10.50
   1   1  -1  219.48   11.10
   1   1  -1  220.98   11.30
   1   1  -1  214.88   10.80
   1   1  -1  222.08   11.00
  -1  -1   1  202.08   10.70
  -1  -1   1  204.28   10.80
  -1  -1   1  209.68   11.00
  -1  -1   1  200.48   11.10
  -1  -1   1  215.38   10.60
  -1  -1   1  214.88   10.90
   0   1  -1  116.59    6.50
   0   1  -1  125.99    6.80
   0   1  -1  121.99    6.60
   0   1  -1  119.79    6.30
   0   1  -1  116.29    6.20
   0   1  -1  118.69    6.60
   0  -1   1  120.49    6.60
   0  -1   1  125.29    6.60
   0  -1   1  117.19    6.30
   0  -1   1  124.69    6.50
   0  -1   1  117.19    6.30
  -1   1  -1  342.77   18.80
  -1   1  -1  393.36   17.90
  -1   1  -1  351.26   17.60
  -1   1  -1  348.07   18.10
  -1   1  -1  363.56   18.20
  -1   1  -1  371.76   18.10
   1  -1   1  322.97   18.50
   1  -1   1  395.66   17.80
   1  -1   1  332.47   17.60
   1  -1   1  361.96   18.30
   1  -1   1  348.07   18.10
  -2   1  -1 1600.74   76.49
  -2   1  -1 1565.34   78.89
  -2   1  -1 1760.02   77.19
  -2   1  -1 1544.95   77.99
  -2   1  -1 1652.43   77.89
   2  -1   1 1697.73   77.29
   2  -1   1 1749.53   77.19
   2  -1   1 1553.14   77.19
   2  -1   1 1407.06   77.49
   2  -1   1 1363.76   77.79
  -3   1  -1  907.31   46.30
  -3   1  -1  854.01   45.30
  -3   1  -1  910.21   44.80
  -3   1  -1  917.91   46.30
  -3   1  -1 1015.70   46.00
   3  -1   1  831.72   45.50
   3  -1   1  872.81   46.20
   3  -1   1 1039.50   46.40
   3  -1   1  962.20   45.10
   3  -1   1  808.22   45.50
  -4   1  -1 1683.03   84.39
  -4   1  -1 1682.43   83.69
  -4   1  -1 1918.71   85.59
  -4   1  -1 1816.32   85.39
  -4   1  -1 1653.33   83.89
  -4   1  -1 1847.42   85.29
   4  -1   1 1572.34   84.49
   4  -1   1 1605.84   86.79
  -5   1  -1  186.28   14.80
  -5   1  -1  154.18   14.50
  -5   1  -1  170.38   14.50
  -5   1  -1  164.38   12.90
   5  -1   1  167.18   12.70
   5  -1   1  141.29   13.80
   5  -1   1  171.98   14.90
   5  -1   1  140.99   15.90
   5  -1   1  154.38   12.90
   5  -1   1  139.69   11.30
  -6   1  -1   26.10    9.50
  -6   1  -1   28.10   10.20
  -6   1  -1   42.50    9.70
  -6   1  -1   24.80    9.70
   6  -1   1   24.10   11.20
   6  -1   1    7.30   15.50
   6  -1   1   20.20    8.00
   6  -1   1   18.10    9.30
  -7   1  -1  187.28   18.60
  -7   1  -1  147.89   17.90
  -7   1  -1  194.78   20.10
  -7   1  -1  183.48   19.20
   7  -1   1  145.79   17.70
   7  -1   1  164.68   20.50
   7  -1   1  170.08   19.80
   7  -1   1  147.49   23.00
  -8   1  -1  526.25   31.40
  -8   1  -1  501.25   32.70
  -8   1  -1  496.25   33.00
  -8   1  -1  439.16   31.50
   8  -1   1  423.26   31.30
   8  -1   1  440.66   34.40
   8  -1   1  382.16   36.90
   8  -1   1  508.35   33.90
  -9   1  -1  224.48   27.20
  -9   1  -1  270.87   28.80
  -9   1  -1  239.88   29.70
 -10   1  -1  343.97   34.80
 -10   1  -1  310.07   37.70
 -10   1  -1  372.56   38.80
  10  -1   1  399.86   41.20
  10  -1   1  367.06   44.00
 -11   1  -1   42.30   27.90
 -11   1  -1   16.90   30.70
  11  -1   1   54.49   34.60
  11  -1   1  132.89   33.10
  11   0  -1  162.78   34.80
  11   0  -1  168.18   28.00
 -11   0   1  109.39   30.50
 -11   0   1  124.09   28.70
  10   0  -1  319.37   34.20
  10   0  -1  311.57   34.70
  10   0  -1  355.76   40.10
 -10   0   1  364.86   34.40
 -10   0   1  346.27   48.80
 -10   0   1  364.96   34.50
   9   0  -1  652.43   41.00
   9   0  -1  582.64   44.80
   9   0  -1  597.24   40.00
  -9   0   1  658.83   43.30
  -9   0   1  625.34   39.90
   8   0  -1  205.58   25.60
   8   0  -1  199.88   22.20
   8   0  -1  223.08   22.30
  -8   0   1  211.98   23.80
  -8   0   1  230.98   25.20
  -8   0   1  221.48   22.40
   7   0  -1  236.88   23.50
   7   0  -1  241.58   20.60
   7   0  -1  243.58   19.90
  -7   0   1  260.67   20.50
  -7   0   1  244.08   22.20
  -7   0   1  239.58   21.80
   6   0  -1   64.59   11.00
   6   0  -1   74.79   10.60
   6   0  -1   58.89    9.50
   6   0  -1   75.09   13.00
  -6   0   1   46.40   10.70
   5   0  -1  809.32   42.90
   5   0  -1  830.12   42.70
   5   0  -1  814.62   43.30
   5   0  -1  856.91   44.70
   4   0  -1 1392.56   67.49
   4   0  -1 1176.98   71.59
   4   0  -1 1484.65   68.49
   4   0  -1 1529.25   69.49
   4   0  -1 1352.86   68.29
   4   0  -1 1354.76   67.89
  -4   0   1 1480.25   68.49
  -4   0   1 1352.86   68.29
  -4   0   1 1268.07   67.89
   3   0  -1 1847.92   82.19
   3   0  -1 1617.64   82.69
   3   0  -1 1837.92   82.19
   3   0  -1 1697.13   82.59
   3   0  -1 1657.73   81.99
   3   0  -1 1515.55   82.29
  -3   0   1 1740.63   82.59
  -3   0   1 1679.03   82.29
  -3   0   1 1716.23   81.79
  -3   0   1 1516.15   82.09
  -3   0   1 1948.61   82.59
  -3   0   1 1568.64   82.49
   2   0  -1  646.94   28.40
   2   0  -1  582.34   28.40
   2   0  -1  582.04   28.60
   2   0  -1  558.04   27.80
   2   0  -1  478.05   28.40
   2   0  -1  542.05   28.80
  -2   0   1  561.34   27.80
  -2   0   1  611.84   28.20
  -2   0   1  556.34   28.70
  -2   0   1  488.35   28.50
  -2   0   1  569.54   28.20
  -2   0   1  656.83   28.30
   1   0  -1  283.47   13.30
   1   0  -1  277.27   13.20
   1   0  -1  237.18   13.40
   1   0  -1  252.07   13.70
   1   0  -1  267.77   13.40
   1   0  -1  281.57   13.30
   1   0  -1  272.07   13.90
  -1   0   1  264.07   13.70
  -1   0   1  270.47   13.30
  -1   0   1  244.28   13.70
  -1   0   1  289.27   13.20
  -1   0   1  257.87   13.40
  -1   0   1  284.07   13.30
   0   0  -1    0.40    1.30
   0   0  -1    5.10    1.30
   0   0  -1    2.90    1.00
   0   0  -1    2.30    0.80
   0   0  -1    1.10    0.70
   0   0   1    4.50    1.50
   0   0   1    3.00    0.80
   0   0   1    2.20    0.80
   0   0   1    3.40    0.80
   0   0   1    4.20    0.80
   0   0   1    2.90    1.00
  -1   0  -1 2158.98   90.29
  -1   0  -1 1824.12   90.09
  -1   0  -1 1925.11   89.39
  -1   0  -1 1858.61   89.69
  -1   0  -1 1773.72   90.39
  -1   0  -1 1818.82   89.39
  -1   0  -1 1722.33   89.89
   1   0   1 1886.41   89.49
   1   0   1 2128.49   90.29
   1   0   1 1881.01   90.19
   1   0   1 1882.61   89.79
   1   0   1 1883.11   89.39
   1   0   1 1806.12   89.99
   1   0   1 1684.53   90.39
  -2   0  -1 1869.51   81.79
  -2   0  -1 1517.55   80.79
  -2   0  -1 1567.44   80.29
  -2   0  -1 1684.73   80.69
   2   0   1 1597.54   82.79
   2   0   1 1754.72   80.89
   2   0   1 1745.43   81.69
   2   0   1 1672.43   80.29
   2   0   1 1636.14   80.39
  -3   0  -1 1722.13   81.49
  -3   0  -1 1732.53   80.79
  -3   0  -1 1599.64   80.59
  -3   0  -1 1859.01   82.49
  -3   0  -1 1752.92   81.29
  -3   0  -1 1626.64   81.29
   3   0   1 1503.35   81.09
   3   0   1 1552.74   81.29
   3   0   1 1673.13   80.49
   3   0   1 1667.43   81.19
   3   0   1 1631.04   80.59
   3   0   1 1616.94   81.99
  -4   0  -1  648.84   34.90
  -4   0  -1  619.94   34.70
  -4   0  -1  694.83   34.10
   4   0   1  643.84   33.60
   4   0   1  637.04   35.70
   4   0   1  625.34   34.30
  -5   0  -1  603.04   34.50
  -5   0  -1  628.04   33.70
  -5   0  -1  620.24   33.70
  -5   0  -1  618.74   34.70
   5   0   1  601.54   34.60
   5   0   1  642.24   36.60
   5   0   1  643.74   33.70
  -6   0  -1   14.00   10.10
  -6   0  -1   13.30    9.70
  -6   0  -1   14.00   10.00
  -6   0  -1   25.30   10.20
   6   0   1   26.00    7.50
   6   0   1   14.00   12.20
   6   0   1    6.80    9.60
   6   0   1   30.00   11.80
  -7   0  -1  141.59   18.60
  -7   0  -1  150.58   18.90
  -7   0  -1  159.18   17.50
   7   0   1  125.69   16.60
   7   0   1  106.59   18.00
   7   0   1  156.98   19.00
  -8   0  -1  752.42   44.90
  -8   0  -1  855.81   45.80
  -8   0  -1  814.42   45.00
   8   0   1  680.33   49.60
   8   0   1  790.72   46.20
  -9   0  -1  294.77   30.40
  -9   0  -1  228.18   26.60
  -9   0  -1  281.87   29.20
   9   0   1  328.77   32.80
   9   0   1  222.28   37.20
 -10   0  -1  214.28   33.30
 -10   0  -1  200.18   29.80
 -10   0  -1  202.28   32.40
  10   0   1  193.28   28.00
  10   0   1  166.88   32.10
 -11   0  -1    9.70   26.60
 -11   0  -1   60.59   30.40
  11   0   1  116.69   35.60
  11   0   1   83.19   30.70
  11  -1  -1  179.28   28.90
  11  -1  -1  304.67   38.90
  11  -1  -1  182.78   34.70
 -11   1   1  186.98   29.90
 -11   1   1  181.08   31.10
 -11   1   1  254.17   33.50
  10  -1  -1  380.96   36.50
  10  -1  -1  340.27   36.60
 -10   1   1  435.96   38.20
 -10   1   1  516.15   40.10
 -10   1   1  343.47   36.20
   9  -1  -1  649.24   40.70
   9  -1  -1  581.54   39.70
   9  -1  -1  582.44   44.50
  -9   1   1  591.94   40.90
  -9   1   1  635.24   42.30
   8  -1  -1  237.58   27.70
   8  -1  -1  234.08   24.40
   8  -1  -1  271.27   23.90
  -8   1   1  301.07   25.00
  -8   1   1  266.67   24.20
  -8   1   1  261.57   26.20
   7  -1  -1   62.19   12.40
   7  -1  -1   69.99   11.60
   7  -1  -1   55.49   16.20
  -7   1   1   58.89   12.70
  -7   1   1   56.69   12.00
  -7   1   1   67.59   12.70
   6  -1  -1  115.49   13.70
   6  -1  -1  112.39   13.00
   6  -1  -1  116.79   16.10
  -6   1   1   74.79   10.80
  -6   1   1   97.89   13.90
  -6   1   1   74.19   11.70
   5  -1  -1 1188.68   60.29
   5  -1  -1 1337.47   62.19
   5  -1  -1 1165.58   61.19
   5  -1  -1 1180.08   61.59
  -5   1   1 1302.57   62.49
  -5   1   1 1219.68   60.89
  -5   1   1 1099.49   60.59
  -5   1   1 1229.08   61.39
   4  -1  -1 2863.21  146.79
   4  -1  -1 2871.11  145.99
   4  -1  -1 2782.52  146.59
   4  -1  -1 2887.81  146.19
   4  -1  -1 3331.27  147.89
   4  -1  -1 3003.50  147.19
  -4   1   1 3492.05  147.49
  -4   1   1 3054.49  146.69
  -4   1   1 3267.27  147.09
  -4   1   1 3171.88  148.29
  -4   1   1 2821.62  146.39
  -4   1   1 2966.90  146.39
   3  -1  -1 1363.76   72.29
   3  -1  -1 1445.76   71.79
   3  -1  -1 1449.06   71.89
   3  -1  -1 1614.44   72.19
   3  -1  -1 1549.74   72.49
   3  -1  -1 1445.66   72.29
  -3   1   1 1388.86   72.09
  -3   1   1 1460.05   71.99
  -3   1   1 1630.24   72.39
  -3   1   1 1489.55   72.69
  -3   1   1 1514.05   72.29
   2  -1  -1 3277.87  156.18
   2  -1  -1 3277.67  156.28
   2  -1  -1 3252.57  156.28
  -2   1   1 3248.07  156.08
  -2   1   1 3491.05  157.38
  -2   1   1 3076.79  155.98
  -2   1   1 3245.58  156.18
   1  -1  -1   24.50    2.50
   1  -1  -1   24.30    2.40
   1  -1  -1   22.00    2.40
   1  -1  -1   17.70    2.50
   1  -1  -1   23.70    2.40
   1  -1  -1   23.40    2.20
   1  -1  -1   22.50    2.10
  -1   1   1   24.00    2.60
  -1   1   1   20.30    2.40
  -1   1   1   18.90    2.20
  -1   1   1   20.70    2.50
  -1   1   1   17.70    2.40
  -1   1   1   19.70    2.60
  -1   1   1   20.20    2.40
   0  -1  -1  182.68    9.40
   0  -1  -1  172.68    8.90
   0  -1  -1  158.18    8.90
   0  -1  -1  185.18    9.60
   0  -1  -1  170.08    8.80
   0  -1  -1  174.88    9.00
   0  -1  -1  162.88    9.10
   0   1   1  182.28    9.40
   0   1   1  174.98    9.00
   0   1   1  165.78    8.90
   0   1   1  168.58    8.70
   0   1   1  170.78    8.90
  -1  -1  -1  848.22   39.40
  -1  -1  -1  781.32   37.80
  -1  -1  -1  732.83   37.90
  -1  -1  -1  779.22   37.80
  -1  -1  -1  720.63   37.40
  -1  -1  -1  801.72   38.80
   1   1   1  795.72   37.90
   1   1   1  731.83   37.90
   1   1   1  824.12   38.10
   1   1   1  755.12   39.00
   1   1   1  737.13   37.40
   1   1   1  825.72   38.60
  -2  -1  -1 3507.75  163.68
  -2  -1  -1 3230.88  162.48
  -2  -1  -1 3077.89  162.58
  -2  -1  -1 3287.77  162.58
  -2  -1  -1 3738.13  164.18
  -2  -1  -1 3101.29  163.18
  -2  -1  -1 3502.05  162.78
   2   1   1 3593.64  164.48
   2   1   1 3295.37  162.68
   2   1   1 3670.13  162.78
   2   1   1 3628.24  162.98
   2   1   1 3178.18  162.78
  -3  -1  -1 2726.83  134.49
  -3  -1  -1 2548.95  133.99
  -3  -1  -1 3060.79  136.09
  -3  -1  -1 2674.33  134.69
  -3  -1  -1 2883.41  134.49
  -3  -1  -1 2614.04  133.89
  -3  -1  -1 2683.63  134.09
   3   1   1 2826.62  134.19
   3   1   1 2666.63  134.29
   3   1   1 2943.11  134.69
   3   1   1 2919.81  136.39
   3   1   1 2916.71  134.29
  -4  -1  -1  342.47   19.60
  -4  -1  -1  320.07   19.80
  -4  -1  -1  331.07   18.30
  -4  -1  -1  311.97   19.00
  -4  -1  -1  286.07   24.90
  -4  -1  -1  336.97   18.80
  -4  -1  -1  322.17   19.50
   4   1   1  356.26   22.60
   4   1   1  295.37   19.50
   4   1   1  363.06   19.30
  -5  -1  -1  146.69   15.60
  -5  -1  -1  117.29   15.40
  -5  -1  -1  146.09   11.90
  -5  -1  -1  142.89   15.00
  -5  -1  -1  155.48   14.00
  -5  -1  -1  122.69   14.60
   5   1   1  126.09   17.70
   5   1   1  161.58   12.20
   5   1   1  152.58   17.50
   5   1   1  163.68   20.40
   5   1   1  181.28   13.70
  -6  -1  -1   23.70   10.70
  -6  -1  -1   35.50   11.00
  -6  -1  -1   26.70   11.00
   6   1   1   39.20   13.20
   6   1   1   28.20    9.50
   6   1   1   30.10    8.80
   6   1   1   30.90    8.40
   6   1   1   47.60   11.90
  -7  -1  -1  320.97   25.00
  -7  -1  -1  332.77   25.00
  -7  -1  -1  342.67   24.30
   7   1   1  272.17   27.40
   7   1   1  303.37   26.50
   7   1   1  287.07   24.60
   7   1   1  323.47   22.80
  -8  -1  -1 1275.67   66.09
  -8  -1  -1 1140.09   65.19
  -8  -1  -1 1240.18   64.49
   8   1   1 1275.37   66.59
   8   1   1 1131.09   69.89
   8   1   1 1287.77   65.69
  -9  -1  -1  481.95   35.60
  -9  -1  -1  514.45   37.40
  -9  -1  -1  439.06   34.70
   9   1   1  501.05   38.90
   9   1   1  525.15   36.60
   9   1   1  393.66   43.00
 -10  -1  -1  145.49   25.90
 -10  -1  -1   83.59   23.70
  10   1   1   79.29   31.40
  10   1   1   70.39   25.20
 -11  -1  -1  130.09   32.70
 -11  -1  -1   54.09   27.20
  11   1   1   70.09   34.80
  11   1   1  115.09   31.00
  11  -2  -1  269.17   44.20
  11  -2  -1  212.58   30.50
  11  -2  -1  213.78   32.30
 -11   2   1  287.07   36.90
 -11   2   1  289.47   48.90
 -11   2   1  229.48   32.40
  10  -2  -1  422.66   47.70
  10  -2  -1  423.06   37.00
  10  -2  -1  351.56   36.50
 -10   2   1  456.35   44.50
 -10   2   1  431.56   41.10
 -10   2   1  316.57   37.30
   9  -2  -1  385.46   32.70
   9  -2  -1  364.26   37.20
  -9   2   1  419.76   35.00
  -9   2   1  388.86   35.80
   8  -2  -1  100.79   20.20
   8  -2  -1  138.49   17.50
   8  -2  -1  121.59   16.80
  -8   2   1   94.79   16.20
  -8   2   1  144.79   22.70
  -8   2   1  148.99   19.00
   7  -2  -1  -10.90   10.60
   7  -2  -1   -1.50   10.20
   7  -2  -1   -5.60   12.50
  -7   2   1   -6.80   10.80
  -7   2   1   -1.80   12.30
  -7   2   1    4.70   11.20
   6  -2  -1   60.39   10.70
   6  -2  -1   57.09    9.10
   6  -2  -1   49.60    9.80
  -6   2   1   51.69    9.60
  -6   2   1   64.49    9.50
  -6   2   1   43.40   10.20
   5  -2  -1 2327.67  107.09
   5  -2  -1 2129.39  106.49
   5  -2  -1 1953.20  106.49
   5  -2  -1 2229.08  108.49
  -5   2   1 2278.27  107.09
  -5   2   1 2262.87  106.19
  -5   2   1 2085.39  106.89
   4  -2  -1 4483.25  214.28
   4  -2  -1 4506.05  213.98
   4  -2  -1 4687.83  214.18
   4  -2  -1 4362.86  213.58
  -4   2   1 5003.50  214.78
  -4   2   1 4557.14  215.68
  -4   2   1 4257.17  213.68
  -4   2   1 4005.80  214.18
  -4   2   1 4666.43  214.78
  -4   2   1 4122.09  213.88
   3  -2  -1  934.51   47.00
   3  -2  -1 1023.90   47.30
   3  -2  -1  987.20   47.40
   3  -2  -1  916.31   47.30
   3  -2  -1  953.90   47.40
  -3   2   1  941.21   47.20
  -3   2   1  951.10   47.30
  -3   2   1  912.01   47.20
  -3   2   1  962.80   47.70
  -3   2   1 1091.09   47.20
  -3   2   1  886.01   46.90
   2  -2  -1  542.25   25.80
   2  -2  -1  529.45   26.30
   2  -2  -1  481.75   25.60
   2  -2  -1  514.15   26.00
   2  -2  -1  502.45   25.60
   2  -2  -1  524.55   26.10
  -2   2   1  507.85   25.90
  -2   2   1  515.55   25.90
  -2   2   1  531.95   25.80
  -2   2   1  522.95   25.90
  -2   2   1  513.85   26.20
  -2   2   1  531.45   25.70
   1  -2  -1   18.80    2.40
   1  -2  -1   22.80    2.50
   1  -2  -1   21.30    2.40
   1  -2  -1   18.30    3.10
  -1   2   1   18.90    4.80
  -1   2   1   20.70    3.20
  -1   2   1   21.30    2.90
  -1   2   1   21.00    2.60
  -1   2   1   24.90    2.40
   0  -2  -1    9.70    1.80
   0  -2  -1    8.70    2.30
   0  -2  -1   11.00    2.40
   0  -2  -1    8.20    1.70
   0  -2  -1    7.20    1.80
   0  -2  -1    4.40    1.80
   0   2   1   10.70    2.10
   0   2   1   11.90    2.50
   0   2   1    6.40    2.10
   0   2   1    6.70    1.70
  -1  -2  -1 1619.04   69.69
  -1  -2  -1 1415.46   69.09
  -1  -2  -1 1408.26   68.99
  -1  -2  -1 1298.37   68.69
  -1  -2  -1 1504.95   69.69
   1   2   1 1434.86   69.09
   1   2   1 1416.76   69.49
   1   2   1 1455.35   69.59
   1   2   1 1312.67   69.09
  -2  -2  -1 1786.92   85.69
  -2  -2  -1 1981.80   87.09
  -2  -2  -1 1515.45   85.29
  -2  -2  -1 1714.33   85.69
  -2  -2  -1 1773.72   86.39
  -2  -2  -1 1765.12   86.19
   2   2   1 1904.61   85.99
   2   2   1 1562.94   86.29
   2   2   1 1991.00   87.79
   2   2   1 1756.12   85.19
   2   2   1 1824.22   85.79
   2   2   1 1723.13   86.49
  -3  -2  -1 1749.62   83.49
  -3  -2  -1 1611.64   83.49
  -3  -2  -1 1871.81   84.19
  -3  -2  -1 1677.23   83.89
  -3  -2  -1 1784.92   84.39
  -3  -2  -1 1595.64   85.39
  -3  -2  -1 1603.74   83.29
  -3  -2  -1 1596.84   84.49
   3   2   1 1817.02   84.39
   3   2   1 1708.43   83.89
   3   2   1 1854.91   85.09
   3   2   1 1751.52   83.39
   3   2   1 1828.62   83.89
  -4  -2  -1  960.10   49.80
  -4  -2  -1  934.01   50.79
  -4  -2  -1 1011.50   50.39
  -4  -2  -1  978.60   49.70
  -4  -2  -1 1022.70   50.29
  -4  -2  -1 1025.60   50.99
  -4  -2  -1  997.70   49.40
   4   2   1 1063.29   54.39
   4   2   1 1050.59   49.50
   4   2   1  923.81   53.69
  -5  -2  -1   42.70   10.20
  -5  -2  -1   52.09   10.50
  -5  -2  -1   30.70    7.10
  -5  -2  -1   36.30    8.20
  -5  -2  -1   49.60    9.30
   5   2   1   54.49   12.10
   5   2   1   39.00    8.70
   5   2   1   37.90    7.20
   5   2   1   56.49   12.20
  -6  -2  -1  154.78   18.70
  -6  -2  -1  164.58   19.50
  -6  -2  -1  124.09   18.60
   6   2   1  152.38   21.20
   6   2   1  152.08   15.50
   6   2   1  168.68   21.30
   6   2   1  158.18   17.00
   6   2   1  132.39   21.00
  -7  -2  -1  369.76   28.10
  -7  -2  -1  335.87   26.90
   7   2   1  284.67   29.50
   7   2   1  348.27   25.70
   7   2   1  349.77   29.70
   7   2   1  400.26   26.00
  -8  -2  -1  279.57   30.40
  -8  -2  -1  258.67   25.30
   8   2   1  312.97   31.80
   8   2   1  229.68   38.00
   8   2   1  240.48   26.90
  -9  -2  -1  389.36   32.50
  -9  -2  -1  338.47   38.30
   9   2   1  403.16   35.50
   9   2   1  381.16   39.70
   9   2   1  340.07   41.80
 -10  -2  -1  143.99   25.10
 -10  -2  -1   75.79   27.70
  10   2   1  128.79   26.90
  10   2   1   46.40   31.60
  11  -3  -1  312.97   46.30
  11  -3  -1  258.27   35.20
 -11   3   1  304.87   45.00
 -11   3   1  371.86   46.10
 -11   3   1  258.07   36.10
  10  -3  -1  722.73   47.60
  10  -3  -1  612.54   46.10
  10  -3  -1  542.45   49.60
 -10   3   1  659.83   47.40
 -10   3   1  601.54   47.50
 -10   3   1  624.54   60.79
   9  -3  -1  312.77   30.70
   9  -3  -1  268.37   38.30
   9  -3  -1  338.57   31.20
  -9   3   1  362.46   32.70
  -9   3   1  321.47   41.70
  -9   3   1  379.56   34.80
   8  -3  -1  129.19   20.00
   8  -3  -1   80.59   16.20
   8  -3  -1  142.49   17.40
  -8   3   1  131.69   17.90
  -8   3   1  131.49   19.60
  -8   3   1   71.59   17.10
   7  -3  -1   15.70   12.60
   7  -3  -1    9.40   11.70
   7  -3  -1    0.80   11.00
  -7   3   1    8.90   13.20
  -7   3   1    9.10   11.30
  -7   3   1   22.40   12.10
   6  -3  -1  186.08   16.00
   6  -3  -1  178.28   16.70
   6  -3  -1  174.98   16.70
  -6   3   1  218.18   16.70
  -6   3   1  193.78   15.50
  -6   3   1  147.79   18.10
   5  -3  -1  553.74   30.40
   5  -3  -1  542.55   30.70
   5  -3  -1  580.44   30.00
   5  -3  -1  551.84   30.50
  -5   3   1  561.84   29.60
  -5   3   1  543.45   31.80
  -5   3   1  578.94   30.80
  -5   3   1  568.74   30.70
   4  -3  -1 3222.78  154.58
   4  -3  -1 3352.56  154.38
   4  -3  -1 3309.97  154.78
   4  -3  -1 3145.09  153.78
   4  -3  -1 3049.29  153.78
   4  -3  -1 3217.28  153.98
  -4   3   1 3329.47  155.38
  -4   3   1 3211.98  154.98
  -4   3   1 3392.76  154.08
  -4   3   1 3137.39  153.98
  -4   3   1 2899.41  155.08
   3  -3  -1 1247.08   64.69
   3  -3  -1 1314.87   64.89
   3  -3  -1 1341.47   65.19
   3  -3  -1 1412.56   65.09
   3  -3  -1 1288.17   64.89
   3  -3  -1 1326.17   65.39
  -3   3   1 1318.07   65.39
  -3   3   1 1401.46   66.09
  -3   3   1 1301.07   65.19
  -3   3   1 1344.67   65.09
  -3   3   1 1395.76   65.19
   2  -3  -1   31.60    4.60
   2  -3  -1   32.30    4.30
   2  -3  -1   32.60    4.90
   2  -3  -1   32.00    4.20
   2  -3  -1   35.80    4.30
   2  -3  -1   32.70    4.00
   2  -3  -1   34.10    4.50
  -2   3   1   35.10    4.10
  -2   3   1   31.70    5.40
  -2   3   1   30.80    4.00
  -2   3   1   31.00    4.50
  -2   3   1   36.60    4.60
  -2   3   1   34.80    4.40
   1  -3  -1   17.70    2.70
   1  -3  -1   27.10    3.50
   1  -3  -1   18.90    3.00
   1  -3  -1   25.10    4.10
   1  -3  -1   21.40    3.10
   1  -3  -1   21.50    3.00
  -1   3   1   20.40    2.90
  -1   3   1   26.60    3.80
  -1   3   1   22.40    3.20
  -1   3   1   22.60    3.70
  -1   3   1   22.50    3.30
   0  -3  -1  306.77   16.80
   0  -3  -1  321.07   17.10
   0  -3  -1  316.07   16.40
   0  -3  -1  282.47   18.00
   0  -3  -1  332.17   16.80
   0  -3  -1  332.77   16.80
   0   3   1  337.57   17.40
   0   3   1  330.87   16.80
   0   3   1  320.37   16.70
   0   3   1  324.77   16.80
   0   3   1  309.17   17.00
  -1  -3  -1  390.96   21.40
  -1  -3  -1  432.06   21.40
  -1  -3  -1  399.06   21.60
  -1  -3  -1  443.76   22.00
  -1  -3  -1  394.46   21.60
  -1  -3  -1  422.96   22.30
   1   3   1  432.16   21.50
   1   3   1  438.76   21.80
   1   3   1  391.96   21.70
   1   3   1  412.96   21.40
   1   3   1  468.55   22.40
   1   3   1  407.96   22.30
  -2  -3  -1 3863.71  193.28
  -2  -3  -1 3973.20  193.28
  -2  -3  -1 3813.02  195.18
  -2  -3  -1 4393.36  194.58
  -2  -3  -1 3708.03  193.08
   2   3   1 4471.75  195.08
   2   3   1 4213.58  193.58
   2   3   1 4058.49  193.28
   2   3   1 3979.40  193.78
   2   3   1 3832.42  193.38
   2   3   1 4119.89  194.28
  -3  -3  -1 2532.55  120.99
  -3  -3  -1 2449.05  121.29
  -3  -3  -1 2271.97  122.59
  -3  -3  -1 2513.35  121.89
   3   3   1 2633.64  121.09
   3   3   1 2633.54  124.19
   3   3   1 2557.54  121.89
   3   3   1 2526.05  121.49
   3   3   1 2536.15  121.29
   3   3   1 2554.74  122.79
   3   3   1 2471.55  121.09
  -4  -3  -1  696.93   35.70
  -4  -3  -1  704.93   36.70
  -4  -3  -1  705.93   36.80
   4   3   1  745.73   36.40
   4   3   1  730.43   40.60
   4   3   1  684.83   35.80
   4   3   1  602.24   36.80
  -5  -3  -1    9.80    9.00
  -5  -3  -1    3.20    9.30
  -5  -3  -1    1.70    9.00
   5   3   1   -0.50    9.00
   5   3   1    2.10    7.60
   5   3   1    7.70   11.20
   5   3   1   -5.50   11.90
  -6  -3  -1   26.50   14.30
  -6  -3  -1   29.40   14.10
  -6  -3  -1   58.29   11.00
   6   3   1   42.70   16.70
   6   3   1   45.40   14.80
   6   3   1   53.39   11.90
  -7  -3  -1  185.48   22.60
  -7  -3  -1  151.78   22.50
  -7  -3  -1  161.88   22.30
   7   3   1  185.48   28.90
   7   3   1  192.88   21.90
   7   3   1  193.88   23.80
   7   3   1  171.88   26.70
  -8  -3  -1  351.36   34.50
  -8  -3  -1  356.36   30.80
   8   3   1  361.76   30.50
   8   3   1  292.47   36.30
   8   3   1  428.06   32.50
   8   3   1  360.86   40.20
  -9  -3  -1  421.76   38.70
  -9  -3  -1  357.06   34.00
   9   3   1  352.66   41.80
   9   3   1  410.76   57.99
   9   3   1  418.06   59.69
 -10  -3  -1   86.09   27.10
 -10  -3  -1   94.19   29.90
  10   3   1  126.79   27.00
  10   3   1  113.69   33.00
  11  -4  -1  387.46   49.60
  11  -4  -1  315.07   49.40
  11  -4  -1  390.56   41.50
 -11   4   1  362.66   49.20
 -11   4   1  304.67   45.50
  10  -4  -1  571.94   43.60
  10  -4  -1  483.15   46.00
  10  -4  -1  510.95   45.10
 -10   4   1  564.04   48.30
 -10   4   1  422.36   44.10
 -10   4   1  438.56   46.20
   9  -4  -1  158.28   23.50
   9  -4  -1  159.28   22.60
   9  -4  -1  199.48   30.90
  -9   4   1  270.27   33.70
  -9   4   1  215.68   29.50
  -9   4   1  156.08   24.90
   8  -4  -1   69.99   16.90
   8  -4  -1   49.90   16.60
   8  -4  -1   82.99   17.30
  -8   4   1   83.19   15.70
  -8   4   1   76.49   19.70
  -8   4   1   61.89   17.50
   7  -4  -1   63.69   12.40
   7  -4  -1   62.19   13.10
   7  -4  -1   60.29   12.90
   7  -4  -1   60.99   11.00
  -7   4   1   59.39   11.80
  -7   4   1   50.79   13.10
  -7   4   1   28.00   15.00
   6  -4  -1 1086.49   54.39
   6  -4  -1 1098.39   55.49
   6  -4  -1 1116.79   55.99
   6  -4  -1 1108.29   55.99
  -6   4   1 1108.09   54.79
  -6   4   1 1058.99   54.69
  -6   4   1 1005.00   55.39
  -6   4   1  988.40   57.09
  -6   4   1 1121.79   55.99
   5  -4  -1 1419.56   72.79
   5  -4  -1 1389.06   72.09
   5  -4  -1 1498.75   73.09
   5  -4  -1 1405.86   71.79
   5  -4  -1 1471.15   72.99
  -5   4   1 1484.15   72.19
  -5   4   1 1545.15   72.49
  -5   4   1 1472.05   74.39
  -5   4   1 1448.46   72.89
  -5   4   1 1515.25   72.39
   4  -4  -1 1597.94   81.79
   4  -4  -1 1639.44   82.29
   4  -4  -1 1707.13   82.69
   4  -4  -1 1646.24   81.99
   4  -4  -1 1635.24   81.69
  -4   4   1 1820.22   82.59
  -4   4   1 1745.53   84.19
  -4   4   1 1669.53   82.29
   3  -4  -1 2035.50   99.79
   3  -4  -1 1984.10   99.09
   3  -4  -1 2191.68   99.29
   3  -4  -1 2005.90   98.99
   3  -4  -1 1983.50   99.39
  -3   4   1 2095.99  100.49
  -3   4   1 2018.60   98.99
  -3   4   1 2168.28   99.89
  -3   4   1 1976.80   99.09
  -3   4   1 2061.29   99.39
   2  -4  -1  340.07   19.70
   2  -4  -1  346.67   19.00
   2  -4  -1  370.76   18.50
   2  -4  -1  323.37   19.20
   2  -4  -1  340.27   18.60
   2  -4  -1  334.37   18.50
  -2   4   1  375.26   19.50
  -2   4   1  355.56   18.40
  -2   4   1  360.36   18.70
  -2   4   1  371.56   18.70
  -2   4   1  354.26   19.20
   1  -4  -1   34.50    5.10
   1  -4  -1   31.90    4.70
   1  -4  -1   32.40    4.00
   1  -4  -1   39.60    5.70
   1  -4  -1   40.60    4.70
  -1   4   1   30.00    4.10
  -1   4   1   35.50    4.30
  -1   4   1   35.60    5.30
  -1   4   1   35.60    5.20
  -1   4   1   41.50    5.70
  -1   4   1   34.30    5.10
   0  -4  -1 1294.57   66.59
   0  -4  -1 1377.66   66.19
   0  -4  -1 1397.56   66.29
   0  -4  -1 1399.36   66.39
   0  -4  -1 1357.76   66.29
   0  -4  -1 1265.27   65.49
   0   4   1 1356.86   66.39
   0   4   1 1314.47   66.49
   0   4   1 1423.36   66.29
   0   4   1 1380.86   65.59
  -1  -4  -1 1080.09   52.29
  -1  -4  -1 1051.79   52.69
  -1  -4  -1 1092.99   52.09
  -1  -4  -1 1065.89   52.49
  -1  -4  -1 1045.20   52.39
  -1  -4  -1 1063.79   52.59
  -1  -4  -1 1054.49   51.69
   1   4   1 1010.40   51.59
   1   4   1 1067.09   52.09
   1   4   1  999.20   52.49
   1   4   1 1047.90   53.39
   1   4   1 1161.78   53.29
   1   4   1 1084.79   53.49
  -2  -4  -1 2709.23  137.49
  -2  -4  -1 2883.41  136.59
  -2  -4  -1 2588.44  137.39
  -2  -4  -1 2795.92  136.59
   2   4   1 2911.51  136.99
   2   4   1 2706.13  135.99
   2   4   1 2962.50  136.79
   2   4   1 2817.82  136.79
   2   4   1 2894.41  137.79
   2   4   1 3066.29  138.39
   2   4   1 2883.61  136.09
  -3  -4  -1  997.80   52.09
  -3  -4  -1 1013.70   52.39
  -3  -4  -1 1042.40   51.89
   3   4   1 1104.79   52.99
   3   4   1 1062.09   53.39
   3   4   1 1042.80   51.19
   3   4   1 1049.30   54.49
   3   4   1 1009.10   51.29
  -4  -4  -1   16.30    6.40
  -4  -4  -1   39.70    7.60
  -4  -4  -1   14.50    7.40
   4   4   1   16.30    9.30
   4   4   1   25.70   11.10
   4   4   1   16.60    6.60
   4   4   1   34.30    7.10
  -5  -4  -1   24.60    9.00
  -5  -4  -1   19.90   10.60
  -5  -4  -1   31.10   10.60
   5   4   1   32.60   10.30
   5   4   1   22.80   14.60
   5   4   1   34.90   12.90
  -6  -4  -1   74.69   12.90
  -6  -4  -1   43.60   15.50
  -6  -4  -1   76.99   15.80
   6   4   1   86.09   18.30
   6   4   1   68.89   14.40
   6   4   1   35.40   17.80
  -7  -4  -1  487.15   32.40
  -7  -4  -1  398.96   36.60
  -7  -4  -1  363.36   32.40
   7   4   1  403.96   39.10
   7   4   1  407.56   38.40
   7   4   1  440.56   32.00
  -8  -4  -1  542.85   40.30
  -8  -4  -1  596.04   43.60
  -8  -4  -1  423.26   38.10
   8   4   1  663.43   57.49
   8   4   1  558.84   47.10
   8   4   1  544.05   38.00
   8   4   1  440.16   43.10
  -9  -4  -1  265.97   34.20
  -9  -4  -1  369.06   41.60
   9   4   1  321.07   40.80
   9   4   1  269.37   43.40
   9   4   1  424.16   47.60
 -10  -4  -1   57.19   33.60
 -10  -4  -1   88.79   26.70
  10   4   1   85.59   33.20
  10   4   1   91.49   28.00
  11  -5  -1  173.88   33.30
  11  -5  -1  132.29   30.40
  11  -5  -1  154.68   51.69
 -11   5   1  177.38   37.40
 -11   5   1  116.29   32.70
  10  -5  -1  264.07   34.30
  10  -5  -1  209.28   30.70
  10  -5  -1  234.08   44.80
 -10   5   1  251.37   31.80
 -10   5   1  284.07   35.80
   9  -5  -1  226.98   31.50
   9  -5  -1  205.48   29.10
   9  -5  -1  198.68   25.60
  -9   5   1  204.58   31.30
  -9   5   1  200.78   30.60
   8  -5  -1   13.80   16.70
   8  -5  -1   10.20   15.90
   8  -5  -1    3.10   16.70
  -8   5   1   18.70   20.00
  -8   5   1   20.40   17.10
   7  -5  -1  182.58   21.70
   7  -5  -1  216.48   21.10
   7  -5  -1  202.68   20.80
  -7   5   1  245.28   21.40
  -7   5   1  179.78   20.40
  -7   5   1  163.58   25.20
   6  -5  -1  582.44   33.90
   6  -5  -1  606.34   34.40
   6  -5  -1  601.64   32.10
   6  -5  -1  605.44   33.20
  -6   5   1  597.94   33.80
  -6   5   1  552.54   36.40
  -6   5   1  600.94   34.20
   5  -5  -1 1556.74   75.99
   5  -5  -1 1506.25   75.29
   5  -5  -1 1467.45   74.39
   5  -5  -1 1388.86   74.89
  -5   5   1 1539.25   75.39
  -5   5   1 1534.15   77.29
  -5   5   1 1610.94   75.79
   4  -5  -1 1143.49   58.29
   4  -5  -1 1176.38   58.99
   4  -5  -1 1074.39   57.99
   4  -5  -1 1177.78   57.89
  -4   5   1 1179.08   60.09
  -4   5   1 1244.98   59.19
  -4   5   1 1202.48   58.39
   3  -5  -1 1364.86   70.79
   3  -5  -1 1387.66   70.19
   3  -5  -1 1477.85   72.59
   3  -5  -1 1421.86   69.99
   3  -5  -1 1406.16   73.49
  -3   5   1 1429.86   71.59
  -3   5   1 1501.65   71.19
  -3   5   1 1469.75   70.39
   2  -5  -1   14.90    4.50
   2  -5  -1   12.90    4.90
   2  -5  -1   16.10    4.70
   2  -5  -1   15.90    3.90
  -2   5   1   11.50    5.20
  -2   5   1   18.30    5.30
  -2   5   1   12.20    5.20
  -2   5   1   14.70    4.80
   1  -5  -1  116.99    9.40
   1  -5  -1  124.59    8.40
   1  -5  -1  112.19    9.40
   1  -5  -1  115.79   10.10
  -1   5   1  102.19    9.10
  -1   5   1  106.19    8.90
  -1   5   1  108.19   10.60
  -1   5   1  117.29    8.00
  -1   5   1  111.39   10.50
  -1   5   1  116.29    8.40
   0  -5  -1 1312.07   62.99
   0  -5  -1 1302.67   62.69
   0  -5  -1 1242.98   62.79
   0  -5  -1 1334.47   62.79
   0  -5  -1 1222.58   61.89
   0   5   1 1301.27   63.69
   0   5   1 1326.47   62.89
   0   5   1 1234.68   61.89
   0   5   1 1177.08   64.99
  -1  -5  -1 1454.85   71.49
  -1  -5  -1 1385.36   71.49
  -1  -5  -1 1422.96   71.49
  -1  -5  -1 1519.75   70.59
   1   5   1 1403.46   70.49
   1   5   1 1531.35   72.19
   1   5   1 1431.86   71.59
   1   5   1 1477.25   72.49
  -2  -5  -1 1050.49   53.59
  -2  -5  -1 1122.39   53.39
  -2  -5  -1 1075.99   54.19
  -2  -5  -1 1038.10   54.39
  -2  -5  -1 1067.19   53.99
   2   5   1 1100.89   52.99
   2   5   1 1086.79   53.99
   2   5   1 1089.59   54.79
   2   5   1 1110.89   55.39
   2   5   1 1103.59   55.29
   2   5   1 1009.40   52.89
  -3  -5  -1 1135.79   58.09
  -3  -5  -1 1200.78   57.39
  -3  -5  -1 1213.78   58.39
   3   5   1  994.20   57.19
   3   5   1 1131.79   59.89
   3   5   1 1160.58   59.29
   3   5   1 1202.38   56.79
  -4  -5  -1  121.79   13.40
  -4  -5  -1  100.99   14.10
  -4  -5  -1  108.09   13.10
   4   5   1  112.79   16.70
   4   5   1  112.99   15.80
   4   5   1  109.29   13.80
  -5  -5  -1   23.60   12.20
  -5  -5  -1   41.60   11.30
  -5  -5  -1   39.70   12.20
   5   5   1   45.70   11.10
   5   5   1   50.39   14.50
   5   5   1   33.50   16.80
  -6  -5  -1  183.28   25.80
  -6  -5  -1  201.28   22.20
  -6  -5  -1  188.48   24.40
   6   5   1  165.88   23.40
   6   5   1  168.28   26.20
   6   5   1  185.68   28.80
  -7  -5  -1  228.78   27.70
  -7  -5  -1  161.48   23.30
  -7  -5  -1  163.48   28.00
   7   5   1  181.88   22.40
   7   5   1  234.38   37.00
   7   5   1  191.48   27.20
  -8  -5  -1  541.35   46.10
  -8  -5  -1  428.16   38.90
   8   5   1  406.06   46.30
   8   5   1  565.34   51.29
   8   5   1  498.85   38.90
  -9  -5  -1  341.57   45.40
  -9  -5  -1  226.08   34.50
   9   5   1  216.38   28.40
   9   5   1  292.47   45.70
   9   5   1  365.76   65.79
  11  -6  -1  204.68   34.00
  11  -6  -1  147.89   35.30
 -11   6   1  126.99   36.10
 -11   6   1  258.97   40.40
  10  -6  -1  165.58   44.00
  10  -6  -1  235.68   31.20
  10  -6  -1  180.08   31.70
 -10   6   1  282.77   47.30
 -10   6   1  161.78   30.40
   9  -6  -1  195.28   32.20
   9  -6  -1  243.28   34.80
  -9   6   1  195.58   26.80
  -9   6   1  167.28   31.00
   8  -6  -1    1.30   15.50
   8  -6  -1   18.60   17.90
   8  -6  -1  -11.60   18.20
  -8   6   1  -20.10   22.50
  -8   6   1    8.30   18.10
   7  -6  -1   34.00   14.00
   7  -6  -1   34.70   15.20
  -7   6   1   39.40   22.40
  -7   6   1   25.50   14.00
  -7   6   1   29.90   14.20
   6  -6  -1  227.78   20.80
   6  -6  -1  216.88   19.40
  -6   6   1  206.98   18.70
  -6   6   1  211.68   20.40
  -6   6   1  202.78   24.10
   5  -6  -1  971.80   49.10
   5  -6  -1  971.20   50.89
   5  -6  -1  939.61   50.09
  -5   6   1  992.60   51.29
  -5   6   1  993.80   52.69
  -5   6   1  943.71   49.99
   4  -6  -1  510.85   28.00
   4  -6  -1  500.05   28.90
   4  -6  -1  510.55   29.50
  -4   6   1  537.75   30.90
  -4   6   1  555.94   30.20
  -4   6   1  521.65   28.90
   3  -6  -1  231.78   14.70
   3  -6  -1  223.38   16.10
   3  -6  -1  225.48   15.60
   3  -6  -1  228.38   14.90
  -3   6   1  243.08   16.80
  -3   6   1  230.78   17.50
  -3   6   1  239.58   17.30
   2  -6  -1   -1.40    5.10
   2  -6  -1    0.20    5.30
   2  -6  -1    1.00    5.00
  -2   6   1    1.90    6.50
  -2   6   1    5.50    6.10
  -2   6   1    5.10    4.30
  -2   6   1    2.40    5.20
   1  -6  -1  281.47   17.20
   1  -6  -1  244.28   18.70
   1  -6  -1  277.57   16.50
  -1   6   1  277.07   22.50
  -1   6   1  286.27   16.20
  -1   6   1  249.38   15.60
  -1   6   1  262.47   18.40
  -1   6   1  274.07   17.70
   0  -6  -1  815.72   41.90
   0  -6  -1  820.72   41.20
   0  -6  -1  804.12   42.20
   0   6   1  821.22   43.30
   0   6   1  825.82   42.70
   0   6   1  844.22   42.30
  -1  -6  -1 2323.97  109.49
  -1  -6  -1 2213.68  110.29
  -1  -6  -1 2293.57  110.59
   1   6   1 2230.88  111.49
   1   6   1 2218.28  110.59
   1   6   1 2297.97  110.99
  -2  -6  -1  349.67   21.70
  -2  -6  -1  380.76   21.90
   2   6   1  376.66   22.20
   2   6   1  312.77   19.80
   2   6   1  355.36   23.10
   2   6   1  373.66   23.30
  -3  -6  -1  539.15   29.80
  -3  -6  -1  571.34   31.00
  -3  -6  -1  522.75   31.00
   3   6   1  546.75   32.60
   3   6   1  527.15   33.10
   3   6   1  553.44   29.40
  -4  -6  -1  146.69   17.20
  -4  -6  -1  123.59   16.90
  -4  -6  -1  106.59   15.30
   4   6   1  115.19   18.70
   4   6   1  157.58   14.90
   4   6   1  165.48   20.00
  -5  -6  -1   52.39   14.90
  -5  -6  -1   62.19   13.40
  -5  -6  -1   39.80   14.20
   5   6   1   55.69   17.60
   5   6   1   19.70   18.10
   5   6   1   37.30   12.20
  -6  -6  -1  330.57   27.80
  -6  -6  -1  278.47   31.40
  -6  -6  -1  237.88   28.80
   6   6   1  318.97   34.80
   6   6   1  274.57   28.10
   6   6   1  241.78   35.00
  -7  -6  -1  417.66   43.80
  -7  -6  -1  359.06   35.80
  -7  -6  -1  503.25   37.20
   7   6   1  393.36   51.09
   7   6   1  352.26   43.30
   7   6   1  394.36   37.30
  -8  -6  -1  292.77   39.30
  -8  -6  -1  192.48   28.00
  -8  -6  -1  209.18   36.60
   8   6   1  259.67   34.50
   8   6   1  276.37   49.70
   8   6   1  208.78   36.10
  -9  -6  -1   76.59   36.10
  -9  -6  -1  115.99   28.20
   9   6   1  109.79   35.40
  10  -7  -1  136.29   31.30
  10  -7  -1   90.19   31.00
 -10   7   1   85.79   36.70
 -10   7   1  174.38   31.50
   9  -7  -1  146.79   27.80
  -9   7   1  123.39   33.10
  -9   7   1  209.58   31.50
   8  -7  -1   13.60   19.30
   8  -7  -1  -13.80   30.70
  -8   7   1    5.30   24.00
  -8   7   1   -8.90   19.10
  -8   7   1   12.50   19.10
   7  -7  -1  472.65   33.40
   7  -7  -1  461.45   32.20
  -7   7   1  444.76   38.30
  -7   7   1  429.46   31.40
  -7   7   1  338.07   32.40
   6  -7  -1  607.04   36.60
   6  -7  -1  592.54   37.10
  -6   7   1  644.84   40.30
  -6   7   1  600.84   35.90
  -6   7   1  573.94   37.70
   5  -7  -1  435.06   28.60
   5  -7  -1  449.76   28.10
   5  -7  -1  460.45   26.50
  -5   7   1  490.35   31.70
  -5   7   1  440.06   29.20
  -5   7   1  457.25   29.90
   4  -7  -1  682.93   36.90
   4  -7  -1  657.53   37.60
   4  -7  -1  682.73   36.00
  -4   7   1  692.03   38.70
  -4   7   1  686.13   39.00
   3  -7  -1  287.27   20.50
   3  -7  -1  302.47   20.10
   3  -7  -1  349.96   21.50
  -3   7   1  326.27   21.60
  -3   7   1  315.57   22.20
   2  -7  -1   80.09   12.00
   2  -7  -1   79.99   10.50
   2  -7  -1   96.59   11.50
  -2   7   1   77.49   12.60
  -2   7   1   85.49   11.60
   1  -7  -1  600.14   33.20
   1  -7  -1  633.14   34.00
   1  -7  -1  609.44   32.80
  -1   7   1  635.34   33.30
  -1   7   1  628.24   35.30
  -1   7   1  635.64   34.80
   0  -7  -1  469.45   26.90
   0  -7  -1  475.95   25.90
   0  -7  -1  482.75   27.40
   0   7   1  473.65   28.30
   0   7   1  505.35   29.10
   0   7   1  484.05   27.40
  -1  -7  -1  535.45   30.10
  -1  -7  -1  521.65   29.80
  -1  -7  -1  516.65   28.40
   1   7   1  538.75   30.60
   1   7   1  536.45   30.90
   1   7   1  543.35   31.60
  -2  -7  -1  280.07   17.20
  -2  -7  -1  282.87   19.70
  -2  -7  -1  237.28   19.20
   2   7   1  245.48   21.50
   2   7   1  248.98   19.60
   2   7   1  275.67   17.70
   2   7   1  274.77   21.20
  -3  -7  -1   82.09   12.80
  -3  -7  -1   74.39   11.50
   3   7   1   74.69   14.50
   3   7   1   69.79   14.50
   3   7   1   83.69   14.60
  -4  -7  -1   -0.30   11.20
  -4  -7  -1   -1.50   12.60
  -4  -7  -1   18.10   12.60
   4   7   1    2.90   15.30
   4   7   1   12.60   15.60
   4   7   1    8.20    9.60
  -5  -7  -1   90.69   18.20
  -5  -7  -1  140.29   18.10
  -5  -7  -1  107.59   19.50
   5   7   1  129.29   15.70
   5   7   1  121.49   23.20
  -6  -7  -1  472.75   40.60
  -6  -7  -1  377.26   38.00
  -6  -7  -1  308.67   34.70
   6   7   1  378.26   33.60
   6   7   1  287.17   41.10
  -7  -7  -1  260.77   35.20
  -7  -7  -1  257.07   34.20
  -7  -7  -1  239.88   35.60
   7   7   1  226.68   35.60
   7   7   1  198.78   28.70
   7   7   1  314.97   46.20
  -8  -7  -1   78.89   35.80
  -8  -7  -1  101.39   26.20
   8   7   1  141.19   37.10
   8   7   1  194.18   45.90
  10  -8  -1   51.59   32.80
  10  -8  -1  104.39   33.70
 -10   8   1   41.20   33.00
 -10   8   1   67.79   38.20
   9  -8  -1   43.90   28.20
   9  -8  -1    1.70   26.90
  -9   8   1  -20.60   33.30
  -9   8   1   -4.70   24.90
   8  -8  -1   46.30   22.80
   8  -8  -1   35.10   22.10
  -8   8   1   49.10   21.70
  -8   8   1   24.50   27.80
   7  -8  -1  408.46   34.20
   7  -8  -1  400.56   32.60
  -7   8   1  317.37   33.70
  -7   8   1  371.26   30.10
  -7   8   1  320.77   38.90
   6  -8  -1  810.02   48.90
   6  -8  -1  772.22   48.70
  -6   8   1  815.72   45.00
  -6   8   1  834.02   50.79
  -6   8   1  736.23   47.60
   5  -8  -1  886.91   50.49
   5  -8  -1  861.71   47.70
   5  -8  -1  908.31   49.60
  -5   8   1  937.41   51.89
  -5   8   1  931.61   52.69
  -5   8   1  954.00   49.80
   4  -8  -1  534.35   31.20
   4  -8  -1  488.95   31.70
   4  -8  -1  530.95   30.00
  -4   8   1  546.45   33.60
  -4   8   1  513.95   34.10
   3  -8  -1   49.70    9.40
   3  -8  -1   56.09   10.30
   3  -8  -1   59.29   10.90
  -3   8   1   67.19   13.00
  -3   8   1   51.69   11.80
   2  -8  -1    9.80    7.70
   2  -8  -1   10.70    9.10
   2  -8  -1   10.40    8.10
  -2   8   1   24.90   10.10
  -2   8   1   13.70   10.60
  -2   8   1    6.80    7.10
   1  -8  -1  370.16   22.20
   1  -8  -1  357.66   22.90
   1  -8  -1  371.66   23.70
  -1   8   1  384.96   26.10
  -1   8   1  353.66   22.90
  -1   8   1  374.36   25.00
   0  -8  -1  718.33   39.60
   0  -8  -1  760.82   40.40
   0  -8  -1  755.92   38.50
   0   8   1  706.23   42.30
   0   8   1  737.93   41.90
   0   8   1  736.43   40.30
  -1  -8  -1  657.63   37.40
  -1  -8  -1  698.83   38.10
  -1  -8  -1  690.73   35.80
   1   8   1  676.73   39.70
   1   8   1  690.53   38.30
   1   8   1  625.84   38.30
  -2  -8  -1  449.06   24.80
  -2  -8  -1  406.56   26.90
  -2  -8  -1  449.26   27.60
   2   8   1  370.06   28.50
   2   8   1  403.16   27.00
   2   8   1  418.06   25.20
   2   8   1  374.36   29.50
  -3  -8  -1   50.39   13.70
  -3  -8  -1   74.69   14.10
   3   8   1   66.69   16.20
   3   8   1   71.79   10.90
   3   8   1   56.79   17.10
  -4  -8  -1    5.30   15.10
  -4  -8  -1    2.40   15.10
   4   8   1   22.40   15.40
   4   8   1   21.80   29.00
   4   8   1    9.50   18.80
  -5  -8  -1  258.17   31.10
  -5  -8  -1  187.48   24.40
   5   8   1  234.68   29.80
   5   8   1  207.78   30.00
   5   8   1  258.17   28.90
  -6  -8  -1  152.28   26.00
  -6  -8  -1  172.38   30.30
  -6  -8  -1  187.48   29.80
   6   8   1  217.18   34.60
   6   8   1  215.08   33.20
  -7  -8  -1  108.39   36.60
  -7  -8  -1  153.58   25.50
   7   8   1  150.08   39.70
   7   8   1  136.99   37.00
   9  -9  -1   37.40   29.70
   9  -9  -1   11.00   30.60
  -9   9   1    0.70   35.80
  -9   9   1   23.90   27.10
   8  -9  -1   29.30   25.90
   8  -9  -1    7.50   23.40
  -8   9   1  -49.90   30.40
  -8   9   1   26.40   22.20
   7  -9  -1  263.17   33.70
   7  -9  -1  264.47   31.60
  -7   9   1  206.78   29.10
  -7   9   1  207.48   31.70
  -7   9   1  314.17   31.60
   6  -9  -1  653.03   41.60
   6  -9  -1  607.34   45.30
  -6   9   1  641.84   45.90
  -6   9   1  627.14   45.30
   5  -9  -1  626.44   38.20
   5  -9  -1  592.04   35.60
   5  -9  -1  614.54   38.70
  -5   9   1  609.04   42.00
  -5   9   1  614.34   42.10
   4  -9  -1  377.26   28.40
   4  -9  -1  336.17   25.80
   4  -9  -1  308.17   23.50
  -4   9   1  342.77   29.70
  -4   9   1  310.17   28.80
   3  -9  -1    4.20   11.80
   3  -9  -1    4.70   10.60
   3  -9  -1   11.50    9.80
  -3   9   1    7.10   13.80
  -3   9   1    1.20   12.50
  -3   9   1   12.60    8.80
   2  -9  -1  266.97   21.80
   2  -9  -1  266.67   19.90
   2  -9  -1  274.27   20.60
  -2   9   1  218.68   24.50
  -2   9   1  281.27   23.70
  -2   9   1  262.67   19.70
   1  -9  -1  297.37   23.00
   1  -9  -1  288.77   21.30
   1  -9  -1  311.47   20.90
  -1   9   1  279.27   21.80
  -1   9   1  287.57   25.00
  -1   9   1  305.17   25.10
   0  -9  -1  850.41   48.60
   0  -9  -1  989.40   50.39
   0  -9  -1  935.41   48.50
   0   9   1  894.81   51.39
   0   9   1  831.12   49.30
   0   9   1  967.70   50.69
  -1  -9  -1  713.53   37.70
  -1  -9  -1  651.23   39.50
  -1  -9  -1  750.82   40.70
   1   9   1  759.52   41.20
   1   9   1  536.65   51.29
   1   9   1  675.13   41.10
  -2  -9  -1  508.55   28.50
  -2  -9  -1  482.15   34.70
   2   9   1  391.66   32.80
   2   9   1  474.75   29.80
   2   9   1  415.66   35.00
   2   9   1  481.95   31.30
  -3  -9  -1   15.40   14.70
  -3  -9  -1    3.20   20.30
   3   9   1   68.39   17.00
   3   9   1   47.40   20.50
   3   9   1   15.10   18.90
  -4  -9  -1   39.50   18.80
  -4  -9  -1   50.69   19.90
   4   9   1   38.60   23.60
   4   9   1   -2.40   22.10
  -5  -9  -1   87.29   21.60
  -5  -9  -1   56.09   25.50
   5   9   1  119.39   29.70
   5   9   1   63.39   30.40
  -6  -9  -1  354.36   48.30
  -6  -9  -1  267.07   36.50
   6   9   1  210.58   41.60
   6   9   1  274.47   39.10
   8 -10  -1   26.00   27.40
   8 -10  -1   62.59   26.30
  -8  10   1   25.00   33.10
  -8  10   1   54.09   29.20
   7 -10  -1  415.66   37.10
   7 -10  -1  303.57   40.10
  -7  10   1  381.06   50.89
  -7  10   1  298.57   42.50
   6 -10  -1  537.15   42.30
   6 -10  -1  561.14   39.90
  -6  10   1  579.14   47.70
  -6  10   1  547.65   46.70
   5 -10  -1  415.06   29.10
   5 -10  -1  463.55   32.70
   5 -10  -1  366.16   34.80
  -5  10   1  415.06   38.10
  -5  10   1  397.16   39.50
   4 -10  -1  102.39   16.50
   4 -10  -1   67.89   14.40
   4 -10  -1   73.19   16.80
  -4  10   1   75.99   20.90
  -4  10   1   94.89   19.30
   3 -10  -1   10.00   12.20
   3 -10  -1  -10.90   13.10
   3 -10  -1   -3.30   12.30
  -3  10   1    0.70   16.70
  -3  10   1    1.40   15.10
   2 -10  -1   67.89   14.50
   2 -10  -1   87.39   13.80
   2 -10  -1   90.79   13.40
  -2  10   1   96.19   17.80
  -2  10   1   99.19   17.40
  -2  10   1   67.49   13.40
   1 -10  -1  177.68   22.40
   1 -10  -1  186.28   18.80
   1 -10  -1  174.18   20.10
  -1  10   1  159.68   25.00
  -1  10   1  154.28   20.80
  -1  10   1  171.38   24.40
   0 -10  -1  511.75   34.30
   0 -10  -1  553.14   35.50
   0 -10  -1  545.55   32.10
   0  10   1  612.84   36.80
   0  10   1  451.95   34.70
   0  10   1  506.05   37.90
  -1 -10  -1  435.66   36.40
  -1 -10  -1  434.86   32.80
  -1 -10  -1  534.25   34.10
   1  10   1  383.56   35.90
   1  10   1  516.15   34.30
   1  10   1  486.25   31.20
   1  10   1  399.26   34.40
  -2 -10  -1  115.39   19.50
  -2 -10  -1  149.69   21.10
  -2 -10  -1  155.48   20.70
   2  10   1  145.49   17.70
   2  10   1  133.49   19.50
   2  10   1  137.99   23.90
  -3 -10  -1  -36.00   18.00
  -3 -10  -1  -11.50   18.30
   3  10   1    5.30   22.60
   3  10   1  -42.30   22.40
  -4 -10  -1   25.20   22.60
  -4 -10  -1   48.00   23.90
   4  10   1    5.70   27.00
   4  10   1   22.20   27.50
  -5 -10  -1  122.19   26.40
  -5 -10  -1  110.99   31.00
   5  10   1  132.49   35.70
   5  10   1   72.59   35.10
   7 -11  -1  366.96   40.60
   7 -11  -1  320.07   42.90
  -7  11   1  356.96   48.60
  -7  11   1  272.57   37.10
   6 -11  -1  612.34   43.50
   6 -11  -1  542.25   46.10
  -6  11   1  582.84   51.69
   5 -11  -1  375.56   33.50
   5 -11  -1  287.47   35.00
  -5  11   1  251.17   41.00
  -5  11   1  394.76   38.70
   4 -11  -1   50.49   16.80
   4 -11  -1   32.80   18.60
   4 -11  -1   18.50   14.90
  -4  11   1   56.39   20.40
  -4  11   1   23.80   24.00
   3 -11  -1  -13.60   15.50
   3 -11  -1   10.30   14.70
  -3  11   1   15.90   20.80
  -3  11   1    1.50   18.80
   2 -11  -1   86.09   18.30
   2 -11  -1   45.70   25.10
   2 -11  -1   55.59   15.80
  -2  11   1   69.39   19.00
  -2  11   1   45.80   16.30
  -2  11   1   72.79   21.40
   1 -11  -1  230.58   26.20
   1 -11  -1  291.37   25.20
   1 -11  -1  262.57   29.00
  -1  11   1  228.78   26.50
  -1  11   1  228.98   32.60
  -1  11   1  262.27   30.80
   0 -11  -1  494.65   37.80
   0 -11  -1  577.74   35.00
   0 -11  -1  578.14   38.80
   0  11   1  568.24   40.00
   0  11   1  431.46   38.20
   0  11   1  552.34   42.60
  -1 -11  -1  588.34   39.10
  -1 -11  -1  424.66   37.10
   1  11   1  445.06   42.40
   1  11   1  401.76   44.10
   1  11   1  553.44   39.90
  -2 -11  -1   82.29   21.40
  -2 -11  -1   79.99   21.50
   2  11   1   91.09   24.80
   2  11   1   44.50   23.50
  -3 -11  -1  -13.50   21.80
  -3 -11  -1  -41.20   23.40
   3  11   1   26.20   26.80
   3  11   1  -26.40   26.50
   4 -12  -1   27.30   19.70
   4 -12  -1    5.70   19.80
  -4  12   1   76.79   28.50
  -4  12   1   37.90   24.20
   3 -12  -1   89.69   19.10
   3 -12  -1   70.19   20.50
  -3  12   1   36.90   23.00
  -3  12   1   80.59   26.20
   2 -12  -1  236.18   27.80
   2 -12  -1  198.18   28.70
   2 -12  -1  301.07   32.20
  -2  12   1  230.08   35.60
  -2  12   1  208.48   29.80
   1 -12  -1  413.96   38.70
   1 -12  -1  358.56   34.60
  -1  12   1  415.26   40.30
  -1  12   1  308.77   40.10
   0 -12  -1  402.16   38.40
   0 -12  -1  514.25   39.50
   0  12   1  393.26   42.70
   0  12   1  422.26   47.90
  -1 -12  -1  341.87   36.70
  -1 -12  -1  248.78   36.50
   1  12   1  289.27   40.20
   1  12   1  270.57   39.10
   3  12  -2  185.18   28.30
   3  12  -2  244.98   35.00
   3  12  -2  155.38   30.40
  -3 -12   2  253.17   34.70
  -3 -12   2  246.28   29.80
  -3 -12   2  240.48   38.80
   2  12  -2  247.38   33.50
   2  12  -2  145.69   24.60
   2  12  -2  151.88   27.00
  -2 -12   2  129.99   33.30
  -2 -12   2  154.08   24.00
  -2 -12   2  201.58   29.20
   1  12  -2   26.80   21.30
   1  12  -2   60.99   19.60
  -1 -12   2    6.70   26.70
  -1 -12   2   36.90   16.50
  -1 -12   2   62.69   20.50
   0  12  -2   23.40   18.80
   0  12  -2   23.50   19.90
   0 -12   2   37.50   16.20
   0 -12   2   32.50   18.20
  -1  12  -2  151.48   21.10
  -1  12  -2  100.59   22.30
  -1  12  -2  100.09   19.60
   1 -12   2  131.69   19.70
   1 -12   2  112.19   20.50
  -2  12  -2  232.48   31.10
  -2  12  -2  227.88   28.10
  -2  12  -2  247.08   36.40
   2 -12   2  261.87   32.20
   2 -12   2  280.57   30.30
  -3  12  -2  358.16   37.60
  -3  12  -2  341.57   36.20
  -3  12  -2  335.37   31.70
   3 -12   2  391.16   34.10
   3 -12   2  318.47   35.70
  -4  12  -2  250.37   30.60
  -4  12  -2  279.97   35.80
  -4  12  -2  234.08   37.90
   4 -12   2  298.37   37.10
   4 -12   2  275.37   33.70
  -5  12  -2   69.29   29.20
  -5  12  -2   51.99   27.10
   5 -12   2   64.39   23.80
   5 -12   2  106.49   25.80
   5  11  -2  167.18   31.70
   5  11  -2   92.39   29.00
   5  11  -2   98.29   24.80
  -5 -11   2  123.79   29.60
  -5 -11   2  153.38   33.10
   4  11  -2  179.28   28.10
   4  11  -2  158.28   27.90
   4  11  -2  163.98   22.60
  -4 -11   2  240.58   36.20
  -4 -11   2  118.79   32.00
   3  11  -2  343.37   35.30
   3  11  -2  299.07   33.10
   3  11  -2  346.27   37.40
  -3 -11   2  319.27   45.90
  -3 -11   2  423.66   31.90
  -3 -11   2  362.76   36.90
   2  11  -2  298.47   30.90
   2  11  -2  262.07   33.00
   2  11  -2  246.48   30.20
  -2 -11   2  291.77   31.50
  -2 -11   2  276.97   38.10
  -2 -11   2  271.57   26.80
   1  11  -2   77.79   19.30
   1  11  -2   57.19   17.20
  -1 -11   2   72.29   22.60
  -1 -11   2   70.09   15.70
  -1 -11   2   75.79   18.10
   0  11  -2   20.40   14.70
   0  11  -2    5.80   14.10
   0  11  -2    6.90   16.30
   0 -11   2   55.79   20.20
   0 -11   2   16.00   14.80
   0 -11   2   31.10   13.90
  -1  11  -2  260.87   28.20
  -1  11  -2  254.97   26.30
  -1  11  -2  249.08   32.40
   1 -11   2  226.38   27.50
   1 -11   2  282.57   26.30
   1 -11   2  240.48   29.40
  -2  11  -2  363.76   32.40
  -2  11  -2  258.77   39.80
   2 -11   2  370.76   31.60
   2 -11   2  426.66   30.60
  -3  11  -2  399.86   34.60
  -3  11  -2  324.57   36.60
  -3  11  -2  427.76   35.50
   3 -11   2  426.46   34.10
   3 -11   2  393.36   32.70
  -4  11  -2  261.77   32.90
  -4  11  -2  268.27   34.20
   4 -11   2  270.37   30.60
   4 -11   2  222.78   32.00
  -5  11  -2  114.29   26.50
  -5  11  -2  100.99   26.80
  -5  11  -2  106.29   18.10
   5 -11   2  142.89   23.60
   5 -11   2  113.39   24.60
  -6  11  -2   39.80   28.10
  -6  11  -2   23.40   17.50
  -6  11  -2    7.30   29.60
   6 -11   2    6.80   26.70
   6 -11   2   23.30   22.80
   6  10  -2  110.39   25.00
   6  10  -2   70.19   28.70
   6  10  -2  130.99   31.60
  -6 -10   2   78.69   30.80
  -6 -10   2  126.59   28.70
   5  10  -2  171.78   28.50
   5  10  -2  231.88   31.80
   5  10  -2  288.47   37.20
  -5 -10   2  278.17   37.30
  -5 -10   2  249.97   33.20
   4  10  -2  392.16   37.10
   4  10  -2  352.26   35.70
   4  10  -2  399.16   32.90
  -4 -10   2  329.07   42.90
  -4 -10   2  478.65   37.20
   3  10  -2  458.35   35.70
   3  10  -2  448.36   37.10
   3  10  -2  465.35   33.30
  -3 -10   2  516.05   35.30
  -3 -10   2  492.15   37.50
  -3 -10   2  443.66   41.60
   2  10  -2  136.69   19.50
   2  10  -2  224.18   24.40
   2  10  -2  191.58   25.90
  -2 -10   2  183.78   23.80
  -2 -10   2  197.98   21.30
  -2 -10   2  189.08   24.00
   1  10  -2    0.40   11.90
   1  10  -2   -1.20   14.00
  -1 -10   2    2.00   12.40
  -1 -10   2    1.50   15.90
  -1 -10   2   -4.60   10.70
   0  10  -2  113.29   19.00
   0  10  -2  117.39   15.60
   0  10  -2  144.99   20.90
   0 -10   2  116.89   15.50
   0 -10   2  123.89   15.40
   0 -10   2  131.89   18.50
  -1  10  -2  443.96   29.20
  -1  10  -2  428.16   30.70
  -1  10  -2  414.56   29.20
   1 -10   2  397.86   29.60
   1 -10   2  445.06   30.30
   1 -10   2  440.76   30.30
  -2  10  -2  559.64   36.30
  -2  10  -2  573.74   35.10
  -2  10  -2  596.74   37.40
   2 -10   2  559.84   35.90
   2 -10   2  533.05   36.00
  -3  10  -2  697.33   41.90
  -3  10  -2  742.33   44.60
  -3  10  -2  698.03   44.40
   3 -10   2  696.13   43.40
   3 -10   2  749.82   43.40
  -4  10  -2  178.08   22.20
  -4  10  -2  209.08   29.40
  -4  10  -2  181.18   22.90
   4 -10   2  192.28   22.10
   4 -10   2  201.98   26.00
  -5  10  -2   57.19   23.20
  -5  10  -2   71.09   22.00
  -5  10  -2   27.70   15.20
   5 -10   2   43.00   19.10
   5 -10   2   43.40   18.40
   5 -10   2   19.10   18.70
  -6  10  -2   32.20   27.30
  -6  10  -2   24.80   20.20
  -6  10  -2   49.90   25.40
   6 -10   2   64.39   21.60
   6 -10   2   31.50   22.80
  -7  10  -2  274.37   31.20
  -7  10  -2  302.87   43.80
  -7  10  -2  237.98   37.60
   7 -10   2  247.78   37.90
   7 -10   2  263.97   32.00
   7 -10   2  335.67   40.50
  -8  10  -2  181.58   34.90
  -8  10  -2  273.47   40.70
   8 -10   2  270.67   34.20
   8 -10   2  226.28   32.60
   7   9  -2  -21.30   28.70
   7   9  -2   40.50   25.10
   7   9  -2   -2.30   29.70
  -7  -9   2   10.50   30.30
  -7  -9   2  -52.89   27.70
   6   9  -2   73.79   25.30
   6   9  -2   68.99   21.20
   6   9  -2   44.10   25.20
  -6  -9   2   52.59   26.80
  -6  -9   2   56.79   23.50
   5   9  -2  342.47   35.20
   5   9  -2  378.96   35.90
   5   9  -2  378.56   32.70
  -5  -9   2  420.96   36.10
  -5  -9   2  332.87   39.40
   4   9  -2  524.65   33.00
   4   9  -2  433.06   34.70
  -4  -9   2  539.75   36.90
  -4  -9   2  475.35   41.00
   3   9  -2  384.26   30.60
   3   9  -2  371.16   29.30
   3   9  -2  385.96   27.80
  -3  -9   2  398.76   34.30
  -3  -9   2  448.76   27.70
  -3  -9   2  377.66   40.60
   2   9  -2  285.77   24.90
   2   9  -2  283.57   24.00
   2   9  -2  270.67   23.90
  -2  -9   2  300.37   21.80
  -2  -9   2  272.17   27.50
  -2  -9   2  315.47   24.10
   1   9  -2   91.49   13.60
   1   9  -2   69.09   12.90
  -1  -9   2  101.29   15.70
  -1  -9   2   70.29   11.00
  -1  -9   2   77.59   12.90
   0   9  -2  118.79   14.60
   0   9  -2  108.89   15.30
   0   9  -2  115.89   16.00
   0  -9   2   99.69   13.60
   0  -9   2  105.09   15.50
   0  -9   2  128.19   15.30
  -1   9  -2  238.78   20.90
  -1   9  -2  264.07   20.50
  -1   9  -2  241.78   21.40
   1  -9   2  283.97   21.20
   1  -9   2  264.77   20.40
   1  -9   2  225.18   21.00
  -2   9  -2  825.72   47.90
  -2   9  -2  851.31   46.70
  -2   9  -2  886.41   47.50
   2  -9   2  855.01   47.10
   2  -9   2  862.61   47.00
  -3   9  -2  991.80   53.29
  -3   9  -2  907.31   51.29
  -3   9  -2  963.70   53.19
   3  -9   2  944.21   51.79
   3  -9   2  952.70   52.09
  -4   9  -2  248.58   22.20
  -4   9  -2  262.17   28.40
  -4   9  -2  254.87   26.40
   4  -9   2  276.37   25.30
   4  -9   2  217.58   24.20
   4  -9   2  263.67   25.10
  -5   9  -2   17.80   20.00
  -5   9  -2   24.60   12.20
   5  -9   2   22.70   15.50
   5  -9   2   22.20   15.20
   5  -9   2    2.00   15.40
  -6   9  -2   49.80   21.30
  -6   9  -2   51.39   15.10
  -6   9  -2   37.30   24.50
   6  -9   2   23.60   18.80
   6  -9   2   60.49   19.50
  -7   9  -2  340.57   46.10
  -7   9  -2  302.57   42.70
   7  -9   2  384.36   40.20
   7  -9   2  476.55   38.80
  -8   9  -2  284.57   34.40
  -8   9  -2  347.87   51.19
   8  -9   2  385.76   48.10
   8  -9   2  279.77   32.50
   8   8  -2   17.50   40.70
   8   8  -2   18.90   33.80
   8   8  -2   16.60   28.90
  -8  -8   2   10.30   29.10
  -8  -8   2   25.70   30.50
   7   8  -2   -1.80   27.80
   7   8  -2   -4.50   24.70
   7   8  -2   23.30   22.20
  -7  -8   2   13.10   25.90
  -7  -8   2   11.50   24.40
   6   8  -2  131.29   23.10
   6   8  -2  222.58   26.60
   6   8  -2  133.59   23.10
  -6  -8   2  146.69   25.10
  -6  -8   2  224.18   31.90
   5   8  -2  620.74   43.10
   5   8  -2  708.43   40.30
   5   8  -2  695.93   43.10
  -5  -8   2  642.24   45.90
   4   8  -2  887.21   47.30
   4   8  -2  810.22   49.40
   4   8  -2  906.61   50.09
  -4  -8   2  880.11   52.99
  -4  -8   2  876.21   49.30
   3   8  -2  371.56   26.00
   3   8  -2  371.86   27.40
   3   8  -2  429.66   28.40
  -3  -8   2  404.36   25.60
  -3  -8   2  400.16   27.40
  -3  -8   2  468.45   31.30
   2   8  -2  217.68   19.60
   2   8  -2  207.98   18.30
  -2  -8   2  184.68   22.20
  -2  -8   2  240.98   17.40
  -2  -8   2  229.78   18.90
   1   8  -2  156.18   17.30
   1   8  -2  179.58   16.10
  -1  -8   2  145.59   15.70
  -1  -8   2  121.39   17.90
  -1  -8   2  176.88   14.70
   0   8  -2  180.08   17.10
   0   8  -2  230.68   17.10
   0   8  -2  207.98   16.60
   0  -8   2  190.18   17.00
   0  -8   2  203.18   18.10
   0  -8   2  219.88   16.50
  -1   8  -2 1053.89   53.69
  -1   8  -2 1020.80   54.19
  -1   8  -2 1024.50   53.99
   1  -8   2 1020.00   53.69
   1  -8   2 1043.90   53.39
  -2   8  -2 1109.59   56.79
  -2   8  -2 1111.39   56.49
  -2   8  -2 1033.30   57.69
   2  -8   2 1103.49   56.09
   2  -8   2 1056.09   56.49
  -3   8  -2  515.05   31.30
  -3   8  -2  566.14   32.90
  -3   8  -2  569.74   33.70
   3  -8   2  481.95   31.30
   3  -8   2  545.85   32.60
   3  -8   2  514.95   31.80
  -4   8  -2  271.67   21.50
  -4   8  -2  268.57   26.50
  -4   8  -2  324.17   25.50
   4  -8   2  278.47   22.70
   4  -8   2  301.37   24.40
   4  -8   2  281.87   22.60
  -5   8  -2   22.90   17.30
  -5   8  -2   85.19   16.70
   5  -8   2   41.60   13.90
   5  -8   2   48.40   14.60
   5  -8   2   44.40   13.20
  -6   8  -2   71.99   21.90
  -6   8  -2   43.70   18.90
   6  -8   2   68.89   16.20
   6  -8   2   60.69   18.20
   6  -8   2   85.49   17.60
  -7   8  -2  277.27   40.50
  -7   8  -2  351.36   30.70
  -7   8  -2  256.97   37.00
   7  -8   2  412.96   35.00
   7  -8   2  357.26   33.80
   7  -8   2  337.07   36.10
  -8   8  -2  452.35   44.20
  -8   8  -2  456.85   48.40
  -8   8  -2  344.77   39.50
   8  -8   2  362.76   41.50
   8  -8   2  370.36   43.70
   8  -8   2  443.06   41.80
  -9   8  -2  283.57   43.30
  -9   8  -2  326.07   49.60
   9  -8   2  287.37   35.80
   9  -8   2  295.27   38.90
   9   7  -2  140.19   33.60
   9   7  -2   11.10   36.90
  -9  -7   2   57.69   26.80
  -9  -7   2  108.29   36.60
  -9  -7   2   52.89   30.20
   8   7  -2   -1.90   29.10
   8   7  -2   -7.90   25.80
   8   7  -2   10.20   28.20
  -8  -7   2   -9.70   22.80
  -8  -7   2   24.20   26.00
  -8  -7   2   15.20   27.50
   7   7  -2  113.49   23.10
   7   7  -2   39.60   22.50
   7   7  -2  112.39   33.60
  -7  -7   2  104.99   23.80
  -7  -7   2   96.69   23.40
   6   7  -2  322.97   31.40
   6   7  -2  385.86   36.10
   6   7  -2  358.26   29.20
  -6  -7   2  390.36   33.30
  -6  -7   2  391.06   33.40
   5   7  -2  444.06   30.10
   5   7  -2  463.95   32.00
   5   7  -2  456.65   32.70
  -5  -7   2  490.85   35.70
  -5  -7   2  515.95   33.00
   4   7  -2  830.02   44.80
   4   7  -2  778.52   46.70
   4   7  -2  862.61   46.40
  -4  -7   2  916.81   46.70
  -4  -7   2  810.82   49.20
   3   7  -2  356.16   23.70
   3   7  -2  361.26   23.90
   3   7  -2  334.27   22.70
  -3  -7   2  361.56   22.20
  -3  -7   2  365.66   23.50
  -3  -7   2  354.76   27.10
   2   7  -2   73.49   11.90
   2   7  -2   53.09    9.20
  -2  -7   2   63.79    8.50
  -2  -7   2   72.49   12.30
  -2  -7   2   59.89    9.20
   1   7  -2   43.80    8.20
   1   7  -2   65.89   10.60
  -1  -7   2   74.59   10.80
  -1  -7   2   54.19    8.60
  -1  -7   2   51.09    7.80
   0   7  -2 1095.29   55.19
   0   7  -2 1069.89   53.99
   0   7  -2 1048.70   54.89
   0  -7   2 1048.40   54.29
   0  -7   2 1047.60   54.59
   0  -7   2 1123.89   54.79
  -1   7  -2  792.72   41.50
  -1   7  -2  798.52   42.00
  -1   7  -2  795.82   42.10
   1  -7   2  799.72   41.40
   1  -7   2  770.52   41.50
  -2   7  -2 1939.91   94.59
  -2   7  -2 1893.61   94.39
  -2   7  -2 1910.51   94.79
   2  -7   2 1896.81   93.99
   2  -7   2 1836.42   93.99
   2  -7   2 1948.31   94.99
  -3   7  -2  848.52   45.70
  -3   7  -2  892.81   46.30
  -3   7  -2  837.52   44.90
   3  -7   2  864.21   45.70
   3  -7   2  807.82   44.40
   3  -7   2  821.82   46.50
  -4   7  -2  219.78   22.30
  -4   7  -2  234.98   20.80
   4  -7   2  221.78   20.10
   4  -7   2  253.07   19.40
   4  -7   2  236.28   18.40
  -5   7  -2   47.70   13.50
  -5   7  -2   36.30   14.30
   5  -7   2   35.10   10.60
   5  -7   2   29.40   12.10
   5  -7   2   30.10   12.60
  -6   7  -2  100.99   15.70
  -6   7  -2  113.99   17.90
   6  -7   2   89.89   17.40
   6  -7   2  144.79   17.10
   6  -7   2  115.69   16.80
  -7   7  -2   60.79   22.30
  -7   7  -2  111.39   19.90
  -7   7  -2  104.29   19.90
   7  -7   2  110.69   19.00
   7  -7   2   97.09   19.20
   7  -7   2  112.29   21.40
  -8   7  -2  555.94   47.10
  -8   7  -2  421.66   41.40
  -8   7  -2  515.55   43.10
   8  -7   2  496.65   47.40
   8  -7   2  497.35   42.40
   8  -7   2  493.35   38.80
  -9   7  -2  306.27   46.20
  -9   7  -2  251.97   40.50
  -9   7  -2  275.67   40.40
   9  -7   2  369.46   44.50
   9  -7   2  326.57   45.20
   9  -7   2  177.78   37.10
 -10   7  -2   48.20   33.10
 -10   7  -2   72.29   33.10
  10  -7   2   58.19   34.40
  10  -7   2   52.59   38.40
  10   6  -2   77.69   36.10
  10   6  -2   29.10   38.00
  10   6  -2   60.39   41.40
 -10  -6   2  165.18   41.80
 -10  -6   2   96.49   32.20
 -10  -6   2  105.49   29.30
   9   6  -2   27.10   30.60
   9   6  -2   -0.10   33.40
  -9  -6   2   46.80   32.30
  -9  -6   2   82.49   27.70
  -9  -6   2   57.29   24.90
   8   6  -2   35.90   26.10
   8   6  -2  -17.00   23.60
   8   6  -2   15.40   22.80
  -8  -6   2   17.10   21.40
  -8  -6   2  -12.10   22.20
  -8  -6   2   29.30   38.00
   7   6  -2   25.20   19.50
   7   6  -2   54.09   24.10
   7   6  -2   36.10   16.50
  -7  -6   2   63.89   17.80
  -7  -6   2   31.10   19.40
  -7  -6   2   22.90   19.20
   6   6  -2  299.47   26.80
   6   6  -2  331.07   25.40
   6   6  -2  314.27   27.60
  -6  -6   2  329.57   26.50
  -6  -6   2  340.07   28.10
  -6  -6   2  353.66   29.50
   5   6  -2  867.01   45.50
   5   6  -2  781.62   47.30
   5   6  -2  890.81   49.40
  -5  -6   2  834.82   49.10
  -5  -6   2  855.11   46.60
   4   6  -2  403.16   25.50
   4   6  -2  394.66   23.80
   4   6  -2  402.46   25.30
  -4  -6   2  394.16   24.90
  -4  -6   2  390.26   29.20
   3   6  -2  437.26   25.80
   3   6  -2  428.06   25.20
   3   6  -2  432.86   24.50
  -3  -6   2  419.56   24.30
  -3  -6   2  421.26   28.20
  -3  -6   2  424.56   25.20
   2   6  -2   25.80    6.20
   2   6  -2   20.30    6.30
  -2  -6   2   27.20    6.00
  -2  -6   2   39.00    9.80
  -2  -6   2   27.50    6.80
   1   6  -2  500.35   27.30
   1   6  -2  470.15   26.90
  -1  -6   2  471.75   26.80
  -1  -6   2  472.85   26.40
  -1  -6   2  522.75   28.10
   0   6  -2  845.32   43.60
   0   6  -2  869.01   44.40
   0   6  -2  851.11   44.20
   0  -6   2  841.92   43.90
   0  -6   2  933.61   44.10
   0  -6   2  812.62   43.50
  -1   6  -2 1831.52   88.19
  -1   6  -2 1779.72   88.69
  -1   6  -2 1812.12   88.69
   1  -6   2 1767.92   88.09
   1  -6   2 1855.01   89.19
   1  -6   2 1728.23   88.09
  -2   6  -2 1060.79   53.69
  -2   6  -2 1039.60   53.89
  -2   6  -2 1107.89   54.29
   2  -6   2 1081.99   54.29
   2  -6   2 1025.70   53.19
   2  -6   2 1005.80   53.09
  -3   6  -2  497.15   28.60
  -3   6  -2  525.05   29.80
   3  -6   2  456.25   27.40
   3  -6   2  498.75   28.80
   3  -6   2  495.55   27.50
  -4   6  -2    9.00    9.90
  -4   6  -2   22.70    9.00
   4  -6   2   22.90    8.40
   4  -6   2   19.20    8.80
   4  -6   2   20.30    7.00
  -5   6  -2   94.69   13.80
  -5   6  -2   91.19   15.40
  -5   6  -2  102.19   15.50
   5  -6   2   98.09   12.40
   5  -6   2   98.89   16.40
   5  -6   2   99.49   12.20
  -6   6  -2  686.83   45.10
  -6   6  -2  720.93   48.20
  -6   6  -2  697.53   42.20
   6  -6   2  809.12   41.40
   6  -6   2  722.93   41.90
   6  -6   2  735.13   43.20
  -7   6  -2  620.74   55.79
  -7   6  -2  595.14   39.80
  -7   6  -2  539.25   39.00
   7  -6   2  588.14   37.10
   7  -6   2  625.74   41.20
  -8   6  -2  788.42   51.49
  -8   6  -2  776.22   51.49
  -8   6  -2  870.41   54.29
   8  -6   2  853.01   52.29
   8  -6   2  889.71   54.69
   8  -6   2  716.23   48.80
  -9   6  -2  326.27   37.70
  -9   6  -2  389.66   39.20
  -9   6  -2  314.17   42.50
   9  -6   2  319.97   42.70
   9  -6   2  317.57   43.50
 -10   6  -2   17.40   29.70
 -10   6  -2   -1.70   31.80
  10  -6   2   31.90   32.10
  10  -6   2   29.30   36.60
  10   5  -2  160.18   34.70
  10   5  -2  205.88   35.60
  10   5  -2  129.29   38.20
 -10  -5   2  190.08   29.50
 -10  -5   2  194.28   33.70
 -10  -5   2  153.68   33.00
   9   5  -2   87.79   32.50
   9   5  -2   62.49   47.80
   9   5  -2  145.19   28.70
  -9  -5   2   73.39   31.20
  -9  -5   2   93.79   24.80
  -9  -5   2   56.99   25.60
   8   5  -2   22.90   23.60
   8   5  -2   47.60   21.20
  -8  -5   2   38.00   22.40
  -8  -5   2   59.59   20.80
  -8  -5   2   20.30   19.10
   7   5  -2  187.08   27.30
   7   5  -2  235.18   25.60
   7   5  -2  291.77   25.60
  -7  -5   2  229.68   25.30
  -7  -5   2  240.78   28.30
  -7  -5   2  248.68   27.00
   6   5  -2  662.43   39.10
   6   5  -2  711.23   38.80
   6   5  -2  639.84   41.30
  -6  -5   2  751.32   42.50
  -6  -5   2  668.33   39.80
  -6  -5   2  718.53   40.80
   5   5  -2  648.14   39.40
   5   5  -2  735.83   37.80
   5   5  -2  706.83   37.80
  -5  -5   2  621.94   38.10
  -5  -5   2  732.43   40.60
  -5  -5   2  719.73   38.70
   4   5  -2 1151.88   56.99
   4   5  -2 1143.69   56.69
   4   5  -2 1068.29   57.99
  -4  -5   2 1161.28   59.79
  -4  -5   2 1106.69   57.49
   3   5  -2  372.36   21.00
   3   5  -2  396.16   22.40
   3   5  -2  355.26   21.40
  -3  -5   2  356.26   21.60
  -3  -5   2  386.96   21.20
  -3  -5   2  348.27   24.70
   2   5  -2   -1.10    4.90
   2   5  -2   -2.50    4.40
  -2  -5   2    0.20    3.90
  -2  -5   2   -0.50    4.10
  -2  -5   2    1.30    7.00
   1   5  -2  547.15   29.40
   1   5  -2  585.54   30.40
   1   5  -2  562.54   29.80
  -1  -5   2  645.34   31.20
  -1  -5   2  552.24   29.80
  -1  -5   2  527.55   29.40
   0   5  -2 1725.13   82.59
   0   5  -2 1727.63   83.59
   0   5  -2 1684.63   83.29
   0  -5   2 1778.12   83.09
   0  -5   2 1611.94   82.89
   0  -5   2 1662.93   82.89
  -1   5  -2 1062.19   52.29
  -1   5  -2 1044.10   52.19
   1  -5   2  953.40   53.49
   1  -5   2 1079.29   52.59
   1  -5   2 1034.90   51.69
   1  -5   2 1043.00   51.79
  -2   5  -2  243.48   16.40
  -2   5  -2  244.98   15.60
   2  -5   2  228.38   14.40
   2  -5   2  222.38   14.80
   2  -5   2  232.38   15.50
  -3   5  -2  510.95   31.50
  -3   5  -2  566.94   30.50
   3  -5   2  546.35   29.50
   3  -5   2  558.24   30.70
   3  -5   2  582.14   29.60
  -4   5  -2   15.60    9.70
  -4   5  -2   35.50    8.00
  -4   5  -2   18.20    8.50
   4  -5   2   14.80    6.80
   4  -5   2   18.40    6.60
   4  -5   2   18.20    7.50
  -5   5  -2  281.97   24.50
  -5   5  -2  329.97   23.20
  -5   5  -2  272.97   23.10
   5  -5   2  335.77   20.90
   5  -5   2  371.06   21.70
   5  -5   2  320.57   22.80
  -6   5  -2 1300.57   72.49
  -6   5  -2 1348.07   72.69
  -6   5  -2 1408.96   74.29
   6  -5   2 1433.36   72.09
   6  -5   2 1487.15   71.19
   6  -5   2 1436.66   73.59
  -7   5  -2  648.44   41.70
  -7   5  -2  743.43   44.30
  -7   5  -2  613.74   41.70
   7  -5   2  658.93   39.00
   7  -5   2  664.93   43.10
   7  -5   2  693.03   41.30
  -8   5  -2  374.06   35.40
  -8   5  -2  377.86   33.60
  -8   5  -2  322.97   32.90
   8  -5   2  318.17   30.30
   8  -5   2  309.87   33.30
   8  -5   2  383.06   37.20
  -9   5  -2  134.19   23.80
  -9   5  -2  145.19   27.40
  -9   5  -2  188.48   25.80
   9  -5   2  158.98   28.10
   9  -5   2  155.68   30.60
 -10   5  -2   -7.30   30.00
 -10   5  -2  -30.60   26.40
  10  -5   2  -27.10   35.40
  10  -5   2  -39.10   30.20
  11   4  -2  151.18   38.60
  11   4  -2  253.17   34.60
 -11  -4   2  156.08   32.90
 -11  -4   2  207.28   36.90
  10   4  -2  140.79   34.00
  10   4  -2  188.58   42.90
  10   4  -2  218.08   31.30
 -10  -4   2  120.09   27.50
 -10  -4   2  201.68   32.40
 -10  -4   2  121.49   30.70
   9   4  -2   20.30   28.10
   9   4  -2   22.80   24.50
   9   4  -2   28.10   26.50
  -9  -4   2   39.20   21.80
  -9  -4   2   18.00   24.40
  -9  -4   2   47.60   24.60
   8   4  -2   49.70   18.90
   8   4  -2   42.10   37.40
   8   4  -2   65.49   21.30
  -8  -4   2   82.99   21.20
  -8  -4   2   49.00   17.90
   7   4  -2  327.47   25.80
   7   4  -2  289.07   28.60
  -7  -4   2  294.07   28.90
  -7  -4   2  340.47   28.60
  -7  -4   2  352.56   27.50
   6   4  -2  455.45   27.10
   6   4  -2  453.95   27.20
   6   4  -2  416.26   29.00
  -6  -4   2  410.36   28.60
  -6  -4   2  450.45   29.40
  -6  -4   2  438.96   28.60
   5   4  -2  942.51   48.10
   5   4  -2  914.71   48.50
   5   4  -2 1011.80   47.00
  -5  -4   2  977.90   49.30
  -5  -4   2  767.42   47.30
  -5  -4   2  836.62   46.50
  -5  -4   2  900.81   47.70
   4   4  -2  789.52   43.70
   4   4  -2  866.91   43.30
   4   4  -2  842.82   43.30
   4   4  -2  902.21   44.80
  -4  -4   2  841.32   44.10
  -4  -4   2  851.51   44.70
  -4  -4   2  903.91   45.90
  -4  -4   2  820.82   43.70
   3   4  -2    9.70    4.30
   3   4  -2   -0.90    4.30
   3   4  -2    6.70    4.80
  -3  -4   2    5.10    4.00
  -3  -4   2    5.30    4.40
  -3  -4   2   15.20    6.20
  -3  -4   2   -0.50    7.80
   2   4  -2   11.00    9.80
   2   4  -2   22.90    4.50
   2   4  -2    8.60    3.80
   2   4  -2   16.30    4.40
  -2  -4   2   15.90    7.00
  -2  -4   2   17.50    4.70
  -2  -4   2   14.50    4.30
   1   4  -2 1403.86   63.49
   1   4  -2 1332.97   64.19
   1   4  -2 1250.67   63.59
   1   4  -2 1273.37   64.59
   1   4  -2 1303.97   63.69
  -1  -4   2 1271.07   63.49
  -1  -4   2 1264.17   64.49
  -1  -4   2 1310.07   63.89
  -1  -4   2 1312.87   64.59
  -1  -4   2 1253.37   64.19
   0   4  -2  926.81   47.80
   0   4  -2  918.71   47.00
   0   4  -2  951.70   48.00
   0   4  -2  961.70   47.70
   0   4  -2  971.20   47.40
   0   4  -2  999.90   47.10
   0  -4   2  932.71   48.60
   0  -4   2  971.60   47.20
   0  -4   2  961.80   47.90
   0  -4   2  928.61   47.20
  -1   4  -2 2289.07  107.29
  -1   4  -2 2238.18  108.69
  -1   4  -2 2220.08  107.99
  -1   4  -2 2282.67  107.09
  -1   4  -2 2127.09  108.09
   1  -4   2 2322.17  108.19
   1  -4   2 2267.77  107.19
   1  -4   2 1983.10  108.89
   1  -4   2 2193.78  107.79
   1  -4   2 2268.27  107.59
  -2   4  -2 1402.96   67.19
  -2   4  -2 1437.06   66.19
  -2   4  -2 1280.17   68.19
  -2   4  -2 1379.76   67.19
  -2   4  -2 1332.77   69.09
   2  -4   2 1343.77   67.39
   2  -4   2 1320.07   68.79
   2  -4   2 1361.06   66.19
   2  -4   2 1369.06   66.59
   2  -4   2 1321.17   69.19
  -3   4  -2  445.16   23.50
  -3   4  -2  364.96   22.60
  -3   4  -2  450.35   21.90
  -3   4  -2  346.07   24.70
   3  -4   2  402.66   22.80
   3  -4   2  414.16   23.40
   3  -4   2  445.66   22.10
   3  -4   2  410.66   22.50
  -4   4  -2   14.20    8.80
  -4   4  -2    7.30    7.70
  -4   4  -2   13.60    6.80
   4  -4   2   13.90    5.50
   4  -4   2   14.70    7.10
   4  -4   2   16.40    6.20
  -5   4  -2  247.58   21.30
  -5   4  -2  239.48   18.50
  -5   4  -2  213.48   18.60
  -5   4  -2  226.38   15.40
   5  -4   2  238.58   18.70
   5  -4   2  237.58   17.50
   5  -4   2  245.88   18.60
  -6   4  -2  786.82   42.80
  -6   4  -2  682.33   42.40
  -6   4  -2  794.92   43.90
   6  -4   2  759.52   40.50
   6  -4   2  751.42   43.70
   6  -4   2  787.42   42.20
  -7   4  -2  639.44   39.30
  -7   4  -2  688.33   41.60
  -7   4  -2  670.83   39.80
   7  -4   2  629.94   41.80
   7  -4   2  610.34   36.70
   7  -4   2  618.74   39.50
  -8   4  -2  146.69   20.30
  -8   4  -2  164.78   21.70
  -8   4  -2  163.08   22.40
   8  -4   2  135.99   27.90
   8  -4   2  141.99   25.50
   8  -4   2  148.19   21.70
  -9   4  -2  116.89   25.50
  -9   4  -2  118.99   22.00
  -9   4  -2  116.79   23.60
   9  -4   2   90.09   24.90
   9  -4   2   80.39   30.20
 -10   4  -2    2.30   25.70
 -10   4  -2  -22.10   27.70
  10  -4   2   31.80   43.10
  10  -4   2  -63.39   29.80
 -11   4  -2  146.69   33.80
 -11   4  -2  124.79   30.90
  11  -4   2   67.99   35.90
  11  -4   2   63.69   43.30
  11   3  -2  231.28   34.20
  11   3  -2  319.27   47.20
  11   3  -2  226.38   33.80
 -11  -3   2  334.17   44.60
 -11  -3   2  213.18   34.50
  10   3  -2   53.69   25.40
  10   3  -2   38.30   29.10
  10   3  -2   44.00   26.80
 -10  -3   2   62.59   25.50
 -10  -3   2   83.29   27.10
   9   3  -2  -39.80   24.20
   9   3  -2   42.00   20.90
   9   3  -2   65.79   22.50
  -9  -3   2   18.80   22.50
  -9  -3   2   41.20   20.70
  -9  -3   2   10.80   30.00
   8   3  -2  135.39   20.20
   8   3  -2   60.79   21.70
   8   3  -2  100.79   18.20
  -8  -3   2   93.99   18.90
  -8  -3   2   51.39   17.90
  -8  -3   2   78.39   18.70
   7   3  -2  278.37   25.20
   7   3  -2  259.07   23.70
   7   3  -2  221.78   26.00
  -7  -3   2  287.87   23.30
  -7  -3   2  296.67   24.90
  -7  -3   2  231.28   23.50
   6   3  -2 1129.09   56.19
   6   3  -2 1064.79   57.69
  -6  -3   2 1084.69   57.39
  -6  -3   2 1180.78   57.69
  -6  -3   2  984.60   56.79
   5   3  -2  910.81   47.20
   5   3  -2  925.61   45.80
  -5  -3   2  764.72   46.40
  -5  -3   2  978.30   48.00
  -5  -3   2  902.11   47.10
   4   3  -2  626.74   32.80
   4   3  -2  617.84   32.10
   4   3  -2  690.33   34.10
   4   3  -2  639.94   33.90
  -4  -3   2  640.14   35.00
  -4  -3   2  674.53   33.60
  -4  -3   2  590.84   33.50
  -4  -3   2  609.34   32.40
   3   3  -2  215.58   13.10
   3   3  -2  181.98   12.10
   3   3  -2  155.08   13.90
   3   3  -2  207.68   11.40
   3   3  -2  208.48   13.30
   3   3  -2  194.98   13.50
  -3  -3   2  194.58   11.70
  -3  -3   2  187.38   20.10
  -3  -3   2  197.98   12.90
   2   3  -2  837.32   40.50
   2   3  -2  760.52   41.30
   2   3  -2  859.71   41.30
   2   3  -2  796.82   40.60
   2   3  -2  823.02   40.60
   2   3  -2  814.92   41.00
  -2  -3   2  829.22   41.20
  -2  -3   2  838.82   40.80
  -2  -3   2  894.51   40.80
  -2  -3   2  748.53   41.60
  -2  -3   2  802.72   41.00
   1   3  -2  991.90   46.40
   1   3  -2  949.01   45.90
   1   3  -2  922.61   45.60
   1   3  -2  919.71   45.60
   1   3  -2  954.70   46.00
   1   3  -2  939.41   45.80
  -1  -3   2  777.72   45.90
  -1  -3   2  871.91   45.60
  -1  -3   2  923.71   45.60
  -1  -3   2  981.10   45.80
  -1  -3   2  969.50   46.10
   0   3  -2 2553.84  119.19
   0   3  -2 2541.45  118.49
   0   3  -2 2432.56  118.69
   0   3  -2 2394.86  118.39
   0   3  -2 2431.76  118.89
   0  -3   2 2479.45  118.59
   0  -3   2 2360.36  118.49
   0  -3   2 2581.44  118.89
   0  -3   2 2519.05  119.19
   0  -3   2 2366.06  119.39
  -1   3  -2 1382.06   69.49
  -1   3  -2 1491.75   68.69
  -1   3  -2 1439.16   69.49
  -1   3  -2 1299.47   69.99
  -1   3  -2 1461.65   68.89
  -1   3  -2 1406.66   69.49
   1  -3   2 1433.76   69.19
   1  -3   2 1445.36   69.59
   1  -3   2 1417.56   69.29
   1  -3   2 1403.76   68.69
  -2   3  -2  958.00   53.99
  -2   3  -2 1112.69   51.99
  -2   3  -2 1082.29   53.19
  -2   3  -2 1050.69   53.19
  -2   3  -2 1080.19   53.09
  -2   3  -2 1035.30   52.89
  -2   3  -2 1065.19   52.29
   2  -3   2 1081.79   53.29
   2  -3   2 1196.68   52.39
   2  -3   2 1018.90   54.59
   2  -3   2 1040.90   52.99
   2  -3   2 1066.79   51.99
   2  -3   2 1084.89   52.49
  -3   3  -2  572.34   31.30
  -3   3  -2  650.93   31.70
  -3   3  -2  598.64   31.40
  -3   3  -2  597.24   31.00
  -3   3  -2  565.14   32.60
  -3   3  -2  598.44   29.50
   3  -3   2  595.64   30.80
   3  -3   2  585.94   30.40
   3  -3   2  540.45   32.50
   3  -3   2  586.04   29.50
  -4   3  -2  128.19    9.00
  -4   3  -2  127.19   12.20
  -4   3  -2  142.49   15.20
  -4   3  -2  123.19   13.20
   4  -3   2  129.29    9.20
   4  -3   2  122.49   11.10
   4  -3   2  121.39   12.00
  -5   3  -2 1236.58   63.99
  -5   3  -2 1393.36   66.69
  -5   3  -2 1312.27   67.49
  -5   3  -2 1256.57   66.49
   5  -3   2 1310.77   65.79
   5  -3   2 1391.16   64.59
   5  -3   2 1257.67   66.99
  -6   3  -2  978.00   52.39
  -6   3  -2  909.71   51.29
  -6   3  -2 1000.60   51.29
   6  -3   2  936.21   50.69
   6  -3   2  968.70   52.79
  -7   3  -2  840.52   47.00
  -7   3  -2  881.81   48.00
  -7   3  -2  839.72   46.60
   7  -3   2  782.72   49.40
   7  -3   2  787.02   46.80
  -8   3  -2  303.57   29.80
  -8   3  -2  290.77   27.20
  -8   3  -2  307.07   27.50
   8  -3   2  233.68   28.90
   8  -3   2  258.17   33.40
  -9   3  -2  117.69   22.10
  -9   3  -2  120.39   21.50
  -9   3  -2  121.69   24.20
   9  -3   2   81.09   28.70
   9  -3   2  125.59   24.60
 -10   3  -2  -40.70   24.30
 -10   3  -2    2.60   26.80
  10  -3   2  -12.10   31.30
  10  -3   2   27.90   28.30
 -11   3  -2  122.19   32.60
 -11   3  -2  146.79   30.50
  11  -3   2  117.69   35.40
  11  -3   2   28.50   40.60
  11   2  -2  125.79   33.60
  11   2  -2  217.58   31.20
 -11  -2   2  185.88   36.00
 -11  -2   2  128.79   31.30
  10   2  -2   40.60   27.40
  10   2  -2   59.19   22.80
  10   2  -2   41.00   24.40
 -10  -2   2   32.10   23.40
 -10  -2   2  104.99   27.00
   9   2  -2   33.90   22.50
   9   2  -2    0.30   18.50
  -9  -2   2   13.50   24.60
   8   2  -2  267.17   26.80
   8   2  -2  302.37   27.70
   8   2  -2  231.48   29.60
  -8  -2   2  309.57   27.80
  -8  -2   2  245.08   26.10
  -8  -2   2  303.77   27.60
   7   2  -2  838.62   54.09
   7   2  -2 1023.70   52.49
   7   2  -2  945.01   51.99
  -7  -2   2 1050.79   52.49
  -7  -2   2  859.51   51.89
  -7  -2   2 1011.50   52.29
   6   2  -2 1470.25   78.39
   6   2  -2 1566.14   77.79
   6   2  -2 1498.95   76.99
  -6  -2   2 1550.74   77.89
  -6  -2   2 1578.94   77.89
   5   2  -2 2303.77  111.99
   5   2  -2 2386.46  113.19
  -5  -2   2 2262.87  113.09
  -5  -2   2 2235.58  112.69
  -5  -2   2 2304.17  113.29
   4   2  -2  478.75   24.10
   4   2  -2  393.16   24.10
   4   2  -2  446.36   24.30
   4   2  -2  401.56   23.00
  -4  -2   2  422.46   23.80
  -4  -2   2  462.15   23.70
  -4  -2   2  442.86   25.90
  -4  -2   2  390.76   24.50
   3   2  -2   38.90    5.50
   3   2  -2   46.40    5.60
   3   2  -2   32.80    4.50
   3   2  -2   49.80    7.00
   3   2  -2   32.80    4.20
   3   2  -2   29.90    5.10
  -3  -2   2   34.70    5.10
  -3  -2   2   33.90    4.50
  -3  -2   2   30.50    5.00
  -3  -2   2   46.10    5.80
  -3  -2   2   39.00    6.10
   2   2  -2  596.14   28.60
   2   2  -2  575.54   29.60
   2   2  -2  569.04   29.10
   2   2  -2  589.94   29.40
   2   2  -2  592.34   30.10
   2   2  -2  569.64   29.00
  -2  -2   2  575.64   29.00
  -2  -2   2  585.64   29.40
  -2  -2   2  569.24   29.50
  -2  -2   2  565.84   29.60
  -2  -2   2  594.34   29.40
   1   2  -2  637.04   31.30
   1   2  -2  607.64   30.70
   1   2  -2  585.14   33.10
   1   2  -2  623.94   31.00
   1   2  -2  617.24   30.80
   1   2  -2  611.34   31.00
  -1  -2   2  653.33   31.70
  -1  -2   2  639.64   31.10
  -1  -2   2  597.74   31.00
  -1  -2   2  620.24   30.80
  -1  -2   2  651.33   31.00
   0   2  -2 4336.77  205.78
   0   2  -2 4422.06  205.78
   0   2  -2 4232.58  205.18
   0   2  -2 4251.47  205.68
   0   2  -2 4097.39  205.88
   0  -2   2 4395.76  205.68
   0  -2   2 4027.00  205.18
   0  -2   2 4623.54  206.38
   0  -2   2 4320.67  205.78
   0  -2   2 4295.47  205.38
  -1   2  -2 1151.78   53.39
  -1   2  -2 1123.99   53.29
  -1   2  -2 1067.49   55.09
  -1   2  -2 1122.99   54.29
  -1   2  -2 1134.89   53.69
  -1   2  -2 1030.80   55.69
  -1   2  -2 1100.99   55.29
   1  -2   2 1078.09   54.79
   1  -2   2 1111.49   53.69
   1  -2   2 1153.48   54.59
   1  -2   2 1139.29   53.39
   1  -2   2 1133.19   54.39
   1  -2   2 1039.10   53.29
   1  -2   2 1092.79   54.19
  -2   2  -2  257.87   17.30
  -2   2  -2  265.27   15.50
  -2   2  -2  276.87   15.50
  -2   2  -2  274.97   14.50
  -2   2  -2  297.67   15.00
  -2   2  -2  273.27   15.60
   2  -2   2  261.57   14.60
   2  -2   2  268.77   15.90
   2  -2   2  254.57   15.40
   2  -2   2  302.37   14.90
  -3   2  -2    4.80    4.50
  -3   2  -2   14.80    5.90
  -3   2  -2    7.70    4.40
  -3   2  -2    3.30    4.40
  -3   2  -2    6.50    3.80
  -3   2  -2    6.20    7.70
   3  -2   2    7.50    6.00
   3  -2   2    6.10    4.50
   3  -2   2    3.20    4.20
   3  -2   2    5.80    3.80
   3  -2   2    9.70    5.50
  -4   2  -2  154.28   15.10
  -4   2  -2  120.49   11.80
  -4   2  -2  127.29   13.70
   4  -2   2  139.99   11.00
   4  -2   2  128.49   12.40
  -5   2  -2 1508.25   81.29
  -5   2  -2 1734.03   82.69
  -5   2  -2 1754.32   82.29
   5  -2   2 1455.75   81.99
   5  -2   2 1674.43   83.09
   5  -2   2 1661.63   80.89
  -6   2  -2 1121.09   58.19
  -6   2  -2 1115.59   58.19
  -6   2  -2 1135.39   58.79
   6  -2   2 1077.49   57.59
   6  -2   2 1050.79   60.09
   6  -2   2 1161.38   60.29
  -7   2  -2  836.62   45.60
  -7   2  -2  752.72   44.10
  -7   2  -2  867.21   45.00
   7  -2   2  636.94   47.70
   7  -2   2  730.73   45.20
   7  -2   2  878.71   47.70
  -8   2  -2  222.08   27.50
  -8   2  -2  225.18   26.10
  -8   2  -2  221.28   24.00
   8  -2   2  271.17   32.00
   8  -2   2  201.38   28.20
   8  -2   2  205.88   32.70
  -9   2  -2   -7.30   20.50
  -9   2  -2    1.10   18.50
  -9   2  -2   -9.80   19.00
   9  -2   2    1.30   22.40
   9  -2   2  -21.40   27.10
   9  -2   2   34.80   23.10
 -10   2  -2   22.70   25.90
 -10   2  -2   45.70   24.00
  10  -2   2   81.19   28.50
  10  -2   2   -6.60   31.80
 -11   2  -2   73.09   29.90
 -11   2  -2   65.29   28.10
  11  -2   2   52.09   38.30
  11  -2   2   88.79   34.70
  11   1  -2  118.79   33.20
  11   1  -2   92.49   29.40
  11   1  -2  148.69   28.90
 -11  -1   2   91.49   29.00
 -11  -1   2  111.79   33.10
  10   1  -2   34.20   23.20
  10   1  -2   54.19   21.00
  10   1  -2   42.40   24.90
 -10  -1   2   33.70   22.90
 -10  -1   2   13.40   28.00
   9   1  -2    9.50   17.50
   9   1  -2   -2.00   20.40
   9   1  -2    8.20   19.10
  -9  -1   2   33.80   19.90
  -9  -1   2   23.40   20.20
   8   1  -2  231.48   23.50
   8   1  -2  225.78   23.30
   8   1  -2  216.68   26.20
  -8  -1   2  200.58   23.70
  -8  -1   2  197.68   25.30
   7   1  -2 1579.04   78.69
   7   1  -2 1463.75   80.09
   7   1  -2 1689.03   78.79
  -7  -1   2 1291.67   78.19
  -7  -1   2 1668.93   79.29
   6   1  -2  866.11   42.80
   6   1  -2  790.72   42.50
   6   1  -2  771.12   44.00
  -6  -1   2  834.02   42.70
  -6  -1   2  765.72   42.80
  -6  -1   2  657.23   41.70
   5   1  -2 1500.85   74.29
   5   1  -2 1539.85   74.79
   5   1  -2 1561.24   75.19
  -5  -1   2 1508.85   75.29
  -5  -1   2 1503.65   74.39
  -5  -1   2 1336.27   74.49
   4   1  -2   76.09    9.20
   4   1  -2   89.39   10.10
   4   1  -2   90.59    9.60
   4   1  -2   90.79    8.70
  -4  -1   2   85.09   10.40
  -4  -1   2  107.09    8.70
  -4  -1   2   72.19    8.30
  -4  -1   2   98.29    8.60
   3   1  -2    0.00    4.00
   3   1  -2    2.20    3.50
   3   1  -2    2.80    2.70
   3   1  -2    5.10    2.80
   3   1  -2    2.40    2.50
  -3  -1   2    0.00    2.80
  -3  -1   2    3.10    3.70
  -3  -1   2    0.80    2.80
  -3  -1   2    1.60    2.80
  -3  -1   2    5.10    4.20
   2   1  -2 1713.13   84.89
   2   1  -2 1934.81   84.89
   2   1  -2 1639.04   85.49
   2   1  -2 1721.83   84.79
   2   1  -2 1803.92   84.89
   2   1  -2 1698.43   84.69
  -2  -1   2 1785.62   84.69
  -2  -1   2 1728.63   84.69
  -2  -1   2 1819.42   85.19
  -2  -1   2 1764.02   85.79
   1   1  -2  713.83   34.30
   1   1  -2  751.12   34.50
   1   1  -2  682.33   33.90
   1   1  -2  721.93   33.90
   1   1  -2  702.93   34.00
   1   1  -2  715.43   34.20
   1   1  -2  666.63   34.10
   1   1  -2  688.03   33.90
   1   1  -2  702.73   34.00
   1   1  -2  761.22   35.10
  -1  -1   2  673.63   34.20
  -1  -1   2  674.43   34.00
  -1  -1   2  695.93   34.10
  -1  -1   2  704.23   34.60
  -1  -1   2  658.53   33.90
  -1  -1   2  680.13   34.00
  -1  -1   2  693.43   33.90
  -1  -1   2  647.74   34.00
   0   1  -2 1691.13   81.39
   0   1  -2 1732.63   80.89
   0   1  -2 1697.53   80.79
   0   1  -2 1658.33   80.79
   0   1  -2 1650.43   81.29
   0   1  -2 1813.32   81.79
   0   1  -2 1620.44   80.69
   0   1  -2 1661.23   80.79
   0   1  -2 1748.72   81.29
   0  -1   2 1709.23   81.39
   0  -1   2 1698.53   81.49
   0  -1   2 1656.83   80.79
   0  -1   2 1653.73   81.19
   0  -1   2 1675.83   80.69
   0  -1   2 1632.44   80.79
   0  -1   2 1679.03   81.29
   0  -1   2 1691.43   80.99
  -1   1  -2 9743.33  458.25
  -1   1  -2 9814.92  457.95
  -1   1  -2 9380.86  457.35
  -1   1  -2 9408.46  457.55
  -1   1  -2 9999.00  458.35
  -1   1  -2 9503.95  458.25
   1  -1   2 9140.39  457.25
   1  -1   2 9775.02  458.55
   1  -1   2 9176.28  457.85
   1  -1   2 9944.61  458.25
   1  -1   2 9853.81  458.25
  -2   1  -2 1787.32   88.59
  -2   1  -2 1774.32   88.59
  -2   1  -2 1792.32   87.29
  -2   1  -2 1875.01   87.69
  -2   1  -2 1954.20   88.39
   2  -1   2 1837.92   88.39
   2  -1   2 1708.53   88.59
   2  -1   2 1768.72   87.29
   2  -1   2 1736.03   88.69
   2  -1   2 1922.01   87.79
  -3   1  -2   15.90    5.90
  -3   1  -2   17.10    5.40
  -3   1  -2   14.80    3.50
  -3   1  -2    9.20    8.70
  -3   1  -2   14.60    4.40
   3  -1   2   11.30    6.00
   3  -1   2   16.60    3.60
   3  -1   2    8.60    5.60
   3  -1   2   14.60    4.30
   3  -1   2   17.80    5.50
  -4   1  -2  142.39   14.40
  -4   1  -2  109.09   12.00
  -4   1  -2  134.29    9.90
  -4   1  -2  104.39   14.60
   4  -1   2  135.49   10.60
   4  -1   2  138.59   13.20
   4  -1   2  106.59   13.10
  -5   1  -2  744.03   37.30
  -5   1  -2  744.63   39.80
  -5   1  -2  666.93   39.30
   5  -1   2  713.93   37.60
   5  -1   2  703.83   39.30
   5  -1   2  677.43   40.30
  -6   1  -2  760.32   42.50
  -6   1  -2  800.12   43.50
  -6   1  -2  856.71   41.00
   6  -1   2  680.43   44.30
   6  -1   2  681.83   41.50
   6  -1   2  798.02   45.60
  -7   1  -2  657.53   36.40
  -7   1  -2  690.33   39.20
  -7   1  -2  622.14   37.70
   7  -1   2  578.54   38.20
   7  -1   2  561.24   41.50
   7  -1   2  682.93   40.90
  -8   1  -2  154.08   21.80
  -8   1  -2  151.08   24.40
  -8   1  -2  175.68   23.70
  -8   1  -2  173.68   23.00
   8  -1   2  172.58   23.80
   8  -1   2  156.48   25.40
   8  -1   2  153.58   21.20
  -9   1  -2   19.30   18.90
  -9   1  -2   19.10   19.20
  -9   1  -2   16.70   23.30
  -9   1  -2  -25.10   20.10
   9  -1   2   21.10   23.10
   9  -1   2   -7.60   25.30
   9  -1   2   59.29   26.50
 -10   1  -2  113.29   26.90
 -10   1  -2   56.69   25.40
 -10   1  -2   72.89   23.70
  10  -1   2   33.40   29.10
  10  -1   2   60.79   32.00
 -11   1  -2  177.18   31.80
 -11   1  -2   95.29   29.10
  11  -1   2  160.68   40.50
  11  -1   2  165.68   35.10
  12   0  -2  295.77   41.20
  12   0  -2  326.47   42.40
 -12   0   2  193.78   39.50
 -12   0   2  273.77   36.40
  11   0  -2   81.09   30.30
  11   0  -2  121.79   27.20
  11   0  -2  109.19   43.90
 -11   0   2  186.98   30.30
  10   0  -2   40.90   21.20
  10   0  -2   53.39   22.20
  10   0  -2   38.00   30.00
 -10   0   2   71.19   22.80
 -10   0   2   85.29   21.80
   9   0  -2   56.99   18.40
   9   0  -2   69.19   16.40
   9   0  -2   63.39   20.40
  -9   0   2   29.50   18.10
  -9   0   2    9.30   18.80
  -9   0   2   40.40   21.10
   8   0  -2  212.88   21.70
   8   0  -2  229.48   22.00
   8   0  -2  238.48   24.90
  -8   0   2  131.19   18.20
  -8   0   2  181.88   20.70
  -8   0   2  151.38   22.00
   7   0  -2 1119.89   58.39
   7   0  -2 1158.88   58.29
   7   0  -2 1104.29   60.59
  -7   0   2 1057.59   58.99
   6   0  -2 1566.74   76.79
   6   0  -2 1662.23   76.79
   6   0  -2 1617.74   77.99
   6   0  -2 1511.75   77.09
  -6   0   2 1450.65   77.39
  -6   0   2 1418.66   76.59
  -6   0   2 1432.26   75.39
   5   0  -2  830.02   44.90
   5   0  -2  820.62   43.10
   5   0  -2  942.31   46.30
   5   0  -2  841.92   45.10
  -5   0   2  912.51   43.70
  -5   0   2  889.91   45.00
  -5   0   2  825.02   44.80
   4   0  -2  135.69    9.10
   4   0  -2  145.69   11.90
   4   0  -2  153.28   11.00
   4   0  -2  153.18   11.40
   4   0  -2  116.19   11.80
   4   0  -2  124.79   11.20
   4   0  -2  124.59   11.00
  -4   0   2  144.69   10.20
  -4   0   2  153.48   10.40
  -4   0   2  142.69   10.90
  -4   0   2  150.38    9.50
  -4   0   2  155.88   10.60
   3   0  -2  290.77   14.40
   3   0  -2  270.67   14.40
   3   0  -2  299.47   14.40
   3   0  -2  252.97   14.30
   3   0  -2  258.57   14.70
   3   0  -2  246.88   15.80
   3   0  -2  257.37   15.40
  -3   0   2  246.58   15.40
  -3   0   2  259.77   14.70
  -3   0   2  244.88   15.40
  -3   0   2  264.77   14.60
  -3   0   2  257.47   14.00
  -3   0   2  272.57   15.00
  -3   0   2  264.07   14.40
   2   0  -2  349.67   17.90
   2   0  -2  308.97   18.20
   2   0  -2  349.27   17.40
   2   0  -2  362.06   17.20
   2   0  -2  343.67   17.60
   2   0  -2  329.87   18.60
   2   0  -2  361.36   17.50
  -2   0   2  353.46   17.20
  -2   0   2  329.37   18.30
  -2   0   2  341.47   17.70
  -2   0   2  329.57   17.40
  -2   0   2  348.37   18.20
  -2   0   2  333.07   18.50
   1   0  -2 2201.68  102.59
   1   0  -2 2119.39  102.59
   1   0  -2 2138.39  103.09
   1   0  -2 2075.89  102.39
   1   0  -2 2115.29  102.19
   1   0  -2 2118.49  102.79
   1   0  -2 2199.58  102.29
   1   0  -2 2080.99  102.19
   1   0  -2 2235.78  102.59
   1   0  -2 2049.59  102.89
  -1   0   2 2201.88  102.59
  -1   0   2 2209.88  102.89
  -1   0   2 2146.59  102.59
  -1   0   2 2111.39  102.99
  -1   0   2 2178.38  102.19
  -1   0   2 2046.50  102.59
   0   0  -2 3070.09  149.49
   0   0  -2 3296.97  148.49
   0   0  -2 3341.97  148.59
   0   0  -2 2821.82  148.29
   0   0  -2 3085.79  148.09
   0   0  -2 3050.69  148.19
   0   0  -2 3093.79  148.39
   0   0  -2 3233.18  149.39
   0   0   2 3174.88  148.39
   0   0   2 3206.88  148.49
   0   0   2 2943.51  148.29
   0   0   2 3005.00  149.29
   0   0   2 3131.19  148.19
   0   0   2 3165.18  148.39
   0   0   2 2963.70  148.69
  -1   0  -2 6014.90  284.77
  -1   0  -2 6035.30  285.17
  -1   0  -2 5967.50  286.37
  -1   0  -2 6006.00  284.47
  -1   0  -2 6625.34  285.77
  -1   0  -2 5596.14  285.77
  -1   0  -2 5891.51  285.67
   1   0   2 5847.82  284.77
   1   0   2 5542.35  284.47
   1   0   2 6148.29  285.17
   1   0   2 6001.00  286.37
   1   0   2 5612.44  286.47
   1   0   2 6460.65  286.67
  -2   0  -2  614.94   32.60
  -2   0  -2  720.63   32.90
  -2   0  -2  614.44   31.70
  -2   0  -2  654.23   32.60
  -2   0  -2  638.04   33.40
  -2   0  -2  571.24   32.00
   2   0   2  648.14   31.20
   2   0   2  643.64   31.90
   2   0   2  562.74   33.10
   2   0   2  628.14   31.40
   2   0   2  615.44   32.40
   2   0   2  701.23   33.00
  -3   0  -2  354.56   19.10
  -3   0  -2  311.87   17.80
  -3   0  -2  314.67   19.30
  -3   0  -2  322.57   18.20
  -3   0  -2  336.47   20.60
  -3   0  -2  315.67   19.90
  -3   0  -2  370.66   21.10
   3   0   2  349.67   18.10
   3   0   2  319.47   20.80
   3   0   2  377.96   18.30
   3   0   2  369.96   21.40
   3   0   2  359.76   19.40
   3   0   2  329.07   20.00
  -4   0  -2  169.18   12.30
  -4   0  -2  154.88   14.70
  -4   0  -2  194.88   14.60
  -4   0  -2  195.28   15.20
  -4   0  -2  176.58   13.20
   4   0   2  170.48   15.70
   4   0   2  176.88   12.30
   4   0   2  193.18   12.90
   4   0   2  154.58   14.90
  -5   0  -2  772.92   39.90
  -5   0  -2  735.23   40.60
  -5   0  -2  775.72   41.60
   5   0   2  710.63   39.30
   5   0   2  662.63   42.20
   5   0   2  815.52   41.70
  -6   0  -2 1155.78   59.89
  -6   0  -2 1154.18   58.69
  -6   0  -2 1028.40   59.29
   6   0   2 1122.69   58.29
   6   0   2 1228.78   60.99
   6   0   2 1052.69   61.19
  -7   0  -2  482.05   31.40
  -7   0  -2  467.95   32.40
  -7   0  -2  465.65   31.50
   7   0   2  484.15   39.90
   7   0   2  426.66   35.10
   7   0   2  473.85   31.70
  -8   0  -2  159.48   25.10
  -8   0  -2  108.09   21.70
  -8   0  -2  130.29   19.60
   8   0   2  181.68   25.70
   8   0   2  152.48   22.40
   8   0   2  107.49   23.40
  -9   0  -2   -2.40   24.20
  -9   0  -2   26.50   20.60
  -9   0  -2   -1.90   18.60
   9   0   2   18.60   23.40
   9   0   2  -28.50   25.80
 -10   0  -2    8.60   23.30
 -10   0  -2   15.20   41.50
 -10   0  -2   12.10   43.70
  10   0   2   21.10   31.50
  10   0   2    5.70   28.60
 -11   0  -2  173.58   50.99
 -11   0  -2   66.69   27.60
  11   0   2   76.79   34.60
  11   0   2   76.39   36.50
  12  -1  -2  116.99   39.20
  12  -1  -2  202.98   32.60
 -12   1   2  221.38   38.90
  11  -1  -2  109.59   37.00
  11  -1  -2  109.49   30.80
  11  -1  -2   80.69   26.80
 -11   1   2  109.19   29.80
 -11   1   2  133.09   31.60
 -11   1   2  126.29   27.90
  10  -1  -2   28.00   22.00
  10  -1  -2  -14.70   24.80
  10  -1  -2   10.00   19.50
 -10   1   2  -23.30   25.60
 -10   1   2   12.50   22.70
 -10   1   2  -23.00   22.70
   9  -1  -2  350.06   30.70
   9  -1  -2  374.86   29.50
   9  -1  -2  312.37   33.70
  -9   1   2  291.17   31.60
  -9   1   2  343.47   34.30
  -9   1   2  300.97   31.40
   8  -1  -2  692.83   39.60
   8  -1  -2  718.43   42.50
   8  -1  -2  718.93   39.90
  -8   1   2  546.15   39.90
  -8   1   2  629.04   41.10
   7  -1  -2  928.81   49.40
   7  -1  -2  865.11   46.20
   7  -1  -2  876.71   45.40
  -7   1   2  788.02   46.10
  -7   1   2  727.03   45.70
   6  -1  -2 1220.98   61.89
   6  -1  -2 1300.07   62.69
   6  -1  -2 1157.08   61.49
  -6   1   2 1194.18   61.59
  -6   1   2 1201.48   61.79
  -6   1   2 1158.68   61.19
   5  -1  -2  229.98   16.20
   5  -1  -2  204.68   16.70
   5  -1  -2  193.08   14.90
  -5   1   2  203.28   14.60
  -5   1   2  229.98   15.00
  -5   1   2  212.18   15.60
   4  -1  -2  426.66   23.10
   4  -1  -2  477.05   23.70
   4  -1  -2  459.35   25.00
   4  -1  -2  418.76   23.30
  -4   1   2  445.06   23.70
  -4   1   2  426.56   24.30
  -4   1   2  443.96   23.90
  -4   1   2  465.45   23.80
   3  -1  -2  368.06   18.70
   3  -1  -2  351.86   18.50
   3  -1  -2  363.56   19.60
   3  -1  -2  390.06   18.80
   3  -1  -2  342.57   19.20
  -3   1   2  364.56   18.90
  -3   1   2  313.37   19.00
  -3   1   2  350.16   18.70
  -3   1   2  353.26   19.10
  -3   1   2  356.86   18.80
   2  -1  -2  950.60   45.50
   2  -1  -2  955.50   45.30
   2  -1  -2  977.60   45.30
   2  -1  -2  880.31   45.10
   2  -1  -2  880.51   45.40
   2  -1  -2  922.21   45.20
  -2   1   2  892.11   45.20
  -2   1   2  916.81   45.40
  -2   1   2  958.20   45.40
  -2   1   2  887.61   46.00
  -2   1   2  946.91   45.50
   1  -1  -2 5386.76  253.77
   1  -1  -2 4606.44  254.87
   1  -1  -2 5527.55  253.77
   1  -1  -2 5425.36  253.57
   1  -1  -2 5205.08  254.27
   1  -1  -2 5575.44  253.87
  -1   1   2 5256.87  254.37
  -1   1   2 5447.66  253.77
  -1   1   2 5190.18  254.47
  -1   1   2 5287.07  254.07
  -1   1   2 5597.34  254.37
   0  -1  -2  754.82   45.10
   0  -1  -2  852.01   44.20
   0  -1  -2  945.51   45.20
   0  -1  -2  884.71   43.50
   0  -1  -2  902.21   44.10
   0   1   2  863.71   43.90
   0   1   2  909.31   44.00
   0   1   2  906.91   43.60
   0   1   2  965.10   46.10
   0   1   2 1023.50   44.00
  -1  -1  -2  230.38   12.90
  -1  -1  -2  195.78   11.10
  -1  -1  -2  197.08   10.80
  -1  -1  -2  180.08   11.50
   1   1   2  182.68   11.40
   1   1   2  208.18   11.00
   1   1   2  214.28   13.10
   1   1   2  198.08   11.10
  -2  -1  -2  570.04   29.20
  -2  -1  -2  534.35   29.30
  -2  -1  -2  577.74   28.90
  -2  -1  -2  680.13   31.90
  -2  -1  -2  540.85   29.70
  -2  -1  -2  526.95   30.40
   2   1   2  608.24   31.40
   2   1   2  549.54   29.60
   2   1   2  603.34   31.10
   2   1   2  608.94   29.10
   2   1   2  566.54   29.30
  -3  -1  -2   44.40    8.60
  -3  -1  -2   48.70    6.90
  -3  -1  -2   56.19    6.30
  -3  -1  -2   35.10    7.90
  -3  -1  -2   52.29    7.00
  -3  -1  -2   48.70    6.60
  -3  -1  -2   58.69    8.40
   3   1   2   52.79    7.30
   3   1   2   43.80    6.40
   3   1   2   55.29    9.00
   3   1   2   64.19    7.10
   3   1   2   59.59    9.60
  -4  -1  -2 1032.70   50.79
  -4  -1  -2 1009.20   50.19
  -4  -1  -2 1078.09   50.19
  -4  -1  -2  967.40   51.59
   4   1   2 1017.60   53.09
   4   1   2  960.50   50.19
   4   1   2  938.21   53.89
  -5  -1  -2  897.51   47.80
  -5  -1  -2  883.01   47.10
   5   1   2  938.11   47.00
   5   1   2  973.30   49.99
   5   1   2  849.61   50.19
  -6  -1  -2  762.12   46.60
  -6  -1  -2  823.22   47.40
  -6  -1  -2  822.82   46.60
   6   1   2  902.51   45.30
   6   1   2  814.02   51.29
   6   1   2  916.61   48.20
  -7  -1  -2  253.47   26.30
  -7  -1  -2  303.67   26.20
   7   1   2  241.18   28.70
   7   1   2  312.47   25.00
   7   1   2  304.27   29.10
  -8  -1  -2  140.49   24.70
  -8  -1  -2  207.48   27.70
  -8  -1  -2  207.18   27.40
   8   1   2  171.28   24.50
   8   1   2  233.38   26.60
  -9  -1  -2   15.10   20.90
  -9  -1  -2  -13.10   19.50
  -9  -1  -2  -31.00   25.70
   9   1   2   13.60   24.40
   9   1   2  -24.40   25.70
   9   1   2   -4.80   25.30
 -10  -1  -2   85.59   31.40
 -10  -1  -2   31.50   24.30
 -10  -1  -2  118.39   26.90
  10   1   2   42.10   28.70
  10   1   2  107.89   34.50
  12  -2  -2   64.39   43.80
  12  -2  -2   97.89   38.80
  12  -2  -2  155.48   30.80
 -12   2   2  123.79   37.60
 -12   2   2  114.79   32.20
  11  -2  -2   38.00   27.80
  11  -2  -2   28.30   34.90
  11  -2  -2   34.10   34.20
 -11   2   2   50.19   36.80
 -11   2   2   36.90   28.70
  10  -2  -2   20.10   23.00
  10  -2  -2   29.40   25.10
  10  -2  -2   19.20   20.50
 -10   2   2   38.10   25.20
 -10   2   2   15.50   24.30
 -10   2   2   19.10   23.40
   9  -2  -2  127.89   20.30
   9  -2  -2   84.29   22.90
  -9   2   2   60.09   21.20
  -9   2   2  135.59   22.80
  -9   2   2   55.59   30.10
   8  -2  -2  652.63   38.50
   8  -2  -2  611.64   40.20
   8  -2  -2  672.03   39.00
  -8   2   2  572.74   39.40
  -8   2   2  676.03   39.60
  -8   2   2  531.15   38.50
   7  -2  -2  379.26   26.30
   7  -2  -2  368.16   25.90
   7  -2  -2  365.86   27.20
  -7   2   2  405.56   26.10
  -7   2   2  310.07   26.80
  -7   2   2  391.36   25.80
   6  -2  -2  801.02   43.10
   6  -2  -2  692.53   43.90
   6  -2  -2  754.32   43.20
  -6   2   2  914.41   44.60
  -6   2   2  828.22   43.30
  -6   2   2  823.62   43.50
  -6   2   2  831.92   42.80
   5  -2  -2  288.17   19.20
   5  -2  -2  274.27   19.50
  -5   2   2  318.37   19.40
  -5   2   2  332.07   18.90
  -5   2   2  293.97   18.60
  -5   2   2  301.07   18.60
   4  -2  -2   14.40    5.00
   4  -2  -2   31.00    6.00
   4  -2  -2   25.40    4.60
   4  -2  -2   20.20    5.00
  -4   2   2   22.70    5.90
  -4   2   2   28.20    5.20
  -4   2   2   15.90    4.50
  -4   2   2   22.30    5.00
  -4   2   2   24.80    5.70
   3  -2  -2 2325.37  116.69
   3  -2  -2 2451.55  117.09
   3  -2  -2 2287.87  116.49
   3  -2  -2 2391.36  116.69
   3  -2  -2 2562.34  116.79
   3  -2  -2 2570.84  116.89
  -3   2   2 2304.37  116.69
  -3   2   2 2411.56  116.79
  -3   2   2 2426.86  116.99
  -3   2   2 2456.05  117.19
  -3   2   2 2454.55  117.09
   2  -2  -2 2837.42  140.79
   2  -2  -2 3029.90  140.89
   2  -2  -2 3025.90  140.99
   2  -2  -2 2896.41  140.99
   2  -2  -2 2983.60  140.99
   2  -2  -2 2927.61  141.09
  -2   2   2 2942.01  140.79
  -2   2   2 2650.14  141.29
  -2   2   2 2801.22  141.19
  -2   2   2 3012.50  141.09
  -2   2   2 2987.40  140.99
  -2   2   2 3142.59  140.99
   1  -2  -2 1447.36   70.19
   1  -2  -2 1514.25   70.29
   1  -2  -2 1401.56   70.39
   1  -2  -2 1436.16   70.19
   1  -2  -2 1430.46   70.09
  -1   2   2 1525.55   70.69
  -1   2   2 1402.46   70.19
  -1   2   2 1408.96   70.59
  -1   2   2 1454.25   70.19
  -1   2   2 1480.15   70.49
   0  -2  -2 2100.99  100.49
   0  -2  -2 2110.69  100.29
   0  -2  -2 2180.98  100.89
   0  -2  -2 1955.20  100.49
   0  -2  -2 1970.70  100.19
   0   2   2 2057.69  100.39
   0   2   2 2140.09  100.09
   0   2   2 2003.00  100.69
   0   2   2 2193.58  101.19
   0   2   2 2128.29  100.39
  -1  -2  -2  759.92   41.40
  -1  -2  -2  884.81   42.30
  -1  -2  -2  834.62   42.20
  -1  -2  -2  829.12   41.30
  -1  -2  -2  850.41   41.40
  -1  -2  -2  816.92   40.70
   1   2   2  892.91   42.70
   1   2   2  856.81   41.30
   1   2   2  785.92   41.60
   1   2   2  847.72   42.90
   1   2   2  844.02   41.40
  -2  -2  -2  161.08   12.90
  -2  -2  -2  174.28   10.60
  -2  -2  -2  171.78   13.90
  -2  -2  -2  152.38    9.40
  -2  -2  -2  175.08   10.70
  -2  -2  -2  152.78   11.10
   2   2   2  177.58   10.90
   2   2   2  173.68   13.10
   2   2   2  176.38   11.00
   2   2   2  178.78   14.50
   2   2   2  172.08   11.10
  -3  -2  -2  606.84   31.90
  -3  -2  -2  608.04   32.50
  -3  -2  -2  626.04   32.10
  -3  -2  -2  611.64   32.10
   3   2   2  621.44   35.50
   3   2   2  635.84   32.50
   3   2   2  621.94   34.50
  -4  -2  -2 1502.05   74.59
  -4  -2  -2 1513.15   74.29
  -4  -2  -2 1410.36   74.89
  -4  -2  -2 1361.16   73.49
   4   2   2 1581.74   77.89
   4   2   2 1549.94   77.09
   4   2   2 1614.74   74.09
  -5  -2  -2  744.83   40.50
  -5  -2  -2  725.93   40.60
  -5  -2  -2  763.52   40.60
   5   2   2  758.62   43.80
   5   2   2  754.12   44.00
   5   2   2  780.42   40.00
  -6  -2  -2  989.10   52.49
  -6  -2  -2  892.71   52.59
  -6  -2  -2  935.61   52.09
   6   2   2  989.20   55.29
   6   2   2  889.91   54.59
   6   2   2 1052.09   50.99
  -7  -2  -2  157.08   21.80
  -7  -2  -2  112.59   19.60
  -7  -2  -2   88.59   18.70
   7   2   2  144.49   21.00
   7   2   2  168.58   23.20
   7   2   2  207.98   21.80
  -8  -2  -2   41.30   19.00
  -8  -2  -2   13.40   18.70
  -8  -2  -2   59.29   22.20
   8   2   2   29.70   22.70
   8   2   2   24.50   17.00
   8   2   2   37.60   22.90
  -9  -2  -2   63.59   24.70
  -9  -2  -2   19.30   22.50
  -9  -2  -2   47.40   23.00
   9   2   2   35.20   28.10
   9   2   2   20.90   24.30
   9   2   2   28.80   27.40
 -10  -2  -2  198.88   29.10
 -10  -2  -2  276.87   38.30
  10   2   2  132.69   35.50
  11  -3  -2   27.50   26.90
  11  -3  -2   47.90   27.60
 -11   3   2    6.60   32.40
 -11   3   2   55.49   29.20
 -11   3   2   53.19   30.90
  10  -3  -2   30.30   25.70
  10  -3  -2  -16.60   21.20
  10  -3  -2   14.60   23.50
 -10   3   2    7.30   25.10
 -10   3   2   27.20   25.80
 -10   3   2   -5.70   23.80
   9  -3  -2  128.59   23.20
   9  -3  -2  114.79   20.20
   9  -3  -2   90.59   20.00
  -9   3   2   70.39   21.60
  -9   3   2  113.59   22.90
   8  -3  -2  564.84   36.30
   8  -3  -2  578.84   36.70
   8  -3  -2  593.24   36.30
  -8   3   2  601.14   36.70
  -8   3   2  559.04   36.20
  -8   3   2  450.35   38.00
   7  -3  -2  675.23   39.20
   7  -3  -2  667.03   39.10
   7  -3  -2  697.53   39.00
  -7   3   2  649.83   40.40
  -7   3   2  711.73   39.20
  -7   3   2  700.33   39.00
   6  -3  -2  753.02   41.00
   6  -3  -2  688.93   40.70
  -6   3   2  766.92   40.70
  -6   3   2  764.72   42.00
  -6   3   2  805.32   40.50
   5  -3  -2  210.68   15.80
   5  -3  -2  218.28   14.10
   5  -3  -2  217.88   16.00
  -5   3   2  229.68   17.00
  -5   3   2  206.18   15.20
  -5   3   2  210.08   14.80
   4  -3  -2    3.00    4.10
   4  -3  -2    6.60    5.10
   4  -3  -2   -0.80    5.00
   4  -3  -2    5.50    5.30
  -4   3   2    7.70    5.80
  -4   3   2    7.80    4.20
  -4   3   2    6.90    4.70
  -4   3   2    4.10    4.40
   3  -3  -2  546.25   28.50
   3  -3  -2  552.04   28.90
   3  -3  -2  599.04   29.90
   3  -3  -2  581.14   28.80
   3  -3  -2  509.75   29.10
   3  -3  -2  576.14   29.20
   3  -3  -2  547.95   29.00
  -3   3   2  618.54   29.20
  -3   3   2  542.95   28.90
  -3   3   2  571.74   30.10
  -3   3   2  599.44   29.40
  -3   3   2  549.65   30.80
   2  -3  -2 3762.02  185.28
   2  -3  -2 3842.32  185.98
   2  -3  -2 3791.12  186.28
   2  -3  -2 3822.22  185.98
   2  -3  -2 3729.13  185.68
   2  -3  -2 3986.00  185.88
   2  -3  -2 3799.02  185.88
  -2   3   2 3851.51  185.88
  -2   3   2 3901.31  186.18
  -2   3   2 3775.52  186.38
  -2   3   2 3955.90  185.48
  -2   3   2 3952.90  186.08
  -2   3   2 4269.37  186.38
   1  -3  -2  418.86   21.30
   1  -3  -2  400.66   21.20
   1  -3  -2  383.36   21.50
   1  -3  -2  431.16   21.60
   1  -3  -2  416.06   21.30
  -1   3   2  409.36   21.30
  -1   3   2  394.16   21.90
  -1   3   2  398.36   21.20
  -1   3   2  431.36   22.10
  -1   3   2  406.96   21.30
   0  -3  -2  233.98   13.30
   0  -3  -2  249.48   13.70
   0  -3  -2  254.27   14.40
   0  -3  -2  226.58   13.30
   0  -3  -2  228.58   13.80
   0  -3  -2  242.68   13.70
   0   3   2  245.68   13.40
   0   3   2  253.57   14.90
   0   3   2  255.17   13.80
   0   3   2  236.68   14.20
  -1  -3  -2  430.56   21.40
  -1  -3  -2  374.56   20.20
  -1  -3  -2  405.06   22.00
  -1  -3  -2  353.46   20.80
  -1  -3  -2  406.06   20.70
  -1  -3  -2  385.46   20.90
   1   3   2  381.66   20.70
   1   3   2  378.26   21.20
   1   3   2  383.86   20.20
   1   3   2  442.56   23.30
   1   3   2  360.86   20.70
  -2  -3  -2   21.30    4.80
  -2  -3  -2   23.40    5.10
  -2  -3  -2   16.50    3.70
  -2  -3  -2   22.70    6.10
   2   3   2   26.90    5.40
   2   3   2   25.80    4.70
   2   3   2   21.90    4.00
   2   3   2   33.50    7.10
  -3  -3  -2  319.27   18.10
  -3  -3  -2  349.77   19.40
  -3  -3  -2  340.17   19.60
  -3  -3  -2  317.47   19.40
   3   3   2  340.87   18.40
   3   3   2  339.37   21.80
   3   3   2  343.47   20.10
   3   3   2  324.37   24.30
  -4  -3  -2 2109.39  103.19
  -4  -3  -2 2140.69  103.09
  -4  -3  -2 1907.41  106.09
  -4  -3  -2 2158.08  104.29
  -4  -3  -2 2148.49  104.29
  -4  -3  -2 2146.69  104.19
   4   3   2 2274.17  103.79
   4   3   2 2068.09  103.29
   4   3   2 2150.18  103.19
   4   3   2 2237.88  104.69
   4   3   2 2105.79  106.19
   4   3   2 2080.19  107.69
  -5  -3  -2  894.81   45.10
  -5  -3  -2  810.02   46.50
  -5  -3  -2  853.31   47.00
  -5  -3  -2  881.91   46.60
   5   3   2  798.32   50.49
   5   3   2  885.71   50.49
   5   3   2 1015.60   48.30
  -6  -3  -2  167.28   21.80
  -6  -3  -2  251.87   23.00
  -6  -3  -2  228.38   22.50
   6   3   2  253.07   20.30
   6   3   2  183.38   28.20
   6   3   2  191.78   26.10
  -7  -3  -2  135.29   20.90
  -7  -3  -2  116.39   23.40
  -7  -3  -2  165.28   27.60
   7   3   2  139.29   22.90
   7   3   2  189.68   25.60
   7   3   2  167.98   18.60
  -8  -3  -2   37.60   26.50
  -8  -3  -2  -31.40   19.70
   8   3   2   -9.00   22.00
   8   3   2  -23.00   25.80
   8   3   2   19.80   18.40
  -9  -3  -2   29.80   24.60
  -9  -3  -2   84.49   29.50
   9   3   2   53.69   28.30
   9   3   2   64.79   33.00
   9   3   2   34.00   29.90
 -10  -3  -2  149.09   29.20
 -10  -3  -2  152.78   35.00
  10   3   2  117.29   35.70
  10   3   2  167.08   29.80
  11  -4  -2  -26.10   27.50
  11  -4  -2   50.19   38.10
  11  -4  -2    0.80   29.20
 -11   4   2  -47.30   33.30
 -11   4   2  -27.00   30.60
  10  -4  -2   95.79   47.20
  10  -4  -2  110.39   27.20
  10  -4  -2   80.29   26.00
  10  -4  -2   98.09   23.80
 -10   4   2   86.19   27.60
 -10   4   2   94.79   29.30
 -10   4   2   29.60   26.20
   9  -4  -2  427.16   37.20
   9  -4  -2  436.26   36.10
   9  -4  -2  512.25   34.90
   9  -4  -2  462.95   36.90
  -9   4   2  474.95   40.60
  -9   4   2  497.35   37.70
  -9   4   2  367.46   36.80
   8  -4  -2  426.36   27.80
   8  -4  -2  382.06   28.40
   8  -4  -2  377.66   29.50
   8  -4  -2  371.46   30.40
  -8   4   2  326.77   29.30
  -8   4   2  441.36   29.80
  -8   4   2  289.87   33.10
   7  -4  -2  831.42   48.20
   7  -4  -2  914.51   46.50
   7  -4  -2  829.82   48.30
  -7   4   2  949.40   47.70
  -7   4   2  882.71   47.90
  -7   4   2  822.42   50.09
   6  -4  -2  599.24   34.60
   6  -4  -2  644.24   35.20
   6  -4  -2  587.94   33.30
  -6   4   2  637.44   36.80
  -6   4   2  612.64   34.50
  -6   4   2  627.24   34.40
   5  -4  -2  266.27   17.20
   5  -4  -2  294.57   19.10
   5  -4  -2  278.87   16.90
   5  -4  -2  286.17   18.40
  -5   4   2  314.37   20.80
  -5   4   2  267.97   17.70
  -5   4   2  271.97   18.20
   4  -4  -2  140.49   11.50
   4  -4  -2  110.69    9.80
   4  -4  -2  113.89    9.80
   4  -4  -2  125.99   10.40
  -4   4   2  138.99   11.30
  -4   4   2  119.29   10.80
  -4   4   2  126.69   12.40
   3  -4  -2  478.65   27.20
   3  -4  -2  513.25   26.50
   3  -4  -2  486.95   26.60
   3  -4  -2  513.25   27.10
   3  -4  -2  509.75   26.10
  -3   4   2  570.74   27.60
  -3   4   2  459.85   30.40
  -3   4   2  535.85   29.90
  -3   4   2  492.95   26.30
  -3   4   2  496.95   27.60
   2  -4  -2 1564.14   82.49
   2  -4  -2 1640.84   80.79
   2  -4  -2 1685.83   81.79
   2  -4  -2 1740.43   81.49
   2  -4  -2 1502.25   81.39
  -2   4   2 1666.53   81.49
  -2   4   2 1654.63   82.19
  -2   4   2 1719.83   80.89
  -2   4   2 1747.63   81.69
  -2   4   2 1811.82   82.69
   1  -4  -2  735.43   36.70
   1  -4  -2  700.73   36.30
   1  -4  -2  736.63   37.70
   1  -4  -2  740.23   36.50
   1  -4  -2  711.33   37.00
   1  -4  -2  702.53   37.00
  -1   4   2  727.53   36.50
  -1   4   2  734.83   36.80
  -1   4   2  674.03   38.30
  -1   4   2  733.03   37.40
  -1   4   2  793.32   38.10
   0  -4  -2  756.12   37.20
   0  -4  -2  741.03   37.80
   0  -4  -2  732.33   37.60
   0  -4  -2  738.23   37.30
   0  -4  -2  705.73   37.90
   0   4   2  712.73   37.50
   0   4   2  698.13   38.50
   0   4   2  853.51   38.30
   0   4   2  773.12   39.00
  -1  -4  -2  216.58   13.30
  -1  -4  -2  225.58   13.20
  -1  -4  -2  208.08   13.70
  -1  -4  -2  182.88   18.10
  -1  -4  -2  215.18   13.80
   1   4   2  205.08   13.20
   1   4   2  217.38   14.20
   1   4   2  230.18   15.60
   1   4   2  251.87   16.10
   1   4   2  202.08   17.50
  -2  -4  -2   -2.20    5.30
  -2  -4  -2    4.90    4.50
  -2  -4  -2    9.90    5.10
  -2  -4  -2   -0.70    5.20
   2   4   2    2.20    6.40
   2   4   2    3.00    4.80
   2   4   2   16.60    8.70
   2   4   2    3.40    6.10
  -3  -4  -2  218.18   15.80
  -3  -4  -2  221.48   15.10
  -3  -4  -2  233.28   16.10
  -3  -4  -2  215.98   16.40
   3   4   2  227.38   21.20
   3   4   2  247.28   18.50
   3   4   2  219.98   15.00
   3   4   2  229.38   18.30
  -4  -4  -2  926.21   47.50
  -4  -4  -2  920.31   47.60
  -4  -4  -2  907.21   47.80
  -4  -4  -2  912.61   46.90
   4   4   2  925.91   50.09
   4   4   2  971.60   48.20
   4   4   2  846.42   51.89
  -5  -4  -2  734.33   40.30
  -5  -4  -2  727.13   38.40
  -5  -4  -2  719.83   39.20
  -5  -4  -2  664.33   39.70
   5   4   2  752.22   39.60
   5   4   2  646.24   44.10
   5   4   2  757.42   44.10
  -6  -4  -2  275.67   26.00
  -6  -4  -2  187.78   24.70
  -6  -4  -2  272.67   22.30
   6   4   2  217.18   32.00
   6   4   2  220.58   29.20
   6   4   2  276.07   22.60
  -7  -4  -2   21.90   20.50
   7   4   2   70.59   16.50
   7   4   2   99.99   26.60
   7   4   2   55.89   22.50
  -8  -4  -2   34.10   29.20
  -8  -4  -2  -56.49   22.90
   8   4   2   14.50   26.10
   8   4   2   15.70   19.70
   8   4   2   79.49   37.60
  -9  -4  -2  118.39   34.80
  -9  -4  -2   49.80   26.60
   9   4   2   93.89   44.30
   9   4   2   42.60   31.10
   9   4   2   -5.30   37.20
  11  -5  -2   23.70   30.70
  11  -5  -2   39.80   30.60
 -11   5   2  -51.49   31.50
 -11   5   2    4.90   35.40
  10  -5  -2   97.59   28.20
  10  -5  -2   87.09   23.50
  10  -5  -2  104.29   28.20
 -10   5   2   92.39   27.10
 -10   5   2   48.50   31.50
 -10   5   2   60.69   25.70
   9  -5  -2  385.16   35.20
   9  -5  -2  299.27   36.40
   9  -5  -2  384.46   32.20
  -9   5   2  362.56   35.70
  -9   5   2  429.76   33.30
  -9   5   2  276.87   41.10
   8  -5  -2  709.93   40.30
   8  -5  -2  701.93   43.80
   8  -5  -2  661.13   43.70
  -8   5   2  693.93   43.40
  -8   5   2  765.62   41.80
  -8   5   2  600.44   46.80
   7  -5  -2  923.51   50.09
   7  -5  -2  992.80   52.29
   7  -5  -2  963.00   52.39
  -7   5   2  964.60   51.79
  -7   5   2  898.51   54.79
   6  -5  -2  250.87   18.40
   6  -5  -2  280.97   20.00
   6  -5  -2  242.48   20.80
  -6   5   2  248.08   19.90
  -6   5   2  257.27   20.00
  -6   5   2  273.27   23.60
   5  -5  -2    8.00    8.10
   5  -5  -2    7.90    7.00
   5  -5  -2   10.40    7.20
  -5   5   2   13.20    8.70
  -5   5   2    8.70    9.50
  -5   5   2   15.80    7.30
   4  -5  -2  495.55   28.60
   4  -5  -2  495.85   27.60
   4  -5  -2  495.65   27.50
  -4   5   2  535.55   29.60
  -4   5   2  538.85   29.30
  -4   5   2  526.85   28.40
   3  -5  -2  934.01   47.10
   3  -5  -2  898.11   47.60
   3  -5  -2  893.81   46.60
  -3   5   2  938.51   48.60
  -3   5   2  994.60   48.40
  -3   5   2  960.80   47.50
   2  -5  -2 2232.68  109.69
   2  -5  -2 2343.97  110.39
   2  -5  -2 2318.17  110.19
   2  -5  -2 2250.37  110.69
  -2   5   2 2228.08  111.29
  -2   5   2 2292.17  109.69
  -2   5   2 2107.29  111.59
  -2   5   2 2429.46  111.59
   1  -5  -2 2005.40   99.29
   1  -5  -2 2050.19  100.49
   1  -5  -2 2084.59  100.39
   1  -5  -2 2018.00   99.89
  -1   5   2 2035.60  101.19
  -1   5   2 2085.29  100.19
  -1   5   2 2162.08  101.69
   0  -5  -2  388.56   21.50
   0  -5  -2  405.36   21.00
   0  -5  -2  371.36   21.50
   0  -5  -2  362.96   20.80
   0  -5  -2  382.86   21.50
   0   5   2  364.66   22.40
   0   5   2  385.56   23.00
   0   5   2  401.76   22.00
  -1  -5  -2   96.79    9.90
  -1  -5  -2   79.39    9.50
  -1  -5  -2   90.29   12.60
  -1  -5  -2  103.79    8.90
   1   5   2   84.79   11.10
   1   5   2  100.79   12.40
   1   5   2   96.79   12.00
  -2  -5  -2  156.08   12.10
  -2  -5  -2  153.28   12.60
  -2  -5  -2  155.58   12.50
   2   5   2  169.48   17.00
   2   5   2  148.29   15.50
   2   5   2  153.88   14.20
  -3  -5  -2  566.84   30.40
  -3  -5  -2  515.75   29.90
  -3  -5  -2  534.25   29.50
   3   5   2  584.34   30.80
   3   5   2  495.95   34.50
   3   5   2  521.55   32.30
  -4  -5  -2  509.65   31.10
  -4  -5  -2  523.95   31.80
  -4  -5  -2  565.94   31.60
  -4  -5  -2  568.34   31.10
   4   5   2  550.94   34.70
   4   5   2  615.54   32.30
   4   5   2  452.05   37.20
  -5  -5  -2 1070.89   59.69
  -5  -5  -2 1184.48   60.79
  -5  -5  -2 1264.47   59.19
   5   5   2 1188.08   64.49
   5   5   2 1006.90   64.89
   5   5   2 1111.79   59.49
  -6  -5  -2  218.08   23.10
  -6  -5  -2  178.28   26.60
  -6  -5  -2  174.58   25.40
   6   5   2  184.88   23.60
   6   5   2  178.68   29.20
   6   5   2  220.68   28.10
  -7  -5  -2   24.30   22.70
  -7  -5  -2   30.00   25.30
  -7  -5  -2    9.40   18.70
   7   5   2  -10.40   29.30
   7   5   2   28.20   23.70
   7   5   2   25.70   18.60
  -8  -5  -2  -28.80   25.20
  -8  -5  -2   16.50   32.60
   8   5   2  -15.10   20.30
   8   5   2   21.00   28.70
   8   5   2   18.10   34.90
  -9  -5  -2  155.48   29.80
  -9  -5  -2  178.58   37.60
   9   5   2   75.49   32.80
   9   5   2  136.09   42.10
  11  -6  -2   -0.70   31.50
  11  -6  -2   28.90   31.80
 -11   6   2   27.20   34.00
 -11   6   2  -36.50   38.20
  10  -6  -2  136.09   31.20
  10  -6  -2   97.49   29.70
 -10   6   2   69.39   35.50
 -10   6   2  103.39   29.00
   9  -6  -2  339.27   37.30
   9  -6  -2  392.06   32.50
   9  -6  -2  302.07   37.50
  -9   6   2  387.66   35.40
  -9   6   2  275.87   44.00
   8  -6  -2  734.73   47.40
   8  -6  -2  739.83   41.80
   8  -6  -2  685.63   45.70
  -8   6   2  624.34   50.09
  -8   6   2  726.03   44.90
   7  -6  -2  825.52   44.60
   7  -6  -2  803.22   46.60
   7  -6  -2  829.22   47.60
  -7   6   2  791.22   46.60
  -7   6   2  829.82   52.99
   6  -6  -2  369.36   25.10
   6  -6  -2  346.87   23.90
   6  -6  -2  383.76   26.50
  -6   6   2  392.66   25.70
  -6   6   2  405.86   29.80
  -6   6   2  347.77   26.80
   5  -6  -2  101.59   12.80
   5  -6  -2  106.99   13.00
   5  -6  -2  105.99   13.70
  -5   6   2  114.19   16.90
  -5   6   2  115.49   16.30
  -5   6   2  118.29   14.40
   4  -6  -2  437.96   24.90
   4  -6  -2  412.06   25.90
   4  -6  -2  445.96   25.10
  -4   6   2  442.46   27.20
  -4   6   2  457.95   27.70
  -4   6   2  432.56   26.60
   3  -6  -2  682.23   36.90
   3  -6  -2  720.73   37.10
   3  -6  -2  678.53   37.80
  -3   6   2  746.83   39.30
  -3   6   2  704.83   38.90
  -3   6   2  752.52   37.70
   2  -6  -2 1667.53   81.69
   2  -6  -2 1610.64   81.99
   2  -6  -2 1637.24   81.19
  -2   6   2 1681.93   81.69
  -2   6   2 1681.63   81.59
  -2   6   2 1721.03   83.29
  -2   6   2 1620.14   82.79
   1  -6  -2  981.50   50.69
   1  -6  -2  971.10   48.80
   1  -6  -2  973.90   48.90
   1  -6  -2  974.50   49.40
   1  -6  -2  965.00   49.70
  -1   6   2 1002.20   49.20
  -1   6   2  934.51   49.20
  -1   6   2  983.80   50.59
  -1   6   2  947.41   48.10
  -1   6   2 1027.00   51.39
   0  -6  -2  107.39   11.50
   0  -6  -2  109.29   11.20
   0  -6  -2  108.09   10.40
   0   6   2  115.19   13.40
   0   6   2  121.29   12.60
   0   6   2  103.89   13.40
  -1  -6  -2    3.40    6.70
  -1  -6  -2    1.60    5.50
  -1  -6  -2    8.70    6.80
   1   6   2   14.80    9.00
   1   6   2    6.40    7.30
   1   6   2    2.00    8.40
  -2  -6  -2   70.19    9.70
  -2  -6  -2   71.89    9.90
  -2  -6  -2   64.69    8.70
   2   6   2   84.79   13.90
   2   6   2   73.49   13.20
   2   6   2   73.69   12.30
  -3  -6  -2  554.54   31.60
  -3  -6  -2  553.04   32.50
  -3  -6  -2  640.34   32.90
   3   6   2  577.24   35.30
   3   6   2  578.74   33.30
   3   6   2  507.65   37.30
  -4  -6  -2 1078.79   56.59
  -4  -6  -2 1189.98   56.99
  -4  -6  -2 1135.79   57.89
   4   6   2  920.91   61.99
   4   6   2 1095.19   60.49
  -5  -6  -2  701.63   37.60
  -5  -6  -2  554.64   37.50
  -5  -6  -2  587.84   45.10
   5   6   2  506.65   44.20
   5   6   2  700.23   44.20
  -6  -6  -2  239.18   26.30
  -6  -6  -2  221.18   30.80
  -6  -6  -2  166.18   23.90
   6   6   2  212.48   31.20
   6   6   2  216.88   27.00
   6   6   2  194.38   27.90
  -7  -6  -2   61.59   23.30
  -7  -6  -2   11.10   25.60
  -7  -6  -2   41.90   28.80
   7   6   2   34.30   27.90
   7   6   2   19.30   32.90
  -8  -6  -2   55.59   37.60
  -8  -6  -2   73.29   27.50
   8   6   2   43.90   32.60
   8   6   2   16.20   40.30
  10  -7  -2  195.58   33.30
  10  -7  -2  159.68   33.20
 -10   7   2  284.67   41.30
 -10   7   2  197.08   39.90
   9  -7  -2  375.76   39.70
   9  -7  -2  298.57   40.50
  -9   7   2  385.16   37.40
  -9   7   2  288.67   39.00
   8  -7  -2  542.15   43.40
   8  -7  -2  680.43   42.00
   8  -7  -2  580.24   38.60
  -8   7   2  553.24   42.50
  -8   7   2  616.04   47.10
  -8   7   2  595.54   48.20
   7  -7  -2  458.85   31.70
   7  -7  -2  414.96   34.90
   7  -7  -2  436.76   27.90
  -7   7   2  377.46   36.30
  -7   7   2  324.77   31.80
  -7   7   2  382.16   30.30
   6  -7  -2  131.59   19.20
   6  -7  -2  129.49   17.30
   6  -7  -2  112.79   14.20
  -6   7   2  146.39   19.00
  -6   7   2  146.69   22.30
  -6   7   2  156.48   23.30
   5  -7  -2   -5.70    9.90
   5  -7  -2    5.30    9.30
   5  -7  -2  -16.90   10.30
  -5   7   2    4.70   10.20
  -5   7   2   12.80   12.20
  -5   7   2    4.60   13.20
   4  -7  -2  384.46   25.20
   4  -7  -2  391.36   24.20
   4  -7  -2  382.16   23.70
  -4   7   2  396.86   24.70
  -4   7   2  406.96   26.90
  -4   7   2  381.56   27.60
   3  -7  -2  884.61   48.10
   3  -7  -2  899.21   47.30
   3  -7  -2  905.91   47.00
  -3   7   2  924.51   49.80
  -3   7   2  977.90   47.70
  -3   7   2  903.81   49.10
   2  -7  -2  945.41   48.90
   2  -7  -2  927.01   49.30
   2  -7  -2  944.51   48.10
  -2   7   2  963.60   50.59
  -2   7   2  974.10   51.19
   1  -7  -2 1161.38   58.99
   1  -7  -2 1141.89   58.49
   1  -7  -2 1154.88   57.29
  -1   7   2 1175.98   60.69
  -1   7   2 1141.79   59.89
   0  -7  -2  146.49   13.30
   0  -7  -2  112.19   12.80
   0   7   2   99.79   15.00
   0   7   2  105.89   15.60
   0   7   2  104.29   14.70
  -1  -7  -2   19.00    7.30
  -1  -7  -2   20.30    8.50
  -1  -7  -2   21.90    8.50
   1   7   2   32.00   10.90
   1   7   2   21.90   10.40
   1   7   2   12.80   10.80
  -2  -7  -2    5.50    8.80
  -2  -7  -2   13.70    7.60
  -2  -7  -2    5.50    9.50
   2   7   2   -1.00   11.90
   2   7   2   -6.20   12.30
   2   7   2    8.80   10.00
  -3  -7  -2  536.75   33.20
  -3  -7  -2  609.04   33.70
  -3  -7  -2  503.35   31.40
   3   7   2  573.14   33.60
   3   7   2  577.84   37.10
   3   7   2  502.35   38.60
  -4  -7  -2  851.21   44.30
  -4  -7  -2  721.73   42.30
   4   7   2  781.02   49.10
   4   7   2  650.33   50.69
  -5  -7  -2  344.17   30.60
  -5  -7  -2  341.17   29.60
  -5  -7  -2  283.37   28.60
   5   7   2  316.97   38.10
   5   7   2  275.17   39.10
  -6  -7  -2   71.99   29.10
  -6  -7  -2   80.99   24.90
  -6  -7  -2   95.79   20.70
   6   7   2   61.89   30.60
   6   7   2   79.89   28.60
  -7  -7  -2   -4.50   31.80
  -7  -7  -2   -8.70   28.00
   7   7   2   41.90   32.90
   7   7   2    1.20   36.40
  -8  -7  -2   34.60   30.00
  -8  -7  -2   61.69   40.40
   8   7   2   78.69   35.60
   8   7   2   20.60   46.00
  10  -8  -2  232.98   37.90
  10  -8  -2  254.27   36.00
 -10   8   2  228.68   41.10
 -10   8   2  270.87   36.50
   9  -8  -2  392.26   42.10
   9  -8  -2  323.67   44.90
  -9   8   2  311.07   50.29
  -9   8   2  404.36   39.70
   8  -8  -2  419.26   36.10
   8  -8  -2  323.37   38.40
  -8   8   2  334.67   42.70
  -8   8   2  336.97   33.60
  -8   8   2  262.27   36.70
   7  -8  -2  155.78   21.90
   7  -8  -2  161.88   22.30
   7  -8  -2  116.49   18.00
  -7   8   2  126.19   23.30
  -7   8   2  201.78   32.70
  -7   8   2  164.18   19.90
   6  -8  -2   23.40   14.60
   6  -8  -2   15.20   13.20
   6  -8  -2   22.00   15.60
  -6   8   2   47.40   18.60
  -6   8   2   21.90   14.10
  -6   8   2   56.69   18.30
   5  -8  -2   40.40   13.40
   5  -8  -2   44.60   11.80
   5  -8  -2   43.10   12.90
  -5   8   2   88.29   16.90
  -5   8   2   48.20   16.70
  -5   8   2   51.59   12.70
   4  -8  -2  793.72   44.90
   4  -8  -2  832.62   43.80
   4  -8  -2  788.52   43.30
  -4   8   2  804.32   46.60
  -4   8   2  816.22   47.30
   3  -8  -2  905.21   47.30
   3  -8  -2  903.21   47.10
   3  -8  -2  877.71   48.30
  -3   8   2  895.51   51.19
  -3   8   2  905.81   49.60
   2  -8  -2  518.85   30.30
   2  -8  -2  503.35   28.30
   2  -8  -2  485.85   29.40
  -2   8   2  497.15   31.90
  -2   8   2  502.05   33.20
   1  -8  -2  716.53   39.70
   1  -8  -2  666.03   38.90
   1  -8  -2  743.63   37.50
  -1   8   2  706.13   39.40
  -1   8   2  725.03   42.20
  -1   8   2  736.33   41.30
   0  -8  -2  195.38   18.20
   0  -8  -2  202.18   17.70
   0   8   2  209.38   20.50
   0   8   2  178.48   19.30
   0   8   2  192.88   23.90
  -1  -8  -2   62.39   11.50
  -1  -8  -2   66.09   10.90
   1   8   2   49.10   13.10
   1   8   2   56.39   13.70
   1   8   2   69.59   14.70
  -2  -8  -2  543.15   31.60
  -2  -8  -2  431.16   30.50
   2   8   2  454.25   34.10
   2   8   2  508.15   32.10
   2   8   2  467.35   34.70
  -3  -8  -2  292.17   26.00
  -3  -8  -2  286.77   25.40
   3   8   2  279.37   30.10
   3   8   2  222.38   31.70
   3   8   2  295.47   25.20
  -4  -8  -2  408.96   32.60
  -4  -8  -2  534.05   35.10
  -4  -8  -2  521.55   35.10
   4   8   2  416.06   47.70
   4   8   2  497.35   42.40
  -5  -8  -2  326.17   32.80
  -5  -8  -2  271.17   33.00
  -5  -8  -2  214.88   31.00
   5   8   2  201.68   34.70
   5   8   2  328.27   41.60
  -6  -8  -2   18.50   28.00
  -6  -8  -2   18.00   26.30
  -6  -8  -2   45.40   38.70
   6   8   2   67.29   34.10
   6   8   2   22.10   33.60
  -7  -8  -2  -26.70   29.70
  -7  -8  -2    1.70   34.30
   7   8   2  -19.50   43.00
   7   8   2   26.60   35.30
   9  -9  -2  219.78   36.70
   9  -9  -2  373.06   44.50
  -9   9   2  322.97   40.90
  -9   9   2  221.68   40.40
   8  -9  -2  183.18   30.10
   8  -9  -2  286.27   35.20
  -8   9   2   97.29   34.20
  -8   9   2  206.78   31.40
  -8   9   2  155.68   33.50
   7  -9  -2  211.28   29.90
   7  -9  -2  169.98   25.80
  -7   9   2  239.68   30.90
  -7   9   2  203.58   29.90
  -7   9   2  144.49   27.20
   6  -9  -2   24.30   17.80
   6  -9  -2   13.70   15.20
  -6   9   2   -8.70   21.30
  -6   9   2   32.10   21.90
  -6   9   2    3.00   14.60
   5  -9  -2  133.09   20.40
   5  -9  -2  152.68   22.60
   5  -9  -2  159.88   18.00
  -5   9   2  163.28   22.90
  -5   9   2  155.18   22.30
   4  -9  -2  307.87   26.90
   4  -9  -2  335.57   24.40
   4  -9  -2  298.47   25.70
  -4   9   2  312.37   29.20
  -4   9   2  291.67   30.10
   3  -9  -2  800.32   46.20
   3  -9  -2  814.52   47.90
   3  -9  -2  911.71   46.30
  -3   9   2  902.41   50.79
  -3   9   2  853.51   49.90
   2  -9  -2  306.57   23.60
   2  -9  -2  353.16   22.80
  -2   9   2  345.57   28.50
  -2   9   2  330.27   28.10
   1  -9  -2   96.29   15.60
   1  -9  -2   97.49   11.10
   1  -9  -2  104.59   13.60
  -1   9   2   81.19   13.70
  -1   9   2  117.69   16.60
   0  -9  -2   10.30   12.40
   0  -9  -2   13.70   10.90
   0   9   2   17.70   13.80
   0   9   2   15.40   14.70
   0   9   2   21.50   13.00
  -1  -9  -2  100.09   18.10
   1   9   2  102.59   18.90
   1   9   2  115.89   17.00
   1   9   2  114.79   18.30
  -2  -9  -2  288.77   25.00
   2   9   2  300.77   27.70
   2   9   2  244.08   31.10
   2   9   2  294.37   32.00
  -3  -9  -2  622.34   41.60
  -3  -9  -2  717.03   42.10
   3   9   2  459.85   66.99
   3   9   2  635.44   47.50
  -4  -9  -2  398.26   36.90
  -4  -9  -2  502.55   36.80
   4   9   2  309.17   47.50
   4   9   2  412.36   45.40
  -5  -9  -2   88.79   27.10
  -5  -9  -2  129.79   24.00
   5   9   2   85.79   35.30
   5   9   2  190.78   34.40
  -6  -9  -2   -0.40   30.00
  -6  -9  -2   35.40   33.20
   6   9   2   -2.10   39.90
   6   9   2  -12.20   35.50
   8 -10  -2  119.59   28.90
   8 -10  -2  120.19   27.30
  -8  10   2  150.48   36.50
   7 -10  -2  133.09   25.90
   7 -10  -2  112.89   22.20
  -7  10   2  138.49   33.60
  -7  10   2   82.79   26.40
   6 -10  -2   18.10   22.70
   6 -10  -2   17.60   20.50
   6 -10  -2    0.70   17.50
  -6  10   2   88.99   25.50
  -6  10   2   10.50   23.80
   5 -10  -2  179.28   24.00
   5 -10  -2  184.18   27.70
  -5  10   2  192.38   26.80
  -5  10   2  238.08   32.30
   4 -10  -2  556.14   37.90
   4 -10  -2  485.45   35.20
   4 -10  -2  604.54   36.20
  -4  10   2  599.24   41.30
  -4  10   2  529.45   43.00
   3 -10  -2  547.85   34.90
   3 -10  -2  542.25   37.20
   3 -10  -2  549.25   36.10
  -3  10   2  566.24   41.80
  -3  10   2  593.14   40.20
   2 -10  -2  290.67   25.10
   2 -10  -2  351.06   24.10
   2 -10  -2  304.57   27.60
  -2  10   2  316.47   32.00
  -2  10   2  309.37   33.30
   1 -10  -2   87.09   12.70
   1 -10  -2  106.39   17.70
   1 -10  -2   95.39   19.30
  -1  10   2   78.89   16.90
  -1  10   2   58.09   19.40
  -1  10   2  130.49   21.80
   0 -10  -2    6.70   13.70
   0 -10  -2   14.20   14.70
   0  10   2   13.60   16.70
   0  10   2   14.20   18.00
   0  10   2  -10.60   16.20
  -1 -10  -2  104.39   17.60
  -1 -10  -2   96.19   17.00
   1  10   2   98.89   21.70
   1  10   2   55.99   20.90
   1  10   2  104.89   19.20
  -2 -10  -2  281.47   29.60
  -2 -10  -2  308.57   30.10
   2  10   2  221.48   34.60
   2  10   2  218.38   35.60
   2  10   2  298.87   32.00
  -3 -10  -2  415.56   36.60
  -3 -10  -2  353.26   36.10
   3  10   2  310.57   46.40
   3  10   2  403.76   44.30
  -4 -10  -2  156.98   27.60
   4  10   2  115.89   35.80
   4  10   2  194.48   35.30
   6 -11  -2   43.10   21.70
   6 -11  -2  -12.20   22.30
  -6  11   2   -5.20   26.60
  -6  11   2  -22.10   27.30
   5 -11  -2  147.59   21.60
   5 -11  -2   96.39   23.10
  -5  11   2  133.69   29.30
  -5  11   2  142.79   26.90
   4 -11  -2  475.05   34.90
   4 -11  -2  414.46   36.40
   4 -11  -2  393.36   32.00
  -4  11   2  499.65   40.50
  -4  11   2  397.46   43.30
   3 -11  -2  235.58   28.70
   3 -11  -2  342.97   31.50
   3 -11  -2  374.06   28.90
  -3  11   2  252.67   37.70
  -3  11   2  348.17   36.90
   2 -11  -2  265.07   26.70
   2 -11  -2  285.37   31.50
   2 -11  -2  247.38   30.50
  -2  11   2  279.37   35.90
  -2  11   2  225.88   32.30
   1 -11  -2    1.80   16.60
   1 -11  -2   59.19   18.40
  -1  11   2   54.59   20.60
  -1  11   2   10.30   22.10
   0 -11  -2   -0.20   16.40
   0 -11  -2   -1.10   17.50
   0  11   2  -11.40   21.70
   0  11   2   -2.70   20.90
   0  11   2   -3.10   21.30
  -1 -11  -2  152.78   22.10
  -1 -11  -2  113.99   22.20
   1  11   2  140.79   29.60
   1  11   2   94.79   26.10
   1  11   2  139.39   26.70
  -2 -11  -2  191.38   26.00
  -2 -11  -2  164.28   25.80
   2  11   2  146.79   31.30
   2  11   2  192.58   30.90
  -3 -11  -2  171.18   28.10
  -3 -11  -2  202.48   27.50
   3  11   2  164.18   33.40
   3  11   2  139.19   36.80
   3 -12  -2  274.57   30.90
   3 -12  -2  280.17   33.70
  -3  12   2  354.66   40.70
  -3  12   2  264.47   43.30
   2 -12  -2   55.49   19.70
   2 -12  -2  104.99   21.50
  -2  12   2   70.19   25.50
  -2  12   2   97.79   27.50
   1 -12  -2   31.20   19.40
   1 -12  -2  -27.90   19.60
  -1  12   2   22.20   25.30
  -1  12   2   -3.00   24.20
   0 -12  -2   28.40   21.40
   0  12   2  -11.80   25.60
   3  12  -3   11.10   21.70
   3  12  -3   21.20   25.90
   3  12  -3    5.30   22.10
  -3 -12   3   55.09   19.30
  -3 -12   3    4.90   21.60
  -3 -12   3   -2.90   30.60
   2  12  -3  103.49   22.90
   2  12  -3   99.09   22.70
   2  12  -3  106.79   25.00
  -2 -12   3   82.89   19.30
  -2 -12   3   94.29   21.90
  -2 -12   3   79.99   31.10
   1  12  -3  263.57   32.30
   1  12  -3  251.67   34.00
  -1 -12   3  297.77   33.40
  -1 -12   3  300.37   29.50
  -1 -12   3  254.47   33.80
   0  12  -3  260.27   31.50
   0  12  -3  282.07   35.30
   0 -12   3  312.07   33.20
   0 -12   3  304.67   31.20
  -1  12  -3  198.58   29.50
  -1  12  -3  211.28   25.70
  -1  12  -3  207.78   28.90
   1 -12   3  248.38   30.20
   1 -12   3  209.18   25.30
  -2  12  -3   23.30   20.10
  -2  12  -3   70.89   18.10
  -2  12  -3   38.30   18.70
   2 -12   3   37.20   18.50
   2 -12   3   59.09   19.40
  -3  12  -3   16.80   20.80
  -3  12  -3   -8.30   22.10
  -3  12  -3    5.10   17.00
   3 -12   3   22.30   21.50
   3 -12   3    4.60   18.90
  -4  12  -3   91.39   27.10
  -4  12  -3  130.49   22.10
  -4  12  -3  171.78   26.60
   4 -12   3  178.88   24.80
   4 -12   3  216.08   27.50
   5  11  -3  120.39   23.50
   5  11  -3  109.39   27.20
  -5 -11   3  107.09   28.30
  -5 -11   3  173.08   33.20
   4  11  -3   29.70   25.60
   4  11  -3   23.50   22.30
   4  11  -3   53.29   20.60
  -4 -11   3   38.60   27.70
  -4 -11   3   71.19   23.40
   3  11  -3   34.90   19.50
   3  11  -3  -12.40   19.40
   3  11  -3  -21.00   20.40
  -3 -11   3   27.40   19.40
  -3 -11   3    2.40   15.80
  -3 -11   3   43.80   27.90
   2  11  -3  299.27   32.30
   2  11  -3  354.86   33.60
   2  11  -3  329.67   33.80
  -2 -11   3  336.47   29.10
  -2 -11   3  320.07   41.60
  -2 -11   3  302.77   31.90
   1  11  -3  618.44   42.90
   1  11  -3  657.73   44.50
  -1 -11   3  666.73   41.30
  -1 -11   3  695.83   43.40
  -1 -11   3  686.23   51.09
   0  11  -3  402.86   31.50
   0  11  -3  398.36   32.20
   0  11  -3  366.06   30.80
   0 -11   3  282.47   39.80
   0 -11   3  386.16   32.20
   0 -11   3  444.56   31.60
  -1  11  -3  237.68   27.50
  -1  11  -3  252.47   26.20
  -1  11  -3  256.77   25.20
   1 -11   3  233.28   28.60
   1 -11   3  265.17   27.50
  -2  11  -3   27.70   14.30
  -2  11  -3   13.20   16.70
   2 -11   3   29.90   16.00
   2 -11   3   15.60   16.70
  -3  11  -3   -8.60   14.00
  -3  11  -3  -17.00   20.10
  -3  11  -3    9.40   18.40
   3 -11   3   14.40   18.00
   3 -11   3    5.10   16.60
  -4  11  -3  113.99   22.90
  -4  11  -3   73.79   17.20
  -4  11  -3  120.09   23.30
   4 -11   3  124.69   22.60
   4 -11   3   85.79   20.80
  -5  11  -3  371.16   34.20
  -5  11  -3  368.36   42.80
  -5  11  -3  361.46   43.00
   5 -11   3  393.86   39.80
   5 -11   3  353.06   38.40
  -6  11  -3  291.57   38.60
  -6  11  -3  315.37   36.20
  -6  11  -3  323.87   47.50
   6 -11   3  367.36   43.30
   6 -11   3  369.56   40.40
   6 -11   3  344.07   41.30
   6  10  -3  165.98   29.70
   6  10  -3  107.79   28.40
   6  10  -3   78.19   23.50
  -6 -10   3  102.29   32.50
  -6 -10   3   93.09   28.80
   5  10  -3   51.69   23.20
   5  10  -3   89.19   24.10
   5  10  -3  104.09   21.20
  -5 -10   3   92.19   27.70
  -5 -10   3   83.59   23.80
   4  10  -3   20.60   16.40
   4  10  -3    3.60   20.10
   4  10  -3   22.00   18.10
  -4 -10   3    5.30   18.40
  -4 -10   3   24.60   24.90
  -4 -10   3   20.70   14.50
   3  10  -3  211.88   26.00
   3  10  -3  217.28   28.60
   3  10  -3  215.78   26.30
  -3 -10   3  260.77   28.10
  -3 -10   3  257.47   24.40
   2  10  -3  313.07   29.80
   2  10  -3  324.97   27.70
  -2 -10   3  341.97   27.90
  -2 -10   3  314.87   35.80
   1  10  -3  790.32   46.80
  -1 -10   3  790.72   45.90
  -1 -10   3  782.42   46.30
  -1 -10   3  823.02   52.09
   0  10  -3  699.43   43.00
   0  10  -3  777.12   41.40
   0  10  -3  756.72   43.10
   0 -10   3  719.83   43.20
   0 -10   3  637.04   46.50
   0 -10   3  724.43   43.00
  -1  10  -3  218.08   22.80
  -1  10  -3  218.98   22.30
  -1  10  -3  190.88   21.50
   1 -10   3  245.68   23.20
  -2  10  -3   14.20   13.40
  -2  10  -3   11.50   13.40
  -2  10  -3    8.90   11.50
   2 -10   3   45.00   13.90
   2 -10   3   13.30   13.20
  -3  10  -3   79.09   17.50
  -3  10  -3   91.59   22.30
  -3  10  -3   59.09   13.90
   3 -10   3   72.79   16.30
   3 -10   3   63.19   16.90
  -4  10  -3  215.88   29.30
  -4  10  -3  209.98   30.80
  -4  10  -3  188.68   26.70
   4 -10   3  187.38   30.20
   4 -10   3  234.18   28.10
   4 -10   3  209.38   28.30
  -5  10  -3  441.46   42.60
  -5  10  -3  427.06   34.90
  -5  10  -3  408.46   40.30
   5 -10   3  453.15   37.30
   5 -10   3  455.45   37.80
   5 -10   3  444.06   38.50
  -6  10  -3  547.05   40.40
  -6  10  -3  547.25   52.69
  -6  10  -3  467.25   48.00
   6 -10   3  585.54   44.40
   6 -10   3  542.85   44.40
   6 -10   3  540.85   47.40
  -7  10  -3  210.28   34.90
  -7  10  -3  247.18   34.40
  -7  10  -3  189.08   40.00
   7 -10   3  249.97   31.20
   7 -10   3  269.07   40.70
   7 -10   3  261.17   32.10
   7   9  -3  278.77   37.00
   7   9  -3  197.18   32.70
   7   9  -3  290.67   41.90
  -7  -9   3  232.78   32.90
  -7  -9   3  350.96   44.70
   6   9  -3  283.67   35.40
   6   9  -3  245.18   35.60
   6   9  -3  258.47   32.30
  -6  -9   3  175.18   30.50
  -6  -9   3  260.57   37.60
   5   9  -3   26.30   18.10
   5   9  -3   58.79   16.60
  -5  -9   3   26.50   19.10
  -5  -9   3   50.29   22.90
   4   9  -3   24.40   13.80
   4   9  -3   25.40   15.20
   4   9  -3   35.40   17.00
  -4  -9   3   51.99   16.50
  -4  -9   3   20.00   31.10
  -4  -9   3   41.30   13.60
   3   9  -3  158.08   21.50
   3   9  -3  215.78   24.30
  -3  -9   3  215.18   20.40
  -3  -9   3  213.28   29.20
  -3  -9   3  207.88   22.50
   2   9  -3  619.34   38.60
   2   9  -3  633.34   38.40
  -2  -9   3  640.54   36.60
  -2  -9   3  674.63   38.70
  -2  -9   3  634.64   43.30
   1   9  -3  734.93   42.90
   1   9  -3  750.02   43.10
  -1  -9   3  764.92   43.00
  -1  -9   3  787.32   42.10
  -1  -9   3  740.73   46.40
   0   9  -3  213.48   18.70
   0   9  -3  230.48   20.10
   0   9  -3  233.58   20.70
   0  -9   3  261.17   20.20
   0  -9   3  172.28   25.20
   0  -9   3  250.67   21.90
  -1   9  -3   26.60    9.80
  -1   9  -3   18.30   10.70
  -1   9  -3   31.70   10.40
   1  -9   3   18.10   10.50
   1  -9   3   28.80   11.10
  -2   9  -3   43.70   11.00
  -2   9  -3   48.00   12.60
  -2   9  -3   51.39   13.00
   2  -9   3   35.50   11.50
   2  -9   3   41.60   11.90
  -3   9  -3  220.98   32.00
  -3   9  -3  249.88   22.40
  -3   9  -3  256.17   24.30
   3  -9   3  288.87   24.20
   3  -9   3  248.98   25.20
   3  -9   3  269.67   23.70
  -4   9  -3  652.23   39.70
  -4   9  -3  659.53   45.90
   4  -9   3  645.44   40.60
   4  -9   3  673.23   41.20
   4  -9   3  665.93   42.30
  -5   9  -3  872.41   51.99
  -5   9  -3  874.71   57.79
  -5   9  -3  971.20   56.69
   5  -9   3  909.31   54.39
   5  -9   3  902.51   53.99
   5  -9   3  948.61   53.19
  -6   9  -3  496.75   47.80
  -6   9  -3  543.85   44.90
   6  -9   3  547.75   41.30
   6  -9   3  564.54   43.60
   6  -9   3  562.44   44.10
  -7   9  -3   84.09   30.70
  -7   9  -3   61.09   28.10
   7  -9   3   91.89   25.80
   7  -9   3   87.49   25.30
   7  -9   3   65.69   30.10
  -8   9  -3   -4.70   29.50
  -8   9  -3   10.80   33.80
   8  -9   3   -7.90   29.90
   8  -9   3    7.40   27.50
   8  -9   3  -40.70   30.20
   8   8  -3  219.38   30.10
   8   8  -3  113.09   32.60
  -8  -8   3  184.98   34.40
  -8  -8   3  236.68   35.30
   7   8  -3  345.27   40.20
   7   8  -3  249.08   37.50
   7   8  -3  301.77   34.10
  -7  -8   3  311.97   40.30
  -7  -8   3  356.86   39.20
   6   8  -3  208.08   27.40
   6   8  -3  203.08   29.90
   6   8  -3  220.48   30.00
  -6  -8   3  254.17   32.50
  -6  -8   3  224.58   32.10
   5   8  -3   22.10   15.70
   5   8  -3   16.40   13.00
   5   8  -3    9.50   14.70
  -5  -8   3   19.80   17.30
   4   8  -3   12.20   11.20
   4   8  -3   29.80   13.30
   4   8  -3   19.30   12.60
  -4  -8   3   24.30   11.80
  -4  -8   3    9.80   10.60
  -4  -8   3   13.50   16.60
   3   8  -3  567.04   34.20
   3   8  -3  556.74   32.90
   3   8  -3  528.45   34.10
  -3  -8   3  569.74   34.10
  -3  -8   3  575.44   38.60
  -3  -8   3  563.14   32.40
   2   8  -3 1047.30   56.09
   2   8  -3 1040.80   55.49
  -2  -8   3 1055.89   58.69
  -2  -8   3 1092.59   54.79
  -2  -8   3 1033.30   55.59
   1   8  -3  368.76   24.30
   1   8  -3  382.96   24.50
  -1  -8   3  379.36   23.50
  -1  -8   3  330.97   28.40
  -1  -8   3  377.06   24.60
   0   8  -3  377.36   24.30
   0   8  -3  378.86   24.30
   0   8  -3  384.16   23.10
   0  -8   3  363.66   23.60
   0  -8   3  355.56   24.00
  -1   8  -3   86.39   13.90
  -1   8  -3   92.09   11.80
  -1   8  -3   89.59   14.20
   1  -8   3   95.69   12.30
   1  -8   3   83.49   10.80
  -2   8  -3   38.90    9.70
  -2   8  -3   41.90   11.20
  -2   8  -3   51.99   11.20
   2  -8   3   62.69   11.70
   2  -8   3   43.50   10.70
   2  -8   3   56.49   10.20
  -3   8  -3  429.96   30.20
  -3   8  -3  422.36   27.50
  -3   8  -3  430.66   29.00
   3  -8   3  396.66   27.30
   3  -8   3  412.16   29.00
   3  -8   3  449.16   28.10
  -4   8  -3  686.73   40.50
  -4   8  -3  612.14   37.70
  -4   8  -3  644.94   41.50
   4  -8   3  634.54   38.40
   4  -8   3  645.74   39.70
   4  -8   3  646.24   37.90
  -5   8  -3  721.63   42.90
  -5   8  -3  571.54   50.59
   5  -8   3  658.73   42.10
   5  -8   3  705.43   40.90
   5  -8   3  551.84   49.70
  -6   8  -3  339.07   38.90
  -6   8  -3  458.35   40.10
   6  -8   3  399.66   33.20
   6  -8   3  421.86   36.10
   6  -8   3  498.85   34.60
  -7   8  -3   50.59   21.90
  -7   8  -3   50.59   24.30
  -7   8  -3   35.70   26.00
   7  -8   3   64.99   23.60
   7  -8   3   63.99   19.90
   7  -8   3   26.10   20.10
  -8   8  -3   23.30   27.60
  -8   8  -3   -0.70   29.80
  -8   8  -3   35.70   31.20
   8  -8   3   42.90   26.80
   8  -8   3   71.69   23.80
   8  -8   3   26.20   28.00
  -9   8  -3  103.29   32.70
  -9   8  -3  200.88   35.80
  -9   8  -3  165.08   33.10
   9  -8   3  210.28   34.20
   9  -8   3  150.58   37.20
   9   7  -3  223.18   38.90
   9   7  -3  355.26   46.00
  -9  -7   3   98.89   38.90
  -9  -7   3  186.28   37.30
  -9  -7   3  240.78   33.10
   8   7  -3  273.07   36.50
   8   7  -3  186.08   30.60
  -8  -7   3  185.08   29.30
  -8  -7   3  179.28   31.40
  -8  -7   3  134.69   25.70
   7   7  -3  518.65   37.40
   7   7  -3  525.45   38.90
   7   7  -3  420.86   40.50
  -7  -7   3  544.45   42.50
  -7  -7   3  471.95   40.30
   6   7  -3  247.08   24.60
   6   7  -3  203.88   25.10
   6   7  -3  165.18   25.20
  -6  -7   3  227.48   32.00
  -6  -7   3  206.78   27.00
   5   7  -3   21.00   11.40
   5   7  -3   30.60   12.70
   5   7  -3   12.50   13.30
  -5  -7   3   22.30   16.40
  -5  -7   3   10.30   12.90
   4   7  -3  122.09   16.70
   4   7  -3  119.09   15.30
   4   7  -3   93.79   13.50
  -4  -7   3  105.19   13.50
  -4  -7   3  116.39   14.90
  -4  -7   3  113.39   16.70
   3   7  -3  379.96   24.90
   3   7  -3  397.16   25.60
   3   7  -3  422.46   24.70
  -3  -7   3  397.16   24.10
  -3  -7   3  413.26   30.00
  -3  -7   3  382.96   25.30
   2   7  -3 1253.17   63.89
   2   7  -3 1265.17   64.69
  -2  -7   3 1207.58   63.89
  -2  -7   3 1316.17   66.79
  -2  -7   3 1251.37   63.49
   1   7  -3 1697.73   83.59
   1   7  -3 1772.22   84.29
  -1  -7   3 1659.23   82.99
  -1  -7   3 1634.04   83.49
  -1  -7   3 1611.14   85.09
   0   7  -3  415.66   24.00
   0   7  -3  379.16   23.40
   0   7  -3  407.56   23.00
   0  -7   3  380.96   23.30
   0  -7   3  360.66   22.90
  -1   7  -3   79.99    9.90
  -1   7  -3   81.59   11.40
  -1   7  -3   66.09    9.30
   1  -7   3   65.59    9.20
   1  -7   3   64.09    9.00
   1  -7   3   66.59   10.20
  -2   7  -3    7.20    9.00
  -2   7  -3   14.60    7.20
  -2   7  -3   20.20    8.30
   2  -7   3   20.00    9.00
   2  -7   3    9.70    7.70
   2  -7   3   24.40    7.60
  -3   7  -3  781.32   44.80
  -3   7  -3  821.12   44.00
   3  -7   3  812.82   43.00
   3  -7   3  779.22   42.60
   3  -7   3  790.82   44.30
  -4   7  -3  664.73   43.50
  -4   7  -3  809.82   45.00
   4  -7   3  763.42   40.70
   4  -7   3  712.33   42.00
   4  -7   3  714.23   40.60
  -5   7  -3  743.73   42.80
  -5   7  -3  636.74   44.10
   5  -7   3  690.03   39.80
   5  -7   3  740.33   40.40
   5  -7   3  666.43   42.10
  -6   7  -3  464.35   35.30
  -6   7  -3  350.36   53.39
  -6   7  -3  410.96   31.20
   6  -7   3  404.86   34.10
   6  -7   3  448.16   31.20
   6  -7   3  400.16   36.00
  -7   7  -3  139.99   26.10
  -7   7  -3  129.09   22.10
  -7   7  -3  134.39   23.30
   7  -7   3  137.99   21.60
   7  -7   3  129.09   24.30
   7  -7   3  134.59   20.60
  -8   7  -3   65.59   44.50
  -8   7  -3   88.59   30.20
  -8   7  -3   83.59   28.70
   8  -7   3   68.19   27.70
   8  -7   3   70.69   23.40
   8  -7   3   61.69   25.90
  -9   7  -3  232.58   33.50
  -9   7  -3  310.67   47.10
  -9   7  -3  325.27   42.60
   9  -7   3  298.27   37.50
   9  -7   3  264.47   37.60
  10   6  -3   91.79   41.50
  10   6  -3   96.99   36.90
  10   6  -3   62.99   39.40
 -10  -6   3   65.89   38.50
 -10  -6   3   51.59   31.40
 -10  -6   3   76.59   31.10
   9   6  -3  453.95   54.79
   9   6  -3  470.55   46.50
  -9  -6   3  523.75   51.59
  -9  -6   3  388.36   42.50
  -9  -6   3  295.57   41.90
   8   6  -3  411.26   43.20
   8   6  -3  527.85   40.40
  -8  -6   3  501.85   45.00
  -8  -6   3  534.35   39.90
  -8  -6   3  359.76   38.40
   7   6  -3  192.98   28.60
   7   6  -3  240.78   26.20
   7   6  -3  304.87   26.50
  -7  -6   3  233.38   29.30
  -7  -6   3  284.87   38.30
  -7  -6   3  181.38   26.70
   6   6  -3  386.46   26.20
   6   6  -3  347.67   26.60
   6   6  -3  310.57   27.90
  -6  -6   3  356.86   31.80
  -6  -6   3  360.16   29.10
   5   6  -3   -2.40   10.00
   5   6  -3   13.30    9.20
   5   6  -3    7.00   10.40
  -5  -6   3   -7.70   10.30
  -5  -6   3   -1.70   13.60
   4   6  -3  318.87   20.90
   4   6  -3  315.37   22.00
   4   6  -3  330.47   21.80
  -4  -6   3  338.37   22.60
  -4  -6   3  349.77   26.00
   3   6  -3  685.23   37.20
   3   6  -3  671.83   36.20
   3   6  -3  678.63   36.20
  -3  -6   3  712.13   39.30
  -3  -6   3  649.54   36.70
  -3  -6   3  683.93   36.10
   2   6  -3 1444.96   70.29
   2   6  -3 1385.86   69.39
  -2  -6   3 1353.66   69.69
  -2  -6   3 1389.06   71.29
  -2  -6   3 1378.86   69.19
   1   6  -3  854.01   48.50
   1   6  -3  963.10   48.30
   1   6  -3 1004.00   49.00
  -1  -6   3  976.20   48.00
  -1  -6   3  879.91   49.50
  -1  -6   3  969.20   48.40
   0   6  -3  540.35   28.70
   0   6  -3  548.75   29.00
   0  -6   3  525.55   28.20
   0  -6   3  528.45   28.50
   0  -6   3  448.36   30.60
  -1   6  -3   31.50    6.70
  -1   6  -3   38.80    7.90
  -1   6  -3   32.60    6.60
   1  -6   3   19.90    6.80
   1  -6   3   28.30    6.40
   1  -6   3   26.40    6.60
  -2   6  -3  191.98   17.20
  -2   6  -3  199.78   15.00
  -2   6  -3  202.78   15.70
   2  -6   3  192.98   15.70
   2  -6   3  184.48   14.60
   2  -6   3  190.38   14.40
  -3   6  -3  536.15   30.50
  -3   6  -3  523.85   31.80
   3  -6   3  540.75   29.20
   3  -6   3  496.55   30.40
   3  -6   3  499.15   29.00
  -4   6  -3  796.42   42.20
  -4   6  -3  640.64   42.80
   4  -6   3  738.03   40.30
   4  -6   3  748.73   41.80
   4  -6   3  821.32   40.20
  -5   6  -3  960.10   54.19
  -5   6  -3  995.50   57.29
  -5   6  -3 1024.40   55.99
   5  -6   3 1016.60   54.39
   5  -6   3 1126.29   53.89
   5  -6   3 1031.70   55.89
  -6   6  -3  481.25   34.80
  -6   6  -3  494.65   37.40
  -6   6  -3  506.55   36.30
   6  -6   3  547.35   34.20
   6  -6   3  537.55   36.00
   6  -6   3  539.35   33.40
  -7   6  -3    7.30   18.40
  -7   6  -3   -2.70   20.10
  -7   6  -3   21.80   18.30
   7  -6   3  -17.00   19.80
   7  -6   3  -12.50   15.30
   7  -6   3    3.90   17.60
  -8   6  -3   77.59   28.60
  -8   6  -3  131.59   27.00
   8  -6   3   53.39   24.70
   8  -6   3   72.99   24.00
   8  -6   3  100.59   27.00
  -9   6  -3  163.18   31.70
  -9   6  -3  187.28   28.60
  -9   6  -3  167.58   35.70
   9  -6   3  168.58   34.60
   9  -6   3  197.68   32.80
 -10   6  -3  295.47   41.30
 -10   6  -3  215.38   36.10
  10  -6   3  232.68   39.20
  10  -6   3  150.78   42.30
  10   5  -3  151.38   34.60
  10   5  -3  141.79   36.20
  10   5  -3  149.39   39.10
 -10  -5   3   86.89   33.90
 -10  -5   3  137.49   32.00
 -10  -5   3  109.69   29.70
   9   5  -3  366.26   43.20
   9   5  -3  452.75   47.90
   9   5  -3  353.36   48.60
  -9  -5   3  414.66   40.10
  -9  -5   3  310.87   41.80
  -9  -5   3  489.15   45.70
   8   5  -3  514.05   43.50
   8   5  -3  575.24   46.50
  -8  -5   3  542.55   40.30
  -8  -5   3  616.94   45.10
  -8  -5   3  448.86   38.80
   7   5  -3  151.38   25.00
   7   5  -3  194.38   22.60
  -7  -5   3  210.38   25.30
  -7  -5   3  184.88   26.80
   6   5  -3   56.39   13.40
   6   5  -3   75.29   11.50
   6   5  -3   39.40   10.90
  -6  -5   3   43.30   12.80
  -6  -5   3   30.90   12.40
  -6  -5   3   57.39   15.20
   5   5  -3   22.00    8.00
   5   5  -3   14.80    8.30
   5   5  -3   22.30    9.10
  -5  -5   3   13.20    8.60
  -5  -5   3   18.60   12.10
   4   5  -3  263.97   17.30
   4   5  -3  246.88   18.10
   4   5  -3  266.27   17.30
  -4  -5   3  263.87   18.30
  -4  -5   3  260.47   21.30
   3   5  -3 1601.14   78.89
   3   5  -3 1621.14   79.99
   3   5  -3 1635.94   79.19
  -3  -5   3 1567.44   80.79
  -3  -5   3 1573.14   79.79
  -3  -5   3 1621.44   79.19
   2   5  -3 1753.22   83.69
   2   5  -3 1741.63   82.89
  -2  -5   3 1558.24   83.99
  -2  -5   3 1671.33   83.29
  -2  -5   3 1714.23   82.89
   1   5  -3 1054.19   51.79
   1   5  -3 1023.30   51.09
   1   5  -3 1077.69   50.59
  -1  -5   3  947.51   51.59
  -1  -5   3  992.00   51.19
  -1  -5   3 1007.00   50.99
   0   5  -3  219.58   14.00
   0   5  -3  201.08   13.90
   0   5  -3  203.98   13.70
   0  -5   3  203.18   13.30
   0  -5   3  212.68   14.40
   0  -5   3  194.38   14.10
   0  -5   3  204.88   15.50
  -1   5  -3  107.79   12.30
  -1   5  -3  103.59    9.90
  -1   5  -3   97.29   10.10
   1  -5   3   98.69    9.10
   1  -5   3  107.39    9.60
   1  -5   3  109.29   10.60
  -2   5  -3   87.59   11.50
  -2   5  -3   72.59    9.90
   2  -5   3   78.09    9.10
   2  -5   3   76.79   10.50
   2  -5   3   70.09    9.00
  -3   5  -3  407.36   24.60
  -3   5  -3  357.46   26.50
   3  -5   3  409.86   24.60
   3  -5   3  399.66   23.40
   3  -5   3  450.95   23.20
  -4   5  -3 1668.63   88.39
  -4   5  -3 1767.52   87.59
   4  -5   3 1694.43   87.39
   4  -5   3 1864.81   85.69
   4  -5   3 1703.93   86.19
  -5   5  -3  995.90   53.99
  -5   5  -3  976.70   52.69
  -5   5  -3 1027.30   55.09
   5  -5   3  993.80   53.79
   5  -5   3  964.00   52.29
   5  -5   3 1025.30   51.59
  -6   5  -3  278.67   24.70
  -6   5  -3  288.37   27.30
  -6   5  -3  305.17   27.70
   6  -5   3  272.67   22.50
   6  -5   3  298.17   24.60
   6  -5   3  308.87   26.90
  -7   5  -3   11.20   18.80
  -7   5  -3   49.90   17.50
  -7   5  -3   55.29   18.90
   7  -5   3   55.09   19.80
   7  -5   3   62.79   17.00
   7  -5   3   47.20   14.30
  -8   5  -3  114.49   23.90
  -8   5  -3   82.99   21.40
   8  -5   3  111.09   22.90
   8  -5   3  119.99   27.60
  -9   5  -3  286.37   40.80
  -9   5  -3  230.78   34.80
  -9   5  -3  279.37   36.60
   9  -5   3  222.18   35.90
   9  -5   3  239.78   32.80
 -10   5  -3  204.48   31.30
 -10   5  -3  194.98   35.30
  10  -5   3  161.18   40.00
  10  -5   3  148.79   36.50
  11   4  -3   30.30   32.30
  11   4  -3  -17.90   36.30
  11   4  -3  -22.60   33.30
 -11  -4   3  -46.00   33.30
 -11  -4   3   20.10   30.60
  10   4  -3  393.06   45.70
  10   4  -3  438.16   47.50
  10   4  -3  250.77   38.60
 -10  -4   3  411.26   44.50
 -10  -4   3  306.07   40.00
 -10  -4   3  295.07   43.80
   9   4  -3  298.77   44.20
   9   4  -3  331.77   49.40
   9   4  -3  407.16   39.10
  -9  -4   3  391.06   38.40
  -9  -4   3  408.46   52.09
   8   4  -3  716.23   48.00
   8   4  -3  706.73   44.40
   8   4  -3  637.24   47.00
  -8  -4   3  645.04   43.90
  -8  -4   3  758.22   47.70
   7   4  -3  255.97   25.30
   7   4  -3  277.57   23.90
  -7  -4   3  212.88   24.40
  -7  -4   3  251.47   27.20
  -7  -4   3  337.67   26.50
   6   4  -3   12.10    8.70
   6   4  -3    0.60   10.30
  -6  -4   3   -0.20   10.90
  -6  -4   3   34.60   12.20
  -6  -4   3   16.60   10.80
   5   4  -3   50.59    7.80
   5   4  -3   40.90    8.80
   5   4  -3   46.90    7.90
  -5  -4   3   48.80    9.90
  -5  -4   3   62.49    9.30
  -5  -4   3   40.90    8.90
  -5  -4   3   44.80   11.20
   4   4  -3  499.95   27.00
   4   4  -3  491.35   27.70
   4   4  -3  518.55   26.20
  -4  -4   3  468.35   29.40
  -4  -4   3  541.05   26.50
  -4  -4   3  485.05   27.70
  -4  -4   3  426.46   26.90
   3   4  -3  990.30   47.60
   3   4  -3  989.70   48.40
   3   4  -3 1010.40   47.20
  -3  -4   3  914.31   47.80
  -3  -4   3  965.30   47.60
  -3  -4   3  922.41   48.20
  -3  -4   3  809.12   48.70
   2   4  -3 3167.58  148.79
   2   4  -3 3153.88  147.99
  -2  -4   3 3078.29  148.19
  -2  -4   3 2930.21  148.69
  -2  -4   3 2999.00  148.49
  -2  -4   3 3100.59  151.58
   1   4  -3 1537.35   73.59
   1   4  -3 1536.75   74.19
   1   4  -3 1400.56   73.39
   1   4  -3 1530.55   73.99
  -1  -4   3 1568.54   74.29
  -1  -4   3 1494.65   73.69
  -1  -4   3 1590.14   73.79
  -1  -4   3 1379.86   74.59
   0   4  -3   31.40    6.60
   0   4  -3   13.30    4.00
   0   4  -3   23.10    5.10
   0   4  -3   23.80    4.60
   0   4  -3   14.20    5.20
   0  -4   3   15.50    3.90
   0  -4   3   16.90    4.10
   0  -4   3   19.10    4.80
   0  -4   3   17.10    4.60
   0  -4   3   15.80    4.80
  -1   4  -3   32.60    5.50
  -1   4  -3   33.00    8.40
  -1   4  -3   24.40    4.20
   1  -4   3   28.30    5.50
   1  -4   3   26.70    5.10
   1  -4   3   38.80    5.80
  -2   4  -3 1261.07   58.39
  -2   4  -3 1199.88   59.99
  -2   4  -3 1129.69   61.09
   2  -4   3 1196.98   59.09
   2  -4   3 1154.78   59.99
   2  -4   3 1203.48   58.59
  -3   4  -3  872.01   45.70
  -3   4  -3  945.91   45.90
  -3   4  -3  859.71   47.30
  -3   4  -3  909.51   43.60
   3  -4   3  823.62   44.40
   3  -4   3  842.92   44.30
   3  -4   3  833.12   45.70
   3  -4   3  927.21   43.90
  -4   4  -3 1806.32   88.59
  -4   4  -3 1811.92   92.19
  -4   4  -3 1769.72   91.19
  -4   4  -3 2037.00   91.29
   4  -4   3 1721.43   89.79
   4  -4   3 1925.61   89.09
   4  -4   3 1720.93   91.19
  -5   4  -3  458.25   30.40
  -5   4  -3  504.45   32.30
   5  -4   3  511.05   29.10
   5  -4   3  486.85   30.40
  -6   4  -3  295.67   27.30
  -6   4  -3  284.97   25.60
  -6   4  -3  309.17   24.10
   6  -4   3  313.47   23.50
   6  -4   3  291.27   25.70
  -7   4  -3   50.49   17.90
  -7   4  -3   41.30   16.90
  -7   4  -3   33.10   15.40
   7  -4   3   17.80   18.50
   7  -4   3   27.30   15.70
  -8   4  -3  340.47   33.10
  -8   4  -3  345.77   34.00
   8  -4   3  251.87   44.40
   8  -4   3  303.97   33.60
  -9   4  -3  194.28   27.00
  -9   4  -3  249.78   38.20
  -9   4  -3  247.58   31.50
   9  -4   3  194.18   29.80
   9  -4   3  181.08   34.70
 -10   4  -3  154.28   29.60
 -10   4  -3  161.68   33.40
  10  -4   3  214.38   36.60
  10  -4   3   58.69   37.70
  11   3  -3   24.20   33.90
  11   3  -3   65.09   30.90
  11   3  -3   17.90   29.70
 -11  -3   3   51.49   31.90
 -11  -3   3   50.99   33.00
  10   3  -3  388.16   41.90
  10   3  -3  323.27   44.70
  10   3  -3  432.76   43.30
 -10  -3   3  344.07   42.90
 -10  -3   3  361.36   39.10
   9   3  -3  660.53   47.20
   9   3  -3  737.53   48.40
  -9  -3   3  794.72   48.90
  -9  -3   3  725.13   48.70
  -9  -3   3  537.35   50.59
   8   3  -3  529.55   37.30
   8   3  -3  492.75   35.10
   8   3  -3  398.46   38.00
  -8  -3   3  528.95   37.30
  -8  -3   3  390.86   34.80
  -8  -3   3  513.65   36.20
   7   3  -3  168.68   19.20
   7   3  -3  174.18   22.70
   7   3  -3  162.98   20.90
  -7  -3   3  142.69   21.80
  -7  -3   3  210.18   21.60
  -7  -3   3  122.49   17.30
   6   3  -3    1.50    7.80
   6   3  -3    6.20    9.10
  -6  -3   3   -3.30    9.50
  -6  -3   3  -12.80    9.80
  -6  -3   3   14.40   10.60
   5   3  -3   95.09   11.40
   5   3  -3  118.19   12.40
  -5  -3   3  126.79   14.20
  -5  -3   3  125.79   12.40
  -5  -3   3   90.59   12.70
   4   3  -3  551.44   29.50
   4   3  -3  533.15   28.80
   4   3  -3  598.94   29.20
  -4  -3   3  588.74   28.80
  -4  -3   3  461.75   30.40
  -4  -3   3  523.85   30.20
   3   3  -3 1733.43   78.59
   3   3  -3 1609.44   81.19
   3   3  -3 1621.14   78.59
   3   3  -3 1684.63   79.79
   3   3  -3 1569.44   79.19
  -3  -3   3 1604.84   79.29
  -3  -3   3 1513.75   80.09
  -3  -3   3 1663.53   78.99
  -3  -3   3 1596.24   80.09
   2   3  -3 2583.04  126.09
   2   3  -3 2650.14  126.49
   2   3  -3 2722.73  129.39
   2   3  -3 2463.85  126.69
   2   3  -3 2532.05  127.29
   2   3  -3 2663.43  126.79
  -2  -3   3 2660.73  126.49
  -2  -3   3 2810.12  126.59
  -2  -3   3 2611.44  126.89
  -2  -3   3 2456.65  129.79
  -2  -3   3 2676.93  126.79
   1   3  -3 1744.53   83.39
   1   3  -3 1796.72   83.79
   1   3  -3 1708.63   82.79
   1   3  -3 1681.43   83.29
   1   3  -3 1656.93   82.79
   1   3  -3 1656.23   82.79
   1   3  -3 1573.34   83.09
  -1  -3   3 1638.74   83.09
  -1  -3   3 1733.13   83.49
  -1  -3   3 1833.02   82.79
  -1  -3   3 1695.53   82.89
  -1  -3   3 1771.82   83.19
   0   3  -3    9.50    2.80
   0   3  -3   11.10    3.40
   0   3  -3    9.80    3.20
   0   3  -3    7.30    3.50
   0   3  -3    5.40    3.90
   0   3  -3    0.50    5.30
   0  -3   3    7.70    2.90
   0  -3   3   11.80    4.00
   0  -3   3   10.20    4.00
   0  -3   3   16.90    3.30
   0  -3   3   10.90    3.90
  -1   3  -3   49.00    5.50
  -1   3  -3   44.30    4.90
  -1   3  -3   43.30    6.70
  -1   3  -3   53.59    8.60
   1  -3   3   48.70    6.90
   1  -3   3   54.29    7.80
   1  -3   3   45.60    5.10
   1  -3   3   58.39    5.80
  -2   3  -3  894.11   49.50
  -2   3  -3  869.31   47.20
  -2   3  -3  913.81   47.60
  -2   3  -3  928.21   43.50
  -2   3  -3  890.11   45.50
  -2   3  -3  960.40   44.20
  -2   3  -3  861.01   44.10
   2  -3   3  886.21   45.90
   2  -3   3  923.01   44.00
   2  -3   3  738.73   47.10
   2  -3   3  888.51   43.70
   2  -3   3  907.81   45.60
  -3   3  -3  979.00   51.89
  -3   3  -3 1013.70   53.59
  -3   3  -3 1084.19   51.39
   3  -3   3  970.30   51.69
   3  -3   3 1041.70   50.89
   3  -3   3  994.80   52.29
   3  -3   3  992.40   50.89
  -4   3  -3 1249.18   63.99
  -4   3  -3 1216.48   62.49
  -4   3  -3 1180.08   62.19
   4  -3   3 1198.68   63.09
   4  -3   3 1240.68   62.49
   4  -3   3 1211.88   60.79
  -5   3  -3  505.45   32.60
  -5   3  -3  586.24   35.20
  -5   3  -3  582.24   33.50
   5  -3   3  512.55   34.30
   5  -3   3  572.04   31.30
   5  -3   3  574.54   33.50
  -6   3  -3   53.99   13.30
  -6   3  -3   52.49   14.30
  -6   3  -3   33.40   13.10
   6  -3   3   50.49   13.90
   6  -3   3   57.69   12.60
   6  -3   3   60.09   15.90
  -7   3  -3   18.30   14.90
  -7   3  -3  -17.60   16.20
  -7   3  -3   32.40   14.80
   7  -3   3    9.90   18.50
   7  -3   3  -22.40   19.30
   7  -3   3   -5.40   15.50
  -8   3  -3  301.17   30.50
  -8   3  -3  230.68   32.70
  -8   3  -3  223.88   32.60
   8  -3   3  206.68   25.30
  -9   3  -3  355.76   38.10
  -9   3  -3  275.87   32.20
  -9   3  -3  392.76   35.80
   9  -3   3  274.27   40.80
   9  -3   3  267.67   45.00
 -10   3  -3  238.38   35.60
  10  -3   3  253.57   36.00
  10  -3   3  209.88   40.20
  11   2  -3  126.19   30.90
  11   2  -3   64.99   28.90
  11   2  -3   77.89   30.70
 -11  -2   3   51.19   31.70
 -11  -2   3   65.59   30.50
  10   2  -3  245.28   39.10
  10   2  -3  284.97   35.80
 -10  -2   3  355.16   40.10
 -10  -2   3  265.07   35.90
   9   2  -3  629.44   39.50
   9   2  -3  546.75   39.20
   9   2  -3  423.16   42.30
  -9  -2   3  506.65   42.00
   8   2  -3   24.90   17.10
   8   2  -3   54.79   15.90
   8   2  -3   30.10   19.10
  -8  -2   3   73.99   16.70
  -8  -2   3   34.00   18.20
  -8  -2   3   60.19   17.90
   7   2  -3   34.70   12.20
   7   2  -3   56.89   13.60
   7   2  -3   42.50   14.00
  -7  -2   3   23.80   12.70
  -7  -2   3   23.90   13.60
  -7  -2   3   54.69   13.20
   6   2  -3    7.40    9.80
   6   2  -3    9.90    7.80
   6   2  -3    2.30    8.90
  -6  -2   3   10.00    9.30
  -6  -2   3   -6.50   10.60
  -6  -2   3    2.70   10.40
   5   2  -3  343.87   20.90
   5   2  -3  322.57   19.80
   5   2  -3  346.67   22.10
  -5  -2   3  290.27   22.00
  -5  -2   3  339.57   22.60
  -5  -2   3  360.76   20.60
   4   2  -3 2462.05  116.09
   4   2  -3 2492.85  114.79
   4   2  -3 2242.68  113.59
  -4  -2   3 2244.38  115.09
  -4  -2   3 2465.55  113.69
  -4  -2   3 2239.68  113.99
  -4  -2   3 2276.87  114.79
   3   2  -3 2765.52  139.69
   3   2  -3 2685.03  140.49
   3   2  -3 3001.20  139.89
   3   2  -3 2830.02  139.59
   3   2  -3 3119.09  139.19
  -3  -2   3 2902.11  141.09
  -3  -2   3 2888.11  139.19
  -3  -2   3 3124.59  140.49
  -3  -2   3 2881.11  139.79
  -3  -2   3 2796.92  139.59
   2   2  -3  920.51   45.90
   2   2  -3  900.11   45.90
   2   2  -3  902.81   45.70
   2   2  -3  888.21   45.60
   2   2  -3  898.31   46.30
   2   2  -3  972.90   46.00
   2   2  -3  944.01   45.20
   2   2  -3  935.81   46.20
  -2  -2   3  875.21   45.60
  -2  -2   3  919.91   46.70
  -2  -2   3  967.90   46.00
  -2  -2   3  939.11   46.00
  -2  -2   3  938.61   46.00
  -2  -2   3  976.60   45.80
   1   2  -3 1281.87   60.69
   1   2  -3 1271.77   60.59
   1   2  -3 1237.48   60.89
   1   2  -3 1157.98   60.19
   1   2  -3 1217.68   59.89
   1   2  -3 1215.58   59.99
   1   2  -3 1259.77   60.19
   1   2  -3 1216.08   60.19
   1   2  -3 1214.68   60.09
  -1  -2   3 1221.88   59.99
  -1  -2   3 1202.28   60.39
  -1  -2   3 1294.47   60.49
  -1  -2   3 1264.37   60.59
  -1  -2   3 1217.98   59.99
   0   2  -3   14.00    3.30
   0   2  -3   15.00    3.40
   0   2  -3   15.00    3.70
   0   2  -3   21.80    4.00
   0   2  -3   17.80    2.80
   0   2  -3   13.00    2.70
   0   2  -3   13.80    3.60
   0   2  -3   12.60    4.20
   0  -2   3   20.10    3.60
   0  -2   3   14.50    2.70
   0  -2   3   11.40    3.50
   0  -2   3   12.40    3.10
  -1   2  -3  968.20   47.90
  -1   2  -3  931.71   47.80
  -1   2  -3  902.51   47.50
  -1   2  -3  950.70   47.20
  -1   2  -3  926.31   45.80
  -1   2  -3  956.10   46.30
  -1   2  -3  959.50   47.50
  -1   2  -3  932.11   46.20
   1  -2   3  947.51   46.10
   1  -2   3  992.40   47.90
   1  -2   3  916.11   46.40
   1  -2   3  925.01   47.30
   1  -2   3  991.10   46.40
   1  -2   3  946.21   47.60
  -2   2  -3 1966.20   95.49
  -2   2  -3 1830.52  100.79
  -2   2  -3 1939.51   96.99
  -2   2  -3 1998.40   95.79
  -2   2  -3 2099.49   96.99
  -2   2  -3 2036.70   97.89
   2  -2   3 1932.61   95.69
   2  -2   3 2019.20   95.79
   2  -2   3 1949.70   97.79
   2  -2   3 2002.70   97.09
   2  -2   3 2006.40   97.49
  -3   2  -3 1550.14   80.59
  -3   2  -3 1672.73   79.79
  -3   2  -3 1596.94   78.79
  -3   2  -3 1645.74   81.69
   3  -2   3 1683.03   79.59
   3  -2   3 1577.94   81.09
   3  -2   3 1625.04   80.49
  -4   2  -3  456.05   29.10
  -4   2  -3  522.85   31.70
  -4   2  -3  524.05   28.50
   4  -2   3  525.45   27.40
   4  -2   3  483.25   30.20
   4  -2   3  529.45   29.70
  -5   2  -3  822.82   44.40
  -5   2  -3  812.22   46.10
  -5   2  -3  814.72   44.70
   5  -2   3  785.82   45.30
   5  -2   3  811.22   45.80
   5  -2   3  843.32   43.00
  -6   2  -3   30.50   14.60
  -6   2  -3   12.30   12.20
  -6   2  -3   35.50   13.10
   6  -2   3   43.00   15.70
   6  -2   3   31.50   11.30
   6  -2   3   24.80   13.50
  -7   2  -3   22.80   16.10
  -7   2  -3   53.89   15.20
  -7   2  -3   24.30   15.30
   7  -2   3   11.30   15.00
   7  -2   3   39.10   18.40
   7  -2   3    4.50   19.60
  -8   2  -3  736.63   46.50
  -8   2  -3  661.03   43.90
  -8   2  -3  785.42   46.10
   8  -2   3  772.12   50.29
   8  -2   3  563.94   45.70
  -9   2  -3  474.05   40.90
  -9   2  -3  437.26   39.60
  -9   2  -3  404.46   36.80
   9  -2   3  404.86   46.70
   9  -2   3  471.35   49.80
   9  -2   3  480.85   42.60
 -10   2  -3  141.69   30.90
 -10   2  -3  105.59   26.60
  10  -2   3  164.88   33.00
  10  -2   3  177.08   48.50
  10  -2   3  170.88   37.30
  11   1  -3  211.78   30.70
  11   1  -3  150.08   30.90
  11   1  -3  257.77   32.50
 -11  -1   3  203.28   33.20
 -11  -1   3  166.88   31.30
  10   1  -3  237.38   32.70
  10   1  -3  242.28   34.30
 -10  -1   3  288.27   37.10
 -10  -1   3  205.08   28.30
   9   1  -3  415.46   38.50
   9   1  -3  550.74   35.40
  -9  -1   3  357.56   34.80
  -9  -1   3  503.05   39.50
   8   1  -3  318.37   27.30
   8   1  -3  290.37   29.40
   8   1  -3  346.97   27.60
  -8  -1   3  237.58   27.00
  -8  -1   3  364.56   30.20
   7   1  -3   60.99   12.20
   7   1  -3   59.89   15.10
   7   1  -3   40.90   12.10
  -7  -1   3   35.00   12.20
  -7  -1   3   29.20   12.60
   6   1  -3  265.67   20.30
   6   1  -3  271.57   20.60
   6   1  -3  247.68   18.80
  -6  -1   3  228.88   20.30
  -6  -1   3  241.38   19.80
  -6  -1   3  263.27   19.10
   5   1  -3  734.83   39.10
   5   1  -3  789.12   40.80
   5   1  -3  803.22   39.50
  -5  -1   3  737.33   40.60
  -5  -1   3  739.63   40.30
  -5  -1   3  794.62   39.50
  -5  -1   3  662.43   39.30
   4   1  -3  773.72   42.80
   4   1  -3  785.92   41.20
   4   1  -3  858.51   41.20
   4   1  -3  881.11   41.30
  -4  -1   3  810.62   41.60
  -4  -1   3  804.62   41.10
  -4  -1   3  837.72   42.20
  -4  -1   3  783.62   43.00
   3   1  -3 1211.08   54.29
   3   1  -3 1093.39   54.29
   3   1  -3 1106.39   55.79
   3   1  -3 1097.69   54.49
   3   1  -3 1035.30   54.39
   3   1  -3 1167.18   54.29
   3   1  -3  977.40   55.49
  -3  -1   3 1094.79   55.99
  -3  -1   3 1114.19   54.29
  -3  -1   3 1094.49   54.29
  -3  -1   3 1151.28   54.29
  -3  -1   3 1130.19   54.89
   2   1  -3 1259.97   60.19
   2   1  -3 1200.98   60.29
   2   1  -3 1306.07   60.79
   2   1  -3 1235.58   60.69
   2   1  -3 1273.97   60.59
   2   1  -3 1242.88   60.59
   2   1  -3 1187.28   61.59
   2   1  -3 1255.67   60.59
   2   1  -3 1306.47   60.49
   2   1  -3 1202.08   61.59
  -2  -1   3 1216.28   60.39
  -2  -1   3 1309.77   60.69
  -2  -1   3 1208.58   60.69
  -2  -1   3 1218.58   60.19
  -2  -1   3 1217.18   61.89
  -2  -1   3 1223.08   60.39
  -2  -1   3 1291.77   60.59
   1   1  -3   45.30    5.70
   1   1  -3   36.30    5.00
   1   1  -3   32.90    3.90
   1   1  -3   39.10    4.00
   1   1  -3   32.40    3.70
   1   1  -3   32.00    5.00
   1   1  -3   33.90    4.20
  -1  -1   3   39.10    5.30
  -1  -1   3   41.30    5.30
  -1  -1   3   35.90    4.10
  -1  -1   3   37.90    5.90
  -1  -1   3   30.10    3.90
  -1  -1   3   37.00    5.00
   0   1  -3 1588.44   76.29
   0   1  -3 1588.54   75.09
   0   1  -3 1540.65   75.69
   0   1  -3 1525.95   75.59
   0   1  -3 1687.43   75.59
   0   1  -3 1566.54   74.89
   0   1  -3 1648.14   75.59
   0   1  -3 1508.85   74.69
   0   1  -3 1585.24   75.19
   0  -1   3 1550.54   74.99
   0  -1   3 1535.55   75.79
   0  -1   3 1474.55   74.79
   0  -1   3 1397.76   75.29
   0  -1   3 1543.55   75.49
   0  -1   3 1578.04   75.99
  -1   1  -3 5167.78  252.77
  -1   1  -3 5025.20  253.37
  -1   1  -3 5621.54  253.47
  -1   1  -3 5217.28  252.27
  -1   1  -3 5287.97  253.77
  -1   1  -3 5374.76  254.17
   1  -1   3 5446.46  252.87
   1  -1   3 5218.58  253.37
   1  -1   3 5192.98  254.07
   1  -1   3 5242.98  253.47
   1  -1   3 5424.16  252.87
  -2   1  -3  917.61   53.09
  -2   1  -3 1014.20   52.09
  -2   1  -3 1094.09   51.69
  -2   1  -3 1042.40   49.90
  -2   1  -3 1006.60   51.39
  -2   1  -3 1025.20   50.39
   2  -1   3  988.40   52.29
   2  -1   3 1025.50   50.49
   2  -1   3 1009.40   49.90
   2  -1   3 1069.19   53.09
   2  -1   3 1057.09   51.49
  -3   1  -3 2396.06  113.99
  -3   1  -3 2329.67  113.09
  -3   1  -3 2298.47  115.09
   3  -1   3 2181.98  115.59
   3  -1   3 2372.86  113.29
   3  -1   3 2519.45  115.59
  -4   1  -3  395.66   26.40
  -4   1  -3  424.96   24.30
   4  -1   3  444.26   23.60
   4  -1   3  415.96   27.30
   4  -1   3  441.16   26.60
  -5   1  -3  393.16   25.50
  -5   1  -3  392.96   28.40
   5  -1   3  457.35   24.60
   5  -1   3  422.76   28.30
   5  -1   3  375.16   27.70
  -6   1  -3   -5.20   12.90
  -6   1  -3   -5.10   13.30
   6  -1   3   23.00   11.10
   6  -1   3   -0.40   13.20
   6  -1   3   22.90   15.00
  -7   1  -3  309.77   29.50
  -7   1  -3  268.07   26.20
  -7   1  -3  338.57   23.10
   7  -1   3  220.98   25.80
   7  -1   3  260.57   31.20
   7  -1   3  202.58   29.00
  -8   1  -3  611.84   41.20
  -8   1  -3  543.65   38.60
  -8   1  -3  602.54   36.70
   8  -1   3  669.33   44.40
   8  -1   3  463.05   40.20
   8  -1   3  490.05   45.20
  -9   1  -3  484.15   40.30
  -9   1  -3  524.95   57.89
  -9   1  -3  568.64   42.90
  -9   1  -3  584.94   42.50
   9  -1   3  619.34   45.50
   9  -1   3  638.24   52.69
   9  -1   3  519.25   52.79
 -10   1  -3  147.89   29.30
 -10   1  -3  114.69   26.10
  10  -1   3  121.09   38.60
  10  -1   3  169.48   32.10
  12   0  -3   18.90   31.70
  12   0  -3   65.59   28.50
  12   0  -3  -26.70   34.50
 -12   0   3  112.79   37.30
 -12   0   3   43.80   31.80
  11   0  -3  347.27   42.20
  11   0  -3  285.87   39.40
  11   0  -3  349.37   41.00
 -11   0   3  239.68   35.30
 -11   0   3  385.26   46.70
  10   0  -3  338.57   34.10
  10   0  -3  418.56   38.00
  10   0  -3  348.47   37.20
 -10   0   3  413.36   45.80
 -10   0   3  286.37   36.20
   9   0  -3  762.02   49.99
   9   0  -3  917.51   49.40
   9   0  -3  765.32   53.79
  -9   0   3  830.22   51.59
  -9   0   3  735.23   47.90
   8   0  -3  388.26   32.20
   8   0  -3  398.66   28.70
   8   0  -3  380.66   31.10
  -8   0   3  342.37   30.80
   7   0  -3   20.70   10.80
   7   0  -3    9.30    9.50
   7   0  -3   14.70   12.80
  -7   0   3    8.00   11.90
  -7   0   3   27.20   10.90
  -7   0   3   -5.50   10.50
   6   0  -3   12.30   10.70
   6   0  -3   30.90    9.90
   6   0  -3   27.30    9.10
  -6   0   3   36.40    8.10
  -6   0   3   16.40    9.70
  -6   0   3   45.70    9.00
   5   0  -3  525.95   27.50
   5   0  -3  453.15   25.50
   5   0  -3  470.65   28.00
   5   0  -3  479.95   28.30
  -5   0   3  496.35   26.60
  -5   0   3  504.65   26.50
  -5   0   3  509.25   27.90
  -5   0   3  492.85   27.10
   4   0  -3 1791.62   79.59
   4   0  -3 1693.63   79.69
   4   0  -3 1502.35   80.69
   4   0  -3 1576.04   80.69
   4   0  -3 1546.85   82.99
   4   0  -3 1621.04   79.09
   4   0  -3 1663.33   81.49
  -4   0   3 1705.73   79.39
  -4   0   3 1647.24   79.49
  -4   0   3 1539.85   79.89
  -4   0   3 1619.44   80.09
  -4   0   3 1681.93   80.39
   3   0  -3  970.10   48.90
   3   0  -3  894.31   49.60
   3   0  -3 1118.49   48.70
   3   0  -3  941.91   50.29
   3   0  -3 1050.29   48.80
   3   0  -3 1043.90   48.80
   3   0  -3  979.20   48.40
  -3   0   3  936.71   49.80
  -3   0   3  993.30   48.90
  -3   0   3  972.20   48.70
  -3   0   3  990.90   48.70
  -3   0   3  963.80   49.00
   2   0  -3 1490.45   70.89
   2   0  -3 1401.36   71.49
   2   0  -3 1506.25   70.59
   2   0  -3 1402.16   71.99
   2   0  -3 1459.75   70.89
   2   0  -3 1493.65   70.99
   2   0  -3 1499.55   70.69
  -2   0   3 1459.45   71.09
  -2   0   3 1405.86   71.69
  -2   0   3 1466.85   70.59
  -2   0   3 1533.05   71.19
  -2   0   3 1422.86   70.99
   1   0  -3  276.67   18.60
   1   0  -3  306.07   16.30
   1   0  -3  321.97   15.80
   1   0  -3  310.87   15.70
   1   0  -3  319.37   16.40
   1   0  -3  312.97   16.20
   1   0  -3  335.77   16.10
   1   0  -3  296.97   17.30
   1   0  -3  301.47   16.60
  -1   0   3  352.06   18.50
  -1   0   3  306.67   16.30
  -1   0   3  317.37   16.40
  -1   0   3  313.07   15.70
  -1   0   3  313.67   16.70
  -1   0   3  303.27   16.00
  -1   0   3  290.17   17.10
   0   0  -3   62.09    4.50
   0   0  -3   58.29    5.00
   0   0  -3   65.29    7.90
   0   0  -3   57.79    5.30
   0   0  -3   60.89    5.70
   0   0  -3   52.59    5.70
   0   0  -3   58.49    4.30
   0   0  -3   54.19    5.80
   0   0  -3   56.69    4.80
   0   0   3   71.39    5.80
   0   0   3   54.59    5.10
   0   0   3   55.99    4.70
   0   0   3   62.69    7.40
   0   0   3   59.09    5.60
   0   0   3   58.89    5.40
   0   0   3   52.69    4.90
  -1   0  -3 1923.41   95.69
  -1   0  -3 2123.69   95.49
  -1   0  -3 2014.70   95.09
  -1   0  -3 1941.51   96.79
  -1   0  -3 1994.90   94.59
  -1   0  -3 1833.32   95.39
   1   0   3 1935.81   95.69
   1   0   3 1775.22   96.59
   1   0   3 1944.21   94.59
   1   0   3 2067.59   95.19
   1   0   3 2080.29   95.49
  -2   0  -3 1056.99   50.79
  -2   0  -3 1000.00   51.99
  -2   0  -3 1084.39   51.59
  -2   0  -3 1024.80   50.49
  -2   0  -3 1028.80   53.59
  -2   0  -3 1144.49   52.59
  -2   0  -3  888.51   56.59
   2   0   3 1033.00   52.29
   2   0   3  966.20   53.49
   2   0   3 1144.99   52.79
   2   0   3 1051.69   50.79
  -3   0  -3  902.81   44.20
  -3   0  -3  873.01   44.20
  -3   0  -3  888.41   45.10
  -3   0  -3  814.32   45.60
   3   0   3  927.91   44.40
   3   0   3  953.30   47.30
   3   0   3  918.51   44.20
   3   0   3  887.91   47.70
  -4   0  -3  511.75   30.30
  -4   0  -3  497.45   29.40
  -4   0  -3  542.25   29.20
   4   0   3  510.75   31.90
   4   0   3  564.34   29.90
   4   0   3  566.44   28.60
   4   0   3  556.44   32.60
  -5   0  -3   43.80   11.20
  -5   0  -3   55.89    9.70
  -5   0  -3   54.39    9.70
   5   0   3   70.09   13.30
   5   0   3   55.39   12.00
   5   0   3   59.89   10.10
  -6   0  -3   38.70   13.50
  -6   0  -3   45.30   15.10
  -6   0  -3   44.90   16.30
   6   0   3   39.70   15.00
   6   0   3   52.29   12.20
   6   0   3   64.59   16.60
  -7   0  -3  379.96   27.80
  -7   0  -3  386.96   31.50
  -7   0  -3  296.37   28.80
   7   0   3  273.67   32.80
   7   0   3  298.37   28.20
   7   0   3  348.97   33.70
  -8   0  -3  607.94   41.70
  -8   0  -3  619.04   38.80
  -8   0  -3  494.05   39.30
   8   0   3  636.94   44.50
   8   0   3  559.84   41.20
   8   0   3  495.55   45.60
  -9   0  -3  648.24   47.10
  -9   0  -3  718.23   47.60
  -9   0  -3  772.82   51.49
   9   0   3  664.13   56.99
   9   0   3  688.83   61.89
   9   0   3  772.12   55.39
 -10   0  -3  141.39   27.00
 -10   0  -3  127.59   28.90
  10   0   3  144.29   31.50
  10   0   3  142.59   36.50
  12  -1  -3  119.99   28.80
  12  -1  -3   48.20   36.50
  12  -1  -3  121.89   32.00
 -12   1   3   99.09   36.90
 -12   1   3   75.59   31.90
  11  -1  -3  280.97   37.70
  11  -1  -3  238.38   32.00
  11  -1  -3  291.67   42.30
 -11   1   3  160.68   37.90
 -11   1   3  228.08   34.10
 -11   1   3  398.66   44.70
  10  -1  -3  494.45   43.50
  10  -1  -3  531.35   42.60
  10  -1  -3  486.55   39.40
 -10   1   3  557.14   43.40
   9  -1  -3  452.85   40.40
   9  -1  -3  591.84   37.20
   9  -1  -3  545.55   38.30
  -9   1   3  457.35   39.50
  -9   1   3  385.06   37.40
   8  -1  -3  189.58   23.20
   8  -1  -3  188.28   22.90
   8  -1  -3  177.18   24.50
  -8   1   3  110.09   18.80
  -8   1   3  123.39   17.70
  -8   1   3  138.99   19.60
   7  -1  -3   31.80   11.20
   7  -1  -3    7.70   12.40
   7  -1  -3   17.80   11.10
  -7   1   3   28.80   11.80
  -7   1   3   12.00   11.50
  -7   1   3   20.10   10.80
   6  -1  -3  355.06   23.70
   6  -1  -3  372.76   24.00
   6  -1  -3  328.07   22.80
  -6   1   3  329.97   22.30
  -6   1   3  389.56   26.60
  -6   1   3  331.47   22.10
  -6   1   3  355.96   22.80
   5  -1  -3  606.94   36.80
   5  -1  -3  672.53   35.30
   5  -1  -3  743.13   37.40
  -5   1   3  724.43   41.00
  -5   1   3  703.73   36.60
  -5   1   3  702.93   36.30
   4  -1  -3 2583.34  123.39
   4  -1  -3 2582.84  121.89
   4  -1  -3 2403.86  122.99
  -4   1   3 2604.34  122.49
  -4   1   3 2615.74  122.59
  -4   1   3 2214.38  122.19
  -4   1   3 2683.73  122.49
   3  -1  -3 5773.82  271.17
   3  -1  -3 5748.12  270.67
   3  -1  -3 5803.32  270.77
   3  -1  -3 5465.55  271.67
   3  -1  -3 5679.03  271.37
   3  -1  -3 5591.74  270.77
  -3   1   3 5674.13  270.67
  -3   1   3 5517.65  270.87
  -3   1   3 5695.83  271.47
  -3   1   3 5529.25  270.87
  -3   1   3 5817.12  270.97
   2  -1  -3 1787.52   85.19
   2  -1  -3 1706.13   85.09
   2  -1  -3 1870.71   85.49
   2  -1  -3 1710.33   85.59
   2  -1  -3 1757.92   85.29
   2  -1  -3 1802.12   85.29
  -2   1   3 1818.92   85.59
  -2   1   3 1637.34   85.59
  -2   1   3 1756.12   85.19
  -2   1   3 1790.72   85.49
  -2   1   3 1724.03   85.29
  -2   1   3 1751.22   85.49
   1  -1  -3  107.69    7.50
   1  -1  -3  114.49    6.90
   1  -1  -3  106.29    7.30
   1  -1  -3  107.79    8.20
   1  -1  -3   98.39    7.20
   1  -1  -3  108.39    7.00
  -1   1   3   97.69    9.50
  -1   1   3   97.89    7.00
  -1   1   3  108.49    7.30
  -1   1   3   99.59    7.10
  -1   1   3  109.49    7.80
   0  -1  -3  127.69    9.90
   0  -1  -3  156.98    9.90
   0  -1  -3  127.19    7.90
   0  -1  -3  123.69    8.10
   0  -1  -3  116.69    8.60
   0  -1  -3  125.59    7.30
   0  -1  -3  126.19    8.50
   0   1   3  137.89    8.10
   0   1   3  120.49   11.20
   0   1   3  118.39    8.20
   0   1   3  132.99    8.00
   0   1   3  117.19    8.70
  -1  -1  -3  947.41   52.89
  -1  -1  -3 1049.40   51.39
  -1  -1  -3 1189.48   52.79
  -1  -1  -3 1032.60   51.89
  -1  -1  -3  985.40   52.09
   1   1   3 1034.20   51.79
   1   1   3 1172.28   52.49
   1   1   3 1003.20   52.19
   1   1   3 1018.50   51.29
   1   1   3 1055.29   54.19
  -2  -1  -3 1051.09   56.79
  -2  -1  -3 1342.37   65.39
  -2  -1  -3 1141.09   56.09
  -2  -1  -3 1042.50   57.99
  -2  -1  -3 1137.49   56.59
   2   1   3 1117.59   56.09
   2   1   3 1251.07   58.19
   2   1   3 1107.69   57.29
   2   1   3 1170.28   65.59
   2   1   3 1118.79   57.29
  -3  -1  -3  887.11   44.10
  -3  -1  -3  836.52   44.40
  -3  -1  -3  803.32   44.30
   3   1   3  867.11   46.60
   3   1   3  885.81   43.70
   3   1   3  935.11   47.50
  -4  -1  -3 1088.99   53.19
  -4  -1  -3 1102.39   53.09
  -4  -1  -3 1039.00   54.29
  -4  -1  -3 1083.89   53.99
   4   1   3 1092.89   52.99
   4   1   3  894.71   56.29
   4   1   3 1117.29   57.29
  -5  -1  -3   13.20    8.80
  -5  -1  -3   18.40    9.60
  -5  -1  -3    4.00    8.50
   5   1   3    9.90    9.40
   5   1   3   20.10   12.60
   5   1   3    5.60   12.00
  -6  -1  -3   -1.40   13.10
  -6  -1  -3    9.80   14.10
  -6  -1  -3   10.70   12.30
   6   1   3    8.70   12.00
   6   1   3   -8.00   14.60
   6   1   3   26.50   16.30
  -7  -1  -3  426.66   36.50
  -7  -1  -3  354.26   32.30
  -7  -1  -3  437.46   34.50
   7   1   3  489.15   37.20
   7   1   3  448.46   31.20
   7   1   3  350.36   35.90
  -8  -1  -3  400.26   36.00
  -8  -1  -3  456.15   39.70
  -8  -1  -3  450.95   36.60
   8   1   3  448.36   41.00
   8   1   3  349.07   40.80
   8   1   3  454.05   36.90
  -9  -1  -3  246.68   34.80
  -9  -1  -3  343.87   38.30
  -9  -1  -3  354.56   50.69
   9   1   3  312.77   52.59
   9   1   3  332.07   43.50
   9   1   3  257.17   36.20
 -10  -1  -3   93.19   27.80
 -10  -1  -3   88.09   29.70
 -10  -1  -3   78.69   40.90
  10   1   3  134.39   34.70
  10   1   3  116.09   32.10
  12  -2  -3    4.40   31.10
  12  -2  -3   93.19   29.80
 -12   2   3  134.19   40.20
 -12   2   3   64.19   32.10
  11  -2  -3  289.77   43.40
  11  -2  -3  390.96   42.90
  11  -2  -3  350.76   39.10
 -11   2   3  382.26   47.10
 -11   2   3  387.76   46.90
 -11   2   3  254.57   36.20
  10  -2  -3  662.03   44.10
  10  -2  -3  622.64   55.39
  10  -2  -3  588.34   46.70
 -10   2   3  662.83   49.70
 -10   2   3  569.54   48.40
   9  -2  -3  314.97   30.80
   9  -2  -3  307.07   30.90
  -9   2   3  261.37   33.20
  -9   2   3  190.88   32.60
   8  -2  -3   77.99   15.30
   8  -2  -3   83.19   16.30
   8  -2  -3   64.29   16.50
  -8   2   3   72.59   17.00
  -8   2   3   72.89   18.00
  -8   2   3   74.89   15.90
   7  -2  -3   98.49   14.10
   7  -2  -3  105.29   14.70
   7  -2  -3  106.19   13.70
  -7   2   3  127.39   17.60
  -7   2   3   93.79   13.20
  -7   2   3  102.09   15.40
   6  -2  -3  393.66   25.30
   6  -2  -3  360.06   24.70
  -6   2   3  426.36   25.20
  -6   2   3  385.36   24.20
  -6   2   3  386.06   24.00
   5  -2  -3  734.53   40.00
   5  -2  -3  710.93   39.50
  -5   2   3  734.03   39.10
  -5   2   3  808.32   39.90
  -5   2   3  759.62   39.30
   4  -2  -3 1557.44   78.79
   4  -2  -3 1696.63   79.79
  -4   2   3 1719.73   79.79
  -4   2   3 1438.46   79.09
  -4   2   3 1654.83   79.29
  -4   2   3 1610.14   79.19
   3  -2  -3 2761.12  133.09
   3  -2  -3 2769.32  132.49
   3  -2  -3 2812.92  131.39
   3  -2  -3 2776.32  132.39
   3  -2  -3 2843.52  132.29
   3  -2  -3 2824.62  132.09
  -3   2   3 2930.21  132.89
  -3   2   3 2404.36  131.99
  -3   2   3 2540.05  132.79
  -3   2   3 2806.22  132.59
  -3   2   3 2691.03  132.49
   2  -2  -3   61.59    6.50
   2  -2  -3   48.50    6.50
   2  -2  -3   63.79    6.20
   2  -2  -3   58.29    6.10
   2  -2  -3   58.89    6.40
   2  -2  -3   48.80    5.80
   2  -2  -3   61.89    6.00
  -2   2   3   63.79    7.00
  -2   2   3   60.29    6.40
  -2   2   3   58.69    6.10
  -2   2   3   78.49    7.60
  -2   2   3   63.09    6.40
   1  -2  -3  219.78   12.10
   1  -2  -3  233.78   13.00
   1  -2  -3  212.68   12.50
   1  -2  -3  206.28   12.80
   1  -2  -3  209.98   12.30
  -1   2   3  222.28   12.50
  -1   2   3  199.98   12.40
  -1   2   3  233.18   14.20
  -1   2   3  212.68   12.30
  -1   2   3  196.18   13.10
   0  -2  -3 1708.63   80.79
   0  -2  -3 1557.04   80.29
   0  -2  -3 1412.96   80.39
   0  -2  -3 1595.34   79.89
   0  -2  -3 1703.23   79.89
   0  -2  -3 1676.23   79.29
   0  -2  -3 1682.83   80.19
   0   2   3 1739.33   81.49
   0   2   3 1586.64   80.49
   0   2   3 1746.63   79.59
   0   2   3 1678.43   79.89
  -1  -2  -3  855.81   42.40
  -1  -2  -3  796.72   41.20
  -1  -2  -3  702.93   41.80
  -1  -2  -3  775.32   40.40
  -1  -2  -3  821.82   40.90
  -1  -2  -3  823.62   41.10
   1   2   3  805.52   41.60
   1   2   3  832.72   41.10
   1   2   3  818.62   41.00
   1   2   3  830.72   40.20
   1   2   3  902.01   42.20
  -2  -2  -3 2144.99  114.99
  -2  -2  -3 2401.66  114.69
  -2  -2  -3 2479.95  116.39
  -2  -2  -3 2350.76  114.29
   2   2   3 2445.56  117.09
  -3  -2  -3 1101.69   56.29
  -3  -2  -3 1118.69   55.59
  -3  -2  -3 1142.39   56.09
   3   2   3 1217.18   59.69
   3   2   3  990.80   58.59
   3   2   3 1132.59   56.79
  -4  -2  -3  682.33   37.80
  -4  -2  -3  708.73   37.70
  -4  -2  -3  718.63   37.20
   4   2   3  762.82   42.00
   4   2   3  664.43   41.40
  -5  -2  -3  119.39   16.50
  -5  -2  -3  141.29   14.90
  -5  -2  -3  127.49   15.10
   5   2   3  123.49   18.00
   5   2   3  103.69   12.80
   5   2   3  118.49   18.30
  -6  -2  -3   81.79   15.10
  -6  -2  -3   66.29   14.20
  -6  -2  -3   53.39   14.80
   6   2   3   61.89   19.00
   6   2   3   56.59   13.30
   6   2   3   55.29   19.10
  -7  -2  -3  325.57   33.40
  -7  -2  -3  384.66   35.50
  -7  -2  -3  442.86   36.90
   7   2   3  282.57   46.10
   7   2   3  423.26   31.20
   7   2   3  437.06   39.20
  -8  -2  -3  310.07   37.70
  -8  -2  -3  294.57   39.30
  -8  -2  -3  265.97   35.20
   8   2   3  298.57   39.30
   8   2   3  392.56   34.00
   8   2   3  372.86   41.60
  -9  -2  -3  213.38   31.20
  -9  -2  -3  152.58   28.70
  -9  -2  -3  168.28   30.20
   9   2   3  192.78   32.20
   9   2   3  158.88   33.40
   9   2   3  204.38   50.89
 -10  -2  -3   80.19   28.90
 -10  -2  -3   60.69   33.60
  10   2   3   82.69   34.60
  10   2   3   48.70   34.20
  12  -3  -3  186.18   34.00
  12  -3  -3  101.29   31.30
 -12   3   3  159.88   35.00
 -12   3   3  149.29   41.20
 -12   3   3  117.79   37.20
  11  -3  -3  332.77   42.60
  11  -3  -3  395.26   54.09
  11  -3  -3  318.17   41.20
 -11   3   3  304.67   38.00
 -11   3   3  339.67   46.30
 -11   3   3  240.48   34.90
  10  -3  -3  549.35   42.60
  10  -3  -3  460.15   43.70
  10  -3  -3  595.74   42.20
 -10   3   3  611.74   50.79
 -10   3   3  389.26   42.40
 -10   3   3  493.75   47.00
   9  -3  -3  365.66   32.20
   9  -3  -3  364.46   32.80
   9  -3  -3  290.17   31.30
  -9   3   3  258.77   35.60
  -9   3   3  322.27   31.60
  -9   3   3  422.16   35.20
   8  -3  -3   28.00   15.20
   8  -3  -3   38.40   14.90
  -8   3   3  100.99   16.80
  -8   3   3   55.79   15.40
  -8   3   3   75.09   18.20
   7  -3  -3   82.49   14.40
   7  -3  -3   79.79   12.20
   7  -3  -3   92.09   13.70
  -7   3   3   98.39   15.70
  -7   3   3  127.19   17.40
  -7   3   3   92.49   13.10
   6  -3  -3  234.28   17.00
   6  -3  -3  232.28   19.30
   6  -3  -3  221.98   19.00
  -6   3   3  252.77   20.00
  -6   3   3  247.98   17.60
  -6   3   3  241.88   18.10
   5  -3  -3 1867.41   92.59
   5  -3  -3 1904.11   93.69
   5  -3  -3 1828.02   93.09
  -5   3   3 1875.11   92.99
  -5   3   3 1984.50   94.09
  -5   3   3 1886.61   93.19
   4  -3  -3  791.22   41.20
   4  -3  -3  759.82   40.20
   4  -3  -3  838.82   40.60
  -4   3   3  804.32   40.80
  -4   3   3  789.72   41.60
  -4   3   3  754.82   40.10
  -4   3   3  810.92   40.90
   3  -3  -3 1038.70   48.60
   3  -3  -3  991.70   49.40
   3  -3  -3  960.40   49.10
   3  -3  -3  950.80   48.50
  -3   3   3 1006.00   49.60
  -3   3   3  919.31   49.30
  -3   3   3 1058.69   49.60
  -3   3   3  948.11   49.90
   2  -3  -3  409.46   21.80
   2  -3  -3  422.76   22.10
   2  -3  -3  404.26   22.00
   2  -3  -3  420.46   22.90
   2  -3  -3  380.56   22.30
  -2   3   3  408.66   22.10
  -2   3   3  376.86   23.50
  -2   3   3  415.56   22.90
  -2   3   3  400.36   22.00
  -2   3   3  461.75   23.20
   1  -3  -3   87.69    7.90
   1  -3  -3   83.59    6.90
   1  -3  -3   69.89    9.70
   1  -3  -3   71.89    9.30
   1  -3  -3   76.29    7.20
   1  -3  -3   71.49    6.80
  -1   3   3   70.19    8.50
  -1   3   3   61.79    7.10
  -1   3   3   66.19    7.20
  -1   3   3   91.69    9.60
  -1   3   3   80.99    7.10
   0  -3  -3  661.93   30.80
   0  -3  -3  566.74   31.40
   0  -3  -3  610.84   30.40
   0  -3  -3  543.45   31.10
   0  -3  -3  606.34   31.00
   0  -3  -3  602.44   31.20
   0   3   3  558.94   32.70
   0   3   3  611.24   31.80
   0   3   3  602.44   30.50
   0   3   3  643.74   33.00
  -1  -3  -3 1331.37   65.69
  -1  -3  -3 1367.26   66.49
  -1  -3  -3 1353.96   66.59
  -1  -3  -3 1289.47   68.29
  -1  -3  -3 1419.36   67.39
   1   3   3 1315.17   67.19
   1   3   3 1402.96   68.49
   1   3   3 1361.06   65.79
   1   3   3 1313.27   68.29
  -2  -3  -3 1116.29   56.19
  -2  -3  -3 1149.29   57.49
  -2  -3  -3 1156.78   57.29
   2   3   3 1132.99   58.09
   2   3   3 1166.18   60.29
   2   3   3 1152.08   59.69
   2   3   3 1175.48   56.39
  -3  -3  -3  884.01   46.40
  -3  -3  -3  873.71   45.70
  -3  -3  -3  893.11   45.90
   3   3   3  937.51   49.40
   3   3   3  901.61   46.90
   3   3   3  893.81   49.80
  -4  -3  -3  444.26   26.90
  -4  -3  -3  432.26   26.00
  -4  -3  -3  477.95   26.50
   4   3   3  466.45   31.80
   4   3   3  425.46   31.30
   4   3   3  458.65   27.70
  -5  -3  -3  164.28   17.70
  -5  -3  -3  136.19   16.40
  -5  -3  -3  127.19   16.70
   5   3   3  144.69   20.50
   5   3   3  142.19   19.80
  -6  -3  -3  325.07   28.10
  -6  -3  -3  361.16   29.00
  -6  -3  -3  430.56   29.70
   6   3   3  382.86   26.50
   6   3   3  357.96   36.00
   6   3   3  307.47   32.20
  -7  -3  -3  221.28   30.40
  -7  -3  -3  320.57   34.50
  -7  -3  -3  294.07   33.70
   7   3   3  234.08   26.90
   7   3   3  246.78   37.70
   7   3   3  230.58   34.70
  -8  -3  -3  455.55   45.10
  -8  -3  -3  337.07   41.30
  -8  -3  -3  435.46   45.90
   8   3   3  485.75   37.40
   8   3   3  381.56   45.20
  -9  -3  -3  250.97   36.60
  -9  -3  -3  218.48   33.20
   9   3   3  235.48   36.50
  11  -4  -3  368.96   48.90
  11  -4  -3  247.98   34.80
  11  -4  -3  314.07   42.60
 -11   4   3  238.48   39.30
 -11   4   3  188.38   36.40
 -11   4   3  311.37   37.80
  10  -4  -3  430.56   40.30
  10  -4  -3  414.86   39.80
  10  -4  -3  296.37   40.00
 -10   4   3  382.16   45.80
 -10   4   3  311.47   41.50
 -10   4   3  414.16   42.80
   9  -4  -3  192.58   28.90
   9  -4  -3  130.99   23.30
   9  -4  -3  217.68   26.80
  -9   4   3  208.48   25.10
  -9   4   3  145.79   27.30
  -9   4   3  172.08   24.40
   8  -4  -3  -18.40   15.20
   8  -4  -3   40.90   16.30
   8  -4  -3   25.30   14.20
  -8   4   3    6.10   15.70
  -8   4   3   21.50   14.70
  -8   4   3   14.20   19.10
   7  -4  -3  299.47   21.30
   7  -4  -3  253.57   24.60
   7  -4  -3  217.18   23.00
  -7   4   3  276.77   22.10
  -7   4   3  307.17   26.50
  -7   4   3  275.47   23.30
   6  -4  -3  958.80   50.89
   6  -4  -3  941.21   49.99
   6  -4  -3 1004.70   51.59
  -6   4   3  935.51   50.59
  -6   4   3  966.30   50.59
  -6   4   3  993.00   52.49
   5  -4  -3 1417.16   69.89
   5  -4  -3 1336.47   68.59
   5  -4  -3 1397.56   68.89
  -5   4   3 1346.37   69.29
  -5   4   3 1401.66   70.69
   4  -4  -3 1715.53   88.19
   4  -4  -3 1794.92   88.99
   4  -4  -3 1828.22   87.99
  -4   4   3 1887.81   88.99
  -4   4   3 1783.42   88.89
  -4   4   3 1808.92   89.69
   3  -4  -3  780.42   40.40
   3  -4  -3  802.22   39.20
   3  -4  -3  784.62   40.10
  -3   4   3  783.02   40.00
  -3   4   3  774.12   42.70
  -3   4   3  813.32   40.70
  -3   4   3  759.12   41.20
   2  -4  -3  426.26   23.70
   2  -4  -3  435.56   23.70
  -2   4   3  423.76   23.90
  -2   4   3  430.76   24.90
  -2   4   3  469.75   25.30
   1  -4  -3    8.50    4.40
   1  -4  -3    8.00    4.20
   1  -4  -3   14.90    4.80
  -1   4   3   19.10    7.30
  -1   4   3    9.60    4.00
  -1   4   3   19.80    5.90
   0  -4  -3  561.74   29.70
   0  -4  -3  542.75   28.70
   0  -4  -3  560.64   29.30
   0  -4  -3  570.74   29.20
   0   4   3  541.55   30.40
   0   4   3  583.94   31.50
  -1  -4  -3 2013.50   95.59
  -1  -4  -3 1795.42   96.09
  -1  -4  -3 1981.10   95.79
  -1  -4  -3 2015.40   95.49
   1   4   3 2026.20   97.49
   1   4   3 1924.51   96.29
   1   4   3 1923.71   94.99
  -2  -4  -3  810.92   41.40
  -2  -4  -3  783.72   41.50
   2   4   3  836.82   45.60
   2   4   3  793.42   44.20
   2   4   3  801.42   40.80
   2   4   3  787.92   42.50
  -3  -4  -3  454.45   26.40
  -3  -4  -3  463.35   26.50
  -3  -4  -3  454.75   30.10
   3   4   3  468.45   32.20
   3   4   3  481.85   25.60
   3   4   3  451.85   28.00
   3   4   3  480.85   30.40
  -4  -4  -3   31.30    8.70
  -4  -4  -3   22.80    9.20
  -4  -4  -3   32.90    9.70
  -4  -4  -3   45.10   10.50
   4   4   3   26.60   14.00
   4   4   3    6.80    8.60
   4   4   3   34.90   10.80
   4   4   3   52.19   15.70
  -5  -4  -3   12.60   11.90
  -5  -4  -3  -15.50   10.70
  -5  -4  -3    3.20   13.40
   5   4   3  -13.40   17.10
   5   4   3  -21.70   19.00
  -6  -4  -3  320.97   29.40
  -6  -4  -3  294.97   28.00
  -6  -4  -3  238.08   25.90
   6   4   3  292.67   24.70
   6   4   3  264.37   32.30
   6   4   3  263.27   38.40
  -7  -4  -3  400.46   38.50
  -7  -4  -3  366.96   39.00
   7   4   3  374.66   45.00
   7   4   3  263.97   37.50
   7   4   3  388.26   36.50
  -8  -4  -3  115.79   30.30
   8   4   3  142.99   32.00
   8   4   3  231.88   36.80
  -9  -4  -3  202.18   38.90
  -9  -4  -3   57.39   32.30
   9   4   3  161.78   36.30
   9   4   3  147.89   42.50
  11  -5  -3  326.87   45.30
  11  -5  -3  175.18   33.60
  11  -5  -3  294.17   36.90
 -11   5   3  218.88   41.00
 -11   5   3  238.28   37.10
 -11   5   3  238.48   37.90
  10  -5  -3  147.79   26.50
  10  -5  -3  171.78   30.60
  10  -5  -3  193.28   30.10
 -10   5   3  155.28   34.10
 -10   5   3  172.48   30.20
 -10   5   3  206.78   28.70
   9  -5  -3  143.69   20.80
   9  -5  -3  114.39   24.80
   9  -5  -3  131.79   23.90
  -9   5   3   50.69   27.70
  -9   5   3  173.58   24.40
  -9   5   3  105.59   22.10
   8  -5  -3    3.90   17.20
   8  -5  -3    8.40   14.20
   8  -5  -3  -32.90   16.50
  -8   5   3   -2.90   19.60
  -8   5   3   -1.40   16.60
   7  -5  -3  577.34   36.90
   7  -5  -3  602.04   37.80
   7  -5  -3  623.74   35.40
  -7   5   3  580.24   36.30
  -7   5   3  633.74   40.60
   6  -5  -3  808.72   43.30
   6  -5  -3  847.12   44.30
   6  -5  -3  851.11   45.20
  -6   5   3  687.83   44.00
  -6   5   3  817.52   44.50
  -6   5   3  899.11   47.20
   5  -5  -3  113.39   13.00
   5  -5  -3  112.39   13.50
   5  -5  -3  129.99   14.70
  -5   5   3  145.29   14.10
  -5   5   3  119.89   16.50
  -5   5   3  115.89   16.70
   4  -5  -3 1048.30   53.29
   4  -5  -3 1000.60   52.69
   4  -5  -3 1040.30   53.89
  -4   5   3 1128.29   55.09
  -4   5   3 1085.19   54.19
  -4   5   3 1031.40   54.99
   3  -5  -3  360.96   21.90
   3  -5  -3  363.26   21.20
  -3   5   3  352.76   23.20
  -3   5   3  384.26   23.40
  -3   5   3  373.26   21.90
   2  -5  -3  157.78   12.00
   2  -5  -3  130.49   11.90
  -2   5   3  154.28   11.90
  -2   5   3  135.49   13.40
  -2   5   3  157.88   14.50
   1  -5  -3  869.61   44.20
   1  -5  -3  893.51   45.40
   1  -5  -3  840.82   43.70
  -1   5   3  854.81   45.30
  -1   5   3  866.91   45.90
  -1   5   3  851.31   44.00
   0  -5  -3 1180.28   64.59
   0  -5  -3 1282.77   65.49
   0  -5  -3 1341.57   65.29
   0  -5  -3 1334.87   65.29
   0   5   3 1321.97   66.69
   0   5   3 1433.06   67.59
   0   5   3 1321.37   67.39
  -1  -5  -3 1238.28   61.39
  -1  -5  -3 1205.08   61.59
  -1  -5  -3 1195.78   61.19
   1   5   3 1223.88   63.59
   1   5   3 1216.98   62.69
   1   5   3 1295.27   65.29
  -2  -5  -3 1164.78   58.59
  -2  -5  -3 1216.58   58.89
  -2  -5  -3 1194.18   59.09
   2   5   3 1118.19   61.29
   2   5   3 1135.19   63.29
   2   5   3 1154.88   59.89
  -3  -5  -3  229.58   17.00
  -3  -5  -3  223.18   17.10
  -3  -5  -3  199.98   17.70
   3   5   3  238.88   20.10
   3   5   3  205.88   22.30
   3   5   3  240.88   25.70
  -4  -5  -3  153.58   15.90
  -4  -5  -3  160.58   17.50
  -4  -5  -3  169.58   19.30
  -4  -5  -3  103.29   13.90
   4   5   3  125.29   19.60
   4   5   3  134.09   20.40
   4   5   3  124.89   19.40
  -5  -5  -3   15.90   14.70
  -5  -5  -3    1.70   15.10
  -5  -5  -3   15.20   13.10
   5   5   3   22.60   19.50
   5   5   3   38.70   21.40
  -6  -5  -3  263.87   31.20
  -6  -5  -3  230.28   29.90
  -6  -5  -3  304.17   29.10
   6   5   3  208.88   33.70
   6   5   3  265.17   34.30
  -7  -5  -3  168.28   29.20
  -7  -5  -3  253.67   32.10
   7   5   3  333.77   47.30
   7   5   3  197.28   31.40
  -8  -5  -3  236.48   40.10
  -8  -5  -3  175.58   34.20
   8   5   3  234.38   42.10
   8   5   3  200.98   35.60
  11  -6  -3  292.67   38.30
  11  -6  -3  259.37   38.70
 -11   6   3  353.86   56.89
 -11   6   3  226.18   40.10
  10  -6  -3  219.18   33.70
  10  -6  -3  193.28   31.80
  10  -6  -3  280.77   39.90
 -10   6   3  247.58   32.60
 -10   6   3  132.39   38.40
   9  -6  -3   51.49   23.10
   9  -6  -3   36.20   19.50
   9  -6  -3   40.40   25.10
  -9   6   3   14.30   27.70
  -9   6   3   36.50   23.50
   8  -6  -3   72.19   16.30
   8  -6  -3   56.49   20.50
  -8   6   3   66.39   21.90
  -8   6   3   40.10   23.10
   7  -6  -3  111.49   17.90
   7  -6  -3  144.79   19.00
   7  -6  -3  128.09   16.80
  -7   6   3  116.79   20.80
  -7   6   3  121.49   17.50
   6  -6  -3  869.71   46.20
   6  -6  -3  868.31   47.60
   6  -6  -3  851.71   45.80
  -6   6   3  886.01   47.20
  -6   6   3  896.11   50.29
  -6   6   3  757.02   47.60
   5  -6  -3  507.65   29.30
   5  -6  -3  519.35   29.00
   5  -6  -3  483.95   30.80
  -5   6   3  504.35   32.10
  -5   6   3  511.95   30.10
  -5   6   3  507.25   32.40
   4  -6  -3  326.57   21.80
   4  -6  -3  314.87   20.90
   4  -6  -3  363.06   22.60
  -4   6   3  354.56   24.20
  -4   6   3  357.56   22.80
  -4   6   3  375.76   25.20
   3  -6  -3  152.58   12.50
   3  -6  -3  166.78   14.30
   3  -6  -3  149.09   13.50
  -3   6   3  156.18   14.20
  -3   6   3  160.08   15.80
  -3   6   3  155.98   17.40
   2  -6  -3   13.40    6.70
   2  -6  -3   -3.00    5.70
   2  -6  -3   12.00    6.80
  -2   6   3   22.30    9.10
  -2   6   3   17.10    6.20
  -2   6   3   17.50    7.90
   1  -6  -3  352.76   22.00
   1  -6  -3  377.96   21.40
   1  -6  -3  351.96   21.80
  -1   6   3  387.86   25.00
  -1   6   3  375.56   21.80
  -1   6   3  351.66   23.60
   0  -6  -3 1546.05   77.89
   0  -6  -3 1534.95   77.59
   0  -6  -3 1611.64   77.49
   0   6   3 1548.95   78.99
   0   6   3 1590.94   79.59
   0   6   3 1547.15   79.79
  -1  -6  -3 1228.08   62.09
  -1  -6  -3 1228.78   62.19
  -1  -6  -3 1201.88   62.49
   1   6   3 1205.58   64.79
   1   6   3 1244.58   63.89
   1   6   3 1308.27   68.59
  -2  -6  -3  325.27   21.20
  -2  -6  -3  323.07   21.90
  -2  -6  -3  342.47   21.90
   2   6   3  305.77   24.20
   2   6   3  370.36   26.20
   2   6   3  302.37   29.00
  -3  -6  -3   47.60   10.40
  -3  -6  -3   54.89   10.30
  -3  -6  -3   58.49   11.90
   3   6   3   64.99   15.70
   3   6   3   55.39   18.40
   3   6   3   71.09   13.10
  -4  -6  -3  -12.70   13.50
  -4  -6  -3   18.90   13.70
  -4  -6  -3   22.10   11.90
  -4  -6  -3    2.10   11.60
   4   6   3   -4.80   19.10
   4   6   3    9.30   18.00
   4   6   3   14.10   14.40
  -5  -6  -3   75.29   14.90
  -5  -6  -3   54.59   16.00
  -5  -6  -3   92.59   18.60
  -5  -6  -3   98.09   16.80
   5   6   3   82.09   17.70
  -6  -6  -3  392.56   32.60
  -6  -6  -3  322.47   34.30
  -6  -6  -3  349.27   36.50
   6   6   3  355.66   47.90
   6   6   3  349.07   41.60
  -7  -6  -3  354.06   45.90
   7   6   3  598.24   58.59
   7   6   3  461.65   49.40
  -8  -6  -3  171.78   42.10
  -8  -6  -3  117.69   34.70
   8   6   3  135.59   35.30
   8   6   3  199.38   46.70
  10  -7  -3   71.59   29.60
  10  -7  -3   73.29   31.90
 -10   7   3   55.99   38.30
 -10   7   3  162.98   31.50
   9  -7  -3   -3.50   22.80
   9  -7  -3  -35.70   26.50
   9  -7  -3   20.80   20.70
  -9   7   3  -36.40   30.80
  -9   7   3  -32.70   22.50
   8  -7  -3   98.89   21.20
   8  -7  -3   93.59   19.10
   8  -7  -3   88.09   22.60
  -8   7   3   84.79   27.30
  -8   7   3   81.19   20.40
  -8   7   3   92.69   20.70
   7  -7  -3  347.47   31.80
   7  -7  -3  401.86   29.60
   7  -7  -3  377.46   28.40
  -7   7   3  375.36   30.00
  -7   7   3  359.86   36.70
   6  -7  -3  928.81   51.69
   6  -7  -3  975.30   49.99
   6  -7  -3  913.51   49.70
  -6   7   3  953.50   51.09
  -6   7   3  808.22   52.69
  -6   7   3  956.20   55.39
   5  -7  -3  624.64   35.00
   5  -7  -3  630.54   35.10
   5  -7  -3  588.54   36.50
  -5   7   3  605.94   38.60
  -5   7   3  629.94   36.30
  -5   7   3  597.84   38.60
   4  -7  -3  289.97   19.90
   4  -7  -3  276.37   20.50
   4  -7  -3  307.07   24.50
  -4   7   3  313.77   25.70
  -4   7   3  269.57   21.40
  -4   7   3  294.77   23.50
   3  -7  -3  175.98   16.00
   3  -7  -3  158.08   15.30
   3  -7  -3  142.29   14.00
  -3   7   3  161.38   18.30
  -3   7   3  170.98   16.10
  -3   7   3  141.69   19.90
   2  -7  -3  107.89   13.70
   2  -7  -3  121.59   12.50
   2  -7  -3  112.69   13.90
  -2   7   3  129.69   13.70
  -2   7   3  103.29   16.00
  -2   7   3  124.39   17.70
   1  -7  -3  247.28   16.90
   1  -7  -3  227.48   17.90
   1  -7  -3  252.57   18.30
  -1   7   3  228.78   21.90
  -1   7   3  238.08   20.80
   0  -7  -3 1106.69   55.29
   0  -7  -3 1048.40   55.79
   0  -7  -3 1100.49   55.89
   0   7   3 1058.59   58.59
   0   7   3 1094.89   57.59
   0   7   3 1079.79   58.29
  -1  -7  -3  559.64   32.90
  -1  -7  -3  562.64   32.00
  -1  -7  -3  585.14   33.10
   1   7   3  560.24   36.60
   1   7   3  548.65   38.20
   1   7   3  593.04   35.10
  -2  -7  -3  197.98   18.70
  -2  -7  -3  183.28   18.70
  -2  -7  -3  192.18   17.30
   2   7   3  230.38   24.40
   2   7   3  173.68   28.20
   2   7   3  197.18   21.90
  -3  -7  -3   20.30   12.00
  -3  -7  -3   20.80   11.10
   3   7   3   16.20   13.70
   3   7   3   38.70   18.30
   3   7   3   13.90   20.40
  -4  -7  -3   57.29   14.40
  -4  -7  -3   43.20   14.50
  -4  -7  -3    7.60   16.30
   4   7   3   60.39   16.40
   4   7   3   37.90   23.50
   4   7   3   60.09   24.40
  -5  -7  -3  103.39   20.40
  -5  -7  -3  124.79   26.40
  -5  -7  -3  108.09   18.70
  -5  -7  -3  127.79   22.80
   5   7   3  103.39   27.90
   5   7   3   93.69   28.80
   5   7   3  132.79   21.40
  -6  -7  -3  442.76   43.20
  -6  -7  -3  390.16   40.00
   6   7   3  387.76   49.50
   6   7   3  468.65   53.69
  -7  -7  -3  139.99   34.50
   7   7   3  153.28   37.20
   7   7   3  248.38   45.80
   9  -8  -3   80.59   26.90
   9  -8  -3   -3.30   29.00
  -9   8   3  -18.00   23.10
  -9   8   3   -6.20   34.80
   8  -8  -3   94.09   24.90
   8  -8  -3  114.89   20.30
   8  -8  -3  121.89   22.70
  -8   8   3  108.19   30.90
  -8   8   3  100.49   21.30
   7  -8  -3  306.97   33.70
   7  -8  -3  317.27   36.10
   7  -8  -3  369.36   28.60
  -7   8   3  250.67   34.60
  -7   8   3  362.16   30.90
  -7   8   3  316.27   37.70
   6  -8  -3  380.46   27.40
   6  -8  -3  358.36   29.80
   6  -8  -3  291.37   26.20
  -6   8   3  319.67   28.00
  -6   8   3  352.06   32.90
  -6   8   3  297.87   32.80
   5  -8  -3  788.62   45.10
   5  -8  -3  765.72   45.00
   5  -8  -3  751.72   43.20
  -5   8   3  817.72   44.70
  -5   8   3  783.42   47.60
  -5   8   3  743.83   47.80
   4  -8  -3  276.37   22.50
   4  -8  -3  243.18   20.90
   4  -8  -3  263.97   20.40
  -4   8   3  269.37   23.20
  -4   8   3  245.08   25.20
  -4   8   3  243.08   26.90
   3  -8  -3  107.89   14.60
   3  -8  -3  108.49   13.80
   3  -8  -3  115.79   13.40
   3  -8  -3  117.79   15.10
  -3   8   3   95.19   15.90
  -3   8   3  116.49   12.90
  -3   8   3  127.09   17.90
   2  -8  -3  110.29   15.00
   2  -8  -3  123.29   16.70
   2  -8  -3  123.39   16.00
  -2   8   3  125.99   17.20
  -2   8   3  127.69   19.80
   1  -8  -3  476.65   29.10
   1  -8  -3  424.36   28.10
   1  -8  -3  447.66   27.20
  -1   8   3  431.56   32.20
  -1   8   3  457.45   31.40
   0  -8  -3  531.35   30.80
   0  -8  -3  565.14   32.50
   0  -8  -3  524.35   31.80
   0   8   3  585.24   35.70
   0   8   3  486.25   35.70
   0   8   3  493.05   35.60
  -1  -8  -3  762.82   41.30
  -1  -8  -3  720.73   42.30
  -1  -8  -3  807.92   43.30
   1   8   3  708.33   48.10
   1   8   3  776.52   45.50
  -2  -8  -3  300.17   24.60
  -2  -8  -3  294.07   24.40
  -2  -8  -3  283.87   22.20
   2   8   3  263.27   30.00
   2   8   3  212.28   33.90
   2   8   3  288.37   27.50
  -3  -8  -3   38.40   14.30
  -3  -8  -3   44.30   15.60
  -3  -8  -3   40.10   15.40
   3   8   3   48.60   21.20
   3   8   3   31.90   25.20
   3   8   3   50.29   22.10
  -4  -8  -3    6.40   16.70
  -4  -8  -3   26.80   18.60
  -4  -8  -3   22.40   17.40
   4   8   3   31.60   25.20
   4   8   3   57.69   26.60
   4   8   3   46.50   27.50
  -5  -8  -3   97.59   26.60
  -5  -8  -3  132.09   26.10
  -5  -8  -3  164.38   25.10
   5   8   3  126.59   32.90
   5   8   3  114.29   33.90
  -6  -8  -3  115.89   31.30
  -6  -8  -3   64.49   29.80
   6   8   3  138.09   37.00
   6   8   3  175.78   41.60
   9  -9  -3   17.30   27.90
   9  -9  -3   51.49   30.90
  -9   9   3   11.60   26.90
  -9   9   3  -34.50   34.40
   8  -9  -3   96.79   27.70
   8  -9  -3   85.69   24.20
  -8   9   3  125.29   24.00
  -8   9   3  115.99   34.00
   7  -9  -3  355.76   31.30
   7  -9  -3  422.86   33.70
   7  -9  -3  350.46   37.50
  -7   9   3  376.66   43.00
  -7   9   3  368.16   33.40
  -7   9   3  257.87   38.80
   6  -9  -3  535.45   40.10
   6  -9  -3  564.14   37.80
   6  -9  -3  549.25   36.50
  -6   9   3  426.46   43.30
  -6   9   3  621.24   37.90
  -6   9   3  555.14   44.00
   5  -9  -3  586.34   39.70
   5  -9  -3  585.24   37.20
   5  -9  -3  654.13   41.10
  -5   9   3  628.44   37.90
  -5   9   3  565.74   43.60
  -5   9   3  557.14   44.10
   4  -9  -3  140.89   16.50
   4  -9  -3  139.39   19.00
   4  -9  -3  134.99   17.60
  -4   9   3  160.08   26.70
  -4   9   3  130.39   19.50
  -4   9   3  117.99   27.00
   3  -9  -3    7.90   12.70
   3  -9  -3   17.80    9.90
   3  -9  -3    2.30   11.70
   3  -9  -3   17.70   10.70
  -3   9   3   13.70   11.70
  -3   9   3    8.50   17.40
   2  -9  -3  114.49   16.40
   2  -9  -3  110.39   14.80
  -2   9   3  123.99   20.30
  -2   9   3  132.79   18.80
   1  -9  -3  589.34   36.40
   1  -9  -3  546.45   36.60
  -1   9   3  606.34   39.60
  -1   9   3  580.24   40.40
   0  -9  -3  465.85   34.80
   0  -9  -3  443.06   30.60
   0   9   3  432.56   35.90
   0   9   3  524.05   35.50
   0   9   3  424.46   36.80
  -1  -9  -3  454.85   36.70
  -1  -9  -3  452.55   30.90
   1   9   3  438.66   38.10
   1   9   3  411.46   41.30
   1   9   3  501.65   35.80
  -2  -9  -3  144.09   21.00
  -2  -9  -3  171.38   24.70
  -2  -9  -3  154.48   19.90
   2   9   3  159.38   25.30
   2   9   3  141.69   29.10
   2   9   3  164.48   21.80
  -3  -9  -3   14.10   17.70
  -3  -9  -3   15.70   19.10
  -3  -9  -3  -11.80   15.70
   3   9   3   -1.50   19.30
   3   9   3   15.40   29.30
   3   9   3   -7.80   25.70
  -4  -9  -3   66.79   25.50
  -4  -9  -3   79.69   24.70
  -4  -9  -3   93.69   27.90
   4   9   3   77.79   33.60
   4   9   3   62.79   31.80
  -5  -9  -3  117.29   30.30
  -5  -9  -3   82.99   27.90
   5   9   3  226.78   39.70
   5   9   3  130.19   37.30
   7 -10  -3  416.96   42.20
   7 -10  -3  455.95   39.20
  -7  10   3  447.46   38.30
  -7  10   3  377.56   47.40
   6 -10  -3  520.65   41.30
   6 -10  -3  432.16   38.30
   6 -10  -3  368.56   40.40
  -6  10   3  453.85   45.00
  -6  10   3  468.25   36.20
  -6  10   3  387.36   45.30
   5 -10  -3  302.37   29.30
   5 -10  -3  319.67   31.30
   5 -10  -3  264.17   34.90
  -5  10   3  318.07   37.20
  -5  10   3  258.57   38.40
  -5  10   3  331.57   29.20
   4 -10  -3  117.49   16.40
   4 -10  -3  100.99   18.60
   4 -10  -3  111.99   18.80
  -4  10   3   86.49   22.10
  -4  10   3  104.89   25.60
   3 -10  -3   95.19   15.00
   3 -10  -3   97.79   16.90
   3 -10  -3   79.49   18.10
  -3  10   3  104.39   23.50
  -3  10   3  108.69   21.70
   2 -10  -3  157.18   22.70
   2 -10  -3  203.68   27.00
  -2  10   3  240.58   29.30
  -2  10   3  184.08   26.80
   1 -10  -3  274.37   26.30
   1 -10  -3  302.07   28.70
  -1  10   3  363.96   32.80
  -1  10   3  238.58   34.80
   0 -10  -3  366.96   29.70
   0 -10  -3  431.86   32.10
   0  10   3  349.37   36.60
   0  10   3  277.77   37.70
   0  10   3  337.27   36.90
  -1 -10  -3  362.06   30.60
  -1 -10  -3  364.26   31.80
   1  10   3  363.36   43.20
   1  10   3  271.17   38.80
  -2 -10  -3   94.59   21.00
  -2 -10  -3  116.49   20.90
   2  10   3   64.99   25.30
   2  10   3   90.89   32.20
   2  10   3  111.99   28.30
  -3 -10  -3    7.30   21.40
  -3 -10  -3   10.90   22.70
   3  10   3  -11.00   31.90
   3  10   3   10.20   30.30
  -4 -10  -3    2.10   26.40
   4  10   3    5.50   34.00
   4  10   3    2.00   36.20
   6 -11  -3  304.27   37.30
   6 -11  -3  286.27   36.60
  -6  11   3  389.76   44.40
  -6  11   3  204.78   36.60
   5 -11  -3  139.39   22.00
   5 -11  -3  223.78   31.80
  -5  11   3  125.49   31.70
  -5  11   3  187.68   29.70
   4 -11  -3   49.40   18.40
   4 -11  -3   59.99   20.50
  -4  11   3   42.60   24.30
  -4  11   3   21.00   27.80
   3 -11  -3   36.50   16.80
   3 -11  -3   26.50   18.10
  -3  11   3   73.99   27.90
  -3  11   3   -5.20   25.40
   2 -11  -3  212.28   24.60
   2 -11  -3  154.08   21.10
  -2  11   3  216.48   27.90
  -2  11   3  225.18   30.80
   1 -11  -3  462.25   36.80
   1 -11  -3  361.86   33.00
  -1  11   3  453.95   43.50
   0 -11  -3  340.47   33.90
   0 -11  -3  286.97   32.80
   0  11   3  353.26   45.90
   0  11   3  344.57   40.90
  -1 -11  -3  232.58   26.20
  -1 -11  -3  163.38   24.50
   1  11   3  260.17   39.60
   1  11   3  155.28   30.80
  -2 -11  -3  157.78   26.40
   2  11   3   88.19   32.60
   3  12  -4  144.79   25.90
   3  12  -4  152.88   28.20
   3  12  -4  154.18   26.30
  -3 -12   4   47.40   30.40
  -3 -12   4  203.28   23.90
  -3 -12   4  128.29   25.10
   2  12  -4  116.69   24.40
   2  12  -4  190.78   26.80
   2  12  -4  136.09   24.80
  -2 -12   4   70.89   29.00
  -2 -12   4  136.19   20.70
  -2 -12   4  144.59   23.50
   1  12  -4   23.70   20.50
   1  12  -4   27.50   21.00
  -1 -12   4   11.50   19.30
  -1 -12   4   31.20   17.70
   0  12  -4   37.00   19.60
   0  12  -4   36.60   18.60
   0 -12   4    2.50   18.80
   0 -12   4   18.90   18.00
  -1  12  -4  235.48   32.20
  -1  12  -4  236.88   28.80
  -1  12  -4  220.08   30.40
   1 -12   4  226.18   25.20
   1 -12   4  198.08   25.80
  -2  12  -4  371.86   38.00
  -2  12  -4  431.16   36.60
  -2  12  -4  392.56   36.00
   2 -12   4  422.06   37.60
   2 -12   4  374.56   39.20
  -3  12  -4  306.97   36.40
  -3  12  -4  302.67   33.50
  -3  12  -4  309.57   37.80
   3 -12   4  294.27   39.10
   3 -12   4  356.86   36.30
  -4  12  -4  121.49   26.70
  -4  12  -4   70.49   20.80
  -4  12  -4   75.79   26.60
   4 -12   4   98.69   26.30
   4 -12   4   82.39   23.30
   5  11  -4  273.77   37.90
   5  11  -4  247.08   37.70
   5  11  -4  308.97   41.30
  -5 -11   4  336.67   42.00
  -5 -11   4  231.98   35.50
   4  11  -4  200.98   26.70
   4  11  -4  191.48   28.00
   4  11  -4  236.08   33.60
  -4 -11   4  186.68   22.90
  -4 -11   4  238.78   36.20
  -4 -11   4  165.78   31.50
   3  11  -4  125.59   23.00
   3  11  -4  200.78   31.70
   3  11  -4  145.59   23.60
  -3 -11   4  160.18   20.10
  -3 -11   4  203.38   29.70
  -3 -11   4  168.38   23.60
   2  11  -4  212.28   29.50
   2  11  -4  169.68   26.80
   2  11  -4  225.08   24.70
  -2 -11   4  161.68   28.20
  -2 -11   4  216.68   30.10
  -2 -11   4  180.58   24.90
   1  11  -4   41.60   17.50
   1  11  -4   40.60   16.50
  -1 -11   4   11.00   20.40
  -1 -11   4   22.90   17.10
  -1 -11   4    5.00   13.80
   0  11  -4   59.59   18.00
   0  11  -4   84.49   17.60
   0  11  -4  104.69   15.60
   0 -11   4  103.69   18.60
   0 -11   4   97.49   17.60
  -1  11  -4  419.66   34.50
  -1  11  -4  381.16   31.70
  -1  11  -4  420.66   33.20
   1 -11   4  483.85   34.00
   1 -11   4  390.16   34.20
  -2  11  -4  486.05   36.20
  -2  11  -4  438.66   37.30
  -2  11  -4  503.45   36.10
   2 -11   4  443.76   38.30
   2 -11   4  531.65   37.40
  -3  11  -4  471.15   37.60
  -3  11  -4  427.26   35.50
  -3  11  -4  424.06   39.30
   3 -11   4  428.36   37.30
   3 -11   4  442.76   37.30
  -4  11  -4  212.08   29.00
  -4  11  -4  203.88   29.90
  -4  11  -4  234.08   28.60
   4 -11   4  196.48   27.50
   4 -11   4  191.68   25.80
  -5  11  -4  -10.40   27.00
  -5  11  -4   -4.80   18.50
  -5  11  -4  -19.90   25.60
   5 -11   4   20.80   22.50
   5 -11   4  -30.70   21.10
   5 -11   4   22.90   24.10
  -6  11  -4    9.80   33.60
  -6  11  -4   -1.40   29.70
  -6  11  -4   30.00   22.30
   6 -11   4   56.69   27.90
   6 -11   4   71.59   27.80
   6 -11   4   36.50   24.60
   6  10  -4   52.19   25.80
   6  10  -4  134.09   29.30
   6  10  -4  112.59   24.80
  -6 -10   4  127.99   30.10
  -6 -10   4  152.58   31.90
   5  10  -4  213.58   34.60
   5  10  -4  257.97   35.60
   5  10  -4  243.08   32.90
  -5 -10   4  312.77   39.00
  -5 -10   4  312.77   42.20
   4  10  -4  529.75   41.10
   4  10  -4  545.85   38.50
   4  10  -4  473.35   39.90
  -4 -10   4  546.15   37.30
  -4 -10   4  577.34   46.20
  -4 -10   4  550.64   41.40
   3  10  -4  335.97   30.60
   3  10  -4  268.47   29.30
   3  10  -4  300.77   29.40
  -3 -10   4  326.97   27.30
  -3 -10   4  265.07   30.90
  -3 -10   4  318.27   30.20
   2  10  -4   96.59   16.10
   2  10  -4  104.29   17.70
  -2 -10   4   88.89   21.10
  -2 -10   4   90.89   14.60
  -2 -10   4  108.79   17.20
   1  10  -4   27.40   14.40
   1  10  -4   52.19   13.80
  -1 -10   4   42.70   13.70
  -1 -10   4   -2.60   17.40
  -1 -10   4   38.70   13.90
   0  10  -4  271.67   22.70
   0  10  -4  282.37   25.20
   0  10  -4  247.38   25.80
   0 -10   4  319.27   26.30
   0 -10   4  327.37   26.50
  -1  10  -4  487.25   35.60
  -1  10  -4  581.24   34.10
  -1  10  -4  544.25   36.90
   1 -10   4  522.65   35.40
   1 -10   4  490.35   35.10
  -2  10  -4  544.85   35.50
  -2  10  -4  472.15   35.60
  -2  10  -4  497.45   35.10
   2 -10   4  493.95   35.80
   2 -10   4  538.55   35.50
  -3  10  -4  394.26   31.00
  -3  10  -4  396.46   35.70
  -3  10  -4  367.96   32.90
   3 -10   4  355.36   36.20
   3 -10   4  371.26   33.20
   3 -10   4  380.46   31.90
  -4  10  -4  227.88   32.70
  -4  10  -4  215.68   27.50
  -4  10  -4  270.17   34.80
   4 -10   4  228.68   29.10
   4 -10   4  213.68   30.50
   4 -10   4  198.38   30.50
  -5  10  -4   13.30   24.90
  -5  10  -4  -29.20   16.50
  -5  10  -4   27.80   23.30
   5 -10   4  -30.30   19.40
   5 -10   4  -12.30   21.70
   5 -10   4  -32.60   20.20
  -6  10  -4   84.29   29.60
  -6  10  -4   38.90   20.60
  -6  10  -4  101.89   31.70
   6 -10   4   59.59   23.10
   6 -10   4  101.79   24.80
   6 -10   4   78.19   25.30
  -7  10  -4  168.48   37.40
  -7  10  -4  261.57   37.30
   7 -10   4  289.27   44.00
   7 -10   4  130.49   37.80
   7 -10   4  249.78   32.00
   7   9  -4   56.59   24.00
   7   9  -4   15.50   25.30
   7   9  -4    0.50   25.40
  -7  -9   4  -13.00   27.90
  -7  -9   4   66.49   30.70
   6   9  -4  197.28   23.70
   6   9  -4  133.49   25.00
   6   9  -4  150.98   27.70
  -6  -9   4  164.98   27.20
  -6  -9   4  165.58   29.60
   5   9  -4  519.35   37.90
   5   9  -4  493.55   39.40
   5   9  -4  532.75   44.10
  -5  -9   4  615.34   44.80
  -5  -9   4  552.14   42.30
   4   9  -4  519.05   37.10
   4   9  -4  569.24   36.10
   4   9  -4  580.64   38.50
  -4  -9   4  553.54   38.80
  -4  -9   4  566.94   41.90
  -4  -9   4  555.04   36.20
   3   9  -4  478.55   32.30
   3   9  -4  449.46   33.60
   3   9  -4  441.76   35.70
  -3  -9   4  464.65   30.60
  -3  -9   4  473.95   32.70
  -3  -9   4  470.05   36.30
   2   9  -4   40.50   13.30
   2   9  -4   69.59   12.80
  -2  -9   4   51.99   16.80
  -2  -9   4   50.29   11.40
   1   9  -4   23.50   10.80
   1   9  -4   16.00   11.60
  -1  -9   4    7.90   10.70
  -1  -9   4    9.40   13.40
  -1  -9   4   14.80   10.20
   0   9  -4   72.39   12.60
   0   9  -4   78.29   13.40
   0   9  -4  110.09   15.60
   0  -9   4   96.09   13.80
   0  -9   4   94.19   13.30
  -1   9  -4  447.16   30.10
  -1   9  -4  428.56   29.30
  -1   9  -4  462.65   30.10
   1  -9   4  437.56   29.90
   1  -9   4  461.75   29.70
  -2   9  -4  811.32   52.29
  -2   9  -4  822.32   47.10
  -2   9  -4  865.01   47.60
   2  -9   4  847.42   48.90
   2  -9   4  837.32   47.10
   2  -9   4  797.12   46.80
  -3   9  -4  484.05   34.60
  -3   9  -4  468.25   35.70
  -3   9  -4  520.75   33.30
   3  -9   4  494.95   33.70
   3  -9   4  458.35   32.50
   3  -9   4  477.45   38.40
  -4   9  -4  125.79   20.20
  -4   9  -4  154.38   21.40
  -4   9  -4  108.19   21.40
   4  -9   4  118.19   21.10
   4  -9   4  100.99   18.50
   4  -9   4  148.39   19.20
  -5   9  -4    9.10   14.50
  -5   9  -4   18.70   22.00
  -5   9  -4   26.20   20.70
   5  -9   4    3.00   17.40
   5  -9   4    6.10   18.60
   5  -9   4    2.40   19.20
  -6   9  -4  131.59   29.70
  -6   9  -4  139.59   27.80
   6  -9   4  164.28   24.50
   6  -9   4  158.18   23.40
   6  -9   4  106.29   25.10
  -7   9  -4  325.87   45.20
  -7   9  -4  162.08   38.10
   7  -9   4  278.67   39.90
   7  -9   4  237.88   33.50
  -8   9  -4  283.57   41.60
  -8   9  -4  353.66   52.59
   8  -9   4  387.16   50.29
   8  -9   4  411.46   47.40
   8   8  -4   36.80   27.20
   8   8  -4  -19.60   25.50
  -8  -8   4   20.50   29.50
  -8  -8   4   31.00   31.20
   7   8  -4   14.40   21.40
   7   8  -4   29.20   22.60
   7   8  -4   76.39   21.20
  -7  -8   4   46.80   25.20
  -7  -8   4   28.20   25.40
   6   8  -4  279.47   29.20
   6   8  -4  250.27   29.80
   6   8  -4  282.27   31.70
  -6  -8   4  252.87   33.50
  -6  -8   4  289.67   35.10
   5   8  -4  754.22   52.69
   5   8  -4  756.82   48.50
   5   8  -4  835.12   48.40
  -5  -8   4  867.41   52.79
  -5  -8   4  916.01   50.79
   4   8  -4  416.26   30.70
   4   8  -4  470.95   31.10
   4   8  -4  449.26   29.70
  -4  -8   4  467.65   35.50
  -4  -8   4  480.95   32.10
  -4  -8   4  429.36   29.40
   3   8  -4  234.98   20.20
   3   8  -4  214.58   21.10
   3   8  -4  222.08   21.00
  -3  -8   4  252.27   21.30
  -3  -8   4  241.08   19.60
  -3  -8   4  230.98   25.30
   2   8  -4   26.80    9.70
   2   8  -4   24.60    9.30
  -2  -8   4   31.30    8.80
  -2  -8   4   -1.20   13.00
  -2  -8   4   22.40   10.00
   1   8  -4   23.60    8.60
   1   8  -4   19.70    9.00
  -1  -8   4   17.10   11.60
  -1  -8   4    7.50    8.70
  -1  -8   4   15.80    8.50
   0   8  -4  107.69   14.10
   0   8  -4  111.79   15.30
   0   8  -4  136.09   15.30
   0  -8   4  107.99   15.20
   0  -8   4  128.29   14.90
  -1   8  -4 1454.55   74.79
  -1   8  -4 1494.05   74.09
  -1   8  -4 1435.66   75.29
   1  -8   4 1437.16   74.19
   1  -8   4 1448.36   73.99
  -2   8  -4 1351.36   69.19
  -2   8  -4 1349.16   68.79
  -2   8  -4 1296.77   69.49
   2  -8   4 1338.27   67.99
   2  -8   4 1268.67   69.29
   2  -8   4 1300.17   68.09
  -3   8  -4  475.55   31.50
  -3   8  -4  444.66   30.10
  -3   8  -4  486.95   33.70
   3  -8   4  411.76   29.80
   3  -8   4  461.45   32.00
   3  -8   4  462.45   29.90
  -4   8  -4   10.20   17.70
  -4   8  -4   22.50   14.80
   4  -8   4   -1.20   12.50
   4  -8   4    0.60   14.30
   4  -8   4    8.70   13.00
  -5   8  -4   22.50   21.80
   5  -8   4    8.50   17.20
   5  -8   4   33.80   16.00
   5  -8   4   27.10   14.90
  -6   8  -4  220.18   37.60
  -6   8  -4  213.98   28.70
   6  -8   4  222.98   29.10
   6  -8   4  214.68   29.20
   6  -8   4  225.88   29.60
  -7   8  -4  244.58   32.10
  -7   8  -4  235.08   34.80
  -7   8  -4  343.47   44.40
   7  -8   4  244.58   29.40
   7  -8   4  315.77   38.80
   7  -8   4  265.77   34.30
  -8   8  -4  196.28   35.20
  -8   8  -4  294.57   46.10
  -8   8  -4  189.98   31.60
   8  -8   4  226.78   34.40
   8  -8   4  258.17   36.50
   9   7  -4  100.99   33.90
   9   7  -4   28.70   31.00
  -9  -7   4   69.59   30.90
  -9  -7   4   63.29   35.50
   8   7  -4   -2.00   23.70
   8   7  -4   -1.40   25.10
  -8  -7   4   38.60   27.50
  -8  -7   4   -4.70   25.30
   7   7  -4  111.09   22.70
   7   7  -4  195.68   27.50
   7   7  -4  154.18   22.00
  -7  -7   4  194.88   26.60
  -7  -7   4  125.29   24.70
   6   7  -4  332.17   29.60
   6   7  -4  377.76   30.30
   6   7  -4  353.86   28.00
  -6  -7   4  325.67   47.10
  -6  -7   4  313.57   45.80
   5   7  -4  586.94   35.40
   5   7  -4  555.64   36.60
   5   7  -4  601.64   35.80
  -5  -7   4  611.54   37.90
  -5  -7   4  605.34   40.20
   4   7  -4  356.46   24.60
   4   7  -4  368.46   25.50
   4   7  -4  366.06   24.90
  -4  -7   4  365.46   24.40
  -4  -7   4  361.76   29.70
  -4  -7   4  377.86   26.30
   3   7  -4   42.20    9.60
   3   7  -4   47.90    9.70
   3   7  -4   43.30    9.60
  -3  -7   4   43.30   13.30
  -3  -7   4   51.49    9.70
  -3  -7   4   55.29    9.00
   2   7  -4   66.19    9.80
   2   7  -4   64.49    9.50
  -2  -7   4   81.29   10.20
  -2  -7   4   48.00   12.40
  -2  -7   4   72.49    9.50
   1   7  -4  329.27   21.10
   1   7  -4  320.57   21.60
  -1  -7   4  326.87   20.60
  -1  -7   4  300.87   20.70
  -1  -7   4  325.27   22.80
   0   7  -4  703.53   38.10
   0   7  -4  672.63   37.60
   0   7  -4  707.63   37.20
   0  -7   4  693.03   37.50
   0  -7   4  670.03   37.20
  -1   7  -4 1539.75   76.29
  -1   7  -4 1505.55   77.89
  -1   7  -4 1543.45   76.69
   1  -7   4 1490.75   75.69
   1  -7   4 1507.85   76.99
   1  -7   4 1456.45   75.69
  -2   7  -4  747.23   41.30
  -2   7  -4  758.62   41.50
  -2   7  -4  732.13   42.50
   2  -7   4  758.02   40.80
   2  -7   4  754.02   42.00
   2  -7   4  730.83   40.50
  -3   7  -4  311.97   23.00
  -3   7  -4  261.27   25.20
   3  -7   4  258.27   20.70
   3  -7   4  303.77   21.30
   3  -7   4  272.17   22.40
  -4   7  -4   14.50   15.40
  -4   7  -4   12.40   12.70
   4  -7   4    2.00   10.70
   4  -7   4   38.70   12.30
   4  -7   4   72.19   13.00
  -5   7  -4  118.79   19.20
  -5   7  -4  139.79   21.60
   5  -7   4  165.88   20.80
   5  -7   4  128.29   19.20
   5  -7   4  176.78   20.60
  -6   7  -4  356.56   36.80
  -6   7  -4  308.17   34.30
  -6   7  -4  285.37   30.20
   6  -7   4  367.76   30.50
   6  -7   4  369.16   29.10
   6  -7   4  352.36   34.80
  -7   7  -4  352.96   40.60
  -7   7  -4  350.16   34.40
  -7   7  -4  315.67   38.70
   7  -7   4  314.27   35.80
   7  -7   4  369.86   38.90
   7  -7   4  301.77   31.70
  -8   7  -4  316.07   43.40
  -8   7  -4  368.06   47.40
  -8   7  -4  295.87   41.10
   8  -7   4  293.77   43.20
   8  -7   4  312.27   44.50
  -9   7  -4  134.59   32.40
  -9   7  -4  144.69   34.10
  -9   7  -4  201.68   32.20
   9  -7   4  163.28   34.40
   9  -7   4  142.89   39.20
  10   6  -4   71.29   42.90
  10   6  -4  100.89   40.30
  10   6  -4   96.99   35.60
 -10  -6   4  143.69   34.50
 -10  -6   4  122.69   39.10
 -10  -6   4   75.69   31.90
   9   6  -4   33.10   27.30
   9   6  -4    5.50   30.00
   9   6  -4   27.10   36.70
  -9  -6   4   -1.00   27.90
  -9  -6   4   43.00   30.60
  -9  -6   4  -14.50   36.10
   8   6  -4    9.00   22.70
   8   6  -4  -17.20   19.20
  -8  -6   4  -32.00   21.30
  -8  -6   4   38.60   23.90
  -8  -6   4   49.90   24.70
   7   6  -4  335.37   32.30
  -7  -6   4  298.57   29.30
  -7  -6   4  387.16   33.70
   6   6  -4  655.73   39.00
   6   6  -4  639.54   37.80
   6   6  -4  650.13   40.30
  -6  -6   4  674.43   41.80
  -6  -6   4  701.83   42.90
   5   6  -4  659.33   39.60
   5   6  -4  690.93   38.40
   5   6  -4  709.13   38.20
  -5  -6   4  676.53   40.10
  -5  -6   4  697.63   41.90
   4   6  -4 1046.80   53.49
   4   6  -4  990.90   54.29
   4   6  -4 1046.10   53.19
  -4  -6   4 1080.79   53.69
  -4  -6   4 1016.30   56.09
  -4  -6   4 1017.80   54.69
   3   6  -4  206.98   16.10
   3   6  -4  206.78   16.00
   3   6  -4  223.88   16.10
  -3  -6   4  154.88   19.10
  -3  -6   4  194.38   16.60
  -3  -6   4  225.58   15.40
   2   6  -4   53.59    8.10
   2   6  -4   55.99    7.90
  -2  -6   4   38.90    7.30
  -2  -6   4   47.00    8.50
  -2  -6   4   51.99   10.30
   1   6  -4  320.57   20.50
   1   6  -4  340.07   21.10
  -1  -6   4  351.96   20.50
  -1  -6   4  325.27   20.80
  -1  -6   4  356.66   23.30
   0   6  -4  808.12   41.90
   0   6  -4  743.03   41.30
   0   6  -4  807.22   41.50
   0  -6   4  799.72   42.30
   0  -6   4  771.82   41.00
   0  -6   4  778.62   41.00
  -1   6  -4 1715.73   86.89
  -1   6  -4 1732.53   87.39
  -1   6  -4 1770.32   87.29
   1  -6   4 1739.63   86.29
   1  -6   4 1767.22   87.69
   1  -6   4 1753.32   86.49
  -2   6  -4 1064.69   61.59
  -2   6  -4 1225.78   60.89
   2  -6   4 1219.38   59.99
   2  -6   4 1189.98   59.69
   2  -6   4 1196.38   61.29
  -3   6  -4   87.79   14.50
  -3   6  -4  103.59   15.10
   3  -6   4   83.99   14.20
   3  -6   4   84.49   10.50
   3  -6   4   95.79   13.20
  -4   6  -4   40.80   11.70
  -4   6  -4   24.40   15.10
   4  -6   4   14.00   11.00
   4  -6   4   38.70   10.10
   4  -6   4   26.80   10.20
  -5   6  -4  138.39   19.90
  -5   6  -4  133.19   19.60
  -5   6  -4  140.79   19.20
   5  -6   4  132.79   18.40
   5  -6   4  132.29   18.50
   5  -6   4  128.49   20.90
  -6   6  -4  493.45   34.50
  -6   6  -4  429.76   37.50
   6  -6   4  507.25   33.90
   6  -6   4  510.85   31.80
   6  -6   4  504.35   37.10
  -7   6  -4  877.61   55.09
  -7   6  -4  831.42   50.89
  -7   6  -4  795.92   53.59
   7  -6   4  781.52   55.19
   7  -6   4  872.01   51.79
  -8   6  -4  613.54   48.30
  -8   6  -4  522.05   43.00
  -8   6  -4  579.54   49.10
   8  -6   4  526.35   47.20
   8  -6   4  515.35   50.09
  -9   6  -4  119.19   28.00
  -9   6  -4  100.49   31.50
  -9   6  -4  104.89   29.60
   9  -6   4  148.09   34.20
   9  -6   4  109.39   37.10
  10   5  -4   29.50   34.10
  10   5  -4   75.79   34.60
  10   5  -4   52.19   37.40
 -10  -5   4   77.79   34.10
 -10  -5   4   33.60   29.40
 -10  -5   4   69.29   30.60
   9   5  -4   13.30   31.00
   9   5  -4   42.50   27.30
   9   5  -4   21.00   25.10
  -9  -5   4   -7.10   25.60
  -9  -5   4   40.80   27.90
   8   5  -4   31.20   21.70
   8   5  -4   45.70   18.40
  -8  -5   4   27.20   20.00
  -8  -5   4   22.70   33.70
  -8  -5   4   52.49   22.10
   7   5  -4  512.75   32.90
   7   5  -4  484.85   35.60
  -7  -5   4  472.65   33.40
  -7  -5   4  519.35   37.60
  -7  -5   4  499.05   36.10
   6   5  -4 1132.29   57.59
   6   5  -4 1044.20   58.79
  -6  -5   4 1071.29   59.79
  -6  -5   4 1146.69   57.39
  -6  -5   4 1086.39   60.39
   5   5  -4  427.06   26.70
   5   5  -4  426.26   24.70
   5   5  -4  431.26   25.60
  -5  -5   4  404.06   29.80
  -5  -5   4  432.56   27.80
   4   5  -4  536.15   28.10
   4   5  -4  539.05   29.40
   4   5  -4  536.65   28.60
  -4  -5   4  500.95   28.40
  -4  -5   4  420.56   30.80
  -4  -5   4  493.05   29.40
   3   5  -4   89.49   10.90
   3   5  -4   80.39   10.00
   3   5  -4   88.59   10.50
  -3  -5   4   79.69   10.20
  -3  -5   4   83.59   10.00
  -3  -5   4   97.89   12.10
   2   5  -4  168.18   12.30
   2   5  -4  154.38   12.60
  -2  -5   4  167.88   12.10
  -2  -5   4  163.78   14.00
  -2  -5   4  139.29   12.70
   1   5  -4 1318.47   68.09
   1   5  -4 1377.06   67.29
   1   5  -4 1423.96   67.49
   1   5  -4 1313.07   67.59
  -1  -5   4 1328.07   67.49
  -1  -5   4 1441.56   67.19
  -1  -5   4 1362.56   67.19
  -1  -5   4 1313.77   67.79
   0   5  -4 2065.99  118.59
   0   5  -4 2390.16  114.69
   0   5  -4 2401.36  115.09
   0  -5   4 2426.16  114.99
   0  -5   4 2379.16  115.39
   0  -5   4 2394.46  114.39
   0  -5   4 2354.06  114.29
  -1   5  -4 1003.20   57.59
  -1   5  -4 1117.79   56.09
   1  -5   4 1152.08   55.39
   1  -5   4 1139.79   55.69
   1  -5   4 1096.89   56.69
  -2   5  -4 1117.99   62.39
  -2   5  -4 1202.98   60.99
   2  -5   4 1200.18   61.29
   2  -5   4 1246.68   59.59
   2  -5   4 1185.78   59.89
  -3   5  -4  171.98   15.90
  -3   5  -4  148.79   19.40
   3  -5   4  172.28   15.70
   3  -5   4  177.88   14.10
   3  -5   4  168.68   14.20
  -4   5  -4   11.90    9.60
  -4   5  -4    3.40   12.50
  -4   5  -4    3.60   10.90
   4  -5   4    4.90    7.80
   4  -5   4   -2.30   10.20
   4  -5   4    4.50    9.10
  -5   5  -4  387.36   31.50
  -5   5  -4  401.06   29.50
  -5   5  -4  411.96   29.80
   5  -5   4  374.66   28.50
   5  -5   4  410.66   26.90
  -6   5  -4  749.33   46.50
  -6   5  -4  777.12   43.00
  -6   5  -4  667.13   45.30
   6  -5   4  689.93   45.60
   6  -5   4  730.43   43.00
  -7   5  -4  588.24   42.90
  -7   5  -4  562.54   39.50
  -7   5  -4  616.74   43.70
   7  -5   4  604.34   50.49
  -8   5  -4  386.06   42.30
  -8   5  -4  445.66   41.90
  -8   5  -4  412.06   36.10
   8  -5   4  394.76   44.70
   8  -5   4  437.96   41.10
  -9   5  -4   50.39   24.20
  -9   5  -4   -1.00   30.30
  -9   5  -4   12.20   27.10
   9  -5   4   84.49   33.20
   9  -5   4   -5.70   34.70
 -10   5  -4   26.70   33.40
  10  -5   4   -9.80   42.40
  10  -5   4  -18.20   36.50
  11   4  -4  129.99   39.40
  11   4  -4  130.29   37.40
  11   4  -4  170.38   35.60
 -11  -4   4  156.28   35.80
 -11  -4   4  218.38   37.70
  10   4  -4  234.28   34.70
  10   4  -4  163.68   31.90
  10   4  -4  118.89   35.40
 -10  -4   4  219.78   32.50
 -10  -4   4  210.28   34.90
 -10  -4   4  190.18   31.00
   9   4  -4  -42.00   25.70
   9   4  -4    7.00   21.90
   9   4  -4   21.20   25.80
  -9  -4   4  -13.60   32.20
  -9  -4   4   -8.70   24.70
  -9  -4   4  -17.60   26.90
   8   4  -4  141.09   23.60
   8   4  -4   89.69   20.70
  -8  -4   4  120.69   21.60
  -8  -4   4  101.79   24.40
  -8  -4   4   70.49   19.60
   7   4  -4  289.57   23.30
   7   4  -4  279.97   25.20
  -7  -4   4  243.98   28.40
  -7  -4   4  286.47   27.70
  -7  -4   4  265.77   24.60
   6   4  -4  491.65   30.50
   6   4  -4  513.05   29.30
  -6  -4   4  459.15   31.30
  -6  -4   4  434.46   32.30
  -6  -4   4  508.95   29.50
   5   4  -4  571.54   31.30
   5   4  -4  558.84   30.50
  -5  -4   4  584.44   30.10
  -5  -4   4  457.55   32.60
  -5  -4   4  531.25   32.10
   4   4  -4  234.58   14.20
   4   4  -4  221.18   15.30
   4   4  -4  248.78   16.20
  -4  -4   4  193.78   16.90
  -4  -4   4  185.88   17.90
   3   4  -4    9.30    4.90
   3   4  -4    2.00    4.80
   3   4  -4    2.50    4.90
  -3  -4   4   10.50    4.70
  -3  -4   4    3.10    5.30
  -3  -4   4   18.00    7.20
  -3  -4   4    3.50    6.10
   2   4  -4  883.61   47.70
   2   4  -4  903.71   47.20
   2   4  -4  909.21   46.80
   2   4  -4  921.91   46.90
  -2  -4   4  937.01   48.30
  -2  -4   4  929.11   46.70
  -2  -4   4  915.61   46.30
  -2  -4   4  937.91   47.20
   1   4  -4  684.43   34.70
   1   4  -4  665.33   35.00
   1   4  -4  608.14   35.90
   1   4  -4  686.43   34.40
   1   4  -4  606.84   35.10
  -1  -4   4  677.03   34.60
  -1  -4   4  707.03   34.00
  -1  -4   4  706.73   34.20
  -1  -4   4  680.03   35.40
  -1  -4   4  675.13   35.00
   0   4  -4 1693.53   80.59
   0   4  -4 1651.03   80.19
   0   4  -4 1511.05   81.69
   0   4  -4 1565.14   79.19
   0  -4   4 1639.64   79.79
   0  -4   4 1643.14   81.59
   0  -4   4 1686.23   80.99
  -1   4  -4  956.20   54.79
  -1   4  -4 1020.60   52.09
  -1   4  -4 1004.10   50.39
   1  -4   4 1060.89   51.09
   1  -4   4 1033.00   52.39
   1  -4   4 1059.09   51.39
  -2   4  -4  634.84   31.70
  -2   4  -4  602.84   37.00
  -2   4  -4  636.54   34.10
   2  -4   4  649.74   32.30
   2  -4   4  610.34   32.80
   2  -4   4  611.84   34.10
  -3   4  -4   59.29   13.50
  -3   4  -4   77.29   11.90
  -3   4  -4   66.19    9.00
   3  -4   4   64.19    9.90
   3  -4   4   63.69    8.80
   3  -4   4   49.40    7.70
  -4   4  -4  185.48   21.00
  -4   4  -4  128.99   16.80
  -4   4  -4  141.49   17.30
   4  -4   4  135.39   15.90
   4  -4   4  147.79   14.20
  -5   4  -4  601.04   39.50
  -5   4  -4  654.73   39.20
  -5   4  -4  732.83   42.20
   5  -4   4  619.24   39.20
   5  -4   4  679.13   37.10
  -6   4  -4  880.31   51.39
  -6   4  -4  880.61   49.50
  -6   4  -4  850.31   50.89
   6  -4   4  818.72   51.19
   6  -4   4  903.11   52.69
  -7   4  -4  667.63   61.49
  -7   4  -4  702.53   46.20
  -7   4  -4  689.93   43.50
   7  -4   4  785.62   45.00
   7  -4   4  648.34   49.60
  -8   4  -4  294.57   35.70
  -8   4  -4  263.77   36.10
  -8   4  -4  264.67   30.10
   8  -4   4  216.98   33.00
   8  -4   4  251.57   36.70
  -9   4  -4   51.89   28.50
  -9   4  -4   22.10   23.40
  -9   4  -4   51.89   28.30
   9  -4   4   95.59   29.80
   9  -4   4   57.59   34.90
 -10   4  -4  -18.00   27.10
 -10   4  -4   38.00   33.50
  10  -4   4   17.70   41.60
  10  -4   4   -1.60   35.60
  11   3  -4  158.38   33.00
  11   3  -4  155.68   35.40
  11   3  -4  176.68   32.40
 -11  -3   4  163.18   33.60
 -11  -3   4  133.39   35.10
  10   3  -4   44.00   27.00
  10   3  -4   21.00   28.60
  10   3  -4   37.00   27.20
 -10  -3   4   76.59   27.90
 -10  -3   4   58.79   30.50
   9   3  -4   46.10   32.40
   9   3  -4   19.90   30.30
   9   3  -4   16.90   21.10
  -9  -3   4  -13.70   21.40
  -9  -3   4   11.20   30.00
  -9  -3   4  -13.30   23.10
   8   3  -4   94.19   17.70
   8   3  -4  113.89   19.20
   8   3  -4  116.09   20.10
  -8  -3   4   48.50   18.40
  -8  -3   4   87.79   21.00
  -8  -3   4  100.69   18.90
   7   3  -4  998.50   53.89
   7   3  -4  919.31   54.89
   7   3  -4 1125.59   60.89
  -7  -3   4 1000.10   56.59
  -7  -3   4  971.60   54.59
  -7  -3   4 1037.90   56.79
   6   3  -4 1226.68   62.49
   6   3  -4 1191.48   61.29
   6   3  -4 1249.77   63.89
  -6  -3   4 1075.29   63.49
  -6  -3   4 1272.87   61.99
  -6  -3   4 1203.58   63.99
   5   3  -4 1333.87   63.89
   5   3  -4 1257.97   63.09
  -5  -3   4 1228.28   65.19
  -5  -3   4 1157.18   64.89
  -5  -3   4 1299.77   63.09
   4   3  -4  549.05   29.50
   4   3  -4  562.84   30.20
   4   3  -4  549.15   29.20
  -4  -3   4  553.34   29.20
  -4  -3   4  566.34   31.90
  -4  -3   4  562.24   31.60
   3   3  -4  166.68   10.70
   3   3  -4  173.48   12.10
   3   3  -4  155.88   11.60
   3   3  -4  179.08   12.00
   3   3  -4  182.48   10.80
  -3  -3   4  177.18   11.90
  -3  -3   4  193.18   13.60
  -3  -3   4  153.88   11.50
  -3  -3   4  165.18   13.60
   2   3  -4  191.88   13.50
   2   3  -4  207.08   13.30
   2   3  -4  194.78   12.70
   2   3  -4  191.98   11.90
   2   3  -4  187.38   13.10
   2   3  -4  191.68   12.40
  -2  -3   4  207.78   13.90
  -2  -3   4  188.38   12.50
  -2  -3   4  202.38   12.70
  -2  -3   4  207.78   13.30
   1   3  -4  534.15   29.60
   1   3  -4  565.94   29.40
   1   3  -4  566.84   29.80
   1   3  -4  567.54   29.80
   1   3  -4  578.04   30.80
   1   3  -4  593.04   30.40
   1   3  -4  572.04   29.50
   1   3  -4  579.74   30.50
  -1  -3   4  583.64   29.20
  -1  -3   4  616.54   30.70
  -1  -3   4  574.14   30.30
   0   3  -4 1837.22   92.59
   0   3  -4 2025.00   94.29
   0   3  -4 1902.11   94.09
   0   3  -4 1942.01   93.59
   0   3  -4 1848.62   92.39
   0   3  -4 1866.11   95.49
   0   3  -4 1913.01   93.99
   0  -3   4 1905.71   93.89
   0  -3   4 1967.60   93.09
   0  -3   4 1884.51   93.79
   0  -3   4 1944.31   93.49
  -1   3  -4 1584.04   75.69
  -1   3  -4 1293.47   75.99
  -1   3  -4 1466.55   72.69
  -1   3  -4 1549.34   74.69
  -1   3  -4 1439.26   73.19
   1  -3   4 1572.94   73.29
   1  -3   4 1579.64   73.09
   1  -3   4 1502.65   74.69
   1  -3   4 1567.84   76.39
   1  -3   4 1549.84   74.99
   1  -3   4 1417.26   74.29
  -2   3  -4  415.56   24.50
  -2   3  -4  444.66   22.40
  -2   3  -4  416.06   26.50
   2  -3   4  436.86   25.40
   2  -3   4  414.66   24.10
   2  -3   4  404.96   22.60
   2  -3   4  385.16   22.40
  -3   3  -4   96.99   12.80
  -3   3  -4   86.89   12.90
  -3   3  -4   89.79   10.10
   3  -3   4   82.89    9.60
   3  -3   4   95.99   11.70
   3  -3   4   91.99   14.30
  -4   3  -4  185.18   21.20
  -4   3  -4  162.78   18.00
  -4   3  -4  184.48   16.00
   4  -3   4  198.58   17.40
   4  -3   4  204.78   15.00
   4  -3   4  193.88   20.10
  -5   3  -4  544.45   36.30
  -5   3  -4  514.95   33.80
  -5   3  -4  495.15   33.20
   5  -3   4  511.55   35.50
   5  -3   4  575.84   31.30
   5  -3   4  541.65   33.60
  -6   3  -4 1111.89   60.39
  -6   3  -4  989.30   58.59
  -6   3  -4 1038.20   59.29
   6  -3   4 1019.20   59.89
   6  -3   4 1113.29   57.29
   6  -3   4 1115.59   61.69
  -7   3  -4  599.24   41.30
  -7   3  -4  639.64   43.10
  -7   3  -4  653.83   43.10
   7  -3   4  625.14   41.10
   7  -3   4  574.04   45.00
   7  -3   4  689.13   47.80
  -8   3  -4  146.19   23.50
  -8   3  -4  165.18   26.20
  -8   3  -4  241.68   32.60
   8  -3   4  138.79   32.60
   8  -3   4  171.78   30.80
   8  -3   4   85.19   28.30
  -9   3  -4   50.79   23.70
  -9   3  -4   21.40   27.10
   9  -3   4   31.80   33.70
   9  -3   4   49.50   28.60
 -10   3  -4   84.09   27.50
 -10   3  -4   81.19   32.40
  10  -3   4   14.70   39.50
  10  -3   4   44.00   34.60
  11   2  -4   22.70   31.70
  11   2  -4   20.50   28.20
  11   2  -4   52.79   31.40
 -11  -2   4   87.59   32.90
 -11  -2   4   43.20   31.20
  10   2  -4   60.79   24.00
  10   2  -4   47.80   26.80
  10   2  -4  -18.00   23.90
 -10  -2   4   24.50   27.30
 -10  -2   4   -8.90   25.00
   9   2  -4    7.20   19.60
   9   2  -4   16.80   19.80
   9   2  -4   -9.70   22.60
  -9  -2   4   18.40   22.50
  -9  -2   4  -10.60   19.30
   8   2  -4  167.88   24.50
   8   2  -4  220.78   27.20
   8   2  -4  195.08   27.20
  -8  -2   4  178.88   26.00
  -8  -2   4  170.28   23.60
  -8  -2   4  181.68   26.70
   7   2  -4  932.51   51.89
   7   2  -4  941.11   54.99
   7   2  -4 1054.69   54.29
  -7  -2   4  979.70   54.09
  -7  -2   4  987.90   52.59
  -7  -2   4  915.71   53.89
   6   2  -4 2319.67  112.29
   6   2  -4 2322.87  113.79
   6   2  -4 2183.88  111.49
  -6  -2   4 2368.66  112.09
  -6  -2   4 2104.59  113.09
  -6  -2   4 2336.17  113.79
   5   2  -4 1169.18   59.89
   5   2  -4 1182.18   57.99
   5   2  -4 1059.39   57.29
  -5  -2   4 1149.78   57.59
  -5  -2   4 1164.08   59.99
  -5  -2   4 1131.49   59.19
   4   2  -4   82.59    8.80
   4   2  -4  101.09    9.10
   4   2  -4   88.69    8.80
  -4  -2   4   75.19   10.10
  -4  -2   4   77.59    9.00
  -4  -2   4   82.89   10.80
  -4  -2   4   95.69   11.40
   3   2  -4    4.00    3.50
   3   2  -4    6.40    3.90
   3   2  -4    7.90    4.30
   3   2  -4   10.10    5.30
   3   2  -4    1.40    3.60
  -3  -2   4   12.70    3.80
  -3  -2   4    4.40    4.00
  -3  -2   4    4.90    5.70
  -3  -2   4   -1.30    4.90
   2   2  -4  546.25   27.80
   2   2  -4  551.04   28.50
   2   2  -4  539.25   27.50
   2   2  -4  572.44   28.50
   2   2  -4  550.64   28.40
   2   2  -4  508.55   29.80
   2   2  -4  536.45   27.30
   2   2  -4  522.55   27.60
   2   2  -4  552.54   27.70
   2   2  -4  511.75   28.40
   2   2  -4  523.15   27.80
  -2  -2   4  563.74   27.60
  -2  -2   4  534.95   27.80
  -2  -2   4  565.34   29.80
  -2  -2   4  548.15   27.80
  -2  -2   4  514.45   27.80
   1   2  -4 2002.00   94.09
   1   2  -4 1867.71   93.19
   1   2  -4 1939.51   93.29
   1   2  -4 1902.61   92.59
   1   2  -4 1892.81   92.69
   1   2  -4 1934.81   93.39
   1   2  -4 1868.31   93.19
   1   2  -4 1917.41   92.79
   1   2  -4 1921.61   93.09
   1   2  -4 1878.21   92.59
   1   2  -4 2048.70   93.69
  -1  -2   4 1923.81   92.89
  -1  -2   4 1975.20   93.99
  -1  -2   4 1993.10   93.59
  -1  -2   4 1879.81   93.39
  -1  -2   4 1881.11   93.39
  -1  -2   4 1889.71   92.69
  -1  -2   4 1844.22   92.69
   0   2  -4 1486.65   75.39
   0   2  -4 1545.25   77.19
   0   2  -4 1505.35   75.59
   0   2  -4 1581.64   75.39
   0   2  -4 1593.24   76.79
   0   2  -4 1572.44   75.79
   0   2  -4 1601.84   76.69
   0   2  -4 1589.04   75.69
   0   2  -4 1526.15   76.79
   0   2  -4 1606.34   76.89
   0  -2   4 1574.04   76.79
   0  -2   4 1521.55   75.69
   0  -2   4 1552.64   76.29
   0  -2   4 1597.24   77.19
  -1   2  -4 2715.33  125.19
  -1   2  -4 2522.15  124.59
  -1   2  -4 2419.26  126.19
  -1   2  -4 2549.15  125.79
  -1   2  -4 2580.94  126.39
  -1   2  -4 2676.33  124.89
  -1   2  -4 2668.83  130.29
   1  -2   4 2648.83  124.99
   1  -2   4 2563.64  124.79
   1  -2   4 2592.54  126.79
   1  -2   4 2591.24  126.19
  -2   2  -4  884.51   45.80
   2  -2   4  863.51   46.20
   2  -2   4  859.01   43.80
   2  -2   4  873.01   43.50
   2  -2   4  881.81   45.10
  -3   2  -4   12.40    5.70
  -3   2  -4   11.40    7.90
   3  -2   4   11.60    5.40
   3  -2   4   14.80    6.70
   3  -2   4   -1.40    8.10
  -4   2  -4  196.58   15.50
  -4   2  -4  234.18   21.20
   4  -2   4  165.58   19.90
   4  -2   4  217.68   15.10
   4  -2   4  201.78   17.70
  -5   2  -4  339.37   29.90
  -5   2  -4  376.56   25.10
   5  -2   4  404.56   29.20
   5  -2   4  412.26   24.70
   5  -2   4  383.86   28.30
  -6   2  -4  539.85   37.00
  -6   2  -4  423.86   33.70
  -6   2  -4  575.54   35.20
   6  -2   4  519.55   32.30
   6  -2   4  413.06   34.80
   6  -2   4  548.75   37.90
  -7   2  -4  586.84   43.20
  -7   2  -4  601.44   41.50
  -7   2  -4  627.74   42.00
   7  -2   4  608.44   40.30
   7  -2   4  667.53   46.60
  -8   2  -4  127.19   24.30
  -8   2  -4  182.78   27.00
   8  -2   4  236.68   31.30
   8  -2   4  129.59   24.50
   8  -2   4  142.39   30.20
  -9   2  -4   16.20   23.50
  -9   2  -4   47.80   39.20
  -9   2  -4   33.30   27.80
   9  -2   4  -33.30   55.19
   9  -2   4  -30.30   31.60
   9  -2   4    5.60   28.60
 -10   2  -4   13.70   32.90
 -10   2  -4   63.59   26.60
  10  -2   4   50.79   37.50
  10  -2   4  122.29   40.20
  10  -2   4   59.19   33.20
  11   1  -4   70.89   31.00
  11   1  -4   25.70   28.40
  11   1  -4   78.49   27.40
 -11  -1   4  102.79   31.00
 -11  -1   4   97.59   34.50
  10   1  -4    8.00   25.10
  10   1  -4   -7.50   22.90
  10   1  -4   -1.70   21.60
 -10  -1   4  -12.00   26.90
 -10  -1   4  -40.00   23.20
   9   1  -4   16.10   18.80
   9   1  -4   30.60   17.50
   9   1  -4   50.49   21.20
  -9  -1   4    2.10   18.30
  -9  -1   4    2.30   22.80
   8   1  -4  222.88   23.60
   8   1  -4  219.78   27.10
   8   1  -4  199.18   26.80
  -8  -1   4  198.88   26.70
  -8  -1   4  167.08   23.40
   7   1  -4  662.83   39.50
   7   1  -4  674.43   40.30
   7   1  -4  751.92   40.80
  -7  -1   4  632.74   40.50
  -7  -1   4  704.53   39.50
   6   1  -4 1923.91   95.99
   6   1  -4 1878.61   95.89
   6   1  -4 2039.30   97.69
  -6  -1   4 1899.81   95.99
  -6  -1   4 1870.61   96.99
  -6  -1   4 2008.20   97.69
   5   1  -4  282.07   18.80
   5   1  -4  322.67   20.50
   5   1  -4  311.47   21.80
  -5  -1   4  323.17   20.40
  -5  -1   4  268.47   18.40
  -5  -1   4  304.47   18.70
  -5  -1   4  332.67   22.10
   4   1  -4   11.70    4.20
   4   1  -4   10.80    4.40
   4   1  -4   12.30    6.60
  -4  -1   4   21.30    5.30
  -4  -1   4    8.70    4.40
  -4  -1   4   11.70    7.10
  -4  -1   4    9.80    7.70
   3   1  -4  167.78   10.40
   3   1  -4  160.98   10.40
   3   1  -4  153.48   14.50
   3   1  -4  169.28    9.90
   3   1  -4  145.19   10.00
   3   1  -4  138.19   12.90
   3   1  -4  146.39   10.80
   3   1  -4  156.88   10.30
  -3  -1   4  148.79   14.20
  -3  -1   4  172.18   10.70
  -3  -1   4  156.88   10.30
  -3  -1   4  153.18   12.50
  -3  -1   4  154.48   10.10
  -3  -1   4  164.58   15.00
   2   1  -4  553.94   27.80
   2   1  -4  568.64   28.00
   2   1  -4  537.15   29.60
   2   1  -4  556.64   28.30
   2   1  -4  542.75   28.20
   2   1  -4  541.65   29.60
   2   1  -4  562.84   28.10
   2   1  -4  555.34   27.90
   2   1  -4  577.74   28.40
   2   1  -4  525.15   29.20
  -2  -1   4  574.74   28.30
  -2  -1   4  557.44   28.40
  -2  -1   4  567.54   28.30
  -2  -1   4  551.84   28.40
  -2  -1   4  546.55   27.90
  -2  -1   4  509.75   29.90
  -2  -1   4  545.25   28.10
   1   1  -4 2198.18  103.89
   1   1  -4 2148.98  103.49
   1   1  -4 2292.37  104.29
   1   1  -4 2134.29  103.79
   1   1  -4 2188.78  103.69
   1   1  -4 2281.67  104.49
   1   1  -4 1890.71  104.39
   1   1  -4 2167.78  105.29
   1   1  -4 2179.98  104.39
   1   1  -4 2103.89  103.79
  -1  -1   4 2154.38  103.89
  -1  -1   4 2208.28  103.89
  -1  -1   4 2221.48  104.69
  -1  -1   4 2150.58  104.49
  -1  -1   4 2165.98  104.09
  -1  -1   4 2140.19  103.59
  -1  -1   4 1961.60  104.69
   0   1  -4 1936.11   91.99
   0   1  -4 2009.60   92.99
   0   1  -4 1944.61   94.29
   0   1  -4 1867.91   93.19
   0   1  -4 1872.71   93.19
   0   1  -4 2006.70   92.69
   0   1  -4 1868.41   92.09
   0   1  -4 1901.61   93.19
   0   1  -4 1870.71   91.89
   0   1  -4 1923.51   92.49
   0   1  -4 1796.22   93.59
   0  -1   4 1891.51   91.99
   0  -1   4 2008.70   93.99
   0  -1   4 1932.51   92.99
   0  -1   4 1796.62   93.49
   0  -1   4 1941.81   93.39
  -1   1  -4  922.31   45.10
  -1   1  -4  940.61   47.90
  -1   1  -4  910.61   48.00
  -1   1  -4  918.11   45.10
  -1   1  -4  948.41   46.20
  -1   1  -4  895.41   45.30
  -1   1  -4  946.61   45.90
  -1   1  -4  893.01   47.10
   1  -1   4  911.81   45.20
   1  -1   4  904.21   45.10
   1  -1   4  961.60   46.70
   1  -1   4  922.21   46.00
  -2   1  -4  915.81   45.30
  -2   1  -4  866.11   46.20
  -2   1  -4  940.21   44.40
   2  -1   4  845.52   47.80
   2  -1   4  936.41   46.50
   2  -1   4  906.61   44.50
  -3   1  -4   24.30    7.60
  -3   1  -4   17.60    5.60
  -3   1  -4   24.00    8.90
   3  -1   4   32.00    8.00
   3  -1   4   26.00    5.30
   3  -1   4   22.80    9.70
  -4   1  -4  983.60   50.09
  -4   1  -4  938.61   51.69
   4  -1   4 1000.60   52.59
   4  -1   4  927.11   53.09
   4  -1   4 1013.40   49.20
  -5   1  -4  498.25   32.90
  -5   1  -4  471.85   29.20
   5  -1   4  512.55   28.70
   5  -1   4  505.55   33.70
   5  -1   4  452.85   32.40
  -6   1  -4  873.01   52.59
  -6   1  -4  828.42   48.90
   6  -1   4  781.22   54.39
   6  -1   4  943.91   52.49
   6  -1   4  912.01   48.00
  -7   1  -4  458.25   30.60
  -7   1  -4  431.76   38.30
  -7   1  -4  374.76   33.20
   7  -1   4  508.15   39.70
   7  -1   4  425.76   32.90
   7  -1   4  304.27   38.50
  -8   1  -4  107.29   23.80
   8  -1   4   77.79   23.30
   8  -1   4  164.28   28.80
   8  -1   4   99.19   28.20
  -9   1  -4   -1.80   24.80
  -9   1  -4   51.89   29.30
   9  -1   4   29.60   27.40
   9  -1   4   14.00   32.60
   9  -1   4    4.90   43.00
 -10   1  -4   30.50   31.10
 -10   1  -4   44.10   26.60
  10  -1   4   96.79   41.80
  10  -1   4   70.69   32.80
  10  -1   4   14.20   37.00
  12   0  -4   98.89   37.70
  12   0  -4  117.79   34.20
  12   0  -4   29.10   28.80
 -12   0   4  136.69   38.90
 -12   0   4   36.20   33.60
  11   0  -4   83.39   34.20
  11   0  -4  130.89   29.80
  11   0  -4  135.59   27.20
 -11   0   4   22.00   32.90
 -11   0   4   79.09   31.40
  10   0  -4   -6.90   22.90
  10   0  -4  -17.10   19.60
  10   0  -4    8.50   23.00
 -10   0   4  -35.20   22.80
 -10   0   4  -21.20   26.50
   9   0  -4   11.70   19.00
   9   0  -4   53.39   18.60
  -9   0   4   22.10   22.70
  -9   0   4   20.40   23.40
   8   0  -4  919.21   54.49
   8   0  -4 1016.10   53.79
   8   0  -4 1111.29   54.59
  -8   0   4  926.31   53.89
  -8   0   4  868.01   53.29
  -8   0   4  933.51   55.49
   7   0  -4  977.10   51.49
   7   0  -4  887.51   51.99
   7   0  -4  934.41   51.39
  -7   0   4  931.71   51.89
  -7   0   4  980.70   50.99
  -7   0   4  943.51   50.09
   6   0  -4  876.91   43.80
   6   0  -4  848.82   44.90
   6   0  -4  764.72   41.40
   6   0  -4  816.42   44.00
  -6   0   4  885.11   44.40
  -6   0   4  778.42   45.20
  -6   0   4  681.53   42.60
  -6   0   4  855.21   43.30
   5   0  -4  706.73   37.40
   5   0  -4  653.63   35.70
   5   0  -4  673.23   38.10
  -5   0   4  737.03   36.60
  -5   0   4  730.53   37.50
  -5   0   4  715.53   35.80
  -5   0   4  659.43   36.60
   4   0  -4   63.89    8.60
   4   0  -4   59.29    6.20
   4   0  -4   45.10    7.50
   4   0  -4   66.99    8.90
  -4   0   4   64.79    8.10
  -4   0   4   61.59    8.80
  -4   0   4   59.69    7.90
   3   0  -4  519.15   26.90
   3   0  -4  549.85   26.80
   3   0  -4  532.65   26.80
   3   0  -4  524.05   27.00
   3   0  -4  491.75   27.20
   3   0  -4  493.65   29.30
  -3   0   4  524.35   27.20
  -3   0   4  487.55   28.50
  -3   0   4  530.75   27.70
  -3   0   4  527.35   26.60
   2   0  -4  275.57   14.90
   2   0  -4  270.27   17.60
   2   0  -4  280.97   15.00
   2   0  -4  259.97   15.40
   2   0  -4  267.87   15.60
   2   0  -4  288.17   16.30
   2   0  -4  279.27   15.80
   2   0  -4  292.47   16.80
   2   0  -4  273.27   15.40
  -2   0   4  279.77   15.80
  -2   0   4  287.17   15.80
  -2   0   4  305.77   16.40
  -2   0   4  281.87   14.80
  -2   0   4  262.67   15.90
  -2   0   4  267.57   16.90
   1   0  -4 1603.24   73.19
   1   0  -4 1490.25   73.49
   1   0  -4 1500.35   73.89
   1   0  -4 1448.56   74.89
   1   0  -4 1553.94   73.49
   1   0  -4 1534.65   73.59
   1   0  -4 1504.85   72.99
   1   0  -4 1555.34   73.49
   1   0  -4 1552.94   73.29
   1   0  -4 1308.77   73.99
  -1   0   4 1355.26   73.79
  -1   0   4 1635.94   74.99
  -1   0   4 1437.46   72.69
  -1   0   4 1513.85   73.59
  -1   0   4 1618.04   73.39
  -1   0   4 1509.55   73.99
   0   0  -4 1569.14   82.49
   0   0  -4 1752.52   81.19
   0   0  -4 1658.83   80.89
   0   0  -4 1635.84   80.59
   0   0  -4 1559.24   82.69
   0   0  -4 1675.03   80.39
   0   0  -4 1679.73   80.09
   0   0  -4 1740.63   80.89
   0   0   4 1737.43   80.99
   0   0   4 1635.04   82.79
   0   0   4 1646.04   80.39
   0   0   4 1638.84   81.59
  -1   0  -4 1286.17   65.69
  -1   0  -4 1199.48   65.59
  -1   0  -4 1347.07   64.19
  -1   0  -4 1363.76   68.09
  -1   0  -4 1292.57   65.09
  -1   0  -4 1326.77   68.99
  -1   0  -4 1421.66   65.39
   1   0   4 1326.57   64.29
   1   0   4 1318.77   66.09
   1   0   4 1302.77   64.89
   1   0   4 1245.38   67.59
   1   0   4 1396.96   65.39
  -2   0  -4   58.39    7.60
  -2   0  -4   68.99    6.60
  -2   0  -4   51.29    7.40
   2   0   4   54.09    6.40
   2   0   4   52.29    8.90
   2   0   4   63.29    8.50
   2   0   4   44.50    9.10
  -3   0  -4  288.47   19.10
  -3   0  -4  274.37   16.40
  -3   0  -4  296.37   17.90
  -3   0  -4  306.27   17.00
   3   0   4  283.37   17.40
   3   0   4  317.77   16.50
   3   0   4  303.77   20.60
   3   0   4  278.37   22.40
  -4   0  -4  588.24   31.10
  -4   0  -4  578.24   29.70
  -4   0  -4  569.64   32.50
  -4   0  -4  487.25   29.90
   4   0   4  551.14   35.10
   4   0   4  584.04   31.80
   4   0   4  556.64   34.10
  -5   0  -4  706.93   38.20
  -5   0  -4  681.43   39.30
  -5   0  -4  697.83   41.50
   5   0   4  754.32   43.80
   5   0   4  740.53   38.90
  -6   0  -4  559.44   37.60
  -6   0  -4  614.14   38.60
  -6   0  -4  667.23   43.00
   6   0   4  723.13   43.60
   6   0   4  640.64   37.50
  -7   0  -4  250.17   34.90
  -7   0  -4  119.19   36.90
  -7   0  -4  186.88   27.90
   7   0   4  207.58   26.30
   7   0   4  249.97   34.40
  -8   0  -4   -7.30   21.40
  -8   0  -4   10.30   25.60
  -8   0  -4    0.90   23.40
   8   0   4    2.20   25.60
   8   0   4   32.00   22.60
   8   0   4    5.50   27.00
  -9   0  -4   93.59   28.10
  -9   0  -4   11.60   26.40
  -9   0  -4   83.89   30.80
   9   0   4   66.69   35.10
   9   0   4   51.59   32.40
   9   0   4  -11.80   36.70
 -10   0  -4   21.00   28.00
 -10   0  -4   44.30   33.40
  10   0   4   62.19   33.40
  10   0   4   73.99   38.00
  10   0   4  117.49   45.50
  12  -1  -4  113.99   28.80
  12  -1  -4   32.70   32.80
 -12   1   4   49.70   38.80
 -12   1   4   52.39   33.90
  11  -1  -4   76.19   26.00
  11  -1  -4   56.59   35.10
  11  -1  -4   66.29   29.10
 -11   1   4   89.69   34.60
 -11   1   4  -11.50   30.60
  10  -1  -4   41.30   23.50
  10  -1  -4   26.80   22.90
  10  -1  -4   15.40   20.30
 -10   1   4   28.30   33.90
 -10   1   4   -2.00   25.60
 -10   1   4   -0.70   23.40
   9  -1  -4  293.57   29.70
   9  -1  -4  268.07   28.80
  -9   1   4  263.77   33.70
   8  -1  -4  710.83   42.10
   8  -1  -4  723.03   42.40
   8  -1  -4  722.23   43.70
   8  -1  -4  701.23   42.20
  -8   1   4  733.43   44.00
  -8   1   4  671.33   43.40
  -8   1   4  703.93   42.80
   7  -1  -4 1178.28   60.39
   7  -1  -4 1113.09   60.29
   7  -1  -4 1113.99   60.89
  -7   1   4 1149.58   60.59
  -7   1   4 1162.98   60.29
  -7   1   4 1131.79   59.89
   6  -1  -4  586.64   36.50
   6  -1  -4  668.43   36.50
  -6   1   4  670.23   36.00
  -6   1   4  667.63   36.00
  -6   1   4  614.24   35.10
   5  -1  -4  100.69   13.80
  -5   1   4   87.19   11.30
  -5   1   4  115.69   11.90
  -5   1   4   97.09   10.90
   4  -1  -4   61.59    8.50
   4  -1  -4   40.30    6.20
   4  -1  -4   40.80    6.90
  -4   1   4   48.70    7.10
  -4   1   4   56.09    8.00
  -4   1   4   43.70    7.00
  -4   1   4   47.20    8.10
   3  -1  -4  183.28   12.20
   3  -1  -4  176.68   13.00
   3  -1  -4  173.88   12.30
   3  -1  -4  176.08   11.40
  -3   1   4  176.38   10.70
  -3   1   4  172.78   11.90
  -3   1   4  166.28   12.10
  -3   1   4  167.48   12.00
   2  -1  -4 1875.11   85.69
   2  -1  -4 1754.22   86.29
   2  -1  -4 1600.84   88.29
   2  -1  -4 1709.73   86.19
   2  -1  -4 1892.21   86.49
   2  -1  -4 1825.92   86.29
   2  -1  -4 1853.01   85.39
  -2   1   4 1836.12   86.89
  -2   1   4 1799.62   85.29
  -2   1   4 1778.42   87.49
  -2   1   4 1756.42   86.79
  -2   1   4 1557.84   89.49
   1  -1  -4 2524.15  118.09
   1  -1  -4 2055.99  120.19
   1  -1  -4 2584.84  119.49
   1  -1  -4 2467.85  118.69
   1  -1  -4 2541.55  118.39
   1  -1  -4 2460.95  118.59
   1  -1  -4 2466.55  119.89
  -1   1   4 2457.05  118.69
  -1   1   4 2344.87  120.59
  -1   1   4 2496.85  119.19
  -1   1   4 2377.96  120.39
  -1   1   4 2635.44  118.69
   0  -1  -4 1532.25   79.89
   0  -1  -4 1590.44   77.19
   0  -1  -4 1774.22   78.29
   0  -1  -4 1643.14   77.99
   0  -1  -4 1545.95   78.39
   0  -1  -4 1443.06   78.49
   0   1   4 1582.04   78.69
   0   1   4 1685.13   77.99
   0   1   4 1647.64   81.19
   0   1   4 1567.04   77.79
  -1  -1  -4  712.03   35.70
  -1  -1  -4  683.03   35.90
  -1  -1  -4  757.22   37.10
   1   1   4  691.53   35.70
   1   1   4  660.03   36.80
   1   1   4  729.53   36.50
   1   1   4  682.03   39.50
  -2  -1  -4    0.80    4.40
  -2  -1  -4   -1.10    5.70
  -2  -1  -4    5.50    4.60
   2   1   4    0.90    9.20
   2   1   4   -2.50    6.50
   2   1   4    3.20    5.90
  -3  -1  -4   27.60    6.40
  -3  -1  -4   42.00    7.80
  -3  -1  -4   27.10    5.90
   3   1   4   28.80   11.60
   3   1   4   32.80    9.20
   3   1   4   33.90    8.20
  -4  -1  -4  875.41   50.79
  -4  -1  -4 1011.10   51.89
  -4  -1  -4  992.20   52.59
  -4  -1  -4 1020.00   51.09
   4   1   4 1150.08   50.69
   4   1   4 1108.79   56.49
   4   1   4  900.71   54.79
  -5  -1  -4  968.30   51.39
  -5  -1  -4  923.21   51.79
  -5  -1  -4 1018.50   53.89
   5   1   4  993.80   51.09
   5   1   4 1036.90   56.89
  -6  -1  -4  316.07   25.90
  -6  -1  -4  292.07   29.10
  -6  -1  -4  302.87   25.00
   6   1   4  279.87   30.50
   6   1   4  382.26   33.20
   6   1   4  220.08   24.70
  -7  -1  -4  206.98   28.60
  -7  -1  -4  234.88   28.80
  -7  -1  -4  192.18   26.70
   7   1   4  177.28   27.20
   7   1   4  265.87   36.40
   7   1   4  177.78   21.80
  -8  -1  -4   19.90   25.50
  -8  -1  -4  -33.10   27.70
  -8  -1  -4   45.90   28.50
   8   1   4  -43.60   21.90
   8   1   4   -8.70   26.00
   8   1   4   19.70   30.30
  -9  -1  -4   38.90   28.70
  -9  -1  -4   -4.60   29.50
  -9  -1  -4    3.50   29.20
   9   1   4   17.30   37.60
   9   1   4   40.30   32.50
   9   1   4  -64.39   45.60
  12  -2  -4  121.49   30.60
  12  -2  -4   69.99   34.70
 -12   2   4   21.70   33.50
 -12   2   4  139.09   40.80
  11  -2  -4   22.20   45.20
  11  -2  -4   81.09   29.20
  11  -2  -4   59.79   25.60
 -11   2   4  -23.20   33.70
 -11   2   4   -3.60   28.90
 -11   2   4   11.50   33.20
  10  -2  -4   66.19   22.60
  10  -2  -4   73.99   24.60
  10  -2  -4   33.60   25.60
 -10   2   4   13.00   27.90
 -10   2   4   57.19   23.90
 -10   2   4   29.10   28.30
   9  -2  -4  562.44   38.80
   9  -2  -4  516.75   50.19
  -9   2   4  456.75   36.40
  -9   2   4  548.75   41.00
  -9   2   4  416.06   40.50
   8  -2  -4  273.57   25.10
   8  -2  -4  262.17   26.70
  -8   2   4  255.47   28.60
  -8   2   4  234.18   24.00
  -8   2   4  278.27   27.30
   7  -2  -4 1031.00   54.19
   7  -2  -4  954.60   54.99
  -7   2   4 1025.30   54.39
  -7   2   4  994.10   53.89
  -7   2   4 1059.99   55.59
   6  -2  -4  451.35   29.40
   6  -2  -4  472.15   29.00
  -6   2   4  478.85   28.40
  -6   2   4  495.45   29.20
  -6   2   4  462.45   27.80
   5  -2  -4  336.37   22.80
   5  -2  -4  354.26   21.00
   5  -2  -4  354.36   22.70
  -5   2   4  355.96   21.80
  -5   2   4  376.66   22.70
  -5   2   4  355.86   21.70
   4  -2  -4   27.60    8.00
   4  -2  -4   25.90    5.90
   4  -2  -4   18.40    6.40
  -4   2   4   27.30    6.10
  -4   2   4   24.00    6.00
  -4   2   4   32.90    6.80
  -4   2   4   28.20    6.40
   3  -2  -4 1473.15   69.89
   3  -2  -4 1411.76   69.59
   3  -2  -4 1362.06   69.29
   3  -2  -4 1435.26   68.89
  -3   2   4 1465.95   70.09
  -3   2   4 1451.65   68.99
  -3   2   4 1398.46   70.29
  -3   2   4 1307.27   70.09
   2  -2  -4 1476.75   72.19
   2  -2  -4 1527.25   72.19
  -2   2   4 1421.66   72.79
  -2   2   4 1429.76   73.49
  -2   2   4 1484.95   72.49
  -2   2   4 1481.05   72.39
   1  -2  -4 2578.64  125.49
   1  -2  -4 2461.05  124.59
   1  -2  -4 2660.63  124.19
   1  -2  -4 2585.34  124.59
  -1   2   4 2701.63  127.09
  -1   2   4 2479.75  125.29
  -1   2   4 2449.66  124.69
  -1   2   4 2707.73  124.69
   0  -2  -4  944.21   46.90
   0  -2  -4  914.31   47.90
   0  -2  -4  939.61   47.80
   0  -2  -4  942.71   49.00
   0   2   4  967.80   47.40
   0   2   4  923.21   48.80
   0   2   4 1049.70   47.90
   0   2   4  981.40   51.19
  -1  -2  -4  169.38   12.90
  -1  -2  -4  204.38   18.80
  -1  -2  -4  202.78   12.70
   1   2   4  187.58   14.30
   1   2   4  195.88   18.50
   1   2   4  222.18   14.60
  -2  -2  -4   27.00    6.20
  -2  -2  -4   29.80    6.10
   2   2   4   28.90   11.40
   2   2   4   38.00    8.90
   2   2   4   25.80    7.10
  -3  -2  -4  854.11   44.90
  -3  -2  -4  867.21   43.70
  -3  -2  -4  861.21   44.30
   3   2   4  783.02   46.90
   3   2   4  908.01   45.60
   3   2   4  826.92   48.70
  -4  -2  -4  796.82   43.30
  -4  -2  -4  827.72   42.00
  -4  -2  -4  781.82   42.50
   4   2   4  765.72   47.10
  -5  -2  -4 1427.96   70.59
  -5  -2  -4 1398.16   71.29
  -5  -2  -4 1427.16   72.09
   5   2   4 1171.08   74.59
   5   2   4 1503.55   76.19
  -6  -2  -4  418.56   30.80
  -6  -2  -4  421.86   33.50
  -6  -2  -4  459.55   31.50
   6   2   4  331.87   39.90
   6   2   4  461.25   39.60
  -7  -2  -4  112.59   22.60
  -7  -2  -4  110.79   24.80
  -7  -2  -4   87.29   25.50
   7   2   4  107.49   24.90
   7   2   4  171.08   29.10
   7   2   4  151.38   20.80
  -8  -2  -4    2.80   31.30
  -8  -2  -4  -28.20   29.50
  -8  -2  -4   60.09   28.20
   8   2   4  -29.00   23.20
   8   2   4  -15.70   26.90
   8   2   4    7.70   29.90
  -9  -2  -4   75.69   33.20
  -9  -2  -4  102.49   34.10
   9   2   4   60.59   35.30
   9   2   4   71.49   36.80
  11  -3  -4  -13.10   26.80
  11  -3  -4    0.40   28.20
 -11   3   4   11.50   34.00
 -11   3   4    7.70   33.90
 -11   3   4   -7.50   29.30
  10  -3  -4   31.00   24.30
  10  -3  -4  -11.80   22.70
 -10   3   4   30.90   29.90
 -10   3   4   32.30   23.70
 -10   3   4  -18.60   28.10
   9  -3  -4  419.16   35.20
   9  -3  -4  414.26   41.70
   9  -3  -4  452.05   34.60
  -9   3   4  437.56   34.90
  -9   3   4  500.05   39.50
  -9   3   4  336.67   40.00
   8  -3  -4  728.03   43.10
   8  -3  -4  744.33   44.30
   8  -3  -4  690.03   44.70
  -8   3   4  774.52   45.30
  -8   3   4  718.43   43.70
  -8   3   4  726.83   47.30
   7  -3  -4  651.03   40.20
   7  -3  -4  685.23   38.20
   7  -3  -4  648.44   39.30
  -7   3   4  657.43   38.60
  -7   3   4  687.03   39.40
  -7   3   4  707.43   41.70
   6  -3  -4  333.97   21.50
   6  -3  -4  342.77   23.90
   6  -3  -4  288.07   23.20
  -6   3   4  339.97   22.50
  -6   3   4  341.47   24.40
  -6   3   4  329.27   22.00
   5  -3  -4   17.60    8.70
   5  -3  -4   20.70    6.70
   5  -3  -4   20.30    7.90
  -5   3   4   30.00    7.50
  -5   3   4   21.50    9.20
  -5   3   4   20.20    7.40
   4  -3  -4  280.87   18.00
   4  -3  -4  319.07   19.20
   4  -3  -4  321.57   18.60
  -4   3   4  297.17   19.90
  -4   3   4  269.57   19.10
  -4   3   4  306.87   19.00
   3  -3  -4  735.23   39.30
   3  -3  -4  794.32   39.40
   3  -3  -4  773.52   39.20
   3  -3  -4  812.32   38.20
  -3   3   4  688.13   38.40
  -3   3   4  769.92   40.50
  -3   3   4  747.83   40.20
  -3   3   4  770.12   39.60
   2  -3  -4 1518.15   75.19
   2  -3  -4 1564.54   75.09
  -2   3   4 1584.54   77.49
  -2   3   4 1513.75   75.49
  -2   3   4 1467.05   75.99
   1  -3  -4 1505.25   70.99
   1  -3  -4 1402.96   70.79
   1  -3  -4 1373.26   70.49
  -1   3   4 1377.36   70.89
  -1   3   4 1470.55   70.99
  -1   3   4 1387.96   71.79
  -1   3   4 1552.74   73.19
   0  -3  -4  546.85   30.90
   0  -3  -4  574.04   31.10
   0  -3  -4  598.74   31.50
   0  -3  -4  595.94   30.30
   0   3   4  691.13   31.70
   0   3   4  562.54   31.70
   0   3   4  554.14   32.20
   0   3   4  623.54   34.40
  -1  -3  -4    2.40    7.40
  -1  -3  -4    3.40    4.80
  -1  -3  -4    2.00    5.20
  -1  -3  -4    3.70    4.10
   1   3   4    6.20    8.50
   1   3   4   -0.60    4.40
   1   3   4   -1.30    5.90
  -2  -3  -4   77.49   10.20
  -2  -3  -4   72.29   10.10
   2   3   4   75.79   12.50
   2   3   4   79.09   13.90
   2   3   4   79.39   12.60
  -3  -3  -4  593.14   33.10
  -3  -3  -4  586.54   31.50
  -3  -3  -4  586.44   31.80
   3   3   4  490.95   35.80
   3   3   4  590.14   37.10
   3   3   4  582.74   33.40
  -4  -3  -4  563.54   32.70
  -4  -3  -4  577.84   34.20
  -4  -3  -4  562.04   32.60
   4   3   4  525.95   38.40
   4   3   4  584.74   39.90
   4   3   4  604.64   35.00
  -5  -3  -4  877.11   48.30
  -5  -3  -4  903.31   49.30
  -5  -3  -4  930.81   48.40
   5   3   4  737.03   53.09
   5   3   4  923.21   54.99
  -6  -3  -4  256.37   27.80
  -6  -3  -4  321.17   29.90
  -6  -3  -4  230.08   28.00
   6   3   4  183.58   33.70
   6   3   4  267.97   37.80
  -7  -3  -4   24.50   26.80
  -7  -3  -4   42.90   25.00
  -7  -3  -4   -3.10   21.50
   7   3   4   43.60   25.00
  -8  -3  -4  -19.10   32.60
  -8  -3  -4   70.89   32.80
  -8  -3  -4  -10.50   29.30
   8   3   4   52.99   34.30
   8   3   4   24.60   30.00
  -9  -3  -4   67.29   38.20
  -9  -3  -4   64.19   33.60
   9   3   4    4.50   40.60
   9   3   4   51.39   34.40
  11  -4  -4    3.30   29.30
  11  -4  -4  -23.70   30.20
  11  -4  -4   -1.60   29.30
 -11   4   4    6.50   36.70
 -11   4   4  -17.50   30.30
 -11   4   4  -23.10   33.10
  10  -4  -4   72.19   27.00
  10  -4  -4   51.79   25.30
  10  -4  -4   33.70   25.40
 -10   4   4   82.49   28.10
 -10   4   4   32.80   26.10
 -10   4   4   30.70   32.70
   9  -4  -4  479.55   35.30
   9  -4  -4  375.16   36.80
   9  -4  -4  410.76   36.60
  -9   4   4  344.67   42.00
  -9   4   4  415.86   36.10
  -9   4   4  426.66   38.70
   8  -4  -4  548.05   40.50
   8  -4  -4  672.83   39.00
   8  -4  -4  550.54   40.40
  -8   4   4  665.23   41.20
  -8   4   4  651.93   44.90
  -8   4   4  649.14   39.90
   7  -4  -4  409.06   30.40
   7  -4  -4  369.16   29.70
   7  -4  -4  474.55   28.50
  -7   4   4  458.35   33.00
  -7   4   4  444.26   29.60
  -7   4   4  432.66   29.20
   6  -4  -4  333.87   22.90
   6  -4  -4  378.46   24.90
   6  -4  -4  331.77   24.10
  -6   4   4  366.26   24.00
  -6   4   4  376.86   26.80
   5  -4  -4   22.60    8.10
   5  -4  -4   30.10    7.70
   5  -4  -4   18.00    8.20
  -5   4   4   20.90    9.60
  -5   4   4   34.90   10.70
  -5   4   4   14.20    7.80
   4  -4  -4  206.68   15.70
   4  -4  -4  198.48   14.10
   4  -4  -4  204.68   14.80
  -4   4   4  195.78   17.20
  -4   4   4  192.18   16.90
  -4   4   4  215.58   15.60
   3  -4  -4  856.21   45.60
   3  -4  -4  883.71   45.70
   3  -4  -4  904.01   44.20
  -3   4   4  871.01   47.00
  -3   4   4  940.31   47.60
  -3   4   4  907.51   46.30
   2  -4  -4 1337.37   65.79
   2  -4  -4 1301.57   65.89
  -2   4   4 1415.46   67.69
  -2   4   4 1272.67   65.99
  -2   4   4 1291.67   66.99
   1  -4  -4  780.12   39.80
   1  -4  -4  771.02   40.30
   1  -4  -4  740.13   40.00
  -1   4   4  832.32   42.90
  -1   4   4  769.12   40.40
  -1   4   4  788.52   41.60
   0  -4  -4  962.80   48.70
   0  -4  -4  991.60   49.50
   0  -4  -4  946.01   49.20
   0   4   4 1007.10   52.39
   0   4   4  958.00   50.59
  -1  -4  -4   -1.60    5.40
  -1  -4  -4   -3.30    6.00
  -1  -4  -4    0.80    5.40
   1   4   4    1.40    9.00
   1   4   4   -9.40    9.20
   1   4   4    6.40    7.30
  -2  -4  -4   93.19   11.40
  -2  -4  -4  101.69   11.00
  -2  -4  -4   79.69    9.50
   2   4   4   93.99   11.10
   2   4   4   60.19   13.60
   2   4   4   54.39   13.80
   2   4   4   84.69   14.30
  -3  -4  -4  842.92   44.70
  -3  -4  -4  843.12   44.60
   3   4   4  880.71   46.50
   3   4   4  866.21   49.50
   3   4   4  769.72   49.20
  -4  -4  -4  638.94   38.50
  -4  -4  -4  721.83   39.90
  -4  -4  -4  662.73   38.20
   4   4   4  593.84   43.40
   4   4   4  675.53   45.70
   4   4   4  756.92   41.00
  -5  -4  -4  270.57   26.70
  -5  -4  -4  280.17   25.60
  -5  -4  -4  263.47   23.90
   5   4   4  244.38   31.30
   5   4   4  297.17   36.90
  -6  -4  -4  417.76   38.20
  -6  -4  -4  352.76   31.80
  -6  -4  -4  417.56   35.60
   6   4   4  364.66   39.30
   6   4   4  371.76   60.69
  -7  -4  -4   49.50   25.60
  -7  -4  -4  -13.50   26.20
  -7  -4  -4   47.20   23.60
   7   4   4   -6.30   32.10
   7   4   4   -8.70   27.20
  -8  -4  -4  -27.10   33.60
  -8  -4  -4   30.10   36.70
   8   4   4  -59.99   39.00
   8   4   4   87.29   33.50
  11  -5  -4  -14.30   31.70
  11  -5  -4   22.60   31.80
  11  -5  -4  -10.00   29.50
 -11   5   4  -19.90   32.40
 -11   5   4   -6.20   32.50
 -11   5   4   41.10   39.80
  10  -5  -4  220.28   31.60
  10  -5  -4  212.48   33.20
  10  -5  -4  207.28   29.20
 -10   5   4  227.98   31.50
 -10   5   4  212.08   31.00
 -10   5   4  203.08   38.40
   9  -5  -4  355.86   38.50
   9  -5  -4  363.06   37.00
   9  -5  -4  387.16   35.20
  -9   5   4  415.56   46.00
  -9   5   4  377.46   36.20
   8  -5  -4  825.52   53.39
   8  -5  -4  932.61   48.70
   8  -5  -4  783.72   62.69
  -8   5   4  717.43   62.29
  -8   5   4  848.72   60.79
   7  -5  -4  762.82   45.20
   7  -5  -4  792.02   44.20
   7  -5  -4  743.93   47.30
  -7   5   4  845.42   45.70
  -7   5   4  793.72   49.20
   6  -5  -4  439.16   27.50
   6  -5  -4  425.46   29.20
   6  -5  -4  451.75   27.80
  -6   5   4  479.05   31.70
  -6   5   4  397.16   28.00
   5  -5  -4   18.00    8.30
   5  -5  -4   19.20    8.20
   5  -5  -4    9.80    8.70
  -5   5   4   20.00    9.00
  -5   5   4    9.60   11.00
  -5   5   4   11.10   10.50
   4  -5  -4  356.96   20.90
   4  -5  -4  354.76   22.30
   4  -5  -4  355.96   22.80
  -4   5   4  384.16   23.30
  -4   5   4  363.36   25.00
  -4   5   4  382.56   24.80
   3  -5  -4  634.74   33.70
   3  -5  -4  607.74   33.50
  -3   5   4  622.94   34.20
  -3   5   4  622.34   35.40
  -3   5   4  621.34   36.10
   2  -5  -4  924.81   48.40
   2  -5  -4  930.21   48.60
   2  -5  -4  920.01   48.50
  -2   5   4 1046.90   51.49
  -2   5   4  944.11   50.09
  -2   5   4  930.81   48.70
   1  -5  -4 1493.35   74.99
   1  -5  -4 1550.84   75.59
   1  -5  -4 1476.85   75.19
  -1   5   4 1577.34   77.79
  -1   5   4 1489.45   76.59
  -1   5   4 1509.55   75.49
   0  -5  -4  386.46   22.40
   0  -5  -4  389.06   22.20
   0  -5  -4  394.46   22.80
   0   5   4  378.76   24.40
   0   5   4  367.96   26.50
   0   5   4  348.67   26.70
  -1  -5  -4   25.40    7.40
  -1  -5  -4   17.40    7.60
  -1  -5  -4   36.00    7.50
   1   5   4   48.00   13.30
   1   5   4   39.30   10.10
   1   5   4   25.20   11.90
  -2  -5  -4  383.46   24.80
  -2  -5  -4  407.86   25.00
  -2  -5  -4  414.16   24.00
   2   5   4  372.06   30.90
   2   5   4  402.56   27.50
   2   5   4  437.66   30.30
  -3  -5  -4  281.87   21.10
  -3  -5  -4  269.07   20.90
  -3  -5  -4  295.57   19.20
   3   5   4  262.77   29.40
   3   5   4  254.77   27.60
   3   5   4  298.57   24.60
  -4  -5  -4  752.82   42.60
  -4  -5  -4  679.63   41.60
  -4  -5  -4  808.02   44.30
   4   5   4  633.04   47.90
   4   5   4  702.83   49.40
   4   5   4  814.02   44.90
  -5  -5  -4  416.66   32.60
  -5  -5  -4  473.65   35.60
  -5  -5  -4  509.95   34.80
   5   5   4  406.96   41.00
   5   5   4  491.75   37.50
  -6  -5  -4  206.48   30.20
  -6  -5  -4  200.18   26.80
  -6  -5  -4  244.88   32.50
   6   5   4  210.28   35.90
   6   5   4  196.88   29.50
  -7  -5  -4    1.50   28.80
  -7  -5  -4   11.70   27.30
   7   5   4    8.40   30.30
   7   5   4   23.80   37.50
  -8  -5  -4   90.99   35.40
  -8  -5  -4   38.70   39.90
   8   5   4   49.10   35.00
   8   5   4   94.19   42.90
  10  -6  -4  140.19   29.40
  10  -6  -4  193.08   28.80
  10  -6  -4  207.88   33.80
 -10   6   4  123.89   38.60
 -10   6   4  209.38   32.20
   9  -6  -4  460.45   40.00
   9  -6  -4  390.86   42.90
   9  -6  -4  432.46   38.10
  -9   6   4  453.75   39.10
  -9   6   4  393.76   47.70
   8  -6  -4  768.62   49.60
   8  -6  -4  742.03   46.30
  -8   6   4  786.42   48.70
  -8   6   4  779.72   53.29
   7  -6  -4  302.77   25.20
   7  -6  -4  321.57   26.40
   7  -6  -4  292.87   44.60
  -7   6   4  306.87   27.00
   6  -6  -4  115.59   16.90
   6  -6  -4  108.69   15.20
   6  -6  -4  121.59   17.10
  -6   6   4  108.49   14.90
  -6   6   4  122.79   18.30
  -6   6   4   82.69   15.70
   5  -6  -4    9.20   10.50
   5  -6  -4    3.70    9.00
   5  -6  -4   27.60   10.30
  -5   6   4    3.70   12.90
  -5   6   4   -9.20   12.80
  -5   6   4   14.90   10.50
   4  -6  -4  466.05   26.70
   4  -6  -4  490.25   29.10
   4  -6  -4  479.25   28.50
  -4   6   4  490.85   29.30
  -4   6   4  491.65   31.10
  -4   6   4  474.85   31.70
   3  -6  -4  990.80   51.69
   3  -6  -4  970.30   51.79
  -3   6   4 1042.80   54.69
  -3   6   4  973.30   53.39
  -3   6   4 1013.00   52.09
   2  -6  -4  944.01   49.60
   2  -6  -4  940.21   49.40
   2  -6  -4  939.31   49.50
  -2   6   4  948.01   49.70
  -2   6   4  955.30   51.49
  -2   6   4 1006.70   52.89
   1  -6  -4  891.31   47.80
   1  -6  -4  931.91   47.90
   1  -6  -4  919.41   48.20
  -1   6   4  907.21   49.80
  -1   6   4  953.40   51.49
   0  -6  -4  251.67   18.10
   0  -6  -4  252.07   19.70
   0  -6  -4  251.57   18.80
   0   6   4  270.77   21.10
   0   6   4  223.38   24.80
  -1  -6  -4    0.10    7.60
  -1  -6  -4   12.20    8.90
  -1  -6  -4    8.60    9.10
   1   6   4   15.80   11.10
   1   6   4   29.80   15.00
   1   6   4   13.80   13.50
  -2  -6  -4  204.08   18.90
  -2  -6  -4  198.38   18.10
  -2  -6  -4  219.58   18.30
   2   6   4  230.78   22.80
   2   6   4  198.78   25.90
   2   6   4  212.88   27.00
  -3  -6  -4   68.69   13.80
  -3  -6  -4   76.69   12.40
  -3  -6  -4   66.59   15.40
   3   6   4   70.29   15.90
   3   6   4   93.99   21.20
   3   6   4   88.19   19.90
  -4  -6  -4  541.95   34.60
  -4  -6  -4  543.35   37.30
  -4  -6  -4  540.25   31.90
  -4  -6  -4  483.75   33.80
   4   6   4  409.96   42.30
   4   6   4  483.75   43.50
   4   6   4  524.45   37.20
  -5  -6  -4  489.55   36.40
  -5  -6  -4  428.06   38.40
  -5  -6  -4  352.66   32.80
   5   6   4  421.16   37.20
   5   6   4  312.97   41.90
   5   6   4  371.76   47.20
  -6  -6  -4   93.19   24.40
  -6  -6  -4  123.89   27.20
  -6  -6  -4   67.39   23.90
   6   6   4   64.59   31.30
   6   6   4  146.49   37.10
  -7  -6  -4   17.30   32.70
  -7  -6  -4   16.20   30.40
   7   6   4    5.80   34.40
   7   6   4  -11.20   41.20
  10  -7  -4   26.10   31.50
  10  -7  -4  139.69   30.40
  10  -7  -4   76.79   27.80
 -10   7   4  127.19   30.70
 -10   7   4   47.30   39.00
   9  -7  -4  198.88   30.70
   9  -7  -4  253.17   30.20
   9  -7  -4  197.68   30.60
  -9   7   4  226.78   34.10
  -9   7   4  209.68   36.50
   8  -7  -4  414.26   39.00
   8  -7  -4  418.56   35.10
   8  -7  -4  426.86   35.00
  -8   7   4  439.46   45.40
  -8   7   4  400.96   35.80
   7  -7  -4  248.18   28.20
   7  -7  -4  201.48   25.00
   7  -7  -4  244.48   25.40
  -7   7   4  218.68   27.60
  -7   7   4  239.58   27.30
   6  -7  -4    2.70   12.30
   6  -7  -4   -5.00   13.70
   6  -7  -4    2.30   14.30
  -6   7   4  -12.20   13.40
  -6   7   4   -1.00   17.30
  -6   7   4   24.00   17.20
   5  -7  -4  202.98   19.40
   5  -7  -4  218.38   18.90
   5  -7  -4  212.48   20.70
  -5   7   4  169.98   25.00
  -5   7   4  177.88   23.50
  -5   7   4  175.18   20.90
   4  -7  -4  324.47   21.30
   4  -7  -4  321.97   24.30
   4  -7  -4  319.47   23.40
  -4   7   4  325.57   28.60
  -4   7   4  337.07   24.10
  -4   7   4  355.56   27.30
   3  -7  -4 1161.18   60.99
   3  -7  -4 1161.28   60.89
   3  -7  -4 1201.98   61.49
  -3   7   4 1190.08   64.59
  -3   7   4 1200.38   61.29
  -3   7   4 1184.58   63.39
   2  -7  -4  821.92   45.50
   2  -7  -4  861.41   45.00
   2  -7  -4  835.72   45.40
  -2   7   4  834.92   48.00
  -2   7   4  836.62   49.20
  -2   7   4  871.11   45.60
   1  -7  -4  286.37   20.50
   1  -7  -4  296.87   21.60
   1  -7  -4  289.87   21.70
  -1   7   4  319.47   24.70
  -1   7   4  286.57   27.10
   0  -7  -4   76.09   12.30
   0  -7  -4   89.29   11.20
   0  -7  -4   84.59   12.70
   0   7   4   90.19   17.10
   0   7   4   89.29   14.80
  -1  -7  -4    2.50   10.50
  -1  -7  -4   15.10   10.50
  -1  -7  -4    1.30    9.50
   1   7   4    4.20   13.60
   1   7   4    9.20   17.60
   1   7   4   -3.60   15.00
  -2  -7  -4  276.77   27.90
  -2  -7  -4  323.77   23.50
  -2  -7  -4  278.57   22.80
   2   7   4  340.27   29.30
   2   7   4  241.18   32.90
   2   7   4  265.77   40.40
  -3  -7  -4  553.44   34.20
  -3  -7  -4  503.15   34.00
  -3  -7  -4  540.75   36.00
   3   7   4  539.75   44.20
   3   7   4  583.14   38.90
   3   7   4  537.05   43.10
  -4  -7  -4  347.87   31.90
  -4  -7  -4  292.07   35.20
  -4  -7  -4  392.66   35.00
  -4  -7  -4  372.26   29.10
   4   7   4  383.76   34.40
   4   7   4  294.87   43.00
   4   7   4  293.47   46.50
  -5  -7  -4  209.38   31.90
  -5  -7  -4  264.77   34.10
  -5  -7  -4  216.48   33.50
   5   7   4  271.17   37.10
   5   7   4  221.68   34.40
   5   7   4  234.38   37.80
  -6  -7  -4   -9.00   25.00
  -6  -7  -4  -24.20   28.40
   6   7   4   25.80   33.30
   6   7   4  -33.50   38.80
   9  -8  -4  308.17   43.50
   9  -8  -4  359.66   40.20
   9  -8  -4  315.97   35.70
  -9   8   4  324.37   52.99
  -9   8   4  342.37   39.60
   8  -8  -4  292.27   33.90
   8  -8  -4  263.17   38.70
   8  -8  -4  340.17   42.30
  -8   8   4  367.46   34.90
  -8   8   4  304.47   45.50
   7  -8  -4  105.29   19.80
  -7   8   4   92.19   23.40
  -7   8   4  140.39   27.30
   6  -8  -4  -18.10   15.80
   6  -8  -4   -6.40   14.30
   6  -8  -4   29.90   17.10
  -6   8   4  -19.80   14.80
  -6   8   4   19.80   19.70
  -6   8   4   23.90   20.70
   5  -8  -4  135.39   19.50
   5  -8  -4  131.69   15.00
   5  -8  -4  133.89   18.60
  -5   8   4  112.49   21.40
  -5   8   4  137.89   21.40
  -5   8   4  168.28   21.70
   4  -8  -4  579.54   35.20
   4  -8  -4  578.74   36.60
   4  -8  -4  563.44   33.30
  -4   8   4  655.73   36.70
  -4   8   4  533.35   40.80
  -4   8   4  600.04   40.00
   3  -8  -4  501.45   32.50
   3  -8  -4  462.55   37.30
   3  -8  -4  525.15   31.70
  -3   8   4  562.14   38.40
  -3   8   4  565.14   32.90
  -3   8   4  496.15   35.80
   2  -8  -4  351.66   25.90
   2  -8  -4  333.47   24.90
   2  -8  -4  340.07   24.20
  -2   8   4  345.07   31.10
  -2   8   4  355.66   29.70
   1  -8  -4  128.79   17.20
   1  -8  -4   94.99   12.90
   1  -8  -4  104.69   14.70
  -1   8   4  108.19   18.20
  -1   8   4   98.99   22.60
   0  -8  -4    9.40   14.10
   0  -8  -4    1.00   12.00
   0  -8  -4    2.80   10.50
   0   8   4   10.20   15.10
   0   8   4   20.00   17.20
  -1  -8  -4  112.19   14.00
  -1  -8  -4  145.69   20.80
  -1  -8  -4   78.39   14.80
   1   8   4   93.39   21.50
   1   8   4   82.69   24.10
   1   8   4  123.69   19.10
  -2  -8  -4  494.85   33.70
  -2  -8  -4  499.75   33.00
  -2  -8  -4  471.05   32.50
   2   8   4  478.35   44.50
   2   8   4  515.25   38.30
   2   8   4  490.75   42.80
  -3  -8  -4  527.45   39.00
  -3  -8  -4  673.83   39.40
  -3  -8  -4  614.64   40.60
   3   8   4  499.65   51.39
   3   8   4  644.04   50.59
   3   8   4  626.04   44.10
  -4  -8  -4  288.17   36.00
  -4  -8  -4  246.68   34.10
  -4  -8  -4  270.37   31.00
  -4  -8  -4  298.87   33.70
   4   8   4  308.07   39.20
   4   8   4  268.47   38.50
   4   8   4  239.68   37.20
  -5  -8  -4   94.19   27.30
  -5  -8  -4   54.69   24.40
   5   8   4  178.58   40.00
   5   8   4   97.69   35.20
   8  -9  -4  174.48   25.60
   8  -9  -4  110.59   24.50
   8  -9  -4  178.08   29.50
  -8   9   4  208.98   36.10
  -8   9   4  146.19   25.50
   7  -9  -4   35.50   22.40
   7  -9  -4   31.40   18.90
   7  -9  -4   27.40   19.80
  -7   9   4    8.00   26.50
  -7   9   4   39.60   19.20
   6  -9  -4   44.10   16.60
   6  -9  -4   20.90   18.80
   6  -9  -4   12.80   17.10
  -6   9   4   35.00   33.80
  -6   9   4   -3.50   22.70
  -6   9   4  -26.70   21.10
   5  -9  -4  108.69   15.90
   5  -9  -4   84.39   19.30
   5  -9  -4   87.19   18.20
  -5   9   4   77.89   25.70
  -5   9   4   90.69   17.20
  -5   9   4  102.09   23.80
   4  -9  -4  515.35   34.20
   4  -9  -4  576.64   32.90
   4  -9  -4  521.75   36.30
   4  -9  -4  454.95   35.40
  -4   9   4  491.35   42.10
  -4   9   4  522.25   40.30
  -4   9   4  556.04   35.30
   3  -9  -4  427.86   32.40
   3  -9  -4  440.76   30.50
   3  -9  -4  421.56   30.10
  -3   9   4  459.65   31.20
  -3   9   4  393.26   35.80
  -3   9   4  467.15   39.30
   2  -9  -4  497.75   31.80
   2  -9  -4  483.65   33.20
   2  -9  -4  503.05   34.00
  -2   9   4  472.45   38.00
  -2   9   4  463.15   39.40
   1  -9  -4  129.29   17.30
   1  -9  -4  159.18   22.30
   1  -9  -4  124.99   16.00
  -1   9   4  147.59   24.10
  -1   9   4  168.48   24.30
   0  -9  -4  -16.10   12.90
   0  -9  -4  -15.60   13.50
   0  -9  -4    9.40   14.60
   0   9   4    1.90   21.10
  -1  -9  -4  106.39   17.60
  -1  -9  -4   87.39   15.30
  -1  -9  -4   97.49   17.50
   1   9   4   45.00   24.20
   1   9   4   50.59   27.00
  -2  -9  -4  224.08   29.50
  -2  -9  -4  196.08   25.70
  -2  -9  -4  301.07   28.80
   2   9   4  284.67   43.70
   2   9   4  296.57   41.30
  -3  -9  -4  271.67   30.60
  -3  -9  -4  305.47   34.60
  -3  -9  -4  349.37   42.20
   3   9   4  314.27   47.30
   3   9   4  348.07   47.00
  -4  -9  -4  131.29   25.20
  -4  -9  -4  171.18   27.60
   4   9   4  146.79   36.90
   4   9   4  197.58   38.30
   7 -10  -4   18.10   24.20
   7 -10  -4   -6.70   20.80
   7 -10  -4   16.10   27.60
  -7  10   4   17.50   30.10
  -7  10   4   10.80   28.80
  -7  10   4   -8.10   26.80
   6 -10  -4   94.59   21.00
   6 -10  -4  112.69   22.20
   6 -10  -4  134.69   23.70
  -6  10   4  111.79   28.80
  -6  10   4   90.89   30.20
  -6  10   4  106.49   21.30
   5 -10  -4  212.98   29.20
   5 -10  -4  147.99   27.40
   5 -10  -4  181.38   26.90
  -5  10   4  158.88   31.00
  -5  10   4  192.58   30.50
   4 -10  -4  472.05   33.90
   4 -10  -4  464.15   35.60
   4 -10  -4  436.56   37.60
  -4  10   4  544.15   37.50
  -4  10   4  433.26   46.00
  -4  10   4  493.65   42.30
   3 -10  -4  493.65   37.50
   3 -10  -4  581.64   39.80
  -3  10   4  555.54   49.30
  -3  10   4  590.54   44.10
   2 -10  -4  237.78   28.50
   2 -10  -4  210.58   26.40
  -2  10   4  196.18   32.80
  -2  10   4  226.48   30.80
   1 -10  -4   96.29   18.60
   1 -10  -4   38.50   18.10
  -1  10   4   57.59   21.70
  -1  10   4   77.59   26.10
   0 -10  -4   15.50   18.40
   0 -10  -4   15.60   16.80
   0  10   4    3.90   25.30
   0  10   4   16.80   22.20
  -1 -10  -4  192.48   29.30
  -1 -10  -4  216.48   29.20
   1  10   4  120.09   31.30
   1  10   4  234.98   37.00
  -2 -10  -4  379.56   36.50
  -2 -10  -4  361.16   36.30
   2  10   4  380.96   43.80
   2  10   4  340.37   49.00
   5 -11  -4  155.98   24.50
   5 -11  -4  249.38   33.40
  -5  11   4  188.78   35.70
  -5  11   4  196.28   30.70
   4 -11  -4  139.99   23.60
   4 -11  -4  120.09   22.10
  -4  11   4  182.98   29.60
  -4  11   4  198.08   34.40
   3 -11  -4  216.18   30.40
   3 -11  -4  250.97   27.50
  -3  11   4  238.48   35.60
  -3  11   4  292.57   39.40
   2 -11  -4   72.79   21.30
   2 -11  -4   96.39   20.20
  -2  11   4  106.99   30.80
  -2  11   4   98.49   26.00
   1 -11  -4   -7.40   19.30
   1 -11  -4   10.10   20.60
  -1  11   4   -2.60   26.00
  -1  11   4  -17.40   27.50
   0 -11  -4  143.29   23.10
   0 -11  -4  136.69   24.20
   0  11   4  150.88   32.70
   0  11   4  167.88   29.70
   3  12  -5   63.69   25.40
   2  12  -5  131.99   26.40
   2  12  -5  144.69   25.40
   2  12  -5   86.49   23.90
  -2 -12   5  141.19   24.30
  -2 -12   5  145.69   21.90
   1  12  -5  360.16   36.40
   1  12  -5  365.66   37.40
  -1 -12   5  325.27   33.80
  -1 -12   5  314.37   37.60
   0  12  -5  408.76   39.20
   0  12  -5  385.76   38.80
   0 -12   5  538.75   41.30
   0 -12   5  486.15   39.20
  -1  12  -5  141.59   23.30
  -1  12  -5  187.08   28.20
  -1  12  -5  163.98   24.00
   1 -12   5  187.18   25.90
   1 -12   5  124.19   23.80
  -2  12  -5   18.70   18.50
  -2  12  -5   13.60   20.20
  -2  12  -5   21.50   20.60
   2 -12   5   13.90   22.10
   2 -12   5    9.30   21.40
  -3  12  -5   38.70   23.90
  -3  12  -5   64.29   24.70
  -3  12  -5   30.10   19.80
   3 -12   5   27.90   21.90
   3 -12   5    1.00   23.40
   5  11  -5  -46.30   25.90
   5  11  -5  -37.60   22.20
   5  11  -5   41.80   24.00
  -5 -11   5   59.89   32.60
  -5 -11   5  -17.70   25.60
   4  11  -5   -9.80   21.80
   4  11  -5   32.70   21.20
   4  11  -5   21.10   22.90
  -4 -11   5   21.00   23.30
  -4 -11   5  -56.19   28.30
  -4 -11   5   23.70   18.10
   3  11  -5   31.00   20.40
   3  11  -5   43.10   20.90
   3  11  -5   42.30   21.10
  -3 -11   5   -8.30   25.90
  -3 -11   5   52.69   20.20
  -3 -11   5   36.90   16.60
   2  11  -5  312.47   31.90
   2  11  -5  370.26   35.90
   2  11  -5  317.17   32.40
  -2 -11   5  318.07   34.00
  -2 -11   5  286.77   29.90
  -2 -11   5  255.37   29.00
   1  11  -5  415.36   34.50
   1  11  -5  407.56   34.50
  -1 -11   5  376.26   32.80
  -1 -11   5  367.56   35.70
   0  11  -5  431.46   31.70
   0  11  -5  369.26   34.60
   0  11  -5  411.16   33.90
   0 -11   5  413.06   35.40
   0 -11   5  415.16   35.30
  -1  11  -5  180.08   25.50
  -1  11  -5  196.98   27.90
  -1  11  -5  164.88   23.40
   1 -11   5  202.08   29.50
   1 -11   5  167.28   23.00
  -2  11  -5   31.50   17.10
  -2  11  -5  -27.60   14.80
  -2  11  -5   -2.60   18.60
   2 -11   5  -15.10   18.00
   2 -11   5   14.00   18.40
  -3  11  -5   34.90   21.60
  -3  11  -5   69.59   18.30
  -3  11  -5   54.29   21.50
   3 -11   5   85.49   21.20
   3 -11   5    4.10   20.90
  -4  11  -5  281.27   41.40
  -4  11  -5  312.77   34.00
  -4  11  -5  324.67   41.00
   4 -11   5  269.77   39.00
   4 -11   5  353.36   37.00
   4 -11   5  273.37   38.50
  -5  11  -5  203.78   33.20
  -5  11  -5  236.18   35.40
  -5  11  -5  264.67   35.70
   5 -11   5  229.68   31.40
   5 -11   5  324.37   37.50
   5 -11   5  247.78   30.90
   6  10  -5   86.39   24.30
   6  10  -5   81.29   26.10
   6  10  -5  106.29   26.30
  -6 -10   5   83.09   32.60
  -6 -10   5  107.59   28.80
   5  10  -5   97.29   23.30
   5  10  -5   97.99   23.30
   5  10  -5  100.89   21.60
  -5 -10   5  138.89   26.10
  -5 -10   5   94.19   29.00
   4  10  -5   13.90   18.40
   4  10  -5   61.29   18.30
   4  10  -5   25.00   19.20
  -4 -10   5   -2.20   15.60
  -4 -10   5  -53.69   23.90
  -4 -10   5   16.80   19.00
   3  10  -5  237.98   28.30
   3  10  -5  251.07   28.40
   3  10  -5  257.77   28.40
  -3 -10   5  286.67   29.70
  -3 -10   5  202.38   28.00
  -3 -10   5  245.28   26.40
   2  10  -5  484.45   33.90
   2  10  -5  463.95   33.80
  -2 -10   5  360.46   36.10
  -2 -10   5  466.75   34.20
  -2 -10   5  429.26   32.10
   1  10  -5  379.46   32.00
   1  10  -5  441.76   31.60
  -1 -10   5  391.76   32.80
  -1 -10   5  453.75   31.50
   0  10  -5  298.77   28.60
   0  10  -5  330.07   24.30
   0  10  -5  314.87   27.30
   0 -10   5  313.67   28.20
   0 -10   5  320.87   28.30
  -1  10  -5  222.88   24.90
  -1  10  -5  227.38   28.60
  -1  10  -5  245.68   26.20
   1 -10   5  310.67   27.40
   1 -10   5  228.18   26.70
  -2  10  -5   37.80   16.70
  -2  10  -5   24.10   17.90
  -2  10  -5   21.50   14.30
   2 -10   5   23.70   15.70
   2 -10   5   25.90   16.70
  -3  10  -5  264.27   29.40
  -3  10  -5  338.17   32.80
  -3  10  -5  253.97   32.50
   3 -10   5  248.98   30.80
   3 -10   5  305.97   32.20
   3 -10   5  295.57   30.60
  -4  10  -5  528.65   38.20
  -4  10  -5  474.35   43.40
  -4  10  -5  542.05   43.30
   4 -10   5  481.65   40.80
   4 -10   5  436.36   39.80
   4 -10   5  477.95   38.60
  -5  10  -5  390.66   45.60
  -5  10  -5  413.06   36.80
  -5  10  -5  386.06   45.40
   5 -10   5  369.46   40.00
   5 -10   5  373.26   37.90
   5 -10   5  356.46   38.70
  -6  10  -5  190.98   27.00
  -6  10  -5  209.68   36.00
  -6  10  -5  239.98   36.80
   6 -10   5  256.17   40.60
   6 -10   5  207.38   29.20
   6 -10   5  157.68   29.40
   7   9  -5  291.97   38.50
   7   9  -5  183.58   30.10
   7   9  -5  246.48   36.90
  -7  -9   5  236.18   33.90
  -7  -9   5  198.98   35.70
   6   9  -5  317.67   32.30
   6   9  -5  188.08   26.80
  -6  -9   5  250.37   38.50
  -6  -9   5  215.38   32.00
   5   9  -5   33.80   17.70
   5   9  -5   33.00   21.90
   5   9  -5   74.59   16.90
  -5  -9   5   17.50   19.50
  -5  -9   5   57.09   26.00
   4   9  -5  146.89   17.70
   4   9  -5  128.69   19.30
   4   9  -5  124.99   18.30
  -4  -9   5  151.38   20.70
  -4  -9   5  139.19   17.40
  -4  -9   5  130.69   23.10
   3   9  -5  300.67   27.10
   3   9  -5  352.16   27.80
   3   9  -5  337.17   27.30
  -3  -9   5  363.96   26.90
  -3  -9   5  349.96   28.40
  -3  -9   5  247.68   30.80
   2   9  -5  825.12   46.20
   2   9  -5  815.02   45.60
  -2  -9   5  789.42   46.80
  -2  -9   5  777.62   46.20
  -2  -9   5  724.83   53.09
   1   9  -5 1025.70   54.69
   1   9  -5  974.60   60.09
  -1  -9   5  939.91   62.49
  -1  -9   5  995.10   53.59
  -1  -9   5 1014.50   55.89
   0   9  -5  358.36   23.80
   0   9  -5  347.57   25.90
   0   9  -5  284.87   30.00
   0  -9   5  315.87   25.80
   0  -9   5  294.17   35.10
  -1   9  -5   30.60   11.70
  -1   9  -5   41.80   14.40
  -1   9  -5   32.90   15.00
   1  -9   5   31.90   20.40
   1  -9   5   48.90   12.80
  -2   9  -5   59.49   15.20
  -2   9  -5   62.79   15.90
   2  -9   5   58.79   14.10
   2  -9   5   49.99   14.30
  -3   9  -5  429.46   36.60
  -3   9  -5  440.06   33.70
  -3   9  -5  399.06   31.00
   3  -9   5  402.76   31.50
   3  -9   5  379.36   32.00
   3  -9   5  429.46   34.50
  -4   9  -5  601.74   43.20
  -4   9  -5  577.44   46.00
  -4   9  -5  584.84   39.80
   4  -9   5  565.24   39.60
   4  -9   5  574.44   42.20
   4  -9   5  617.14   40.70
  -5   9  -5  499.95   49.80
  -5   9  -5  610.54   47.70
   5  -9   5  578.54   44.90
   5  -9   5  680.43   43.20
   5  -9   5  552.14   44.30
  -6   9  -5  221.48   33.00
  -6   9  -5  229.78   35.40
   6  -9   5  262.97   38.20
   6  -9   5  233.98   29.30
   6  -9   5  270.47   34.90
  -7   9  -5  179.58   34.40
  -7   9  -5   87.29   33.70
   7  -9   5  130.09   29.50
   7  -9   5  155.68   32.70
   8   8  -5  252.57   31.90
   8   8  -5  257.67   41.10
  -8  -8   5  255.77   37.70
  -8  -8   5  277.67   35.80
   7   8  -5  159.48   25.90
   7   8  -5  145.19   23.10
   7   8  -5  142.59   22.90
  -7  -8   5  157.78   30.20
  -7  -8   5  198.88   29.80
   6   8  -5  130.29   19.20
   6   8  -5  118.49   19.10
   6   8  -5  123.99   20.40
  -6  -8   5   94.89   25.20
  -6  -8   5  116.59   23.40
   5   8  -5   13.60   13.70
   5   8  -5   31.80   15.00
   5   8  -5   42.10   15.00
  -5  -8   5   25.80   21.40
  -5  -8   5   10.70   15.50
   4   8  -5  235.98   22.60
   4   8  -5  218.08   22.60
   4   8  -5  193.28   24.30
  -4  -8   5  177.98   23.30
  -4  -8   5  194.98   28.50
  -4  -8   5  212.98   21.60
   3   8  -5  716.83   40.80
   3   8  -5  690.23   40.40
   3   8  -5  708.33   40.10
  -3  -8   5  636.84   42.40
  -3  -8   5  724.73   39.90
  -3  -8   5  692.83   41.40
   2   8  -5  597.84   35.20
   2   8  -5  594.74   35.60
  -2  -8   5  572.44   35.70
  -2  -8   5  615.64   36.40
  -2  -8   5  593.54   34.60
   1   8  -5  604.84   34.80
   1   8  -5  602.34   36.30
   1   8  -5  643.84   37.00
  -1  -8   5  632.54   36.80
  -1  -8   5  632.54   36.00
   0   8  -5  359.06   25.30
   0   8  -5  354.36   25.00
   0   8  -5  394.66   24.90
   0  -8   5  345.57   24.70
   0  -8   5  343.97   27.50
  -1   8  -5   24.90    9.90
  -1   8  -5   35.60   11.30
  -1   8  -5   27.10   11.10
   1  -8   5   34.70   11.20
   1  -8   5   42.40   11.00
   1  -8   5   32.80   11.40
  -2   8  -5   66.19   13.50
  -2   8  -5   46.80   11.40
  -2   8  -5   50.09   14.70
   2  -8   5   45.10   12.40
   2  -8   5   65.79   12.20
   2  -8   5   62.49   13.50
  -3   8  -5  839.02   47.40
  -3   8  -5  736.33   49.20
  -3   8  -5  797.82   45.60
   3  -8   5  792.82   45.40
   3  -8   5  805.92   45.10
   3  -8   5  764.12   47.10
  -4   8  -5  849.02   49.40
   4  -8   5  757.52   46.40
   4  -8   5  706.93   62.69
   4  -8   5  822.32   46.70
  -5   8  -5  676.23   49.40
  -5   8  -5  637.14   45.90
   5  -8   5  658.93   46.00
   5  -8   5  696.13   42.80
   5  -8   5  603.54   42.80
  -6   8  -5  161.78   30.20
  -6   8  -5  156.38   28.60
   6  -8   5  229.78   26.00
   6  -8   5  208.38   27.90
   6  -8   5  172.58   23.30
  -7   8  -5   44.60   31.00
  -7   8  -5   65.49   25.90
  -7   8  -5   49.20   29.10
   7  -8   5   83.39   29.50
   7  -8   5   62.49   26.30
  -8   8  -5   49.10   33.00
  -8   8  -5   37.00   40.40
  -8   8  -5   29.00   32.50
   8  -8   5  -13.30   28.90
   8  -8   5  -52.09   33.40
   9   7  -5  111.99   32.60
   9   7  -5  156.28   31.40
  -9  -7   5  159.88   36.60
  -9  -7   5  160.68   34.40
   8   7  -5  352.06   42.30
   8   7  -5  420.06   39.70
  -8  -7   5  430.06   46.20
  -8  -7   5  433.66   48.00
   7   7  -5  324.67   30.70
   7   7  -5  271.37   28.40
   7   7  -5  229.58   31.90
  -7  -7   5  309.67   38.20
  -7  -7   5  344.17   37.40
   6   7  -5  107.99   16.60
   6   7  -5  103.49   17.50
   6   7  -5  107.19   16.60
  -6  -7   5  127.69   20.50
  -6  -7   5   75.59   28.70
   5   7  -5   11.40   12.60
   5   7  -5   23.30   12.20
   5   7  -5   28.60   12.40
  -5  -7   5   23.00   17.40
  -5  -7   5   25.20   13.90
   4   7  -5  164.98   18.40
   4   7  -5  188.18   18.40
   4   7  -5  182.58   19.00
  -4  -7   5  180.78   20.30
  -4  -7   5  188.08   17.40
  -4  -7   5  151.88   20.00
   3   7  -5  583.04   32.20
   3   7  -5  541.55   31.70
   3   7  -5  554.64   33.50
  -3  -7   5  540.75   33.50
  -3  -7   5  500.05   34.00
  -3  -7   5  529.15   31.50
   2   7  -5  594.34   34.00
   2   7  -5  602.84   33.70
  -2  -7   5  590.64   34.20
  -2  -7   5  567.94   33.20
  -2  -7   5  584.44   34.20
   1   7  -5  501.55   31.40
   1   7  -5  560.04   32.30
  -1  -7   5  556.54   31.60
  -1  -7   5  542.05   32.10
  -1  -7   5  583.04   30.80
   0   7  -5  298.47   22.60
   0   7  -5  295.97   21.00
   0   7  -5  283.27   20.70
   0  -7   5  291.47   21.20
   0  -7   5  284.17   21.70
   0  -7   5  293.67   20.40
  -1   7  -5   -4.60    7.80
  -1   7  -5   12.40   10.60
  -1   7  -5    8.40    9.00
   1  -7   5   10.60    9.00
   1  -7   5    0.60    8.60
   1  -7   5    6.20    7.70
  -2   7  -5  198.38   24.30
  -2   7  -5  237.68   20.00
  -2   7  -5  227.78   20.20
   2  -7   5  224.78   19.50
   2  -7   5  238.58   19.80
   2  -7   5  223.78   20.50
  -3   7  -5  632.14   37.90
  -3   7  -5  535.15   40.10
   3  -7   5  629.54   36.30
   3  -7   5  668.23   36.30
   3  -7   5  594.54   38.00
  -4   7  -5  909.41   50.69
  -4   7  -5  820.12   52.19
   4  -7   5  849.41   49.99
   4  -7   5  799.92   49.70
   4  -7   5  868.71   47.30
  -5   7  -5  335.87   43.40
  -5   7  -5  387.56   37.10
   5  -7   5  367.76   29.60
   5  -7   5  334.87   29.00
  -6   7  -5  185.98   26.80
  -6   7  -5  132.49   21.10
  -6   7  -5  138.89   25.80
   6  -7   5  100.49   24.20
   6  -7   5  133.39   21.60
   6  -7   5  112.19   19.00
  -7   7  -5   -4.00   27.50
  -7   7  -5    0.60   26.70
  -7   7  -5   24.70   22.90
   7  -7   5  -26.00   22.90
   7  -7   5   11.90   27.30
  -8   7  -5   -4.80   31.20
  -8   7  -5   84.39   28.20
  -8   7  -5  -16.60   29.00
   8  -7   5   64.09   31.00
   8  -7   5   19.80   32.30
  10   6  -5  120.59   39.10
  10   6  -5  159.98   43.10
  10   6  -5   43.50   33.80
 -10  -6   5  141.59   34.50
 -10  -6   5   42.50   32.60
 -10  -6   5  173.68   39.30
   9   6  -5  403.46   54.59
   9   6  -5  309.17   43.90
   9   6  -5  368.76   43.20
  -9  -6   5  313.57   49.20
  -9  -6   5  339.77   46.30
   8   6  -5  543.55   39.90
   8   6  -5  457.65   41.80
  -8  -6   5  431.56   38.90
  -8  -6   5  565.44   45.50
  -8  -6   5  466.25   47.10
   7   6  -5  328.87   32.60
   7   6  -5  383.56   30.60
  -7  -6   5  398.86   36.60
  -7  -6   5  330.57   36.60
   6   6  -5   18.70   13.50
   6   6  -5   15.00   11.20
   6   6  -5  -15.60   12.00
  -6  -6   5   32.80   18.50
  -6  -6   5   -8.20   14.60
   5   6  -5   20.20   10.10
   5   6  -5   10.90    9.60
   5   6  -5   23.10   10.70
  -5  -6   5    9.30   14.70
  -5  -6   5  -12.10   12.00
   4   6  -5  132.99   15.40
   4   6  -5  165.58   15.30
   4   6  -5  138.49   15.30
  -4  -6   5  143.79   16.50
  -4  -6   5  127.69   14.40
  -4  -6   5  112.69   16.20
   3   6  -5 1347.17   66.79
   3   6  -5 1278.57   67.49
   3   6  -5 1313.97   66.79
  -3  -6   5 1323.17   66.99
  -3  -6   5 1297.27   67.89
  -3  -6   5 1369.46   68.49
   2   6  -5 1281.67   66.29
   2   6  -5 1300.47   65.59
  -2  -6   5 1308.27   66.49
  -2  -6   5 1338.57   65.89
  -2  -6   5 1264.57   65.59
   1   6  -5  711.73   39.00
   1   6  -5  744.83   39.60
   1   6  -5  766.22   39.70
  -1  -6   5  727.53   38.90
  -1  -6   5  734.33   38.40
  -1  -6   5  702.43   39.40
   0   6  -5  109.99   12.40
   0   6  -5  126.09   20.90
   0   6  -5  110.29   12.30
   0  -6   5  115.49   13.20
   0  -6   5  103.79   13.40
   0  -6   5  114.79   12.20
  -1   6  -5  -12.60   14.50
  -1   6  -5   -0.80    6.70
  -1   6  -5   -4.50    6.90
   1  -6   5  -11.20    6.80
   1  -6   5   -3.00    6.70
   1  -6   5   -9.70    7.10
  -2   6  -5  220.48   18.50
  -2   6  -5  175.38   22.80
   2  -6   5  230.98   18.80
   2  -6   5  204.28   17.30
   2  -6   5  226.38   17.40
  -3   6  -5  417.16   32.90
  -3   6  -5  484.95   30.70
   3  -6   5  456.75   27.70
   3  -6   5  440.06   27.50
   3  -6   5  429.06   29.30
  -4   6  -5  637.84   41.60
  -4   6  -5  614.34   39.20
   4  -6   5  567.54   38.00
   4  -6   5  626.54   35.60
   4  -6   5  632.14   36.30
  -5   6  -5  281.67   25.80
  -5   6  -5  337.17   32.80
  -5   6  -5  275.27   30.00
   5  -6   5  303.27   25.50
   5  -6   5  275.67   28.50
  -6   6  -5  284.47   33.20
  -6   6  -5  181.18   25.80
  -6   6  -5  205.18   32.20
   6  -6   5  203.98   31.70
   6  -6   5  209.58   27.20
  -7   6  -5   42.90   25.40
  -7   6  -5    1.90   25.10
  -7   6  -5   26.30   20.30
   7  -6   5   67.59   22.20
   7  -6   5   22.20   25.50
  -8   6  -5  116.79   25.80
  -8   6  -5   84.09   30.30
  -8   6  -5  123.39   31.30
   8  -6   5  190.18   31.40
   8  -6   5   88.59   33.20
  -9   6  -5  201.38   33.80
  -9   6  -5  226.08   32.20
  -9   6  -5  214.48   35.60
   9  -6   5  265.77   38.80
   9  -6   5  176.18   43.50
  10   5  -5  144.99   33.00
  10   5  -5   89.79   35.90
  10   5  -5  200.48   38.20
 -10  -5   5  186.38   36.40
 -10  -5   5  102.79   31.40
 -10  -5   5  126.39   34.40
   9   5  -5  537.15   43.80
   9   5  -5  471.95   52.49
   9   5  -5  462.55   44.60
  -9  -5   5  558.84   49.80
  -9  -5   5  435.46   45.10
  -9  -5   5  322.47   50.39
   8   5  -5  533.05   43.80
   8   5  -5  399.26   38.70
   8   5  -5  448.36   35.60
  -8  -5   5  491.75   43.90
  -8  -5   5  441.66   36.70
  -8  -5   5  500.45   41.10
   7   5  -5  249.48   23.60
   7   5  -5  237.18   26.20
  -7  -5   5  305.07   31.00
  -7  -5   5  218.48   24.30
  -7  -5   5  202.68   30.00
   6   5  -5   44.30   11.50
   6   5  -5   47.40   12.40
  -6  -5   5   54.59   11.80
  -6  -5   5   19.50   16.30
  -6  -5   5   40.50   14.10
   5   5  -5  200.98   15.10
   5   5  -5  187.08   16.60
   5   5  -5  185.78   17.00
  -5  -5   5  161.08   21.70
  -5  -5   5  163.18   19.70
   4   5  -5  493.55   28.00
   4   5  -5  494.05   28.80
   4   5  -5  505.05   29.50
  -4  -5   5  518.15   29.00
  -4  -5   5  501.75   30.90
  -4  -5   5  540.05   31.90
   3   5  -5 1103.29   56.29
   3   5  -5 1081.29   56.89
   3   5  -5 1105.59   55.99
  -3  -5   5 1095.39   56.39
  -3  -5   5 1184.58   57.59
  -3  -5   5 1091.09   57.59
   2   5  -5 1177.08   59.69
   2   5  -5 1137.59   60.29
  -2  -5   5 1217.78   60.89
  -2  -5   5 1233.88   59.79
  -2  -5   5 1177.88   59.89
   1   5  -5 1130.19   57.39
   1   5  -5 1095.69   57.29
   1   5  -5 1144.99   58.19
  -1  -5   5 1162.98   57.49
  -1  -5   5 1182.48   58.09
  -1  -5   5 1118.49   56.29
  -1  -5   5 1101.89   56.89
  -1  -5   5 1151.98   58.49
   0   5  -5   39.30    7.60
   0   5  -5   39.90   11.90
   0   5  -5   39.30    7.10
   0  -5   5   42.10    7.50
   0  -5   5   35.00    7.70
   0  -5   5   33.20    6.70
  -1   5  -5   68.59   13.50
  -1   5  -5   76.49   10.00
   1  -5   5   73.09    9.20
   1  -5   5   63.09    9.50
   1  -5   5   74.09    9.10
  -2   5  -5  554.34   35.60
  -2   5  -5  559.54   31.70
   2  -5   5  513.45   30.20
   2  -5   5  553.14   30.30
   2  -5   5  535.85   31.90
  -3   5  -5  741.43   40.70
  -3   5  -5  802.22   49.30
  -3   5  -5  636.04   37.50
   3  -5   5  716.63   38.20
   3  -5   5  721.93   39.00
   3  -5   5  653.63   39.80
  -4   5  -5 1317.57   72.09
  -4   5  -5 1251.47   70.89
  -4   5  -5 1496.85   74.39
   4  -5   5 1344.97   71.59
   4  -5   5 1432.26   70.39
  -5   5  -5  924.81   51.69
  -5   5  -5  791.52   48.50
  -5   5  -5  845.72   49.90
   5  -5   5  794.12   46.50
   5  -5   5  806.82   49.10
  -6   5  -5   61.49   19.60
  -6   5  -5   60.09   18.80
  -6   5  -5   81.59   22.10
   6  -5   5   83.49   16.90
  -7   5  -5   11.10   23.00
  -7   5  -5  -37.20   21.90
  -7   5  -5  -11.60   27.50
   7  -5   5   13.90   21.40
   7  -5   5   -8.00   25.30
  -8   5  -5  101.39   30.30
  -8   5  -5  117.19   24.00
  -8   5  -5  119.19   29.90
   8  -5   5   75.29   28.60
   8  -5   5  125.79   33.60
  -9   5  -5  212.38   34.50
  -9   5  -5  266.27   36.40
  -9   5  -5  277.27   46.00
   9  -5   5  187.88   37.50
   9  -5   5  257.57   43.10
  11   4  -5   57.59   35.80
  11   4  -5   14.30   33.50
  11   4  -5   54.69   40.50
 -11  -4   5   65.79   35.10
 -11  -4   5  106.19   34.20
  10   4  -5   78.99   35.50
  10   4  -5  177.78   33.50
  10   4  -5  150.68   32.70
 -10  -4   5  120.19   31.60
 -10  -4   5  151.78   30.70
 -10  -4   5  119.19   32.50
   9   4  -5  731.13   50.69
   9   4  -5  564.14   46.50
   9   4  -5  503.55   47.60
  -9  -4   5  651.73   50.29
  -9  -4   5  636.24   48.90
   8   4  -5  427.36   39.70
   8   4  -5  486.55   35.50
  -8  -4   5  486.65   39.40
  -8  -4   5  467.75   35.20
   7   4  -5  241.28   27.50
   7   4  -5  162.08   22.40
   7   4  -5  209.48   20.90
  -7  -4   5  202.18   21.70
  -7  -4   5  165.78   21.90
  -7  -4   5  204.28   26.90
   6   4  -5   43.90   11.10
   6   4  -5   33.10    9.90
  -6  -4   5   53.29   15.10
  -6  -4   5   54.89   11.10
  -6  -4   5   30.30   13.40
   5   4  -5  478.15   27.20
   5   4  -5  428.96   26.30
  -5  -4   5  437.36   26.20
  -5  -4   5  437.36   29.60
  -5  -4   5  471.95   30.40
   4   4  -5  690.73   35.80
   4   4  -5  685.23   36.40
   4   4  -5  604.94   36.40
  -4  -4   5  680.43   36.50
  -4  -4   5  712.93   37.70
  -4  -4   5  664.23   37.80
   3   4  -5 1287.37   63.99
   3   4  -5 1292.07   64.59
   3   4  -5 1247.28   64.79
  -3  -4   5 1362.06   65.19
  -3  -4   5 1300.57   66.19
  -3  -4   5 1260.77   64.59
   2   4  -5  765.52   39.40
   2   4  -5  736.73   38.60
  -2  -4   5  770.32   40.20
  -2  -4   5  742.23   38.80
  -2  -4   5  740.63   38.70
   1   4  -5  225.28   15.20
   1   4  -5  203.08   15.40
   1   4  -5  234.08   18.40
   1   4  -5  240.68   22.90
   1   4  -5  231.98   15.20
  -1  -4   5  218.68   13.90
  -1  -4   5  237.78   16.00
  -1  -4   5  242.78   14.80
  -1  -4   5  228.68   15.80
   0   4  -5  171.58   13.90
   0   4  -5  196.38   17.80
   0  -4   5  171.58   14.20
   0  -4   5  180.58   12.90
   0  -4   5  204.08   14.10
  -1   4  -5  359.56   22.20
  -1   4  -5  388.96   26.00
   1  -4   5  341.07   20.80
   1  -4   5  357.96   21.00
   1  -4   5  341.67   22.20
  -2   4  -5  633.44   39.50
  -2   4  -5  631.94   36.20
  -2   4  -5  655.03   33.60
  -2   4  -5  637.14   32.70
   2  -4   5  677.43   34.50
   2  -4   5  628.94   34.20
   2  -4   5  702.23   37.40
   2  -4   5  626.34   36.00
   2  -4   5  620.64   35.60
  -3   4  -5 1599.14   78.19
  -3   4  -5 1541.65   79.79
  -3   4  -5 1598.54   82.19
   3  -4   5 1560.94   77.69
   3  -4   5 1523.15   79.59
   3  -4   5 1559.44   80.69
  -4   4  -5 1078.09   57.09
  -4   4  -5 1056.09   59.09
  -4   4  -5 1125.89   61.39
   4  -4   5 1126.69   60.59
   4  -4   5 1094.59   58.89
   4  -4   5 1092.59   56.49
  -5   4  -5  280.47   26.70
  -5   4  -5  299.17   30.50
  -5   4  -5  231.78   25.90
   5  -4   5  302.77   30.10
   5  -4   5  277.27   22.90
   5  -4   5  260.37   25.20
  -6   4  -5    5.40   18.10
  -6   4  -5  -10.40   18.90
  -6   4  -5  -11.80   16.70
   6  -4   5    5.90   15.40
   6  -4   5  -14.90   16.90
   6  -4   5   15.50   21.60
  -7   4  -5   53.39   22.10
  -7   4  -5   48.00   22.70
   7  -4   5   33.50   28.20
   7  -4   5   39.10   24.10
   7  -4   5   53.59   31.10
  -8   4  -5  151.88   25.70
  -8   4  -5  197.78   31.10
  -8   4  -5  153.88   29.60
   8  -4   5  188.78   29.80
   8  -4   5  179.68   35.70
  -9   4  -5  314.77   43.80
  -9   4  -5  231.68   35.20
  -9   4  -5  371.16   46.80
   9  -4   5  191.08   43.30
   9  -4   5  238.48   37.20
  11   3  -5  332.87   46.30
  11   3  -5  226.48   39.30
  11   3  -5  180.58   35.80
 -11  -3   5  126.99   35.30
 -11  -3   5  225.98   38.30
  10   3  -5   96.69   35.30
  10   3  -5  204.48   31.00
  10   3  -5  181.48   30.80
 -10  -3   5  217.48   33.60
 -10  -3   5  122.49   30.70
   9   3  -5  241.88   36.80
   9   3  -5  230.28   32.80
   9   3  -5  206.88   29.20
  -9  -3   5  227.08   29.20
  -9  -3   5  230.38   28.50
  -9  -3   5  136.89   31.60
   8   3  -5  476.25   36.20
   8   3  -5  472.95   36.40
   8   3  -5  525.05   39.30
  -8  -3   5  561.54   38.90
  -8  -3   5  452.25   40.20
  -8  -3   5  488.45   35.70
   7   3  -5   -1.70   14.80
   7   3  -5    6.60   10.60
   7   3  -5   16.90   12.50
  -7  -3   5   29.90   13.10
  -7  -3   5   27.40   14.40
  -7  -3   5    6.20   16.90
   6   3  -5  227.18   22.10
   6   3  -5  211.88   17.20
   6   3  -5  227.48   18.50
  -6  -3   5  215.98   18.40
  -6  -3   5  213.68   22.40
  -6  -3   5  186.78   21.40
   5   3  -5  481.25   28.00
   5   3  -5  488.45   27.50
  -5  -3   5  490.05   31.20
  -5  -3   5  482.75   27.50
  -5  -3   5  488.95   29.90
   4   3  -5 1179.38   60.89
   4   3  -5 1200.68   60.59
  -4  -3   5 1255.37   61.79
  -4  -3   5 1209.68   60.29
  -4  -3   5 1208.58   63.19
   3   3  -5  896.91   48.50
   3   3  -5  936.51   47.00
   3   3  -5  957.20   47.00
   3   3  -5  931.01   47.60
   3   3  -5  924.71   47.90
  -3  -3   5  952.20   50.09
  -3  -3   5  995.80   47.30
  -3  -3   5  940.01   48.20
  -3  -3   5  947.11   47.70
   2   3  -5 1472.75   70.09
   2   3  -5 1460.05   69.69
   2   3  -5 1376.96   69.89
   2   3  -5 1308.87   69.49
   2   3  -5 1424.36   70.79
   2   3  -5 1428.06   69.59
  -2  -3   5 1461.65   69.19
  -2  -3   5 1428.46   69.79
  -2  -3   5 1290.27   71.79
  -2  -3   5 1476.55   71.49
   1   3  -5  256.07   16.60
   1   3  -5  229.28   15.00
   1   3  -5  258.67   16.80
   1   3  -5  258.77   15.40
   1   3  -5  235.48   15.20
   1   3  -5  241.78   13.90
   1   3  -5  236.08   14.20
  -1  -3   5  231.48   17.90
  -1  -3   5  244.08   14.20
  -1  -3   5  239.48   14.70
   0   3  -5   39.00    5.00
   0   3  -5   45.20    9.20
   0   3  -5   35.70    5.10
   0   3  -5   52.59    7.40
   0   3  -5   46.00    7.20
   0  -3   5   39.80    6.80
   0  -3   5   40.60    7.50
   0  -3   5   45.00    7.20
   0  -3   5   46.80    5.90
  -1   3  -5  315.37   17.80
  -1   3  -5  280.87   16.00
  -1   3  -5  308.77   17.00
  -1   3  -5  283.77   19.40
  -1   3  -5  317.47   21.10
   1  -3   5  274.67   17.20
   1  -3   5  290.07   17.60
   1  -3   5  287.77   17.30
   1  -3   5  287.67   19.00
   1  -3   5  299.67   20.20
  -2   3  -5  614.64   31.60
  -2   3  -5  634.14   35.30
  -2   3  -5  588.64   34.30
   2  -3   5  604.24   33.90
   2  -3   5  603.44   31.90
   2  -3   5  589.64   35.30
  -3   3  -5 1311.47   68.99
  -3   3  -5 1363.76   66.29
  -3   3  -5 1348.17   69.79
   3  -3   5 1315.47   66.09
   3  -3   5 1316.77   68.29
   3  -3   5 1301.17   69.69
  -4   3  -5  470.65   34.00
  -4   3  -5  473.75   32.10
  -4   3  -5  496.05   28.50
   4  -3   5  473.35   30.30
   4  -3   5  448.96   33.00
   4  -3   5  506.95   28.30
  -5   3  -5  151.98   18.60
  -5   3  -5  125.69   18.70
  -5   3  -5  131.19   20.40
   5  -3   5  151.28   18.40
   5  -3   5  191.98   26.40
   5  -3   5  109.39   17.20
  -6   3  -5   15.90   17.80
  -6   3  -5   11.10   19.60
  -6   3  -5   30.70   18.10
   6  -3   5   48.70   15.10
   6  -3   5   25.30   18.20
   6  -3   5   40.60   22.00
  -7   3  -5   72.69   22.60
  -7   3  -5   90.39   23.80
  -7   3  -5   96.59   24.00
   7  -3   5  100.89   20.90
   7  -3   5   36.30   23.80
   7  -3   5   67.79   27.60
  -8   3  -5  195.08   29.60
  -8   3  -5  167.18   26.60
  -8   3  -5  247.88   37.60
   8  -3   5  152.28   33.50
   8  -3   5  105.29   33.60
   8  -3   5  153.78   28.30
  -9   3  -5  267.67   37.60
  -9   3  -5  330.67   46.20
  -9   3  -5  326.87   43.70
   9  -3   5  236.38   42.90
   9  -3   5  292.77   38.10
   9  -3   5  325.67   40.80
  11   2  -5  203.28   33.40
  11   2  -5  199.48   35.30
  11   2  -5  239.58   35.40
 -11  -2   5  299.27   41.10
 -11  -2   5  102.09   35.80
  10   2  -5  297.57   45.40
  10   2  -5  334.97   40.60
  10   2  -5  436.46   42.50
 -10  -2   5  268.87   40.30
   9   2  -5  326.17   37.30
   9   2  -5  365.86   40.30
   9   2  -5  346.57   33.30
  -9  -2   5  341.77   37.90
  -9  -2   5  242.58   40.60
   8   2  -5  312.57   31.80
   8   2  -5  250.27   27.60
   8   2  -5  314.07   28.80
  -8  -2   5  338.67   31.00
  -8  -2   5  297.17   31.90
  -8  -2   5  303.87   27.90
   7   2  -5   22.70   11.80
   7   2  -5   18.20   15.00
   7   2  -5   10.40   10.90
  -7  -2   5   22.20   15.10
  -7  -2   5   21.20   11.90
  -7  -2   5   21.90   13.30
   6   2  -5   68.19   13.20
   6   2  -5   74.09   10.50
   6   2  -5   68.79    9.70
  -6  -2   5   66.69   12.40
  -6  -2   5   40.90    9.80
  -6  -2   5   79.69   13.30
   5   2  -5  689.13   36.10
   5   2  -5  693.33   38.90
   5   2  -5  644.84   35.90
  -5  -2   5  676.73   36.00
  -5  -2   5  644.24   38.80
  -5  -2   5  709.13   37.90
   4   2  -5 2636.34  129.49
   4   2  -5 2571.54  126.99
   4   2  -5 2623.54  127.19
  -4  -2   5 2603.34  127.89
  -4  -2   5 2599.54  127.09
  -4  -2   5 2686.13  129.79
   3   2  -5  696.03   36.50
   3   2  -5  577.14   34.60
   3   2  -5  658.23   34.50
   3   2  -5  670.53   33.30
   3   2  -5  671.33   33.70
   3   2  -5  643.74   33.70
   3   2  -5  660.93   33.70
   3   2  -5  622.64   35.00
  -3  -2   5  695.23   34.20
  -3  -2   5  708.53   37.20
  -3  -2   5  626.14   34.30
   2   2  -5 1129.79   59.29
   2   2  -5 1233.58   58.49
   2   2  -5 1080.19   57.79
   2   2  -5 1174.48   58.89
   2   2  -5 1148.09   57.69
   2   2  -5 1197.18   57.79
   2   2  -5 1235.18   58.79
   2   2  -5 1237.28   58.19
   2   2  -5 1109.09   58.99
  -2  -2   5 1198.98   58.59
  -2  -2   5 1150.18   57.79
  -2  -2   5 1176.38   58.29
  -2  -2   5 1202.98   57.99
  -2  -2   5 1157.08   60.29
  -2  -2   5 1141.09   58.49
   1   2  -5   84.59    8.10
   1   2  -5   88.39    7.80
   1   2  -5   92.09    9.70
   1   2  -5   84.39    7.10
   1   2  -5   91.29   10.40
   1   2  -5   78.39    8.70
   1   2  -5   86.59   10.90
   1   2  -5   79.19   10.50
   1   2  -5   76.39    7.50
   1   2  -5   83.29    8.60
  -1  -2   5   96.19   10.50
  -1  -2   5   77.19    7.60
  -1  -2   5   95.69    7.50
  -1  -2   5   90.79    9.60
  -1  -2   5   76.69    7.50
   0   2  -5   38.40    6.80
   0   2  -5   37.00    5.00
   0   2  -5   46.40    7.20
   0   2  -5   30.60    5.70
   0   2  -5   26.60    4.60
   0   2  -5   35.50    5.10
   0   2  -5   34.40    4.60
   0  -2   5   30.90    6.40
   0  -2   5   32.30    6.40
   0  -2   5   39.90    5.00
   0  -2   5   47.20    8.00
   0  -2   5   33.00    6.80
  -1   2  -5 1380.26   67.39
  -1   2  -5 1298.47   68.69
  -1   2  -5 1390.16   67.79
   1  -2   5 1361.66   69.89
   1  -2   5 1381.96   68.79
   1  -2   5 1405.06   67.19
  -2   2  -5 3525.05  173.08
  -2   2  -5 3491.65  172.88
  -2   2  -5 3691.23  171.58
   2  -2   5 3590.84  171.08
   2  -2   5 3538.95  172.88
   2  -2   5 3508.25  174.28
  -3   2  -5 1358.56   69.69
  -3   2  -5 1398.56   67.59
   3  -2   5 1369.56   69.49
   3  -2   5 1251.67   70.89
   3  -2   5 1374.96   66.99
  -4   2  -5  759.12   40.00
  -4   2  -5  717.03   43.40
   4  -2   5  765.72   39.50
   4  -2   5  724.03   44.50
   4  -2   5  746.63   42.60
  -5   2  -5   90.59   13.30
  -5   2  -5   88.99   18.20
   5  -2   5   99.59   16.30
   5  -2   5   70.89   18.20
   5  -2   5   98.29   12.80
  -6   2  -5   11.60   21.20
  -6   2  -5   -5.00   15.70
   6  -2   5   25.20   14.60
   6  -2   5    0.90   20.00
   6  -2   5    7.80   17.20
  -7   2  -5   79.59   21.30
  -7   2  -5   56.89   28.90
  -7   2  -5   18.60   23.10
   7  -2   5   72.49   26.80
   7  -2   5   43.90   19.30
   7  -2   5   47.20   24.40
  -8   2  -5  395.26   41.20
  -8   2  -5  429.76   42.20
  -8   2  -5  318.97   44.50
   8  -2   5  380.46   48.00
  -9   2  -5  424.26   48.00
  -9   2  -5  326.77   41.30
   9  -2   5  263.37   42.50
   9  -2   5  314.17   37.80
   9  -2   5  395.46   52.39
  11   1  -5  346.57   45.90
  11   1  -5  244.78   32.30
  11   1  -5  315.37   50.19
 -11  -1   5  292.77   40.60
  10   1  -5  479.05   50.09
  10   1  -5  584.54   45.80
  10   1  -5  551.04   42.80
 -10  -1   5  398.36   44.30
 -10  -1   5  538.25   49.10
   9   1  -5  245.48   31.30
   9   1  -5  242.58   33.30
  -9  -1   5  293.37   35.80
   8   1  -5  319.47   29.20
   8   1  -5  310.17   29.40
   8   1  -5  273.87   27.50
  -8  -1   5  282.77   30.40
  -8  -1   5  314.47   26.50
   7   1  -5  237.68   22.20
   7   1  -5  236.48   21.90
   7   1  -5  274.67   24.40
  -7  -1   5  256.37   21.30
  -7  -1   5  300.77   24.60
   6   1  -5  468.75   28.10
   6   1  -5  484.25   28.20
   6   1  -5  500.05   30.70
  -6  -1   5  496.45   29.90
  -6  -1   5  440.86   27.90
   5   1  -5  938.41   46.70
   5   1  -5  871.81   46.80
   5   1  -5  949.51   49.70
  -5  -1   5  932.61   48.20
  -5  -1   5  954.90   46.90
  -5  -1   5  940.81   49.80
  -5  -1   5  943.71   47.40
  -5  -1   5  796.32   46.70
   4   1  -5 1665.93   82.69
   4   1  -5 1679.93   82.29
   4   1  -5 1825.22   82.59
   4   1  -5 1672.03   84.99
   4   1  -5 1643.14   82.59
  -4  -1   5 1667.03   83.49
  -4  -1   5 1713.93   82.99
  -4  -1   5 1639.14   85.09
  -4  -1   5 1725.53   83.19
  -4  -1   5 1635.44   82.49
   3   1  -5 1093.69   53.89
   3   1  -5 1048.90   54.79
   3   1  -5 1074.89   53.59
   3   1  -5 1093.09   53.59
   3   1  -5 1115.29   54.09
   3   1  -5 1011.60   55.59
   3   1  -5 1096.39   53.29
  -3  -1   5 1125.59   54.29
  -3  -1   5 1070.09   54.19
  -3  -1   5 1071.79   53.39
  -3  -1   5 1118.99   54.29
  -3  -1   5 1049.70   55.99
   2   1  -5  164.18   10.80
   2   1  -5  147.39   11.00
   2   1  -5  149.49   10.50
   2   1  -5  148.69   14.00
   2   1  -5  152.18   10.00
   2   1  -5  142.09   13.10
   2   1  -5  168.98   10.40
   2   1  -5  154.18    9.90
   2   1  -5  147.59   10.40
  -2  -1   5  147.69   14.00
  -2  -1   5  149.79   10.10
  -2  -1   5  132.79   11.00
  -2  -1   5  143.79    9.80
  -2  -1   5  148.69   11.70
  -2  -1   5  176.38   11.50
   1   1  -5  358.16   18.50
   1   1  -5  338.97   19.30
   1   1  -5  362.06   20.10
   1   1  -5  357.06   20.00
   1   1  -5  344.17   18.50
   1   1  -5  342.47   18.80
   1   1  -5  366.46   19.60
   1   1  -5  334.77   19.20
   1   1  -5  317.87   20.00
   1   1  -5  338.27   22.90
  -1  -1   5  345.77   19.40
  -1  -1   5  339.87   18.40
  -1  -1   5  363.16   20.90
  -1  -1   5  360.26   20.60
  -1  -1   5  340.27   19.10
   0   1  -5  324.17   17.20
   0   1  -5  296.77   17.50
   0   1  -5  331.07   18.50
   0   1  -5  298.87   16.90
   0   1  -5  300.17   17.30
   0   1  -5  360.96   20.60
   0   1  -5  314.07   17.60
   0   1  -5  296.17   19.20
   0   1  -5  314.77   18.10
   0  -1   5  317.77   17.00
   0  -1   5  338.57   21.10
   0  -1   5  347.37   19.10
   0  -1   5  320.77   19.70
  -1   1  -5 1400.56   68.69
  -1   1  -5 1411.76   70.99
  -1   1  -5 1425.86   68.99
  -1   1  -5 1303.37   69.79
  -1   1  -5 1487.45   69.99
   1  -1   5 1416.66   71.39
   1  -1   5 1361.26   68.99
   1  -1   5 1448.76   72.79
   1  -1   5 1462.55   70.79
   1  -1   5 1465.35   68.99
  -2   1  -5 2624.94  131.29
  -2   1  -5 2792.12  129.09
  -2   1  -5 2760.32  130.39
   2  -1   5 2774.32  131.59
   2  -1   5 2580.64  129.19
   2  -1   5 2515.15  132.89
   2  -1   5 2740.33  129.29
  -3   1  -5 1106.99   53.49
  -3   1  -5 1002.60   51.89
  -3   1  -5 1026.60   54.79
   3  -1   5 1092.49   55.49
   3  -1   5 1041.10   57.49
   3  -1   5 1017.10   53.39
  -4   1  -5  481.45   27.20
  -4   1  -5  454.45   29.90
   4  -1   5  437.16   32.30
   4  -1   5  438.46   30.20
   4  -1   5  468.85   26.50
  -5   1  -5   81.79   13.00
  -5   1  -5  107.49   17.30
   5  -1   5   95.79   18.90
   5  -1   5   89.89   17.50
   5  -1   5  131.59   16.00
  -6   1  -5   36.10   21.00
  -6   1  -5   26.00   15.70
   6  -1   5   37.70   14.30
   6  -1   5   30.60   20.60
   6  -1   5   23.30   17.90
  -7   1  -5  275.97   33.30
  -7   1  -5  239.98   46.70
   7  -1   5  344.07   30.90
   7  -1   5  207.28   34.70
   7  -1   5  356.86   41.50
  -8   1  -5  365.76   45.90
  -8   1  -5  289.27   39.90
   8  -1   5  279.67   38.40
   8  -1   5  258.57   36.70
  -9   1  -5  365.16   49.60
  -9   1  -5  388.26   43.40
  -9   1  -5  308.77   41.90
   9  -1   5  357.86   51.59
   9  -1   5  266.27   35.50
   9  -1   5  239.38   41.40
  11   0  -5  317.57   39.50
  11   0  -5  217.38   41.70
  11   0  -5  209.28   32.90
 -11   0   5  135.49   34.60
 -11   0   5  264.37   39.20
  10   0  -5  461.25   41.70
  10   0  -5  445.46   37.90
  10   0  -5  379.76   38.10
 -10   0   5  414.26   45.90
 -10   0   5  315.37   39.70
   9   0  -5  214.38   28.70
   9   0  -5  243.98   33.20
   9   0  -5  194.28   30.40
  -9   0   5  201.78   28.80
   8   0  -5  109.49   17.50
   8   0  -5  115.79   18.90
   8   0  -5  108.69   17.70
  -8   0   5  125.79   19.40
  -8   0   5  126.39   17.10
  -8   0   5  133.79   22.60
   7   0  -5   20.20   10.90
   7   0  -5    1.90   12.00
   7   0  -5   37.30   12.70
  -7   0   5   25.50   12.70
  -7   0   5    1.20   10.30
  -7   0   5    4.30   11.50
   6   0  -5  356.06   25.50
   6   0  -5  463.55   32.20
   6   0  -5  378.46   25.80
  -6   0   5  389.76   24.70
  -6   0   5  428.66   25.30
  -6   0   5  378.96   23.30
  -6   0   5  402.16   26.10
   5   0  -5  720.53   42.20
   5   0  -5  804.22   40.90
  -5   0   5  801.02   40.80
  -5   0   5  775.42   41.30
  -5   0   5  754.32   40.70
   4   0  -5 1278.37   61.39
   4   0  -5 1181.68   61.39
   4   0  -5 1130.19   62.69
  -4   0   5 1232.68   61.99
  -4   0   5 1297.77   62.39
  -4   0   5 1278.57   61.99
   3   0  -5 2003.00  100.29
   3   0  -5 2017.50  101.19
   3   0  -5 2015.20  100.39
   3   0  -5 2158.78   99.89
  -3   0   5 2065.29  102.39
  -3   0   5 2085.49  100.19
  -3   0   5 1993.50  100.59
  -3   0   5 2147.49  100.89
   2   0  -5  279.87   20.90
   2   0  -5  324.87   17.20
   2   0  -5  314.37   20.10
   2   0  -5  319.97   18.10
   2   0  -5  335.07   17.20
   2   0  -5  305.47   20.20
   2   0  -5  318.37   19.70
   2   0  -5  322.97   17.40
  -2   0   5  357.26   19.90
  -2   0   5  333.97   19.50
  -2   0   5  322.47   18.60
  -2   0   5  322.27   18.60
   1   0  -5  126.49   10.10
   1   0  -5  140.79   10.00
   1   0  -5  136.39    9.30
   1   0  -5  139.69    9.50
   1   0  -5  130.29   14.30
   1   0  -5  126.29   12.30
   1   0  -5  125.79    8.40
   1   0  -5  121.39    9.80
  -1   0   5  132.49   10.10
  -1   0   5  134.49    9.50
  -1   0   5  162.88   21.40
  -1   0   5  119.69   11.50
   0   0  -5  270.57   14.00
   0   0  -5  249.78   15.80
   0   0  -5  274.67   15.50
   0   0  -5  245.08   15.20
   0   0  -5  237.68   15.80
   0   0   5  251.87   19.00
   0   0   5  251.87   16.70
   0   0   5  264.17   15.80
   0   0   5  244.38   14.90
  -1   0  -5  201.08   13.50
  -1   0  -5  193.08   14.80
   1   0   5  206.18   14.20
   1   0   5  204.98   15.20
   1   0   5  185.58   18.00
   1   0   5  185.68   12.50
  -2   0  -5 1906.71   86.79
  -2   0  -5 1857.31   87.79
  -2   0  -5 1737.63   88.39
   2   0   5 1757.82   88.89
   2   0   5 1607.64   87.59
   2   0   5 1865.11   88.69
   2   0   5 1715.63   90.69
  -3   0  -5  779.62   41.50
  -3   0  -5  759.92   42.60
  -3   0  -5  799.32   40.30
   3   0   5  813.22   46.20
   3   0   5  801.22   43.70
  -4   0  -5  270.67   22.20
  -4   0  -5  297.27   18.70
  -4   0  -5  288.77   19.80
   4   0   5  277.77   24.20
   4   0   5  256.67   26.20
   4   0   5  288.17   20.00
  -5   0  -5   12.90   10.30
  -5   0  -5   14.50   13.60
  -5   0  -5    6.10   10.90
   5   0   5   18.90   16.20
   5   0   5   -0.80   10.50
   5   0   5   -6.30   17.40
  -6   0  -5  124.99   22.30
  -6   0  -5  159.58   21.90
  -6   0  -5  108.09   17.50
   6   0   5   86.29   22.80
   6   0   5  157.98   17.90
   6   0   5  169.48   25.20
  -7   0  -5  299.97   33.20
  -7   0  -5  230.28   32.20
  -7   0  -5  350.56   42.50
   7   0   5  359.16   41.80
   7   0   5  243.08   31.00
   7   0   5  252.17   38.00
  -8   0  -5  328.97   41.10
  -8   0  -5  365.26   38.20
  -8   0  -5  420.56   49.99
   8   0   5  297.47   46.50
   8   0   5  374.96   47.20
   8   0   5  331.37   39.70
  -9   0  -5  358.16   52.09
  -9   0  -5  240.78   36.90
   9   0   5  366.66   54.19
   9   0   5  261.77   36.90
   9   0   5  200.68   41.20
  12  -1  -5   84.79   30.50
  12  -1  -5   78.99   34.20
 -12   1   5   76.89   41.70
 -12   1   5   59.79   35.50
  11  -1  -5  216.38   29.90
  11  -1  -5  281.27   35.30
 -11   1   5  341.27   48.90
 -11   1   5  162.48   34.80
  10  -1  -5  533.15   42.70
  10  -1  -5  425.26   39.60
  10  -1  -5  467.65   39.30
 -10   1   5  364.96   43.90
 -10   1   5  495.35   47.50
 -10   1   5  423.86   41.30
   9  -1  -5  343.77   32.30
   9  -1  -5  344.07   30.90
  -9   1   5  350.86   32.90
  -9   1   5  330.47   34.80
  -9   1   5  380.26   38.50
   8  -1  -5   31.00   16.50
   8  -1  -5   34.10   15.10
  -8   1   5   65.29   18.10
  -8   1   5   48.00   16.90
  -8   1   5   43.70   15.20
   7  -1  -5   15.40   15.90
   7  -1  -5   19.90   12.30
  -7   1   5   -7.70   12.20
  -7   1   5    4.30   11.60
  -7   1   5    6.60   10.60
   6  -1  -5  166.98   18.40
   6  -1  -5  140.99   17.20
  -6   1   5  169.98   15.80
  -6   1   5  180.48   16.60
  -6   1   5  166.68   17.50
   5  -1  -5 1627.04   84.79
   5  -1  -5 1675.53   83.69
   5  -1  -5 1696.93   84.49
  -5   1   5 1679.33   83.99
  -5   1   5 1699.73   84.19
  -5   1   5 1747.53   84.29
   4  -1  -5  444.86   25.50
   4  -1  -5  484.05   26.80
   4  -1  -5  470.25   26.80
  -4   1   5  473.05   26.30
  -4   1   5  452.25   26.10
  -4   1   5  462.95   26.50
   3  -1  -5 1325.47   69.39
   3  -1  -5 1379.36   68.59
   3  -1  -5 1375.66   69.09
   3  -1  -5 1422.26   70.09
   3  -1  -5 1464.25   69.29
  -3   1   5 1343.57   68.39
  -3   1   5 1437.76   70.09
  -3   1   5 1399.36   70.29
  -3   1   5 1372.96   70.19
  -3   1   5 1547.55   70.69
   2  -1  -5  270.57   19.40
   2  -1  -5  299.27   17.70
   2  -1  -5  314.87   20.70
   2  -1  -5  322.27   18.00
  -2   1   5  311.27   18.10
  -2   1   5  298.47   19.40
  -2   1   5  340.47   21.60
  -2   1   5  306.17   19.00
   1  -1  -5    8.00    4.10
   1  -1  -5   10.70    3.90
   1  -1  -5    5.40    5.60
   1  -1  -5    2.30    4.10
   1  -1  -5    7.00    4.30
  -1   1   5    9.60    5.40
  -1   1   5    8.00    4.30
  -1   1   5    3.60    5.60
  -1   1   5   -4.80    8.60
   0  -1  -5  613.04   32.20
   0  -1  -5  634.94   31.40
   0  -1  -5  633.24   30.30
   0  -1  -5  510.75   31.30
   0  -1  -5  617.24   31.80
   0   1   5  657.23   31.70
   0   1   5  604.14   33.00
   0   1   5  579.54   36.00
   0   1   5  578.04   31.30
  -1  -1  -5 1333.27   65.79
  -1  -1  -5 1310.57   66.49
   1   1   5 1397.46   66.89
   1   1   5 1342.77   70.49
   1   1   5 1287.77   67.49
  -2  -1  -5  866.71   45.90
  -2  -1  -5  892.61   45.10
  -2  -1  -5  850.41   46.70
   2   1   5  848.32   47.20
   2   1   5  919.41   50.79
   2   1   5  965.60   47.60
  -3  -1  -5 1047.50   54.09
  -3  -1  -5 1049.79   53.19
  -3  -1  -5 1002.80   55.09
   3   1   5 1030.40   55.59
   3   1   5 1196.98   59.39
   3   1   5 1028.40   56.39
  -4  -1  -5  175.08   15.50
  -4  -1  -5  146.49   15.40
  -4  -1  -5  159.48   18.50
   4   1   5  187.58   24.20
   4   1   5  122.09   20.80
  -5  -1  -5   25.30   14.60
  -5  -1  -5   -2.80   10.90
  -5  -1  -5   -2.40   11.80
   5   1   5   -2.00   17.50
   5   1   5    7.10   16.60
  -6  -1  -5   42.00   27.90
  -6  -1  -5   59.39   21.20
  -6  -1  -5   71.19   17.20
   6   1   5   36.40   24.20
   6   1   5   95.09   31.20
   6   1   5   66.49   15.30
  -7  -1  -5  197.88   29.70
  -7  -1  -5  205.68   31.80
  -7  -1  -5  234.98   30.70
   7   1   5  192.68   23.90
   7   1   5  203.38   44.20
   7   1   5  178.58   29.90
  -8  -1  -5  172.78   34.30
  -8  -1  -5  200.78   38.60
  -8  -1  -5  196.18   39.10
   8   1   5  149.09   34.50
   8   1   5  196.88   36.00
   8   1   5  225.68   36.40
  -9  -1  -5  110.29   35.90
  -9  -1  -5  145.99   39.40
  -9  -1  -5  147.99   38.80
   9   1   5  152.08   39.90
   9   1   5  106.19   38.50
  11  -2  -5  384.86   44.40
  11  -2  -5  312.97   41.50
 -11   2   5  420.56   50.79
 -11   2   5  261.87   36.80
  10  -2  -5  581.94   46.10
  10  -2  -5  534.25   43.30
 -10   2   5  618.24   49.50
 -10   2   5  424.26   48.10
 -10   2   5  570.64   45.10
   9  -2  -5  353.46   32.50
   9  -2  -5  383.76   34.90
  -9   2   5  279.87   36.10
  -9   2   5  331.07   31.70
  -9   2   5  389.06   36.20
   8  -2  -5   29.00   16.60
   8  -2  -5   52.79   15.80
  -8   2   5   37.30   14.60
  -8   2   5   62.49   18.00
  -8   2   5   27.80   18.20
   7  -2  -5   46.50   13.30
   7  -2  -5   39.40   13.80
   7  -2  -5   57.19   12.10
  -7   2   5   43.90   14.50
  -7   2   5   36.80   11.40
  -7   2   5   49.99   13.60
   6  -2  -5  294.77   21.90
   6  -2  -5  290.27   19.70
   6  -2  -5  245.48   21.90
  -6   2   5  277.27   20.40
  -6   2   5  256.87   19.70
  -6   2   5  296.27   22.60
   5  -2  -5  990.20   52.99
   5  -2  -5 1037.70   52.79
   5  -2  -5 1011.10   51.99
  -5   2   5 1018.60   52.49
  -5   2   5  987.20   52.39
  -5   2   5 1030.60   53.19
   4  -2  -5 1838.32   98.09
   4  -2  -5 1938.71   97.89
   4  -2  -5 2011.90   98.59
  -4   2   5 2044.60   98.99
  -4   2   5 2160.48   98.89
  -4   2   5 1970.50   98.39
  -4   2   5 2011.80   98.59
   3  -2  -5  893.61   44.40
   3  -2  -5  852.41   44.70
   3  -2  -5  862.01   44.20
  -3   2   5  885.01   46.70
  -3   2   5  836.32   45.20
  -3   2   5  852.51   42.80
  -3   2   5  867.11   44.70
   2  -2  -5   28.30    5.30
   2  -2  -5   29.50    5.70
  -2   2   5   30.30    7.10
  -2   2   5   19.90    5.50
  -2   2   5   35.40   10.40
   1  -2  -5  128.89   10.70
   1  -2  -5  137.49   10.60
  -1   2   5  135.09   12.40
  -1   2   5  136.59   17.50
  -1   2   5  126.99   11.00
  -1   2   5  125.79   10.80
   0  -2  -5  152.68   15.10
   0  -2  -5  131.79   11.40
   0  -2  -5  145.49    9.90
   0  -2  -5  146.19   11.50
   0   2   5  160.88   11.50
   0   2   5  153.58   13.30
   0   2   5  143.49   11.40
   0   2   5  130.59   19.20
  -1  -2  -5  909.41   47.90
  -1  -2  -5  901.21   47.50
   1   2   5  904.11   49.10
   1   2   5  945.81   53.19
   1   2   5 1028.20   48.80
  -2  -2  -5 1275.77   64.79
  -2  -2  -5 1318.07   64.19
  -2  -2  -5 1205.48   65.49
   2   2   5 1311.77   69.49
   2   2   5 1241.08   65.89
   2   2   5 1359.66   66.69
  -3  -2  -5  754.22   39.80
  -3  -2  -5  769.62   40.50
  -3  -2  -5  729.73   41.70
   3   2   5  728.33   42.00
   3   2   5  777.72   46.50
   3   2   5  752.92   43.90
  -4  -2  -5   65.59   13.00
  -4  -2  -5   49.50   11.50
  -4  -2  -5   77.39   11.50
   4   2   5   69.69   18.60
   4   2   5   49.70   15.70
  -5  -2  -5    9.50   14.40
  -5  -2  -5   -2.70   12.40
  -5  -2  -5   -1.50   13.20
   5   2   5  -15.10   17.60
   5   2   5  -20.50   20.30
  -6  -2  -5  160.28   21.80
  -6  -2  -5  197.18   25.40
  -6  -2  -5  254.77   31.90
   6   2   5  197.48   29.20
   6   2   5  138.59   28.00
  -7  -2  -5  369.16   48.80
  -7  -2  -5  302.87   38.40
  -7  -2  -5  292.57   34.40
   7   2   5  399.56   46.10
   7   2   5  200.78   34.60
  -8  -2  -5  216.08   40.10
  -8  -2  -5  147.89   34.90
  -8  -2  -5  226.48   36.60
   8   2   5  201.98   37.00
   8   2   5  161.58   38.50
   9   2   5  161.38   43.20
  11  -3  -5  330.57   37.80
  11  -3  -5  281.67   37.60
  11  -3  -5  345.47   43.70
 -11   3   5  307.07   46.00
 -11   3   5  292.87   39.40
 -11   3   5  354.36   52.39
  10  -3  -5  150.08   27.20
  10  -3  -5  143.79   28.40
  10  -3  -5  201.58   29.60
 -10   3   5  244.48   32.40
 -10   3   5  202.88   29.30
   9  -3  -5  135.09   23.80
   9  -3  -5  153.58   24.00
   9  -3  -5  141.19   23.80
  -9   3   5  129.19   23.00
  -9   3   5  102.09   26.00
  -9   3   5  187.78   29.30
   8  -3  -5    5.80   17.00
   8  -3  -5    4.80   17.20
   8  -3  -5   41.00   14.90
  -8   3   5    8.10   16.50
  -8   3   5  -11.90   18.60
  -8   3   5    8.60   14.70
   7  -3  -5  142.09   18.40
   7  -3  -5  127.99   17.90
   7  -3  -5  148.39   21.00
  -7   3   5  172.28   20.80
  -7   3   5  146.19   18.20
  -7   3   5  175.38   24.00
   6  -3  -5  793.92   43.10
   6  -3  -5  776.42   43.80
   6  -3  -5  815.42   44.70
  -6   3   5  816.92   43.90
  -6   3   5  744.23   43.30
  -6   3   5  847.62   45.70
   5  -3  -5 1471.85   73.69
   5  -3  -5 1425.66   72.79
   5  -3  -5 1464.95   73.49
  -5   3   5 1446.36   74.29
  -5   3   5 1451.15   73.49
   4  -3  -5 2320.47  107.99
   4  -3  -5 2239.78  108.99
   4  -3  -5 2031.40  107.29
   4  -3  -5 2190.08  108.59
  -4   3   5 2245.58  114.59
  -4   3   5 2248.68  109.79
  -4   3   5 2240.08  109.29
   3  -3  -5  453.35   25.20
   3  -3  -5  449.06   25.00
  -3   3   5  440.26   26.50
  -3   3   5  413.36   28.30
  -3   3   5  459.45   25.80
   2  -3  -5   88.79    9.80
   2  -3  -5   79.79    9.60
   2  -3  -5   87.89   10.30
  -2   3   5   69.39    9.70
  -2   3   5   96.39   13.60
  -2   3   5   90.79   11.90
   1  -3  -5  175.28   13.00
   1  -3  -5  173.18   12.10
   1  -3  -5  176.28   13.20
  -1   3   5  166.38   13.00
  -1   3   5  179.78   15.20
  -1   3   5  175.58   18.50
   0  -3  -5  100.49   10.40
   0  -3  -5   93.89   13.50
   0  -3  -5  105.89   10.00
   0  -3  -5  111.59   10.80
   0   3   5  106.09   13.10
   0   3   5   87.09   10.80
   0   3   5  119.79   18.20
   0   3   5  118.79   11.10
  -1  -3  -5  980.40   51.19
  -1  -3  -5  969.90   51.49
  -1  -3  -5 1007.10   49.90
   1   3   5 1158.78   53.09
   1   3   5 1040.20   56.79
   1   3   5  879.21   51.59
   1   3   5 1018.70   52.99
  -2  -3  -5 1238.98   63.29
  -2  -3  -5 1225.38   62.79
   2   3   5 1237.08   64.69
   2   3   5 1238.18   65.59
   2   3   5 1291.47   68.59
  -3  -3  -5  714.23   39.60
  -3  -3  -5  667.43   36.90
  -3  -3  -5  648.84   37.20
   3   3   5  676.03   44.80
   3   3   5  668.33   39.80
  -4  -3  -5   67.79   11.90
  -4  -3  -5   61.89   14.20
  -4  -3  -5   66.79   13.10
   4   3   5   51.79   15.40
   4   3   5   60.69   20.40
   4   3   5   27.90   17.00
  -5  -3  -5   54.09   19.90
  -5  -3  -5   54.79   14.80
  -5  -3  -5   67.79   17.70
   5   3   5   54.49   20.60
   5   3   5   43.20   24.70
  -6  -3  -5  274.97   34.00
  -6  -3  -5  288.27   34.80
  -6  -3  -5  234.68   28.10
   6   3   5  199.98   30.10
   6   3   5  252.37   34.70
  -7  -3  -5  334.07   38.30
  -7  -3  -5  374.46   46.30
   7   3   5  338.87   46.50
   7   3   5  420.86   51.39
  -8  -3  -5   94.49   35.30
  -8  -3  -5  206.88   39.30
   8   3   5  165.08   39.60
   8   3   5  159.08   37.80
  11  -4  -5  337.47   46.80
  11  -4  -5  351.46   47.60
  11  -4  -5  241.78   35.20
 -11   4   5  341.77   54.79
 -11   4   5  230.58   37.30
 -11   4   5  310.87   41.00
  10  -4  -5  171.98   29.10
  10  -4  -5  140.59   29.80
  10  -4  -5  146.49   28.00
 -10   4   5  111.29   28.90
 -10   4   5  207.88   32.00
 -10   4   5  132.99   35.50
   9  -4  -5   44.90   22.10
   9  -4  -5  112.49   36.80
   9  -4  -5   83.69   23.30
  -9   4   5   50.59   36.30
  -9   4   5   90.89   37.40
  -9   4   5   48.50   21.70
   8  -4  -5    5.90   17.30
   8  -4  -5   23.70   15.70
   8  -4  -5    2.00   27.80
  -8   4   5   31.00   23.80
  -8   4   5    7.90   17.50
  -8   4   5    4.30   21.20
   7  -4  -5  127.89   16.10
   7  -4  -5  123.79   17.10
   7  -4  -5  104.39   17.00
  -7   4   5  153.08   19.80
  -7   4   5  139.99   20.40
   6  -4  -5 1351.66   69.59
   6  -4  -5 1346.87   69.59
   6  -4  -5 1344.97   70.69
  -6   4   5 1325.37   70.09
  -6   4   5 1435.06   72.89
   5  -4  -5 1210.48   61.99
   5  -4  -5 1169.28   61.09
   5  -4  -5 1244.28   60.59
  -5   4   5 1211.48   61.99
  -5   4   5 1237.28   63.39
  -5   4   5 1095.99   62.09
   4  -4  -5  273.47   17.30
   4  -4  -5  285.87   19.00
   4  -4  -5  272.97   18.30
  -4   4   5  207.88   22.30
  -4   4   5  281.87   19.40
  -4   4   5  282.77   20.80
   3  -4  -5   73.29   10.40
   3  -4  -5   70.09   10.70
  -3   4   5   72.99   10.60
  -3   4   5   80.99   11.00
  -3   4   5   85.59   14.40
   2  -4  -5    0.10    5.70
   2  -4  -5   -1.60    6.10
   2  -4  -5    3.80    5.90
  -2   4   5   -1.40    6.00
  -2   4   5    3.00    7.80
  -2   4   5   -3.40    9.90
   1  -4  -5  271.57   17.50
   1  -4  -5  274.27   17.60
   1  -4  -5  258.47   16.90
  -1   4   5  264.27   19.50
  -1   4   5  259.97   22.60
  -1   4   5  259.17   17.70
   0  -4  -5  847.02   43.80
   0  -4  -5  807.62   43.70
   0  -4  -5  817.62   43.00
   0   4   5  881.71   45.70
   0   4   5  844.42   48.20
  -1  -4  -5 1088.99   56.99
  -1  -4  -5 1116.89   58.39
  -1  -4  -5 1169.28   58.49
   1   4   5 1137.59   62.79
   1   4   5 1155.88   60.29
   1   4   5 1211.18   60.59
  -2  -4  -5  887.71   47.60
  -2  -4  -5  893.11   46.30
  -2  -4  -5  949.71   47.70
   2   4   5  924.21   53.69
   2   4   5  826.72   50.89
   2   4   5  919.11   49.80
  -3  -4  -5  327.97   26.50
  -3  -4  -5  311.47   22.70
  -3  -4  -5  325.07   22.50
   3   4   5  332.87   26.30
   3   4   5  225.18   28.90
   3   4   5  293.07   31.70
  -4  -4  -5    6.80   14.80
  -4  -4  -5    2.40   11.60
  -4  -4  -5   -3.90   13.20
   4   4   5   -3.60   16.00
   4   4   5  -19.40   22.40
   4   4   5   12.50   19.30
  -5  -4  -5  106.79   18.80
  -5  -4  -5   52.69   16.40
   5   4   5   93.99   28.90
  -6  -4  -5  168.08   27.60
  -6  -4  -5  198.48   29.60
  -6  -4  -5  172.38   25.20
   6   4   5  105.09   30.00
   6   4   5  185.48   36.10
  -7  -4  -5  220.88   32.40
  -7  -4  -5  341.57   45.50
  -7  -4  -5  316.37   43.70
   7   4   5  226.48   39.90
   7   4   5  184.78   37.50
  -8  -4  -5   97.79   36.40
  -8  -4  -5  129.99   40.80
   8   4   5  181.08   45.80
   8   4   5  102.19   36.40
  11  -5  -5  155.28   33.90
  11  -5  -5  191.58   35.20
  11  -5  -5  166.68   35.70
 -11   5   5  153.18   43.20
 -11   5   5  195.28   36.70
  10  -5  -5  117.19   29.30
  10  -5  -5  127.49   31.30
  10  -5  -5  178.78   30.10
 -10   5   5  114.59   36.70
 -10   5   5  183.58   30.80
   9  -5  -5   60.39   22.80
   9  -5  -5   56.19   24.70
   9  -5  -5   94.79   22.30
  -9   5   5   36.40   29.40
  -9   5   5   41.20   22.20
   8  -5  -5   -8.50   19.10
   8  -5  -5   18.70   18.20
   8  -5  -5   -1.40   16.00
  -8   5   5   26.50   17.40
  -8   5   5   12.30   22.70
   7  -5  -5  446.86   30.40
   7  -5  -5  461.45   31.40
   7  -5  -5  357.36   45.20
  -7   5   5  461.25   36.10
  -7   5   5  417.36   31.40
   6  -5  -5  841.92   46.60
   6  -5  -5  845.42   47.80
   6  -5  -5  895.11   46.70
  -6   5   5  919.91   50.79
  -6   5   5  769.92   48.10
  -6   5   5  864.61   47.90
   5  -5  -5  684.53   35.10
   5  -5  -5  659.73   36.60
   5  -5  -5  672.43   37.20
  -5   5   5  535.75   38.90
  -5   5   5  669.83   37.60
  -5   5   5  655.13   39.50
   4  -5  -5  192.58   16.10
   4  -5  -5  156.48   13.30
   4  -5  -5  171.68   16.60
  -4   5   5  204.18   17.10
  -4   5   5  188.38   18.70
  -4   5   5  164.08   21.50
   3  -5  -5   78.19   10.50
   3  -5  -5   72.09   10.00
  -3   5   5   66.29   14.80
  -3   5   5   65.29   11.50
  -3   5   5   86.39   12.50
   2  -5  -5    6.20    6.40
   2  -5  -5   11.20    7.70
   2  -5  -5   11.30    7.40
  -2   5   5    1.60    6.80
  -2   5   5    4.90   12.30
  -2   5   5   -1.10    8.70
   1  -5  -5  252.67   18.40
   1  -5  -5  256.97   18.10
   1  -5  -5  258.17   18.60
  -1   5   5  284.07   25.00
  -1   5   5  301.57   21.60
   0  -5  -5  859.11   45.60
   0  -5  -5  863.11   44.80
   0  -5  -5  849.22   45.40
   0   5   5  883.51   47.80
   0   5   5  854.01   49.70
  -1  -5  -5  965.80   50.99
  -1  -5  -5  983.70   51.29
  -1  -5  -5  977.10   49.90
   1   5   5  946.11   54.09
   1   5   5  990.60   56.49
   1   5   5  987.20   53.39
  -2  -5  -5  539.05   29.00
  -2  -5  -5  543.45   31.00
  -2  -5  -5  531.85   30.80
   2   5   5  470.95   37.60
   2   5   5  538.35   34.20
   2   5   5  418.36   35.80
  -3  -5  -5   88.49   13.50
  -3  -5  -5   93.09   14.40
  -3  -5  -5   94.29   14.20
   3   5   5  101.29   17.60
   3   5   5   56.89   21.60
   3   5   5   92.89   21.20
  -4  -5  -5    7.90   16.30
  -4  -5  -5   28.30   17.00
  -4  -5  -5   -5.40   14.20
   4   5   5  -20.20   22.00
   4   5   5   21.40   25.30
   4   5   5   14.80   18.20
  -5  -5  -5  231.28   30.00
  -5  -5  -5  219.28   33.20
  -5  -5  -5  208.58   26.80
   5   5   5  179.78   30.80
   5   5   5  173.88   35.10
  -6  -5  -5  192.58   28.40
  -6  -5  -5  226.18   37.70
  -6  -5  -5  170.48   27.70
   6   5   5  182.58   39.10
   6   5   5  183.58   36.20
  -7  -5  -5  197.98   34.50
  -7  -5  -5  240.88   36.20
   7   5   5  279.77   46.50
   7   5   5  210.18   40.90
  10  -6  -5  203.28   30.20
  10  -6  -5  172.18   32.80
  10  -6  -5  185.48   31.30
 -10   6   5  291.47   41.10
 -10   6   5  102.19   40.90
   9  -6  -5    7.00   23.20
   9  -6  -5   39.30   25.20
   9  -6  -5   24.80   22.40
  -9   6   5    1.30   31.20
  -9   6   5   -1.70   22.40
   8  -6  -5   54.79   21.20
  -8   6   5   41.50   26.20
  -8   6   5   83.79   19.80
   7  -6  -5  506.95   37.10
   7  -6  -5  515.15   35.40
   7  -6  -5  523.05   35.10
  -7   6   5  596.54   42.70
   6  -6  -5  519.95   31.50
   6  -6  -5  562.14   33.30
  -6   6   5  475.15   36.00
  -6   6   5  489.65   50.59
  -6   6   5  531.25   34.50
   5  -6  -5 1217.18   60.39
   5  -6  -5 1150.08   60.89
   5  -6  -5 1172.88   58.39
  -5   6   5 1189.98   61.29
  -5   6   5  979.00   62.79
  -5   6   5 1193.88   63.49
   4  -6  -5  535.05   31.90
   4  -6  -5  542.95   31.70
  -4   6   5  512.45   34.30
  -4   6   5  568.04   32.70
  -4   6   5  484.75   36.60
   3  -6  -5   36.10   10.10
   3  -6  -5   36.90   10.00
   3  -6  -5   49.80   10.20
  -3   6   5   43.60   12.40
  -3   6   5   35.10    9.60
  -3   6   5   35.90   15.30
   2  -6  -5   92.69   11.30
   2  -6  -5   88.09   11.90
   2  -6  -5   93.79   14.00
  -2   6   5   72.59   11.10
  -2   6   5   78.29   13.70
  -2   6   5   79.59   16.40
   1  -6  -5  477.65   28.10
   1  -6  -5  490.35   28.20
   1  -6  -5  429.86   28.40
  -1   6   5  457.25   34.30
  -1   6   5  475.65   31.40
   0  -6  -5  686.63   39.30
   0  -6  -5  683.03   38.80
   0  -6  -5  715.53   38.50
   0   6   5  712.93   41.90
   0   6   5  695.73   44.60
  -1  -6  -5  789.12   43.50
  -1  -6  -5  757.62   43.10
  -1  -6  -5  789.32   42.30
   1   6   5  798.12   49.10
   1   6   5  807.02   46.70
  -2  -6  -5  628.94   34.60
  -2  -6  -5  596.34   36.10
  -2  -6  -5  550.04   41.70
   2   6   5  688.23   40.80
   2   6   5  453.95   58.49
  -3  -6  -5   55.49   13.80
  -3  -6  -5   33.60   14.50
  -3  -6  -5   67.19   11.90
   3   6   5   12.10   20.30
   3   6   5   67.89   18.90
   3   6   5   42.30   23.00
  -4  -6  -5   52.19   22.00
  -4  -6  -5   45.60   17.50
  -4  -6  -5   72.79   23.10
   4   6   5   26.30   31.90
   4   6   5   42.00   42.70
   4   6   5   69.29   21.00
  -5  -6  -5  174.18   24.80
  -5  -6  -5  236.58   33.00
   5   6   5  294.67   38.30
   5   6   5  174.48   34.20
   5   6   5  190.68   38.90
  -6  -6  -5  184.98   28.40
  -6  -6  -5  122.89   35.20
  -6  -6  -5  197.08   31.90
   6   6   5  160.58   37.20
   6   6   5  237.18   43.90
  10  -7  -5  101.79   32.60
  10  -7  -5   90.99   29.40
  10  -7  -5   60.99   30.00
 -10   7   5  109.89   30.80
 -10   7   5  121.99   42.70
   9  -7  -5   -6.10   23.00
   9  -7  -5    9.10   23.50
   9  -7  -5   26.00   26.80
  -9   7   5   12.60   35.30
  -9   7   5   -1.20   23.60
   8  -7  -5   96.29   20.30
   8  -7  -5   76.89   23.40
   8  -7  -5  137.19   22.30
  -8   7   5   91.29   21.60
  -8   7   5   94.19   30.30
   7  -7  -5  323.17   32.80
   7  -7  -5  393.76   29.00
   7  -7  -5  327.87   35.90
  -7   7   5  324.07   39.70
  -7   7   5  385.46   39.80
  -7   7   5  347.17   32.00
   6  -7  -5  706.33   41.40
   6  -7  -5  663.33   42.90
   6  -7  -5  716.23   39.60
  -6   7   5  731.43   47.20
  -6   7   5  723.03   43.10
  -6   7   5  583.34   46.30
   5  -7  -5  516.95   30.10
   5  -7  -5  481.45   32.60
   5  -7  -5  534.35   33.80
  -5   7   5  535.75   33.90
  -5   7   5  519.35   37.40
  -5   7   5  426.66   39.10
   4  -7  -5  133.69   19.00
   4  -7  -5  136.79   18.00
  -4   7   5  135.29   28.90
  -4   7   5  141.69   22.20
  -4   7   5  151.38   19.50
   3  -7  -5    0.90   11.00
   3  -7  -5    3.70   10.60
   3  -7  -5   -5.40    9.60
  -3   7   5    4.20   13.50
  -3   7   5    6.90   10.60
  -3   7   5   -7.40   17.40
   2  -7  -5  126.19   18.00
   2  -7  -5  111.39   17.00
   2  -7  -5  138.39   16.80
  -2   7   5  139.69   18.50
  -2   7   5  118.69   20.40
  -2   7   5  124.79   18.00
   1  -7  -5  517.25   33.00
   1  -7  -5  588.94   33.40
   1  -7  -5  548.95   32.70
  -1   7   5  556.64   37.20
  -1   7   5  506.45   39.80
   0  -7  -5  739.73   41.00
   0  -7  -5  699.53   40.80
   0   7   5  653.93   53.79
   0   7   5  754.32   45.40
  -1  -7  -5  455.45   28.70
  -1  -7  -5  417.76   28.50
  -1  -7  -5  433.26   29.00
   1   7   5  380.36   37.00
   1   7   5  443.46   34.60
   1   7   5  341.37   35.30
  -2  -7  -5  340.47   26.60
  -2  -7  -5  288.77   25.40
  -2  -7  -5  311.37   25.10
   2   7   5  307.07   37.20
   2   7   5  324.07   32.80
   2   7   5  285.67   37.10
  -3  -7  -5   18.20   17.40
  -3  -7  -5   25.50   15.60
  -3  -7  -5   36.90   15.00
   3   7   5   11.90   23.10
   3   7   5   34.00   30.10
   3   7   5    5.50   26.30
  -4  -7  -5   42.00   20.20
  -4  -7  -5   88.39   21.90
  -4  -7  -5   20.70   30.00
   4   7   5   -4.00   28.40
   4   7   5   41.70   32.40
   4   7   5   25.80   43.90
  -5  -7  -5  214.78   30.40
  -5  -7  -5  205.58   30.60
  -5  -7  -5  172.48   27.10
   5   7   5  207.98   37.00
   5   7   5  221.98   43.30
   5   7   5  289.77   42.90
   9  -8  -5  -12.70   28.20
   9  -8  -5  -14.60   24.50
   9  -8  -5   17.90   26.30
  -9   8   5   -8.90   25.60
  -9   8   5    2.20   35.10
   8  -8  -5  110.59   28.80
   8  -8  -5  104.49   23.50
   8  -8  -5  133.29   22.50
  -8   8   5  163.78   36.20
  -8   8   5  111.99   23.30
   7  -8  -5  211.18   30.20
   7  -8  -5  192.48   29.00
   7  -8  -5  214.58   32.50
  -7   8   5  243.98   36.10
  -7   8   5  222.18   29.10
  -7   8   5  252.37   33.00
   6  -8  -5  481.55   37.60
   6  -8  -5  486.35   34.00
   6  -8  -5  470.75   34.70
  -6   8   5  379.56   42.90
  -6   8   5  491.65   42.10
  -6   8   5  558.84   36.10
   5  -8  -5  367.66   31.40
   5  -8  -5  337.47   28.70
  -5   8   5  427.76   32.20
  -5   8   5  379.06   39.80
  -5   8   5  389.56   35.40
   4  -8  -5  148.39   21.70
   4  -8  -5  163.48   23.40
   4  -8  -5  186.88   22.20
  -4   8   5  219.28   23.20
  -4   8   5  209.98   32.80
  -4   8   5  195.08   28.20
   3  -8  -5   17.80   12.70
   3  -8  -5   25.20   15.10
   3  -8  -5   14.50   12.00
  -3   8   5   39.20   12.70
  -3   8   5   18.70   24.70
  -3   8   5   34.00   17.80
   2  -8  -5  133.29   21.00
   2  -8  -5  136.99   18.80
   2  -8  -5  128.79   16.50
  -2   8   5  136.89   21.20
  -2   8   5  100.19   22.10
   1  -8  -5  146.99   18.00
   1  -8  -5  182.58   20.60
   1  -8  -5  180.08   20.20
  -1   8   5  163.78   24.80
  -1   8   5  186.08   25.00
   0  -8  -5  497.45   34.90
   0  -8  -5  580.44   35.20
   0  -8  -5  517.85   34.30
   0   8   5  544.15   55.19
   0   8   5  555.24   43.80
  -1  -8  -5  374.26   30.60
  -1  -8  -5  285.37   28.10
  -1  -8  -5  320.47   27.70
   1   8   5  274.07   38.10
   1   8   5  363.96   41.70
  -2  -8  -5  117.39   19.60
  -2  -8  -5  114.99   19.00
   2   8   5  130.39   29.00
   2   8   5  142.99   28.70
   2   8   5  195.68   32.40
  -3  -8  -5   11.00   18.40
  -3  -8  -5   30.70   21.30
  -3  -8  -5   -2.70   18.00
   3   8   5    0.00   30.20
   3   8   5   -0.10   26.20
   3   8   5   -6.50   39.10
  -4  -8  -5  131.19   26.70
  -4  -8  -5  131.99   24.80
  -4  -8  -5  186.38   28.90
   4   8   5  146.49   39.10
   4   8   5  122.89   34.70
   4   8   5  160.68   29.50
   8  -9  -5  146.39   28.90
   8  -9  -5   77.49   28.00
   8  -9  -5  110.19   25.60
  -8   9   5  105.19   35.30
  -8   9   5  124.49   25.30
   7  -9  -5  272.27   36.90
   7  -9  -5  373.86   33.80
   7  -9  -5  264.27   33.40
  -7   9   5  293.77   34.70
  -7   9   5  356.86   45.80
   6  -9  -5  539.65   40.00
   6  -9  -5  582.74   42.60
   6  -9  -5  569.14   45.00
  -6   9   5  577.04   41.30
  -6   9   5  518.15   49.20
  -6   9   5  543.35   48.20
   5  -9  -5  403.66   32.70
   5  -9  -5  377.16   35.30
   5  -9  -5  397.16   33.50
  -5   9   5  425.56   41.30
  -5   9   5  417.06   45.80
  -5   9   5  432.16   33.70
   4  -9  -5   87.89   17.60
   4  -9  -5   77.39   21.00
   4  -9  -5   63.59   18.70
  -4   9   5   96.69   26.70
  -4   9   5   83.59   23.00
  -4   9   5   93.79   26.50
   3  -9  -5   17.80   16.10
   3  -9  -5    2.50   14.10
   3  -9  -5   26.70   16.00
  -3   9   5  -10.00   23.40
  -3   9   5   17.10   20.40
   2  -9  -5  232.38   25.00
   2  -9  -5  196.58   25.10
   2  -9  -5  231.18   26.50
  -2   9   5  254.27   31.00
  -2   9   5  213.38   33.00
   1  -9  -5  304.77   28.70
   1  -9  -5  333.07   29.50
   1  -9  -5  359.56   30.10
  -1   9   5  322.17   41.90
  -1   9   5  365.46   36.30
   0  -9  -5  284.57   28.60
   0  -9  -5  306.77   29.50
   0  -9  -5  365.46   33.70
   0   9   5  302.17   42.50
   0   9   5  344.57   38.40
  -1  -9  -5  208.78   29.00
  -1  -9  -5  231.98   32.40
  -1  -9  -5  262.97   28.20
   1   9   5  253.27   36.70
   1   9   5  189.78   34.00
  -2  -9  -5   71.69   19.40
  -2  -9  -5  123.19   20.20
  -2  -9  -5  113.59   22.80
   2   9   5   90.49   31.30
   2   9   5   30.80   25.10
  -3  -9  -5   23.50   32.20
  -3  -9  -5   -1.90   22.60
  -3  -9  -5    8.40   21.50
   3   9   5  -11.30   33.70
   3   9   5  -20.50   28.90
   3   9   5  -16.90   34.00
   6 -10  -5  368.66   34.70
   6 -10  -5  327.87   35.20
   6 -10  -5  287.87   37.80
  -6  10   5  322.27   51.39
  -6  10   5  426.46   44.70
  -6  10   5  362.96   36.40
   5 -10  -5  192.98   25.50
   5 -10  -5  207.88   29.10
   5 -10  -5  191.18   24.20
  -5  10   5  212.48   31.60
  -5  10   5  244.88   31.30
  -5  10   5  152.48   34.50
   4 -10  -5   27.80   16.40
   4 -10  -5   12.10   18.20
   4 -10  -5   56.29   20.00
  -4  10   5   15.70   17.60
  -4  10   5  -18.90   28.90
  -4  10   5   31.60   25.10
   3 -10  -5   22.50   18.50
   3 -10  -5   14.00   19.50
   3 -10  -5   21.90   15.70
  -3  10   5   46.60   23.80
  -3  10   5   18.90   29.50
   2 -10  -5  252.77   31.00
   2 -10  -5  238.38   30.20
   2 -10  -5  295.27   28.30
  -2  10   5  311.67   43.60
  -2  10   5  195.68   35.80
   1 -10  -5  265.17   32.40
   1 -10  -5  350.96   34.00
   1 -10  -5  360.46   30.10
  -1  10   5  292.67   47.30
  -1  10   5  378.56   41.10
   0 -10  -5  277.47   32.00
   0 -10  -5  190.58   28.80
   0 -10  -5  177.08   26.20
   0  10   5  246.38   36.10
  -1 -10  -5  238.88   32.60
  -1 -10  -5  236.58   31.00
   1  10   5  147.29   34.90
   1  10   5  189.08   31.70
   2  12  -6   29.70   21.30
   2  12  -6   78.69   26.00
   2  12  -6   62.19   23.60
  -2 -12   6   63.69   23.20
  -2 -12   6   55.49   20.50
   1  12  -6   -6.40   21.00
   1  12  -6   25.50   20.60
  -1 -12   6  -16.50   18.70
  -1 -12   6   16.90   20.90
   0  12  -6   49.50   20.40
   0  12  -6   86.19   21.80
   0 -12   6  101.99   21.60
   0 -12   6   33.00   22.90
  -1  12  -6  260.77   33.50
  -1  12  -6  214.88   28.10
   1 -12   6  197.68   29.00
   1 -12   6  259.77   34.70
  -2  12  -6  358.96   39.80
  -2  12  -6  412.56   40.20
  -2  12  -6  337.57   37.10
   2 -12   6  419.76   40.00
   2 -12   6  352.76   43.30
   4  11  -6  277.67   36.60
   4  11  -6  295.27   36.10
   4  11  -6  295.87   36.90
  -4 -11   6  242.58   32.60
  -4 -11   6  243.68   34.10
  -4 -11   6  269.67   35.50
   3  11  -6  246.28   32.50
   3  11  -6  233.88   27.80
   3  11  -6  266.77   34.30
  -3 -11   6  293.57   38.70
  -3 -11   6  236.48   32.00
  -3 -11   6  217.38   25.40
   2  11  -6   49.50   19.80
   2  11  -6   18.40   18.80
   2  11  -6   57.49   23.20
  -2 -11   6   40.90   20.70
  -2 -11   6   39.70   18.30
   1  11  -6   39.20   18.40
   1  11  -6   -2.50   17.00
  -1 -11   6   20.80   19.20
  -1 -11   6   30.90   16.70
   0  11  -6  164.38   25.60
   0  11  -6  140.09   22.60
   0  11  -6  156.48   22.00
   0 -11   6  142.29   23.30
   0 -11   6  156.08   22.60
  -1  11  -6  504.65   42.90
  -1  11  -6  460.35   39.20
  -1  11  -6  462.95   38.40
   1 -11   6  478.85   39.50
   1 -11   6  496.45   41.50
  -2  11  -6  643.34   46.20
  -2  11  -6  633.74   47.30
  -2  11  -6  665.63   46.70
   2 -11   6  670.03   46.90
   2 -11   6  673.73   48.90
  -3  11  -6  265.47   38.30
  -3  11  -6  229.48   35.90
  -3  11  -6  254.87   33.90
   3 -11   6  203.68   27.20
   3 -11   6  247.28   36.90
  -4  11  -6  118.29   22.40
  -4  11  -6  122.49   28.00
  -4  11  -6   87.59   27.60
   4 -11   6   58.59   25.30
   4 -11   6   98.29   24.50
   4 -11   6  109.99   25.70
   6  10  -6   99.39   27.40
   6  10  -6   96.49   23.60
  -6 -10   6   97.89   33.10
  -6 -10   6   10.70   26.80
   5  10  -6  244.38   34.10
   5  10  -6  228.58   33.60
   5  10  -6  225.78   33.10
  -5 -10   6  219.68   34.10
  -5 -10   6  215.08   29.30
   4  10  -6  328.87   35.10
   4  10  -6  431.96   36.60
   4  10  -6  450.75   36.30
  -4 -10   6  467.75   41.30
  -4 -10   6  439.66   35.50
  -4 -10   6  376.86   43.80
   3  10  -6  259.27   31.20
   3  10  -6  299.57   30.70
   3  10  -6  274.47   30.40
  -3 -10   6  323.17   29.40
  -3 -10   6  354.56   35.90
  -3 -10   6  281.57   33.30
   2  10  -6   39.30   16.10
   2  10  -6   60.69   17.40
  -2 -10   6   61.99   15.60
  -2 -10   6   60.29   18.20
  -2 -10   6   57.39   18.40
   1  10  -6   51.19   16.30
   1  10  -6   49.60   15.50
  -1 -10   6   34.80   14.40
  -1 -10   6   42.60   16.80
   0  10  -6  110.59   15.00
   0  10  -6   84.69   17.40
   0  10  -6  109.09   17.60
   0 -10   6  112.59   19.30
   0 -10   6   84.59   17.20
  -1  10  -6  194.78   25.80
  -1  10  -6  181.18   28.00
  -1  10  -6  191.38   27.50
   1 -10   6  193.18   23.30
   1 -10   6  221.28   27.40
  -2  10  -6  380.66   33.10
  -2  10  -6  372.66   34.70
  -2  10  -6  369.36   34.40
   2 -10   6  397.76   34.00
   2 -10   6  421.06   36.80
   2 -10   6  381.96   36.10
  -3  10  -6  175.48   27.20
  -3  10  -6  179.98   26.20
  -3  10  -6  203.28   25.80
   3 -10   6  180.68   25.40
   3 -10   6  182.38   23.00
   3 -10   6  161.98   23.90
  -4  10  -6   59.79   24.40
  -4  10  -6   43.20   19.30
  -4  10  -6    8.40   25.00
   4 -10   6   23.50   20.20
   4 -10   6   52.89   23.70
   4 -10   6    4.00   21.30
  -5  10  -6   33.90   30.20
  -5  10  -6   36.20   27.30
  -5  10  -6   46.70   22.00
   5 -10   6   19.10   25.00
   5 -10   6   15.60   25.80
   5 -10   6   29.30   22.60
   7   9  -6   50.99   24.10
   7   9  -6   41.80   23.40
  -7  -9   6   31.00   33.40
  -7  -9   6  -49.10   32.10
   6   9  -6  172.58   36.20
   6   9  -6  223.98   31.20
   6   9  -6  155.78   25.40
  -6  -9   6  178.88   28.30
  -6  -9   6  158.08   33.00
   5   9  -6  472.65   35.40
   5   9  -6  444.96   36.10
  -5  -9   6  454.45   40.10
  -5  -9   6  371.36   44.40
   4   9  -6  651.23   41.40
   4   9  -6  629.14   41.50
  -4  -9   6  651.73   44.70
  -4  -9   6  610.04   46.60
  -4  -9   6  644.54   41.40
   3   9  -6  359.46   29.20
   3   9  -6  321.57   28.80
  -3  -9   6  333.97   27.30
  -3  -9   6  297.47   30.20
  -3  -9   6  311.47   31.50
   2   9  -6   11.00   11.70
  -2  -9   6    7.60   11.50
  -2  -9   6    4.30   13.20
  -2  -9   6   19.00   14.40
   1   9  -6  156.08   21.30
   1   9  -6  190.38   22.00
  -1  -9   6  145.19   21.00
  -1  -9   6  162.88   25.30
   0   9  -6  194.58   22.70
   0   9  -6  201.48   22.00
   0   9  -6  220.48   24.30
   0  -9   6  212.58   24.50
   0  -9   6  211.48   23.30
  -1   9  -6  274.97   26.10
  -1   9  -6  191.08   24.10
  -1   9  -6  228.78   23.50
   1  -9   6  200.48   26.40
   1  -9   6  213.38   25.50
   1  -9   6  198.98   23.70
  -2   9  -6  516.65   35.80
  -2   9  -6  554.14   37.20
  -2   9  -6  548.05   39.50
   2  -9   6  530.05   42.20
   2  -9   6  505.05   37.50
   2  -9   6  496.55   38.10
  -3   9  -6  466.65   47.90
  -3   9  -6  531.45   39.80
  -3   9  -6  511.25   36.60
   3  -9   6  503.45   39.90
   3  -9   6  568.84   37.50
   3  -9   6  524.75   39.10
  -4   9  -6   28.60   23.60
  -4   9  -6   41.50   23.40
  -4   9  -6   19.70   16.30
   4  -9   6   53.89   18.50
   4  -9   6    1.80   19.20
   4  -9   6   33.30   20.70
  -5   9  -6   64.19   26.20
  -5   9  -6   30.70   28.00
   5  -9   6  -22.90   23.50
   5  -9   6   25.40   21.10
   5  -9   6  -10.00   20.50
  -6   9  -6  155.58   34.90
  -6   9  -6  203.08   36.10
   6  -9   6  157.08   31.60
   6  -9   6  149.19   27.90
   8   8  -6   33.50   26.90
   8   8  -6    1.10   24.60
  -8  -8   6   10.00   31.90
  -8  -8   6  -11.90   32.40
   7   8  -6   90.19   23.60
   7   8  -6   63.89   21.90
  -7  -8   6  128.09   29.50
  -7  -8   6   58.39   30.10
   6   8  -6  371.16   34.40
   6   8  -6  480.75   34.40
   6   8  -6  392.96   36.50
  -6  -8   6  341.27   42.40
  -6  -8   6  377.26   39.50
   5   8  -6  369.56   31.20
   5   8  -6  415.86   30.50
   5   8  -6  411.26   30.00
  -5  -8   6  361.66   34.30
   4   8  -6  734.03   44.00
   4   8  -6  733.43   43.00
   4   8  -6  741.53   43.30
  -4  -8   6  705.13   46.70
  -4  -8   6  789.82   43.10
  -4  -8   6  699.83   45.50
   3   8  -6  133.19   19.10
  -3  -8   6  115.29   17.10
  -3  -8   6  114.69   20.60
   2   8  -6   71.09   13.30
   2   8  -6   83.09   13.20
  -2  -8   6   99.69   15.40
  -2  -8   6   89.49   13.50
  -2  -8   6  109.19   14.10
   1   8  -6  391.96   24.70
   1   8  -6  375.56   26.60
   1   8  -6  366.36   26.50
  -1  -8   6  366.76   26.40
  -1  -8   6  346.67   27.80
   0   8  -6  596.34   36.90
   0   8  -6  622.04   37.00
   0   8  -6  599.44   37.00
   0  -8   6  612.34   36.50
   0  -8   6  618.14   37.70
  -1   8  -6  657.23   40.90
  -1   8  -6  688.93   40.60
  -1   8  -6  702.83   41.80
   1  -8   6  679.83   40.00
   1  -8   6  638.64   41.40
   1  -8   6  707.83   41.10
  -2   8  -6  944.91   58.39
  -2   8  -6  912.91   63.49
  -2   8  -6  919.41   55.79
   2  -8   6 1021.70   53.29
   2  -8   6  908.01   60.39
  -3   8  -6  436.06   33.10
  -3   8  -6  403.86   30.70
  -3   8  -6  319.77   36.50
   3  -8   6  463.35   32.40
   3  -8   6  389.46   33.10
   3  -8   6  402.16   30.80
  -4   8  -6  -10.40   21.70
  -4   8  -6   -8.30   18.20
   4  -8   6    1.40   16.30
   4  -8   6  -20.90   18.40
   4  -8   6  -12.30   14.90
  -5   8  -6   34.10   26.00
  -5   8  -6   72.19   24.10
   5  -8   6   39.60   18.90
   5  -8   6   72.99   23.00
   5  -8   6   74.69   20.40
  -6   8  -6  344.07   48.00
  -6   8  -6  283.67   43.60
   6  -8   6  364.96   42.20
   6  -8   6  303.97   38.10
  -7   8  -6  365.16   51.79
  -7   8  -6  498.65   52.59
   7  -8   6  394.06   50.19
   7  -8   6  425.86   46.80
   9   7  -6  110.89   41.20
   9   7  -6   74.19   28.70
   9   7  -6   18.10   30.20
  -9  -7   6  111.29   35.00
  -9  -7   6  110.49   35.70
   8   7  -6   27.00   23.50
   8   7  -6   37.30   24.70
  -8  -7   6   63.99   30.90
  -8  -7   6   10.50   29.60
   7   7  -6  156.68   22.70
   7   7  -6  144.39   22.20
  -7  -7   6  171.48   27.90
  -7  -7   6  183.08   30.30
   6   7  -6  640.74   42.30
   6   7  -6  703.43   39.20
   6   7  -6  706.63   41.30
  -6  -7   6  600.54   46.40
  -6  -7   6  586.24   47.50
   5   7  -6  641.54   36.60
   5   7  -6  629.84   39.80
  -5  -7   6  557.04   43.00
  -5  -7   6  612.64   40.90
   4   7  -6  244.68   21.50
   4   7  -6  237.78   21.70
   4   7  -6  265.17   21.30
  -4  -7   6  239.98   20.90
  -4  -7   6  258.27   25.90
  -4  -7   6  203.08   24.00
   3   7  -6  157.98   17.50
   3   7  -6  163.38   18.50
   3   7  -6  181.78   18.10
  -3  -7   6  178.08   20.80
  -3  -7   6  213.08   20.20
  -3  -7   6  190.08   17.90
   2   7  -6   21.50    8.90
   2   7  -6   21.40    9.10
  -2  -7   6   22.40    8.50
  -2  -7   6   14.10   10.70
  -2  -7   6   21.00    9.90
   1   7  -6  264.47   21.50
   1   7  -6  310.87   22.30
   1   7  -6  289.57   21.60
  -1  -7   6  295.17   23.10
  -1  -7   6  301.97   21.70
   0   7  -6  742.03   42.20
   0   7  -6  741.43   43.90
   0   7  -6  788.62   44.60
   0  -7   6  751.42   42.80
   0  -7   6  759.02   42.00
   0  -7   6  758.92   44.00
  -1   7  -6  769.62   48.70
  -1   7  -6  826.82   47.60
  -1   7  -6  838.32   46.40
   1  -7   6  824.42   47.40
   1  -7   6  854.41   45.80
   1  -7   6  891.91   46.70
  -2   7  -6  325.57   32.70
  -2   7  -6  368.96   27.10
   2  -7   6  388.46   27.10
   2  -7   6  372.56   27.70
   2  -7   6  355.66   26.00
  -3   7  -6  295.97   33.70
  -3   7  -6  321.67   27.90
   3  -7   6  319.37   25.50
   3  -7   6  346.47   26.40
   3  -7   6  302.87   27.40
  -4   7  -6  -20.50   16.50
  -4   7  -6   19.30   37.60
   4  -7   6   38.70   17.10
   4  -7   6  -19.50   13.80
   4  -7   6    0.10   21.40
  -5   7  -6  299.67   35.20
  -5   7  -6  351.56   39.50
   5  -7   6  338.27   34.70
   5  -7   6  318.37   30.30
   5  -7   6  291.67   29.60
  -6   7  -6  559.24   48.10
  -6   7  -6  499.95   46.50
  -6   7  -6  549.35   44.70
   6  -7   6  511.25   42.10
   6  -7   6  456.35   46.20
  -7   7  -6  465.25   49.80
  -7   7  -6  445.96   50.69
  -7   7  -6  501.85   41.90
   7  -7   6  557.74   48.30
   7  -7   6  461.35   51.99
  -8   7  -6  232.18   38.50
  -8   7  -6  256.27   37.70
  -8   7  -6  298.27   41.40
   8  -7   6  275.07   37.50
   8  -7   6  214.58   41.90
  10   6  -6   43.30   32.30
  10   6  -6   98.89   36.60
  10   6  -6  121.39   41.30
 -10  -6   6   87.39   36.70
 -10  -6   6   35.80   37.60
   9   6  -6   58.39   36.20
   9   6  -6  -39.60   26.60
   9   6  -6   -6.40   26.60
  -9  -6   6    3.20   33.50
  -9  -6   6    2.60   31.40
  -9  -6   6   37.30   48.50
   8   6  -6  100.29   21.80
   8   6  -6   74.09   23.40
  -8  -6   6  117.79   31.30
  -8  -6   6   69.59   22.00
  -8  -6   6  102.59   37.00
   7   6  -6  287.17   30.00
   7   6  -6  275.87   28.60
  -7  -6   6  269.87   35.60
  -7  -6   6  308.27   35.90
   6   6  -6  588.44   36.00
   6   6  -6  602.84   32.60
   6   6  -6  503.95   41.60
  -6  -6   6  427.26   39.90
  -6  -6   6  568.34   47.70
   5   6  -6  626.14   38.50
   5   6  -6  690.13   38.50
   5   6  -6  692.83   37.10
  -5  -6   6  626.34   42.00
  -5  -6   6  658.63   41.50
   4   6  -6  331.07   22.70
   4   6  -6  317.17   21.80
   4   6  -6  307.37   22.90
  -4  -6   6  316.97   22.20
  -4  -6   6  319.77   25.50
  -4  -6   6  333.57   26.20
   3   6  -6  281.87   20.30
   3   6  -6  301.27   21.00
   3   6  -6  289.07   21.10
  -3  -6   6  309.87   22.30
  -3  -6   6  301.67   22.90
  -3  -6   6  295.57   20.60
   2   6  -6   83.99   13.00
   2   6  -6   78.89   12.40
  -2  -6   6   88.89   12.50
  -2  -6   6   88.09   12.40
  -2  -6   6   72.59   12.00
   1   6  -6  602.54   33.80
   1   6  -6  606.44   34.50
   1   6  -6  545.65   36.60
  -1  -6   6  630.14   35.30
  -1  -6   6  605.84   33.70
  -1  -6   6  620.24   35.00
   0   6  -6  964.90   58.39
   0   6  -6 1070.69   56.09
   0   6  -6 1079.79   55.79
   0  -6   6 1070.99   55.19
   0  -6   6 1132.79   56.29
   0  -6   6 1068.79   56.49
  -1   6  -6  850.51   45.90
  -1   6  -6  875.51   45.80
  -1   6  -6  722.33   51.09
   1  -6   6  840.32   44.70
   1  -6   6  846.42   45.40
   1  -6   6  851.11   46.30
  -2   6  -6  455.85   35.30
  -2   6  -6  460.55   30.10
   2  -6   6  468.35   30.10
   2  -6   6  431.86   28.40
   2  -6   6  448.46   28.90
  -3   6  -6  271.67   24.40
  -3   6  -6  228.18   30.80
   3  -6   6  269.87   22.60
   3  -6   6  244.88   23.70
   3  -6   6  229.68   21.70
  -4   6  -6   12.30   15.10
  -4   6  -6    8.10   16.60
  -4   6  -6    5.50   19.30
   4  -6   6   10.20   12.50
   4  -6   6   13.20   14.30
  -5   6  -6  373.96   36.10
  -5   6  -6  462.35   33.80
  -5   6  -6  422.56   39.50
   5  -6   6  402.66   36.30
  -6   6  -6  549.15   46.60
  -6   6  -6  477.15   38.80
  -6   6  -6  477.85   44.80
   6  -6   6  564.34   46.80
   6  -6   6  551.44   40.20
  -7   6  -6  531.05   48.40
  -7   6  -6  530.25   49.50
  -7   6  -6  493.75   39.70
   7  -6   6  449.26   49.30
   7  -6   6  429.76   45.50
  -8   6  -6  130.19   28.20
  -8   6  -6  190.18   35.60
  -8   6  -6  272.27   44.70
   8  -6   6  190.18   40.20
   8  -6   6  244.98   36.20
  10   5  -6   46.10   31.60
  10   5  -6    7.00   32.40
  10   5  -6   31.70   36.90
 -10  -5   6    9.90   31.20
 -10  -5   6  -16.90   31.80
 -10  -5   6   71.39   33.40
   9   5  -6  -21.30   31.00
   9   5  -6  -12.40   23.70
   9   5  -6  -34.60   24.00
  -9  -5   6  -20.50   40.20
  -9  -5   6    1.50   29.60
  -9  -5   6    1.90   28.00
   8   5  -6  109.59   19.70
   8   5  -6   69.79   21.00
   8   5  -6   85.39   27.70
  -8  -5   6   50.89   25.60
  -8  -5   6   90.39   28.00
  -8  -5   6   88.99   21.10
   7   5  -6  686.93   40.60
   7   5  -6  636.74   41.30
  -7  -5   6  644.24   46.30
  -7  -5   6  670.33   40.20
  -7  -5   6  595.64   53.19
   6   5  -6  415.16   29.10
   6   5  -6  441.96   28.60
  -6  -5   6  420.66   33.00
  -6  -5   6  383.46   34.20
   5   5  -6  720.53   39.20
   5   5  -6  801.62   43.70
   5   5  -6  733.93   41.60
  -5  -5   6  734.63   44.90
  -5  -5   6  741.33   44.20
   4   5  -6  185.38   16.60
   4   5  -6  196.38   15.50
   4   5  -6  198.48   16.60
  -4  -5   6  198.48   19.90
  -4  -5   6  178.68   16.00
  -4  -5   6  190.68   19.40
   3   5  -6   35.20    7.80
   3   5  -6   38.90    8.10
   3   5  -6   27.10    7.40
  -3  -5   6   31.80    9.60
  -3  -5   6   45.00    7.90
  -3  -5   6   45.60   10.50
   2   5  -6  154.18   20.70
   2   5  -6  127.29   13.30
   2   5  -6  167.18   13.50
   2   5  -6  129.49   14.70
  -2  -5   6  179.18   13.70
  -2  -5   6  149.09   15.60
  -2  -5   6  167.58   13.60
   1   5  -6 2001.10   99.99
   1   5  -6 1797.22  101.99
   1   5  -6 2056.59  100.59
  -1  -5   6 2041.20  100.99
  -1  -5   6 2127.19   99.99
  -1  -5   6 2122.69  100.99
   0   5  -6 1486.75   74.29
   0   5  -6 1354.16   77.09
   0   5  -6 1483.95   74.59
   0  -5   6 1543.45   74.59
   0  -5   6 1457.35   74.99
   0  -5   6 1491.85   73.69
  -1   5  -6  850.51   46.10
  -1   5  -6  843.22   50.59
   1  -5   6  825.52   46.50
   1  -5   6  865.71   44.80
   1  -5   6  881.31   45.70
  -2   5  -6  309.47   29.20
  -2   5  -6  272.77   21.60
   2  -5   6  279.77   20.60
   2  -5   6  262.17   21.40
   2  -5   6  280.97   20.00
  -3   5  -6   17.70    9.60
  -3   5  -6   20.40   16.70
  -3   5  -6   32.40   12.80
   3  -5   6   22.30   11.20
   3  -5   6   32.70   10.20
  -4   5  -6   26.70   15.10
  -4   5  -6   16.00   19.00
  -4   5  -6   12.80   17.10
   4  -5   6   20.30   11.10
   4  -5   6   31.40   13.90
  -5   5  -6  474.25   37.60
  -5   5  -6  450.65   61.89
  -5   5  -6  483.25   38.50
   5  -5   6  531.05   34.30
  -6   5  -6  732.63   49.90
  -6   5  -6  682.63   51.19
  -6   5  -6  644.74   46.50
   6  -5   6  673.43   49.00
   6  -5   6  623.74   59.89
  -7   5  -6  605.14   48.60
  -7   5  -6  506.25   41.00
  -7   5  -6  550.54   48.20
   7  -5   6  522.75   44.90
   7  -5   6  445.36   49.30
  -8   5  -6  102.09   31.00
  -8   5  -6   69.89   32.00
  -8   5  -6   20.10   24.10
   8  -5   6   56.79   30.20
   8  -5   6   59.09   36.70
  10   4  -6   61.09   34.00
  10   4  -6  102.89   31.20
  10   4  -6   92.69   32.80
 -10  -4   6   78.69   31.10
 -10  -4   6   70.39   34.30
 -10  -4   6   30.00   31.20
   9   4  -6   30.40   27.80
   9   4  -6  -28.20   22.30
   9   4  -6   -0.20   22.50
  -9  -4   6   -2.30   31.70
  -9  -4   6   17.30   27.00
  -9  -4   6   -6.90   25.30
   8   4  -6  177.08   26.70
   8   4  -6  199.28   26.10
   8   4  -6  204.28   28.70
  -8  -4   6  169.08   26.80
  -8  -4   6  185.48   26.90
  -8  -4   6  197.18   26.30
   7   4  -6  502.85   32.50
   7   4  -6  491.05   33.60
   7   4  -6  529.75   39.40
  -7  -4   6  421.76   37.00
  -7  -4   6  487.35   32.90
  -7  -4   6  517.55   38.40
   6   4  -6  728.33   41.30
   6   4  -6  742.43   45.80
   6   4  -6  733.63   40.90
  -6  -4   6  717.23   44.20
  -6  -4   6  719.33   40.40
  -6  -4   6  726.43   47.10
   5   4  -6  652.43   36.90
   5   4  -6  669.23   37.70
  -5  -4   6  678.33   39.70
  -5  -4   6  695.73   41.20
  -5  -4   6  683.43   36.70
   4   4  -6  321.27   20.80
   4   4  -6  329.47   20.60
   4   4  -6  315.47   19.70
  -4  -4   6  330.57   22.70
  -4  -4   6  326.67   20.30
  -4  -4   6  340.47   25.00
   3   4  -6   14.50    5.80
   3   4  -6    6.50    5.80
   3   4  -6    4.30    6.10
  -3  -4   6   10.30    7.20
  -3  -4   6    9.00    5.90
  -3  -4   6    7.40    9.10
   2   4  -6  376.06   23.10
   2   4  -6  404.26   22.90
   2   4  -6  385.76   22.90
   2   4  -6  349.57   25.30
  -2  -4   6  415.66   25.50
  -2  -4   6  389.06   22.60
  -2  -4   6  388.26   22.30
   1   4  -6 1483.15   73.09
   1   4  -6 1463.65   71.89
   1   4  -6 1454.55   71.69
   1   4  -6 1310.97   70.49
  -1  -4   6 1247.98   71.39
  -1  -4   6 1518.95   72.89
  -1  -4   6 1439.06   72.29
  -1  -4   6 1513.25   71.29
   0   4  -6 1054.69   54.79
   0   4  -6 1089.39   56.59
   0  -4   6 1067.49   54.79
   0  -4   6 1040.60   55.09
   0  -4   6 1037.90   53.59
  -1   4  -6  550.64   29.70
  -1   4  -6  567.84   30.00
  -1   4  -6  587.94   35.20
  -1   4  -6  591.64   33.00
   1  -4   6  548.55   33.00
   1  -4   6  572.04   31.00
   1  -4   6  575.24   33.80
  -2   4  -6  586.84   37.70
  -2   4  -6  585.24   31.70
  -2   4  -6  602.14   35.10
   2  -4   6  624.44   32.80
   2  -4   6  596.14   36.00
   2  -4   6  562.94   34.60
  -3   4  -6    4.30   11.20
  -3   4  -6   11.00    8.70
  -3   4  -6   16.60   15.10
   3  -4   6    7.80    9.90
   3  -4   6    6.00   12.70
   3  -4   6    1.60    8.20
  -4   4  -6  233.28   20.70
  -4   4  -6  202.28   25.40
  -4   4  -6  242.18   30.70
   4  -4   6  259.27   23.30
   4  -4   6  214.08   28.00
   4  -4   6  267.07   21.00
  -5   4  -6  638.74   45.60
  -5   4  -6  627.34   43.20
  -5   4  -6  563.14   39.20
   5  -4   6  692.73   38.50
   5  -4   6  609.74   42.00
   5  -4   6  637.34   46.80
  -6   4  -6  827.82   51.59
  -6   4  -6  606.74   47.20
  -6   4  -6  635.14   64.99
   6  -4   6  651.73   74.69
   6  -4   6  766.12   45.70
   6  -4   6  690.13   49.00
  -7   4  -6  606.74   51.19
  -7   4  -6  483.35   45.90
  -7   4  -6  722.53   49.80
   7  -4   6  460.05   50.29
   7  -4   6  662.33   55.69
   7  -4   6  673.93   46.40
  -8   4  -6  171.28   29.70
  -8   4  -6  183.38   33.80
  -8   4  -6  136.69   32.30
   8  -4   6  314.77   44.30
   8  -4   6  109.99   37.90
  -9   4  -6   62.29   33.70
  -9   4  -6   28.80   34.10
  11   3  -6  206.98   41.50
  11   3  -6  246.98   36.70
  11   3  -6  201.38   36.90
 -11  -3   6  280.37   42.00
  10   3  -6   43.60   29.60
  10   3  -6   20.80   28.70
  10   3  -6   40.40   29.20
 -10  -3   6  -27.00   28.70
 -10  -3   6   43.90   33.20
   9   3  -6   53.89   27.00
   9   3  -6   76.09   22.40
   9   3  -6   89.19   25.90
  -9  -3   6   43.10   27.80
  -9  -3   6   83.09   25.30
  -9  -3   6   82.89   25.20
   8   3  -6   76.99   17.50
   8   3  -6   87.19   18.30
   8   3  -6   63.89   28.80
  -8  -3   6   93.69   18.60
  -8  -3   6   43.20   22.00
  -8  -3   6   63.09   29.30
   7   3  -6  302.37   24.50
   7   3  -6  301.07   30.50
   7   3  -6  305.57   25.30
  -7  -3   6  311.37   24.90
  -7  -3   6  326.67   29.90
  -7  -3   6  302.57   29.80
   6   3  -6 1069.79   57.29
   6   3  -6 1123.09   57.89
   6   3  -6 1116.19   61.29
  -6  -3   6 1097.69   60.29
  -6  -3   6 1142.99   61.69
  -6  -3   6 1083.79   57.49
   5   3  -6  845.72   47.60
   5   3  -6  840.22   44.30
   5   3  -6  761.42   44.00
  -5  -3   6  808.82   43.90
  -5  -3   6  893.91   48.10
  -5  -3   6  863.61   46.10
   4   3  -6  232.98   16.50
   4   3  -6  249.58   15.80
   4   3  -6  267.57   29.80
   4   3  -6  235.28   16.60
  -4  -3   6  277.47   22.20
  -4  -3   6  241.98   18.30
  -4  -3   6  248.18   17.10
   3   3  -6  246.98   16.40
   3   3  -6  267.07   18.00
   3   3  -6  260.07   16.50
   3   3  -6  251.07   16.30
   3   3  -6  246.68   23.50
  -3  -3   6  241.38   16.30
  -3  -3   6  262.97   16.50
  -3  -3   6  257.57   17.80
  -3  -3   6  253.97   21.00
  -3  -3   6  253.87   17.20
   2   3  -6  168.68   12.50
   2   3  -6  154.98   12.70
   2   3  -6  169.28   12.70
   2   3  -6  151.78   13.10
   2   3  -6  164.18   14.90
   2   3  -6  153.98   12.50
  -2  -3   6  167.48   12.10
  -2  -3   6  161.38   12.20
  -2  -3   6  160.98   16.20
  -2  -3   6  156.68   11.80
  -2  -3   6  137.99   12.50
  -2  -3   6  147.69   14.20
   1   3  -6  997.40   51.89
   1   3  -6 1051.39   51.19
   1   3  -6 1054.99   52.69
   1   3  -6  976.40   50.79
   1   3  -6 1047.60   52.19
   1   3  -6 1007.00   50.99
  -1  -3   6  996.10   53.39
  -1  -3   6  995.50   50.99
  -1  -3   6  997.10   52.29
  -1  -3   6 1015.60   52.19
   0   3  -6 1704.53   83.99
   0   3  -6 1689.03   83.79
   0   3  -6 1789.02   82.09
   0   3  -6 1549.64   82.09
   0  -3   6 1534.45   83.69
   0  -3   6 1707.33   83.69
   0  -3   6 1679.33   82.19
   0  -3   6 1720.23   84.29
  -1   3  -6  515.85   27.80
  -1   3  -6  510.85   30.60
  -1   3  -6  509.05   31.00
   1  -3   6  527.65   31.50
   1  -3   6  508.55   27.90
   1  -3   6  507.55   29.90
  -2   3  -6  256.77   21.00
  -2   3  -6  261.47   20.40
  -2   3  -6  260.57   16.60
   2  -3   6  248.98   19.30
   2  -3   6  251.27   21.70
   2  -3   6  223.78   16.80
  -3   3  -6   22.60   11.10
  -3   3  -6   19.60    7.90
  -3   3  -6   16.90   11.60
   3  -3   6   16.90    7.80
   3  -3   6   23.60   10.40
   3  -3   6   37.70   13.20
  -4   3  -6  311.17   22.50
  -4   3  -6  342.37   31.60
  -4   3  -6  288.47   27.80
   4  -3   6  327.07   25.80
   4  -3   6  306.77   22.20
   4  -3   6  287.87   30.30
  -5   3  -6  437.96   40.40
  -5   3  -6  500.25   37.20
  -5   3  -6  470.85   32.30
   5  -3   6  460.85   35.60
   5  -3   6  526.15   41.40
   5  -3   6  495.45   31.70
  -6   3  -6  748.43   49.20
  -6   3  -6  882.81   53.99
  -6   3  -6  760.32   54.59
   6  -3   6  672.73   52.09
   6  -3   6  810.22   68.09
   6  -3   6  856.61   47.60
  -7   3  -6  333.87   39.50
  -7   3  -6  294.57   42.60
   7  -3   6  330.47   35.70
   7  -3   6  321.17   46.50
   7  -3   6  251.47   42.30
  -8   3  -6  112.59   29.80
  -8   3  -6  101.79   33.30
  -8   3  -6   78.19   30.10
   8  -3   6  102.89   30.10
   8  -3   6  143.69   36.80
   8  -3   6   99.49   36.30
  -9   3  -6  -25.00   29.70
  -9   3  -6   14.90   33.00
  -9   3  -6  -14.90   34.30
   9  -3   6    9.10   39.60
   9  -3   6  -10.10   40.40
  11   2  -6  145.59   31.20
  11   2  -6  131.79   34.70
  11   2  -6  142.99   35.30
 -11  -2   6   19.50   38.50
 -11  -2   6   42.90   35.60
  10   2  -6   -2.30   25.40
  10   2  -6    3.30   26.40
 -10  -2   6  -47.80   31.60
 -10  -2   6   31.00   27.70
   9   2  -6   75.09   22.70
   9   2  -6   82.59   22.60
   9   2  -6   58.19   22.40
  -9  -2   6   65.49   26.00
  -9  -2   6   83.89   23.30
   8   2  -6  403.26   33.70
   8   2  -6  352.26   31.30
   8   2  -6  476.95   35.70
  -8  -2   6  394.16   32.30
  -8  -2   6  418.06   45.80
   7   2  -6  322.07   24.30
   7   2  -6  303.47   29.40
   7   2  -6  289.07   24.30
  -7  -2   6  253.47   24.10
  -7  -2   6  357.06   28.80
  -7  -2   6  296.77   28.20
   6   2  -6  650.33   40.20
   6   2  -6  597.34   35.60
   6   2  -6  651.63   36.10
  -6  -2   6  667.53   38.60
  -6  -2   6  665.93   40.20
  -6  -2   6  634.94   36.50
   5   2  -6  875.81   44.80
   5   2  -6  834.82   48.00
   5   2  -6  819.22   44.50
  -5  -2   6  853.21   46.10
  -5  -2   6  914.31   48.80
  -5  -2   6  848.72   45.10
   4   2  -6  125.49   10.30
   4   2  -6  129.39   11.80
   4   2  -6  115.49   16.50
   4   2  -6  112.59   14.60
   4   2  -6  137.09   11.60
  -4  -2   6  122.29   12.30
  -4  -2   6  127.49   13.60
  -4  -2   6  155.58   13.40
  -4  -2   6  160.28   17.90
   3   2  -6  198.88   13.70
   3   2  -6  199.68   15.40
   3   2  -6  204.88   19.40
   3   2  -6  213.98   15.80
   3   2  -6  219.58   14.00
   3   2  -6  197.38   22.40
  -3  -2   6  211.58   14.90
  -3  -2   6  210.28   17.90
  -3  -2   6  218.38   19.20
  -3  -2   6  216.08   14.50
  -3  -2   6  197.18   14.30
   2   2  -6  414.16   23.10
   2   2  -6  405.66   23.10
   2   2  -6  413.06   22.90
   2   2  -6  433.86   23.90
   2   2  -6  414.46   22.90
   2   2  -6  420.76   24.60
   2   2  -6  387.06   26.00
  -2  -2   6  422.36   23.40
  -2  -2   6  415.26   26.90
  -2  -2   6  426.06   24.10
  -2  -2   6  420.96   24.50
  -2  -2   6  417.26   23.20
  -2  -2   6  415.96   23.30
  -2  -2   6  416.36   22.70
   1   2  -6  805.62   39.80
   1   2  -6  781.62   40.40
   1   2  -6  755.82   41.80
   1   2  -6  808.12   40.30
   1   2  -6  826.12   41.60
   1   2  -6  805.42   41.70
  -1  -2   6  781.82   41.80
  -1  -2   6  771.12   41.70
  -1  -2   6  745.83   39.80
  -1  -2   6  780.72   41.10
  -1  -2   6  802.62   40.40
  -1  -2   6  768.92   40.10
   0   2  -6 1211.08   58.39
   0   2  -6 1159.18   59.69
   0   2  -6 1092.49   57.29
   0   2  -6 1197.78   57.49
   0   2  -6 1177.38   58.59
   0  -2   6 1163.58   60.09
   0  -2   6 1173.98   59.09
   0  -2   6 1176.68   59.39
   0  -2   6 1163.18   57.69
   0  -2   6 1145.59   60.49
  -1   2  -6  339.07   22.70
  -1   2  -6  372.66   20.80
   1  -2   6  344.77   25.10
   1  -2   6  347.87   22.30
   1  -2   6  359.96   20.20
  -2   2  -6   11.10    6.20
  -2   2  -6   21.60    8.70
   2  -2   6   15.70    6.10
   2  -2   6    7.00   10.70
   2  -2   6   13.40    8.40
  -3   2  -6   18.50    7.80
  -3   2  -6   22.00   11.00
   3  -2   6   18.40   12.70
   3  -2   6   19.50    7.90
   3  -2   6   27.10    9.90
  -4   2  -6  231.68   19.50
  -4   2  -6  293.97   26.50
   4  -2   6  216.28   28.20
   4  -2   6  238.88   23.40
   4  -2   6  258.37   19.30
  -5   2  -6  414.66   29.50
  -5   2  -6  364.96   36.30
   5  -2   6  457.85   38.60
   5  -2   6  399.56   33.60
   5  -2   6  462.35   28.90
  -6   2  -6  523.65   50.99
  -6   2  -6  558.64   48.20
   6  -2   6  424.26   42.00
   6  -2   6  615.84   42.60
   6  -2   6  635.54   50.89
  -7   2  -6  267.27   44.10
  -7   2  -6  160.08   29.70
  -7   2  -6  289.17   37.70
   7  -2   6  248.68   34.50
   7  -2   6  300.87   44.20
  -8   2  -6   11.10   28.30
  -8   2  -6   27.60   34.20
  -8   2  -6   59.89   31.50
   8  -2   6   78.69   35.90
   8  -2   6   24.10   30.80
   8  -2   6   -1.70   34.40
  -9   2  -6   11.00   32.20
  -9   2  -6   52.19   36.80
  -9   2  -6   87.19   32.90
   9  -2   6  -81.09   38.30
   9  -2   6  -37.30   34.20
   9  -2   6  -30.90   40.20
  11   1  -6   14.30   32.60
  11   1  -6   17.40   30.80
  11   1  -6   75.29   28.90
 -11  -1   6   -4.90   36.80
 -11  -1   6  -11.40   34.70
  10   1  -6   58.99   24.40
  10   1  -6   50.59   27.20
 -10  -1   6   38.70   34.00
   9   1  -6  182.48   24.40
   9   1  -6  148.09   25.40
   9   1  -6  200.88   24.50
  -9  -1   6  170.88   28.20
  -9  -1   6  202.98   24.80
   8   1  -6  384.36   33.80
   8   1  -6  398.96   32.30
   8   1  -6  519.15   38.70
  -8  -1   6  459.85   33.00
  -8  -1   6  477.15   36.50
   7   1  -6  784.12   45.80
   7   1  -6  818.82   48.10
   7   1  -6  791.52   44.70
  -7  -1   6  814.72   45.60
  -7  -1   6  865.81   51.69
   6   1  -6 1191.98   62.79
   6   1  -6 1248.58   61.99
   6   1  -6 1242.38   65.19
  -6  -1   6 1248.88   62.69
  -6  -1   6 1224.18   63.99
  -6  -1   6 1170.68   62.89
   5   1  -6  396.46   22.10
   5   1  -6  350.96   25.40
   5   1  -6  366.06   22.30
  -5  -1   6  393.46   23.70
  -5  -1   6  357.36   24.00
  -5  -1   6  353.96   23.00
   4   1  -6  109.99   11.90
   4   1  -6  110.59   11.10
   4   1  -6  121.39   16.20
   4   1  -6  120.99   11.00
  -4  -1   6  126.09   12.00
  -4  -1   6  141.79   13.40
  -4  -1   6  106.29   12.50
   3   1  -6  282.17   17.70
   3   1  -6  298.77   17.00
   3   1  -6  299.07   24.20
   3   1  -6  247.78   20.50
   3   1  -6  285.17   17.00
  -3  -1   6  293.17   18.10
  -3  -1   6  289.97   18.90
  -3  -1   6  299.67   18.20
  -3  -1   6  303.87   17.70
   2   1  -6 1248.08   64.69
   2   1  -6 1409.96   65.49
   2   1  -6 1331.07   65.09
   2   1  -6 1270.57   65.89
   2   1  -6 1290.07   64.29
   2   1  -6 1289.27   64.79
  -2  -1   6 1322.07   65.99
  -2  -1   6 1314.37   64.89
  -2  -1   6 1324.47   65.79
  -2  -1   6 1271.17   64.99
  -2  -1   6 1303.57   65.19
   1   1  -6 1223.78   62.69
   1   1  -6 1274.27   64.29
   1   1  -6 1252.97   62.29
   1   1  -6 1251.07   61.69
   1   1  -6 1250.07   61.69
   1   1  -6 1288.07   62.89
  -1  -1   6 1237.38   61.79
  -1  -1   6 1246.18   62.89
  -1  -1   6 1234.78   63.89
  -1  -1   6 1315.37   63.09
  -1  -1   6 1285.27   64.49
   0   1  -6 1165.58   61.49
   0   1  -6 1219.18   60.49
   0   1  -6 1174.48   59.49
   0   1  -6 1196.88   59.29
   0   1  -6 1214.28   59.59
   0   1  -6 1142.79   58.99
   0  -1   6 1260.67   63.29
   0  -1   6 1233.58   59.29
   0  -1   6 1267.57   61.09
   0  -1   6 1206.48   61.99
  -1   1  -6  450.05   23.50
  -1   1  -6  461.45   24.10
  -1   1  -6  443.96   24.90
  -1   1  -6  465.05   25.20
  -1   1  -6  449.16   27.10
   1  -1   6  470.25   26.50
   1  -1   6  446.56   25.80
   1  -1   6  425.96   29.90
   1  -1   6  438.66   23.70
   1  -1   6  434.16   27.20
  -2   1  -6   23.10    8.20
  -2   1  -6   41.20    7.60
  -2   1  -6   33.70    6.10
  -2   1  -6   34.80    7.60
   2  -1   6   23.90    8.60
   2  -1   6   22.50   12.40
   2  -1   6   34.30    6.20
  -3   1  -6   24.90    8.00
  -3   1  -6   24.20    6.80
  -3   1  -6   24.30   10.00
   3  -1   6   22.60    7.30
   3  -1   6   15.70   13.90
   3  -1   6   30.50   10.30
  -4   1  -6  397.66   30.40
  -4   1  -6  406.56   26.20
   4  -1   6  394.86   33.90
   4  -1   6  396.46   30.00
   4  -1   6  414.86   25.10
  -5   1  -6  599.54   39.00
  -5   1  -6  672.93   44.10
   5  -1   6  666.13   37.80
   5  -1   6  600.84   46.50
   5  -1   6  692.23   47.10
  -6   1  -6  500.15   38.00
   6  -1   6  613.44   37.10
   6  -1   6  470.65   43.00
   6  -1   6  585.94   58.69
  -7   1  -6  165.98   27.90
  -7   1  -6  177.28   35.90
   7  -1   6  236.98   33.20
   7  -1   6  168.48   32.30
   7  -1   6  266.77   36.40
  -8   1  -6   44.90   32.60
  -8   1  -6   15.90   35.80
   8  -1   6   -9.20   33.30
   8  -1   6   32.20   34.60
   8  -1   6    9.70   36.50
  -9   1  -6   82.69   36.20
  -9   1  -6   32.20   39.50
  -9   1  -6  112.29   33.00
   9  -1   6   16.30   41.00
   9  -1   6   84.09   39.20
  11   0  -6   20.30   29.90
  11   0  -6   38.80   28.30
 -11   0   6   -7.80   31.30
 -11   0   6   30.90   37.10
  10   0  -6    2.80   27.50
  10   0  -6  -39.10   25.00
  10   0  -6    8.10   23.40
 -10   0   6   18.60   25.60
 -10   0   6  -36.90   30.60
   9   0  -6  335.97   34.90
   9   0  -6  332.67   33.60
   9   0  -6  265.97   31.40
  -9   0   6  365.96   32.30
  -9   0   6  286.37   34.20
  -9   0   6  305.87   38.50
   8   0  -6  668.53   42.60
   8   0  -6  633.84   44.10
  -8   0   6  683.73   41.20
  -8   0   6  645.94   44.20
  -8   0   6  638.14   42.20
   7   0  -6  771.12   45.80
   7   0  -6  765.02   46.20
  -7   0   6  795.42   44.80
  -7   0   6  790.82   45.00
  -7   0   6  827.92   46.20
   6   0  -6  495.55   32.40
   6   0  -6  533.75   31.90
  -6   0   6  551.24   32.30
  -6   0   6  529.45   31.20
  -6   0   6  491.75   31.50
   5   0  -6  187.08   17.00
   5   0  -6  204.08   16.50
  -5   0   6  219.98   18.00
  -5   0   6  211.98   16.90
  -5   0   6  203.38   16.50
   4   0  -6   40.20    7.10
   4   0  -6   26.00    7.40
   4   0  -6   39.10    7.40
  -4   0   6   30.60    7.40
  -4   0   6   25.30    8.30
  -4   0   6   41.20    7.70
   3   0  -6 1215.38   63.09
   3   0  -6 1430.46   68.99
   3   0  -6 1214.68   62.29
   3   0  -6 1169.08   61.59
   3   0  -6 1191.78   62.29
  -3   0   6 1295.47   62.79
  -3   0   6 1218.48   62.69
  -3   0   6 1276.17   62.99
  -3   0   6 1241.88   63.29
   2   0  -6 2460.15  119.99
   2   0  -6 2471.65  118.69
   2   0  -6 2441.36  119.09
   2   0  -6 2465.05  118.59
   2   0  -6 2452.95  119.69
   2   0  -6 2524.35  119.89
  -2   0   6 2367.16  120.59
  -2   0   6 2462.75  119.09
  -2   0   6 2558.04  121.09
  -2   0   6 2410.16  119.99
   1   0  -6 1384.36   79.49
   1   0  -6 1436.26   72.29
   1   0  -6 1443.76   71.79
   1   0  -6 1499.35   71.59
  -1   0   6 1457.95   74.49
  -1   0   6 1557.54   72.19
  -1   0   6 1410.96   73.29
  -1   0   6 1445.26   72.49
   0   0  -6  921.51   47.60
   0   0  -6  940.51   49.20
   0   0  -6  918.11   46.90
   0   0  -6  926.21   46.00
   0   0   6  914.41   50.99
   0   0   6  971.30   48.00
   0   0   6  932.81   49.20
  -1   0  -6  515.35   30.60
  -1   0  -6  553.44   28.40
  -1   0  -6  510.85   29.20
   1   0   6  540.55   31.20
   1   0   6  537.55   34.30
   1   0   6  528.05   30.00
  -2   0  -6   24.80    6.80
  -2   0  -6    9.60    6.70
  -2   0  -6   12.80    8.30
   2   0   6   12.50    8.80
   2   0   6   23.90   12.70
   2   0   6    8.70    8.70
  -3   0  -6  275.07   18.40
  -3   0  -6  273.47   21.80
  -3   0  -6  277.17   19.50
   3   0   6  272.67   22.50
   3   0   6  285.27   27.20
  -4   0  -6  472.05   30.00
  -4   0  -6  496.25   33.00
  -4   0  -6  492.35   28.60
   4   0   6  469.35   33.80
   4   0   6  527.25   38.10
  -5   0  -6 1043.80   57.49
  -5   0  -6 1045.50   55.49
  -5   0  -6 1092.89   61.19
   5   0   6 1168.28   55.69
   5   0   6  881.21   61.09
   5   0   6 1127.39   64.59
  -6   0  -6  427.66   35.00
  -6   0  -6  544.05   34.40
   6   0   6  483.35   34.30
   6   0   6  455.05   62.29
  -7   0  -6  135.89   33.80
  -7   0  -6  149.49   26.30
  -7   0  -6   63.19   25.80
   7   0   6  103.39   23.10
   7   0   6   41.30   29.10
   7   0   6  140.89   33.20
  -8   0  -6   27.20   33.00
  -8   0  -6  -43.70   38.60
   8   0   6   -7.00   34.60
   8   0   6  -59.19   33.50
  11  -1  -6  -38.10   26.30
  11  -1  -6   29.00   32.30
 -11   1   6   18.10   35.00
 -11   1   6   35.60   31.70
  10  -1  -6   12.70   24.20
  10  -1  -6   36.20   26.10
 -10   1   6   11.30   29.10
 -10   1   6   13.80   25.20
 -10   1   6  -15.00   26.20
   9  -1  -6  436.06   37.80
   9  -1  -6  405.76   36.80
  -9   1   6  481.75   42.20
  -9   1   6  418.06   39.60
  -9   1   6  452.65   36.30
   8  -1  -6  980.10   55.49
   8  -1  -6  939.51   56.29
  -8   1   6 1005.50   56.79
  -8   1   6  921.21   54.49
  -8   1   6  983.70   55.89
   7  -1  -6  293.77   25.90
   7  -1  -6  255.07   25.70
  -7   1   6  287.37   25.90
  -7   1   6  244.78   22.90
  -7   1   6  287.87   24.60
   6  -1  -6  223.98   18.70
   6  -1  -6  206.28   21.30
   6  -1  -6  229.18   21.80
  -6   1   6  250.67   20.20
  -6   1   6  242.58   21.20
  -6   1   6  245.68   19.30
   5  -1  -6  236.58   19.40
   5  -1  -6  205.48   16.10
   5  -1  -6  208.88   18.50
  -5   1   6  201.98   17.20
  -5   1   6  224.88   17.30
  -5   1   6  237.68   19.00
   4  -1  -6   82.69   10.10
   4  -1  -6   73.29   10.10
   4  -1  -6   67.09    9.80
  -4   1   6   72.69   10.80
  -4   1   6   74.39   10.30
  -4   1   6   57.09    9.10
  -4   1   6   83.59   11.70
   3  -1  -6  399.46   22.50
   3  -1  -6  375.86   22.00
   3  -1  -6  345.27   21.90
   3  -1  -6  392.86   21.70
   3  -1  -6  371.46   22.90
  -3   1   6  355.76   23.30
  -3   1   6  390.86   22.80
  -3   1   6  385.16   25.20
  -3   1   6  367.46   22.80
   2  -1  -6 1818.22   90.69
   2  -1  -6 1878.21   90.19
   2  -1  -6 1830.82   90.39
  -2   1   6 1895.81   92.99
  -2   1   6 1832.42   90.79
  -2   1   6 1779.22   91.49
   1  -1  -6  928.51   48.30
   1  -1  -6  998.20   47.90
   1  -1  -6  967.30   47.90
  -1   1   6  939.61   51.89
  -1   1   6  949.60   48.40
  -1   1   6  946.31   49.60
  -1   1   6  857.11   48.90
   0  -1  -6  652.23   33.60
   0  -1  -6  562.84   34.40
   0  -1  -6  652.13   34.20
   0  -1  -6  667.83   32.30
   0   1   6  693.13   34.20
   0   1   6  644.24   35.70
   0   1   6  619.34   38.90
   0   1   6  594.34   34.10
  -1  -1  -6   16.00    6.40
  -1  -1  -6   19.10    6.70
  -1  -1  -6   17.40    8.40
   1   1   6   21.90    7.90
   1   1   6    7.10   12.60
   1   1   6    5.70    7.90
  -2  -1  -6    5.10    7.20
  -2  -1  -6    4.10    6.90
  -2  -1  -6    2.80    8.50
   2   1   6   -8.00    8.50
   2   1   6  -10.00    9.10
   2   1   6   14.00   13.10
  -3  -1  -6  335.27   24.90
  -3  -1  -6  330.47   21.40
  -3  -1  -6  314.77   22.20
   3   1   6  324.87   25.10
   3   1   6  349.27   30.60
   3   1   6  337.87   26.30
  -4  -1  -6  747.23   40.00
  -4  -1  -6  740.63   41.10
  -4  -1  -6  770.42   43.70
   4   1   6  712.03   48.20
   4   1   6  650.13   45.90
  -5  -1  -6 1126.39   62.29
  -5  -1  -6 1064.39   57.89
   5   1   6 1067.99   66.59
  -6  -1  -6  578.34   36.80
  -6  -1  -6  489.05   36.50
  -6  -1  -6  515.95   66.89
   6   1   6  408.86   44.70
   6   1   6  507.55   49.50
  -7  -1  -6   73.59   24.00
  -7  -1  -6    2.60   30.00
  -7  -1  -6   54.99   33.20
   7   1   6   17.20   31.30
   7   1   6   88.39   33.00
  -8  -1  -6   -5.20   32.10
  -8  -1  -6   -1.90   40.60
  -8  -1  -6    9.50   37.20
   8   1   6  -23.40   34.80
   8   1   6  -29.50   36.40
  11  -2  -6   -2.30   27.60
  11  -2  -6  -24.20   31.30
  11  -2  -6    6.10   32.30
 -11   2   6  -26.10   36.20
 -11   2   6    8.80   32.20
 -11   2   6  -23.40   33.00
  10  -2  -6  108.99   27.80
  10  -2  -6  149.99   29.50
  10  -2  -6  191.28   27.00
 -10   2   6  113.99   27.60
 -10   2   6  108.89   30.90
 -10   2   6  201.98   33.60
   9  -2  -6  522.35   40.00
   9  -2  -6  523.95   41.50
   9  -2  -6  556.14   40.10
  -9   2   6  448.86   39.60
  -9   2   6  536.45   44.60
  -9   2   6  520.05   44.90
   8  -2  -6  857.91   49.20
   8  -2  -6  631.94   64.49
   8  -2  -6  859.91   48.50
  -8   2   6  838.12   51.79
  -8   2   6  851.81   50.39
   7  -2  -6  578.24   34.10
   7  -2  -6  548.05   36.00
   7  -2  -6  511.85   36.20
  -7   2   6  551.04   40.10
  -7   2   6  569.54   35.50
  -7   2   6  510.85   33.90
   6  -2  -6  207.38   20.90
   6  -2  -6  194.58   20.60
   6  -2  -6  183.98   17.90
  -6   2   6  196.88   19.10
  -6   2   6  190.88   21.70
  -6   2   6  208.98   18.30
   5  -2  -6  171.98   18.60
   5  -2  -6  192.98   17.90
   5  -2  -6  193.18   15.90
  -5   2   6  223.48   19.40
  -5   2   6  223.08   17.30
  -5   2   6  192.18   16.50
   4  -2  -6   34.70    7.10
   4  -2  -6   42.20    7.50
   4  -2  -6   31.70    8.90
   4  -2  -6   33.30    8.20
  -4   2   6   26.50    9.10
  -4   2   6   31.90    7.50
   3  -2  -6  645.74   34.70
   3  -2  -6  660.23   34.70
  -3   2   6  635.44   35.10
  -3   2   6  624.04   35.90
  -3   2   6  661.73   38.40
   2  -2  -6 1879.41   94.69
   2  -2  -6 1979.50   94.69
   2  -2  -6 1998.00   94.99
  -2   2   6 1937.11   95.99
  -2   2   6 1933.41   95.09
  -2   2   6 1801.72   97.89
   1  -2  -6  957.30   47.70
   1  -2  -6  930.31   48.00
   1  -2  -6  942.31   46.70
  -1   2   6  911.71   52.69
  -1   2   6  928.91   49.30
  -1   2   6  898.71   48.00
   0  -2  -6  349.27   21.60
   0  -2  -6  355.06   21.30
   0  -2  -6  375.96   20.30
   0  -2  -6  337.67   27.00
   0   2   6  366.56   29.40
   0   2   6  375.06   24.10
   0   2   6  330.47   23.50
   0   2   6  367.66   21.90
  -1  -2  -6   65.79    8.70
  -1  -2  -6   74.39   10.90
   1   2   6   56.59   15.60
   1   2   6   84.59   12.90
   1   2   6   69.59   10.80
  -2  -2  -6   51.59    9.20
  -2  -2  -6   50.49   12.40
  -2  -2  -6   54.79    9.20
   2   2   6   53.79   11.70
   2   2   6   58.29   16.50
   2   2   6   56.49   13.10
  -3  -2  -6  469.25   31.70
  -3  -2  -6  455.55   28.30
  -3  -2  -6  468.85   28.80
   3   2   6  470.95   37.90
   3   2   6  473.05   32.30
   3   2   6  471.05   32.80
  -4  -2  -6  684.23   38.90
  -4  -2  -6  726.53   42.20
  -4  -2  -6  705.13   38.80
   4   2   6  544.35   43.60
   4   2   6  685.83   49.30
  -5  -2  -6  477.35   33.00
  -5  -2  -6  441.86   32.80
  -5  -2  -6  502.15   38.30
   5   2   6  500.15   62.19
  -6  -2  -6  225.08   29.30
  -6  -2  -6  273.97   38.20
  -6  -2  -6  276.77   32.80
   6   2   6  141.69   30.20
   6   2   6  205.18   33.50
  -7  -2  -6   42.90   35.00
  -7  -2  -6   42.50   27.80
  -7  -2  -6   14.40   26.80
   7   2   6   98.99   34.80
   7   2   6   27.10   31.40
  -8  -2  -6   72.39   40.20
  -8  -2  -6  154.98   44.10
  -8  -2  -6   20.20   34.90
   8   2   6   13.50   36.40
   8   2   6   82.69   40.90
  11  -3  -6  -41.60   31.40
  11  -3  -6   -8.30   31.50
  11  -3  -6  -15.60   27.60
 -11   3   6   20.80   33.20
 -11   3   6   27.20   35.90
 -11   3   6  -42.70   35.40
  10  -3  -6  235.98   33.00
  10  -3  -6  283.87   39.40
  10  -3  -6  193.28   29.20
 -10   3   6  226.28   31.40
 -10   3   6  179.48   34.80
 -10   3   6  176.68   33.50
   9  -3  -6  289.97   34.00
   9  -3  -6  332.67   34.40
   9  -3  -6  280.37   35.80
  -9   3   6  361.46   38.30
  -9   3   6  270.37   33.10
  -9   3   6  257.97   40.60
   8  -3  -6  481.15   40.00
   8  -3  -6  588.84   37.90
   8  -3  -6  540.65   39.10
  -8   3   6  555.24   42.50
  -8   3   6  530.85   37.80
  -8   3   6  624.34   41.20
   7  -3  -6  759.32   45.50
   7  -3  -6  741.63   43.60
   7  -3  -6  696.13   44.70
  -7   3   6  806.82   47.50
  -7   3   6  786.02   44.90
  -7   3   6  748.03   44.10
   6  -3  -6   59.49   12.90
   6  -3  -6   35.60   12.60
   6  -3  -6   57.29   11.50
  -6   3   6   45.20   12.20
  -6   3   6   55.79   11.70
  -6   3   6   50.39   14.10
   5  -3  -6   -7.90    7.50
   5  -3  -6   -0.90    8.60
   5  -3  -6   -3.40    9.40
  -5   3   6    1.00    8.30
  -5   3   6   12.40   11.10
   4  -3  -6  477.55   26.80
   4  -3  -6  449.46   25.50
   4  -3  -6  431.96   26.10
  -4   3   6  439.76   28.60
  -4   3   6  426.66   31.30
  -4   3   6  423.36   26.70
   3  -3  -6 1326.07   63.89
   3  -3  -6 1297.97   64.09
  -3   3   6 1165.28   67.79
  -3   3   6 1273.27   65.69
  -3   3   6 1261.77   64.69
   2  -3  -6 1389.46   67.29
   2  -3  -6 1353.06   67.89
   2  -3  -6 1352.66   68.09
  -2   3   6 1366.76   68.39
  -2   3   6 1347.77   69.39
  -2   3   6 1281.67   72.29
   1  -3  -6 1632.44   79.79
   1  -3  -6 1625.04   79.69
   1  -3  -6 1584.24   79.89
  -1   3   6 1596.14   80.09
  -1   3   6 1582.24   81.39
  -1   3   6 1576.34   84.69
   0  -3  -6  347.17   20.30
   0  -3  -6  351.46   22.10
   0  -3  -6  337.77   21.70
   0   3   6  385.86   23.00
   0   3   6  330.47   24.40
   0   3   6  366.66   31.20
  -1  -3  -6    7.90    7.80
  -1  -3  -6   12.80    7.50
   1   3   6    3.80   10.10
   1   3   6   22.60   10.00
   1   3   6    3.50   15.00
   1   3   6   12.60    7.70
  -2  -3  -6  155.08   15.70
  -2  -3  -6  133.19   15.90
   2   3   6  128.79   20.80
   2   3   6  155.98   20.00
   2   3   6  150.18   19.80
  -3  -3  -6  217.78   19.50
  -3  -3  -6  274.47   25.00
  -3  -3  -6  192.38   19.80
   3   3   6  199.08   31.90
   3   3   6  251.27   25.30
   3   3   6  173.48   25.70
  -4  -3  -6  850.71   47.90
  -4  -3  -6  874.51   50.79
  -4  -3  -6  726.73   51.79
   4   3   6  952.00   54.49
   4   3   6  776.32   59.49
  -5  -3  -6  415.96   33.10
  -5  -3  -6  482.25   39.20
  -5  -3  -6  459.65   34.90
   5   3   6  430.66   48.30
  -6  -3  -6  167.88   24.70
  -6  -3  -6  128.09   29.40
  -6  -3  -6  122.09   24.20
   6   3   6  112.89   30.70
   6   3   6  157.08   35.90
  -7  -3  -6   28.80   27.60
  -7  -3  -6  -16.70   30.80
  -7  -3  -6   89.39   34.70
   7   3   6   91.09   43.70
   7   3   6   -9.70   33.80
  11  -4  -6   -3.10   32.60
  11  -4  -6  -33.40   29.60
  11  -4  -6  -22.80   33.30
 -11   4   6  -39.80   37.90
 -11   4   6   35.60   35.60
 -11   4   6   65.69   32.70
  10  -4  -6   53.99   29.20
  10  -4  -6   99.99   27.00
  10  -4  -6  103.29   27.80
 -10   4   6  143.09   29.50
 -10   4   6   47.50   39.00
 -10   4   6   90.69   35.90
   9  -4  -6  371.16   41.40
   9  -4  -6  523.75   38.80
   9  -4  -6  444.46   39.60
  -9   4   6  432.86   38.80
  -9   4   6  402.76   47.50
  -9   4   6  452.35   41.30
   8  -4  -6  435.86   40.30
   8  -4  -6  601.24   46.10
   8  -4  -6  564.84   39.90
  -8   4   6  600.54   38.80
  -8   4   6  542.45   59.69
   7  -4  -6  331.97   28.20
   7  -4  -6  322.87   26.50
  -7   4   6  341.57   32.30
  -7   4   6  315.47   26.80
   6  -4  -6   67.79   14.00
   6  -4  -6   93.49   16.60
   6  -4  -6   87.89   13.10
  -6   4   6   74.19   16.60
  -6   4   6  101.99   14.20
   5  -4  -6   -7.20    8.80
   5  -4  -6    0.30    9.60
   5  -4  -6  -16.50    8.60
  -5   4   6   -6.90   15.00
  -5   4   6   -7.50    9.40
  -5   4   6    3.10   12.40
   4  -4  -6   87.49   14.50
   4  -4  -6   81.79   11.30
  -4   4   6   80.29   14.90
  -4   4   6   83.89   11.80
  -4   4   6   80.19   16.00
   3  -4  -6 1103.39   54.49
   3  -4  -6 1059.19   53.99
  -3   4   6 1031.30   56.19
  -3   4   6 1101.29   55.19
  -3   4   6  946.31   58.49
   2  -4  -6  824.62   42.30
   2  -4  -6  787.42   42.60
   2  -4  -6  784.92   41.50
  -2   4   6  776.82   42.70
  -2   4   6  774.62   44.10
  -2   4   6  809.12   47.60
   1  -4  -6  730.43   40.60
   1  -4  -6  759.42   39.50
   1  -4  -6  762.92   40.50
  -1   4   6  769.32   42.80
  -1   4   6  734.63   47.00
   0  -4  -6   77.89   10.40
   0  -4  -6   65.39    9.90
   0  -4  -6   76.29   11.40
   0   4   6  102.49   19.60
   0   4   6   71.39   13.00
  -1  -4  -6   14.30    9.30
  -1  -4  -6    1.60    8.40
  -1  -4  -6    3.80    7.30
   1   4   6    1.10   11.60
   1   4   6    3.30   17.60
   1   4   6    5.90   11.30
  -2  -4  -6  336.27   23.80
  -2  -4  -6  317.67   23.80
   2   4   6  353.46   28.90
   2   4   6  352.06   28.30
   2   4   6  295.07   34.30
  -3  -4  -6  626.84   40.80
  -3  -4  -6  572.04   35.50
  -3  -4  -6  603.14   36.10
   3   4   6  616.64   43.60
   3   4   6  637.74   48.80
   3   4   6  500.55   41.60
  -4  -4  -6  678.13   44.50
  -4  -4  -6  572.54   39.20
  -4  -4  -6  621.74   46.60
   4   4   6  660.43   53.39
   4   4   6  674.93   45.80
  -5  -4  -6  590.64   62.39
  -5  -4  -6  582.44   39.50
  -5  -4  -6  512.75   38.30
   5   4   6  565.64   54.89
   5   4   6  462.25   47.80
  -6  -4  -6   96.79   28.90
  -6  -4  -6  144.69   29.70
  -6  -4  -6   85.99   24.70
   6   4   6  143.39   37.00
   6   4   6   43.00   33.00
  -7  -4  -6   39.50   33.00
  -7  -4  -6  -29.60   28.40
  -7  -4  -6  -38.10   34.90
   7   4   6  -26.50   36.50
   7   4   6   16.30   41.40
  10  -5  -6  228.68   31.90
  10  -5  -6  191.98   31.30
  10  -5  -6  178.38   32.60
 -10   5   6  150.78   39.40
 -10   5   6  186.88   32.90
   9  -5  -6  509.75   40.40
   9  -5  -6  379.96   43.70
   9  -5  -6  357.66   42.30
  -9   5   6  471.05   40.90
  -9   5   6  435.16   50.29
   8  -5  -6  524.05   44.90
   8  -5  -6  550.84   42.70
   8  -5  -6  636.34   40.60
  -8   5   6  560.94   41.30
  -8   5   6  586.44   48.40
   7  -5  -6  464.05   31.80
   7  -5  -6  435.06   37.20
   7  -5  -6  403.76   33.80
  -7   5   6  438.36   38.00
  -7   5   6  424.26   33.20
   6  -5  -6  102.69   13.70
   6  -5  -6   66.49   15.90
   6  -5  -6   77.69   14.10
  -6   5   6   93.99   18.40
  -6   5   6   70.39   14.50
   5  -5  -6   54.09    9.90
   5  -5  -6   54.99   12.40
   5  -5  -6   59.49   13.30
  -5   5   6   70.59   16.00
  -5   5   6   50.39   17.20
  -5   5   6   62.39   12.60
   4  -5  -6   36.30   10.30
   4  -5  -6   16.60   10.50
  -4   5   6   22.30   10.40
  -4   5   6  -19.90   14.60
  -4   5   6   23.40   13.30
   3  -5  -6  722.73   39.80
   3  -5  -6  742.13   40.60
   3  -5  -6  756.42   40.40
  -3   5   6  727.63   40.80
  -3   5   6  710.33   44.50
  -3   5   6  713.73   45.60
   2  -5  -6  799.82   43.70
   2  -5  -6  830.42   43.90
   2  -5  -6  817.42   43.10
  -2   5   6  808.32   44.30
  -2   5   6  796.82   46.00
  -2   5   6  781.82   49.80
   1  -5  -6  397.26   25.60
   1  -5  -6  391.76   25.40
   1  -5  -6  418.76   24.90
  -1   5   6  386.46   28.70
  -1   5   6  398.26   34.00
   0  -5  -6   80.19   11.80
   0  -5  -6  123.89   14.50
   0  -5  -6   95.79   13.00
   0   5   6   95.19   16.10
   0   5   6  134.79   21.10
  -1  -5  -6   37.20   10.70
  -1  -5  -6   43.40    9.90
  -1  -5  -6   43.60   11.70
   1   5   6   55.09   20.40
   1   5   6   56.79   15.40
   1   5   6   68.59   15.20
  -2  -5  -6  344.57   26.30
  -2  -5  -6  353.16   22.40
  -2  -5  -6  340.77   25.50
   2   5   6  361.86   31.30
   2   5   6  269.17   31.40
  -3  -5  -6  311.87   26.90
  -3  -5  -6  318.07   25.50
  -3  -5  -6  283.57   33.00
   3   5   6  216.28   28.60
   3   5   6  306.37   32.40
   3   5   6  250.07   40.40
  -4  -5  -6   82.59   18.50
  -4  -5  -6  124.49   20.60
   4   5   6  123.59   32.90
  -5  -5  -6  175.88   25.00
  -5  -5  -6  256.37   32.60
  -5  -5  -6  203.98   29.40
   5   5   6  185.78   39.10
   5   5   6  119.49   33.50
  -6  -5  -6   81.29   28.50
  -6  -5  -6   89.19   30.30
  -6  -5  -6   75.29   27.80
   6   5   6   46.60   34.90
   6   5   6   44.10   41.30
  10  -6  -6  333.97   44.60
  10  -6  -6  312.27   43.50
  10  -6  -6  343.57   45.10
 -10   6   6  200.08   44.80
 -10   6   6  307.47   42.80
   9  -6  -6  358.26   37.60
   9  -6  -6  255.87   33.20
   9  -6  -6  296.97   37.60
  -9   6   6  302.37   42.50
  -9   6   6  307.57   37.90
   8  -6  -6  345.47   33.10
   8  -6  -6  247.98   35.20
   8  -6  -6  359.16   49.40
  -8   6   6  330.57   32.90
  -8   6   6  286.07   43.80
   7  -6  -6  140.79   21.20
   7  -6  -6  141.89   20.30
   7  -6  -6  136.89   20.70
  -7   6   6  136.39   20.70
  -7   6   6  126.39   25.20
   6  -6  -6  -13.60   14.70
   6  -6  -6   19.20   11.70
  -6   6   6    3.10   18.60
  -6   6   6    1.60   19.60
  -6   6   6    0.10   18.10
   5  -6  -6  158.28   19.30
  -5   6   6  134.39   22.30
  -5   6   6  161.48   25.80
  -5   6   6  162.98   18.30
   4  -6  -6  419.86   28.60
   4  -6  -6  447.16   28.10
  -4   6   6  338.77   35.80
  -4   6   6  431.36   29.50
  -4   6   6  438.16   31.90
   3  -6  -6  603.84   35.50
   3  -6  -6  629.44   35.40
   3  -6  -6  605.54   36.00
  -3   6   6  571.04   42.20
  -3   6   6  582.54   38.90
  -3   6   6  606.84   36.40
   2  -6  -6 1038.20   55.99
   2  -6  -6 1075.39   56.79
   2  -6  -6 1099.59   56.69
  -2   6   6  997.00   62.29
  -2   6   6 1098.89   57.19
  -2   6   6 1085.19   59.59
   1  -6  -6  397.76   27.10
   1  -6  -6  421.86   27.10
   1  -6  -6  381.16   27.30
  -1   6   6  401.86   35.10
  -1   6   6  438.66   32.00
   0  -6  -6   26.90   11.10
   0  -6  -6   10.20   11.20
   0   6   6   31.00   15.90
   0   6   6   46.80   19.60
  -1  -6  -6   64.29   13.30
  -1  -6  -6   57.79   11.70
  -1  -6  -6   70.49   14.80
   1   6   6   63.59   18.30
   1   6   6   74.09   23.70
   1   6   6   57.69   22.00
  -2  -6  -6   69.89   24.20
  -2  -6  -6   51.49   15.50
  -2  -6  -6   34.90   11.70
   2   6   6   29.60   21.10
   2   6   6   33.20   21.50
   2   6   6   59.39   23.70
  -3  -6  -6  260.37   26.90
  -3  -6  -6  247.68   27.40
   3   6   6  310.47   35.50
   3   6   6  218.28   36.30
   3   6   6  234.98   35.40
  -4  -6  -6  192.08   29.10
  -4  -6  -6  235.58   31.50
  -4  -6  -6  222.58   28.80
   4   6   6  244.88   38.30
   4   6   6  147.19   34.10
   4   6   6  136.79   38.50
  -5  -6  -6  185.98   28.80
  -5  -6  -6  183.58   29.00
  -5  -6  -6  118.79   25.70
   5   6   6  181.78   33.20
   5   6   6   78.59   40.50
   5   6   6   78.99   35.30
   9  -7  -6  316.37   38.20
   9  -7  -6  211.88   33.30
   9  -7  -6  332.17   37.90
  -9   7   6  224.28   41.30
  -9   7   6  289.07   38.90
   8  -7  -6  239.78   32.90
   8  -7  -6  232.58   30.10
   8  -7  -6  188.78   27.00
  -8   7   6  197.08   26.00
  -8   7   6  206.68   35.50
   7  -7  -6   94.39   20.10
   7  -7  -6   98.19   17.40
   7  -7  -6   90.59   21.80
  -7   7   6  115.29   27.10
  -7   7   6  120.09   20.70
   6  -7  -6    7.80   12.30
   6  -7  -6    7.50   16.10
   6  -7  -6  -13.10   16.60
  -6   7   6   15.80   21.10
  -6   7   6   25.40   15.90
  -6   7   6   -5.10   22.40
   5  -7  -6  128.69   18.40
   5  -7  -6  135.99   18.00
  -5   7   6  117.69   20.50
  -5   7   6  131.69   25.10
  -5   7   6  138.29   22.10
   4  -7  -6  713.53   43.90
   4  -7  -6  732.33   43.70
   4  -7  -6  769.52   43.30
  -4   7   6  771.22   48.90
  -4   7   6  799.22   44.50
  -4   7   6  645.14   51.09
   3  -7  -6  645.84   39.20
   3  -7  -6  626.74   38.40
  -3   7   6  658.13   43.30
  -3   7   6  586.94   47.50
  -3   7   6  674.83   40.00
   2  -7  -6  806.12   45.60
   2  -7  -6  819.92   45.60
   2  -7  -6  774.12   45.50
  -2   7   6  796.52   60.49
  -2   7   6  802.42   49.99
   1  -7  -6  101.89   15.70
   1  -7  -6  100.69   14.60
   1  -7  -6   94.09   15.40
  -1   7   6   98.19   19.90
  -1   7   6   91.39   22.40
   0  -7  -6  -10.10   12.50
   0  -7  -6   22.40   14.00
   0  -7  -6    7.80   13.00
   0   7   6   -0.70   18.90
   0   7   6  -14.80   21.10
  -1  -7  -6   76.49   16.20
  -1  -7  -6   95.79   17.00
  -1  -7  -6  113.89   15.20
   1   7   6  109.89   23.50
   1   7   6   90.99   26.40
   1   7   6  109.39   25.00
  -2  -7  -6  201.18   23.70
  -2  -7  -6  211.08   26.10
  -2  -7  -6  188.68   26.50
   2   7   6  235.68   32.90
   2   7   6  174.68   30.30
   2   7   6  246.48   33.60
  -3  -7  -6  470.05   37.80
  -3  -7  -6  459.85   36.20
   3   7   6  365.16   58.09
   3   7   6  445.66   54.79
   3   7   6  508.85   43.80
  -4  -7  -6  433.06   42.50
  -4  -7  -6  467.35   40.20
  -4  -7  -6  532.45   48.40
   4   7   6  398.46   54.49
   4   7   6  465.45   55.99
   4   7   6  573.94   60.99
   8  -8  -6  199.68   28.10
   8  -8  -6  277.17   34.40
   8  -8  -6  260.37   39.80
  -8   8   6  325.87   48.80
  -8   8   6  185.08   27.50
   7  -8  -6   29.30   20.60
   7  -8  -6   38.80   22.50
   7  -8  -6   13.80   20.70
  -7   8   6   55.89   28.20
  -7   8   6   61.79   19.50
   6  -8  -6   37.60   20.00
   6  -8  -6   80.19   19.30
  -6   8   6   59.49   18.30
  -6   8   6   44.20   24.00
  -6   8   6   15.00   26.30
   5  -8  -6  102.69   18.90
   5  -8  -6  107.69   20.30
   5  -8  -6  104.99   18.90
  -5   8   6  180.78   26.00
  -5   8   6   23.50   50.29
  -5   8   6  161.58   20.10
   4  -8  -6  472.65   35.40
   4  -8  -6  527.45   35.20
   4  -8  -6  466.45   33.80
  -4   8   6  412.76   46.10
  -4   8   6  481.15   41.00
  -4   8   6  533.95   35.80
   3  -8  -6  653.73   40.00
   3  -8  -6  584.44   42.10
   3  -8  -6  567.64   39.00
  -3   8   6  641.74   50.89
  -3   8   6  637.24   41.10
  -3   8   6  586.64   45.30
   2  -8  -6  235.78   25.40
   2  -8  -6  244.98   25.30
   2  -8  -6  184.58   29.30
  -2   8   6  244.38   32.20
  -2   8   6  244.28   39.60
   1  -8  -6   54.59   16.80
   1  -8  -6   49.30   15.80
   1  -8  -6   46.90   15.80
  -1   8   6   20.00   25.00
  -1   8   6   55.99   21.30
   0  -8  -6    2.80   15.20
   0  -8  -6   -6.90   16.50
   0  -8  -6    5.80   16.60
   0   8   6    6.00   21.40
   0   8   6  -22.40   26.10
  -1  -8  -6  102.79   20.00
  -1  -8  -6  138.29   21.20
   1   8   6  164.58   32.80
   1   8   6  179.78   27.20
  -2  -8  -6  315.27   32.80
  -2  -8  -6  312.27   35.50
  -2  -8  -6  294.97   32.50
   2   8   6  401.66   41.30
   2   8   6  346.07   49.99
  -3  -8  -6  293.17   33.10
  -3  -8  -6  326.97   36.10
   3   8   6  226.88   39.70
   3   8   6  354.26   44.80
   3   8   6  245.08   42.80
   7  -9  -6   17.40   22.40
   7  -9  -6  -49.60   22.60
  -7   9   6  -13.80   22.00
  -7   9   6   12.40   29.10
   6  -9  -6   77.19   22.70
   6  -9  -6   74.89   21.40
  -6   9   6   91.99   32.50
  -6   9   6   64.49   27.80
  -6   9   6   62.59   20.70
   5  -9  -6  272.37   30.60
   5  -9  -6  231.28   30.10
   5  -9  -6  235.68   32.80
  -5   9   6  207.28   36.10
  -5   9   6  269.07   38.90
  -5   9   6  287.37   31.80
   4  -9  -6  301.27   31.90
   4  -9  -6  379.86   32.60
   4  -9  -6  333.67   33.10
  -4   9   6  322.07   48.60
  -4   9   6  312.97   32.50
  -4   9   6  321.77   40.70
   3  -9  -6  309.27   32.10
   3  -9  -6  381.36   31.90
   3  -9  -6  396.16   33.10
  -3   9   6  365.16   40.60
  -3   9   6  397.26   49.60
   2  -9  -6  248.78   28.00
   2  -9  -6  281.17   29.80
   2  -9  -6  198.68   28.60
  -2   9   6  234.98   36.90
  -2   9   6  275.57   37.20
   1  -9  -6   69.59   19.20
   1  -9  -6   48.80   17.60
   1  -9  -6   31.30   19.40
  -1   9   6  106.49   25.30
  -1   9   6   72.99   30.20
   0  -9  -6   49.30   19.70
   0  -9  -6   16.40   18.10
   0  -9  -6    9.50   17.60
   0   9   6   -2.10   24.50
   0   9   6    6.00   30.20
  -1  -9  -6  131.79   22.50
  -1  -9  -6   90.79   21.30
  -1  -9  -6  114.49   21.50
   1   9   6   95.49   28.50
   1   9   6  128.09   35.00
  -2  -9  -6  218.78   33.90
  -2  -9  -6  290.47   35.00
   2   9   6  332.87   47.10
   2   9   6  289.27   40.90
   4 -10  -6  375.56   36.40
   4 -10  -6  300.37   34.10
   4 -10  -6  316.57   34.00
  -4  10   6  347.77   43.30
  -4  10   6  243.58   42.80
   3 -10  -6  290.47   34.90
   3 -10  -6  267.27   33.20
   3 -10  -6  286.27   32.40
  -3  10   6  350.66   45.20
  -3  10   6  333.27   43.90
   2 -10  -6   94.09   20.90
   2 -10  -6  125.89   23.30
   2 -10  -6  105.79   22.20
  -2  10   6  106.29   37.40
  -2  10   6  127.19   30.20
   1 -10  -6   -6.70   19.40
   1 -10  -6   -0.80   19.60
  -1  10   6   47.30   33.30
  -1  10   6    3.60   27.40
   4  11  -7    6.10   22.40
   4  11  -7    2.20   23.20
   4  11  -7    8.70   22.10
  -4 -11   7   12.90   20.20
  -4 -11   7   36.70   31.90
  -4 -11   7   -2.70   25.00
   3  11  -7  172.38   25.20
   3  11  -7  192.88   26.30
   3  11  -7  162.88   25.60
  -3 -11   7  208.48   29.50
  -3 -11   7  232.58   31.50
   2  11  -7  287.67   33.90
   2  11  -7  339.97   40.40
   2  11  -7  341.37   34.70
  -2 -11   7  335.37   40.10
  -2 -11   7  287.97   33.20
   1  11  -7  379.86   38.70
   1  11  -7  470.25   38.20
  -1 -11   7  414.96   38.30
  -1 -11   7  527.65   44.30
   0  11  -7  251.17   32.40
   0  11  -7  283.57   33.30
   0 -11   7  242.08   37.40
   0 -11   7  261.27   34.10
  -1  11  -7   24.50   17.40
  -1  11  -7   42.90   20.70
  -1  11  -7   45.30   18.80
   1 -11   7   45.80   22.70
   1 -11   7   41.10   21.00
  -2  11  -7   15.50   18.20
  -2  11  -7   14.70   22.30
  -2  11  -7   -1.80   20.80
   2 -11   7    2.60   23.50
   2 -11   7    3.90   20.20
  -3  11  -7  186.38   26.80
  -3  11  -7  188.18   31.30
  -3  11  -7  195.38   29.10
   3 -11   7  219.48   30.30
   3 -11   7  261.87   36.10
   3 -11   7  220.78   31.40
   6  10  -7   18.50   24.30
   6  10  -7   66.19   24.20
   6  10  -7  -26.50   40.10
  -6 -10   7   46.40   28.80
  -6 -10   7   41.00   35.30
   5  10  -7    6.50   20.70
   5  10  -7   34.00   23.40
   5  10  -7   51.99   21.60
  -5 -10   7   42.20   30.60
  -5 -10   7   57.89   25.90
   4  10  -7   33.20   19.30
   4  10  -7   30.00   19.80
   4  10  -7   14.40   19.20
  -4 -10   7   10.30   24.40
  -4 -10   7  -13.00   22.30
  -4 -10   7   36.60   18.20
   3  10  -7  356.46   33.80
   3  10  -7  376.16   33.40
   3  10  -7  354.06   35.30
  -3 -10   7  272.47   38.30
  -3 -10   7  349.87   32.40
  -3 -10   7  313.07   34.40
   2  10  -7  588.64   41.00
   2  10  -7  586.44   40.40
  -2 -10   7  574.64   45.20
  -2 -10   7  578.94   39.90
   1  10  -7  490.15   36.80
   1  10  -7  483.45   37.20
  -1 -10   7  450.55   36.20
  -1 -10   7  500.15   40.20
   0  10  -7  431.56   35.50
   0  10  -7  435.46   36.50
   0  10  -7  466.95   33.70
   0 -10   7  421.16   39.00
   0 -10   7  469.65   36.60
  -1  10  -7   69.59   17.60
  -1  10  -7   50.09   18.80
   1 -10   7   37.60   20.30
   1 -10   7   65.09   18.50
  -2  10  -7   17.90   21.20
  -2  10  -7   54.19   17.50
  -2  10  -7   23.90   20.50
   2 -10   7  -16.90   18.20
   2 -10   7   44.50   20.60
   2 -10   7   31.50   21.60
  -3  10  -7  353.56   40.00
  -3  10  -7  355.66   35.60
  -3  10  -7  354.16   42.40
   3 -10   7  358.76   40.10
   3 -10   7  352.36   37.20
   3 -10   7  289.77   40.20
  -4  10  -7  470.95   52.59
  -4  10  -7  578.34   50.19
  -4  10  -7  576.44   44.20
   4 -10   7  587.84   45.20
   4 -10   7  484.95   48.20
  -5  10  -7  351.46   43.10
  -5  10  -7  358.66   49.00
   5 -10   7  375.76   42.90
   5 -10   7  398.06   47.00
   7   9  -7  181.58   28.50
   7   9  -7  168.88   27.00
  -7  -9   7  268.17   39.20
  -7  -9   7  218.88   35.50
   6   9  -7   66.19   21.80
   6   9  -7  135.09   23.30
   6   9  -7   77.99   22.70
  -6  -9   7  107.69   27.80
  -6  -9   7  108.59   32.00
   5   9  -7   -7.30   18.30
   5   9  -7   -8.80   17.70
   5   9  -7   25.10   18.40
  -5  -9   7   -7.80   26.00
  -5  -9   7   22.30   22.70
   4   9  -7   58.69   17.40
   4   9  -7   95.79   18.20
   4   9  -7   99.09   18.70
  -4  -9   7   76.39   16.40
  -4  -9   7   92.19   21.30
  -4  -9   7  107.49   23.60
   3   9  -7  374.36   32.00
   3   9  -7  333.37   30.20
   3   9  -7  334.47   29.90
  -3  -9   7  416.16   32.20
  -3  -9   7  361.46   29.90
  -3  -9   7  302.37   33.60
   2   9  -7  623.04   40.00
   2   9  -7  617.94   40.20
  -2  -9   7  585.34   42.30
  -2  -9   7  661.13   39.60
   1   9  -7  342.97   29.60
   1   9  -7  366.96   30.20
  -1  -9   7  386.46   33.10
  -1  -9   7  345.17   29.00
   0   9  -7  417.66   33.30
   0   9  -7  451.65   32.20
   0   9  -7  441.36   32.70
   0  -9   7  452.95   32.90
   0  -9   7  379.86   48.00
  -1   9  -7    7.30   15.90
  -1   9  -7   10.60   13.20
  -1   9  -7   10.10   16.70
   1  -9   7   29.00   16.90
   1  -9   7   16.20   14.70
   1  -9   7   -3.70   15.80
  -2   9  -7  146.89   19.90
  -2   9  -7  187.28   24.20
  -2   9  -7  180.48   24.30
   2  -9   7  159.08   23.20
   2  -9   7  124.99   22.20
   2  -9   7  203.08   22.20
  -3   9  -7  376.46   36.50
  -3   9  -7  277.37   38.30
  -3   9  -7  330.77   32.10
   3  -9   7  271.97   36.20
   3  -9   7  345.07   36.00
   3  -9   7  278.27   32.60
  -4   9  -7  530.85   41.50
  -4   9  -7  563.04   47.90
  -4   9  -7  553.24   49.80
   4  -9   7  538.85   43.40
   4  -9   7  560.04   45.90
   4  -9   7  438.46   44.50
  -5   9  -7  302.17   44.10
  -5   9  -7  286.27   49.30
   5  -9   7  301.87   42.30
   5  -9   7  315.47   37.80
  -6   9  -7  159.58   35.30
  -6   9  -7  179.98   37.00
   6  -9   7  159.88   33.80
   6  -9   7  176.78   29.90
   8   8  -7  268.87   41.10
   8   8  -7  349.17   41.20
  -8  -8   7  257.27   42.20
  -8  -8   7  251.07   38.50
   7   8  -7  284.07   36.10
   7   8  -7  265.17   36.30
  -7  -8   7  337.77   48.40
  -7  -8   7  233.98   33.80
   6   8  -7    1.80   16.60
   6   8  -7   10.20   18.10
   6   8  -7   10.80   18.10
  -6  -8   7   34.00   22.60
  -6  -8   7   25.50   27.00
   5   8  -7    2.80   14.60
   5   8  -7    1.90   15.40
   5   8  -7   25.50   16.20
  -5  -8   7    5.60   19.70
  -5  -8   7   20.00   25.30
   4   8  -7   45.30   14.80
   4   8  -7   54.09   15.30
   4   8  -7   67.09   14.70
  -4  -8   7   57.39   19.10
  -4  -8   7   65.29   17.90
  -4  -8   7   73.79   14.60
   3   8  -7  400.76   29.50
   3   8  -7  421.16   29.80
   3   8  -7  378.36   28.90
  -3  -8   7  415.96   30.30
  -3  -8   7  376.06   32.30
  -3  -8   7  371.56   28.10
   2   8  -7  711.63   42.70
   2   8  -7  679.43   43.70
  -2  -8   7  735.53   41.80
  -2  -8   7  738.23   46.90
  -2  -8   7  694.93   40.00
   1   8  -7  377.56   29.00
   1   8  -7  397.26   28.80
   1   8  -7  431.36   28.40
  -1  -8   7  376.96   32.20
  -1  -8   7  401.16   28.70
   0   8  -7   69.29   15.70
   0   8  -7   68.19   13.60
   0  -8   7   46.80   14.70
   0  -8   7   58.59   14.00
   0  -8   7   83.09   15.90
  -1   8  -7   33.60   11.70
  -1   8  -7   11.60   13.60
  -1   8  -7  -14.90   16.60
   1  -8   7   15.90   14.70
   1  -8   7   -5.60   13.60
   1  -8   7   -4.60   12.70
  -2   8  -7  199.68   24.50
  -2   8  -7  227.88   26.40
  -2   8  -7  222.78   27.50
   2  -8   7  280.87   27.50
   2  -8   7  219.68   25.30
   2  -8   7  261.67   28.20
  -3   8  -7  279.47   38.70
  -3   8  -7  306.17   33.10
   3  -8   7  307.67   32.70
   3  -8   7  349.47   30.70
   3  -8   7  336.17   32.80
  -4   8  -7  658.63   50.99
  -4   8  -7  655.63   48.30
   4  -8   7  616.54   42.60
   4  -8   7  555.84   45.90
   4  -8   7  506.45   43.10
  -5   8  -7  383.26   46.40
  -5   8  -7  434.96   48.10
   5  -8   7  319.87   42.20
   5  -8   7  451.95   39.20
  -6   8  -7   86.09   33.30
  -6   8  -7   50.89   32.70
   6  -8   7  151.08   32.30
   6  -8   7   56.89   26.90
   9   7  -7  199.78   33.50
   9   7  -7  197.88   42.60
   9   7  -7  185.08   32.10
  -9  -7   7  196.28   39.30
  -9  -7   7  227.08   37.20
   8   7  -7  381.96   43.70
   8   7  -7  338.97   39.70
  -8  -7   7  396.96   50.89
  -8  -7   7  298.47   41.80
   7   7  -7  185.38   24.20
   7   7  -7  215.88   31.10
  -7  -7   7  151.58   31.60
  -7  -7   7  185.28   28.90
   6   7  -7   31.60   15.60
   6   7  -7   25.40   14.30
   6   7  -7   42.00   16.50
  -6  -7   7   90.49   22.70
  -6  -7   7   33.30   24.40
   5   7  -7  186.58   21.20
   5   7  -7  191.58   22.10
   5   7  -7  167.58   23.30
  -5  -7   7  196.18   24.20
  -5  -7   7  182.38   28.30
   4   7  -7  292.67   31.80
   4   7  -7  324.87   27.80
  -4  -7   7  306.67   27.70
  -4  -7   7  311.97   26.50
   3   7  -7  392.66   27.80
   3   7  -7  375.76   27.10
   3   7  -7  387.26   26.70
  -3  -7   7  412.36   27.70
  -3  -7   7  363.06   30.00
  -3  -7   7  390.06   26.70
   2   7  -7  866.51   47.60
   2   7  -7  879.71   48.20
  -2  -7   7  840.32   46.00
  -2  -7   7  882.71   47.50
  -2  -7   7  851.51   49.70
   1   7  -7  881.71   47.90
   1   7  -7  811.32   47.10
   1   7  -7  873.01   49.20
  -1  -7   7  830.42   48.60
  -1  -7   7  879.91   49.10
   0   7  -7   62.89   12.90
   0   7  -7   60.39   12.00
   0   7  -7   69.59   17.30
   0  -7   7   70.09   12.40
   0  -7   7   71.69   13.40
   0  -7   7   56.29   14.20
  -1   7  -7   22.50   18.80
  -1   7  -7   53.19   13.30
  -1   7  -7   34.30   11.40
   1  -7   7   61.19   12.50
   1  -7   7   44.60   14.30
   1  -7   7   37.00   13.30
  -2   7  -7  461.45   42.50
   2  -7   7  524.15   37.10
   2  -7   7  512.65   32.90
  -3   7  -7  395.06   33.10
   3  -7   7  388.26   32.80
   3  -7   7  382.96   30.90
   3  -7   7  364.16   31.10
  -4   7  -7  520.75   41.50
  -4   7  -7  590.54   47.00
   4  -7   7  473.05   36.60
   4  -7   7  445.16   39.10
  -5   7  -7  402.06   44.90
  -5   7  -7  299.47   41.00
   5  -7   7  301.07   34.60
   5  -7   7  273.57   37.60
  -6   7  -7   72.19   30.20
  -6   7  -7   55.29   28.30
  -6   7  -7   82.09   30.60
   6  -7   7   89.39   25.40
   6  -7   7   -4.70   28.10
  -7   7  -7   22.00   27.90
  -7   7  -7   67.49   32.40
  -7   7  -7   40.80   32.80
   7  -7   7   -0.40   33.40
   7  -7   7   39.40   28.90
   9   6  -7  274.77   41.60
   9   6  -7  251.17   41.60
   9   6  -7  324.87   42.10
  -9  -6   7  209.58   45.10
  -9  -6   7  264.17   40.50
  -9  -6   7  354.06   52.09
   8   6  -7  366.76   38.10
   8   6  -7  476.85   51.19
   8   6  -7  413.16   39.10
  -8  -6   7  466.95   37.20
  -8  -6   7  443.76   47.80
  -8  -6   7  404.46   48.70
   7   6  -7  135.89   20.80
   7   6  -7  128.89   20.00
  -7  -6   7  133.89   27.10
  -7  -6   7  183.68   27.10
   6   6  -7   15.00   20.80
   6   6  -7  -14.30   13.20
   6   6  -7   -2.00   11.10
  -6  -6   7  -17.80   17.30
   5   6  -7  177.48   25.70
   5   6  -7  168.58   20.00
   5   6  -7  159.38   17.80
  -5  -6   7  113.39   21.30
  -5  -6   7  176.98   25.70
   4   6  -7  173.18   19.30
   4   6  -7  205.48   20.10
   4   6  -7  230.38   18.50
  -4  -6   7  212.08   24.70
  -4  -6   7  219.28   22.50
  -4  -6   7  191.08   19.40
   3   6  -7  562.24   34.00
   3   6  -7  557.94   33.40
   3   6  -7  558.44   33.60
  -3  -6   7  597.74   34.00
  -3  -6   7  588.14   37.10
  -3  -6   7  584.24   33.70
   2   6  -7  698.03   40.40
   2   6  -7  740.63   39.80
   2   6  -7  671.03   42.80
  -2  -6   7  755.62   40.00
  -2  -6   7  672.43   38.30
  -2  -6   7  761.52   42.50
   1   6  -7  555.94   33.10
   1   6  -7  484.05   42.20
   1   6  -7  590.14   33.80
  -1  -6   7  599.04   35.60
  -1  -6   7  566.54   33.00
  -1  -6   7  555.94   34.40
   0   6  -7   10.90    8.60
   0   6  -7    0.80   16.00
   0   6  -7   -6.30    9.20
   0  -6   7    9.80    9.70
   0  -6   7    9.20   10.90
   0  -6   7    5.10    8.50
  -1   6  -7  201.68   24.80
  -1   6  -7  218.08   20.60
   1  -6   7  185.38   25.30
   1  -6   7  225.28   19.40
   1  -6   7  168.28   20.70
  -2   6  -7  449.36   31.40
  -2   6  -7  421.26   39.00
   2  -6   7  401.66   29.90
   2  -6   7  436.16   31.20
   2  -6   7  445.36   28.90
  -3   6  -7  808.72   51.59
  -3   6  -7  731.03   52.59
   3  -6   7  744.83   42.40
   3  -6   7  624.34   48.90
  -4   6  -7  279.77   29.50
  -4   6  -7  351.46   39.70
  -4   6  -7  297.87   32.70
   4  -6   7  280.07   31.00
   4  -6   7  288.07   30.70
  -5   6  -7  379.86   40.00
  -5   6  -7  339.37   37.50
  -5   6  -7  405.06   44.50
   5  -6   7  362.56   38.30
   5  -6   7  400.66   34.70
  -6   6  -7   64.99   28.80
  -6   6  -7   22.40   27.30
  -6   6  -7   16.40   26.30
   6  -6   7   68.49   23.00
   6  -6   7   80.49   27.80
  -7   6  -7   -5.40   32.20
  -7   6  -7    3.80   31.70
  -7   6  -7   15.90   25.90
   7  -6   7   53.79   33.10
   7  -6   7   -2.00   27.00
  10   5  -7  301.37   41.30
  10   5  -7  244.38   37.30
  10   5  -7  246.68   36.20
 -10  -5   7  263.87   42.30
 -10  -5   7  241.88   37.20
 -10  -5   7  219.88   37.40
   9   5  -7  318.87   49.00
   9   5  -7  236.08   38.90
   9   5  -7  305.17   39.30
  -9  -5   7  231.08   38.80
  -9  -5   7  231.28   38.60
  -9  -5   7  218.68   35.10
   8   5  -7  509.55   37.80
   8   5  -7  394.16   37.60
   8   5  -7  485.05   49.80
  -8  -5   7  518.45   46.50
  -8  -5   7  495.45   37.80
  -8  -5   7  365.56   47.60
   7   5  -7  192.58   25.30
   7   5  -7  217.08   27.80
   7   5  -7  216.88   26.00
  -7  -5   7  211.48   28.80
  -7  -5   7  224.98   25.20
  -7  -5   7  262.27   33.70
   6   5  -7   -6.30   12.30
   6   5  -7    5.90   19.00
  -6  -5   7    5.60   17.50
   5   5  -7   23.60   10.90
   5   5  -7   20.40   10.00
   5   5  -7   30.40    8.60
  -5  -5   7   27.30   14.50
  -5  -5   7    8.30   15.00
   4   5  -7  542.45   31.40
   4   5  -7  556.84   30.90
   4   5  -7  511.75   31.40
  -4  -5   7  502.65   35.90
  -4  -5   7  545.45   33.30
  -4  -5   7  532.25   31.70
   3   5  -7  653.53   35.90
   3   5  -7  644.54   36.40
   3   5  -7  664.13   36.50
  -3  -5   7  652.53   40.00
  -3  -5   7  668.83   36.40
  -3  -5   7  620.64   36.00
   2   5  -7  692.93   37.80
   2   5  -7  618.04   40.30
   2   5  -7  694.13   37.80
  -2  -5   7  642.94   36.30
  -2  -5   7  715.33   37.50
  -2  -5   7  718.63   40.90
   1   5  -7  251.47   19.60
   1   5  -7  278.97   19.80
   1   5  -7  297.07   26.00
  -1  -5   7  278.67   23.40
  -1  -5   7  270.07   19.30
  -1  -5   7  265.57   20.60
   0   5  -7    8.50    8.20
   0   5  -7   13.40    8.40
   0   5  -7   -6.40   14.10
   0  -5   7    5.20    8.70
   0  -5   7    0.80   10.60
   0  -5   7   17.50    8.50
  -1   5  -7  210.98   19.70
  -1   5  -7  223.08   28.20
   1  -5   7  240.18   21.40
   1  -5   7  196.48   20.30
   1  -5   7  212.38   18.40
  -2   5  -7  411.06   37.50
  -2   5  -7  491.15   32.00
   2  -5   7  411.16   28.60
   2  -5   7  427.16   30.60
   2  -5   7  460.55   28.20
  -3   5  -7  616.14   35.00
  -3   5  -7  610.84   40.30
  -3   5  -7  627.04   46.30
   3  -5   7  593.64   36.20
   3  -5   7  567.14   38.40
  -4   5  -7  340.27   50.99
  -4   5  -7  436.46   30.90
   4  -5   7  442.86   30.70
   4  -5   7  397.66   34.00
  -5   5  -7  328.37   34.90
  -5   5  -7  330.97   38.70
  -5   5  -7  444.66   43.00
   5  -5   7  466.35   32.70
   5  -5   7  383.26   36.00
  -6   5  -7   60.89   25.90
  -6   5  -7  -23.10   26.90
  -6   5  -7  -37.80   25.10
   6  -5   7    9.20   25.80
   6  -5   7    4.20   20.50
  -7   5  -7  152.48   28.60
  -7   5  -7  132.29   31.70
  -7   5  -7  137.09   33.30
   7  -5   7   97.99   33.60
   7  -5   7  121.59   28.00
  -8   5  -7  190.38   37.10
  -8   5  -7  140.29   31.90
  -8   5  -7  248.48   38.20
   8  -5   7  178.68   36.10
   8  -5   7  150.38   41.30
  10   4  -7  334.27   47.60
  10   4  -7  281.17   40.90
  10   4  -7  350.16   50.79
 -10  -4   7  330.47   43.20
 -10  -4   7  324.67   45.60
   9   4  -7  413.76   40.30
   9   4  -7  377.96   40.50
   9   4  -7  478.05   48.60
  -9  -4   7  367.26   40.40
  -9  -4   7  361.06   48.90
  -9  -4   7  439.06   46.90
   8   4  -7  207.78   28.60
   8   4  -7  220.38   29.00
   8   4  -7  199.88   28.70
  -8  -4   7  227.08   29.10
  -8  -4   7  177.28   29.50
  -8  -4   7  178.98   26.50
   7   4  -7  183.48   24.80
   7   4  -7  138.19   17.80
   7   4  -7  178.78   22.70
  -7  -4   7  146.49   18.20
  -7  -4   7  131.99   23.40
   6   4  -7   79.39   13.20
   6   4  -7   91.99   19.40
   6   4  -7   83.49   13.20
  -6  -4   7  100.39   13.30
  -6  -4   7  111.49   19.00
  -6  -4   7   85.59   17.90
   5   4  -7  653.93   35.40
   5   4  -7  625.64   37.50
   5   4  -7  687.93   37.50
   5   4  -7  681.33   42.20
  -5  -4   7  656.03   37.10
  -5  -4   7  704.43   40.00
  -5  -4   7  676.23   43.30
   4   4  -7 1328.47   67.59
   4   4  -7 1353.16   66.89
   4   4  -7 1267.27   67.79
  -4  -4   7 1327.07   67.19
  -4  -4   7 1357.36   68.59
  -4  -4   7 1387.26   72.09
   3   4  -7 1223.98   62.19
   3   4  -7 1193.48   62.49
   3   4  -7 1192.28   62.99
   3   4  -7 1211.68   61.89
  -3  -4   7 1261.27   62.29
  -3  -4   7 1158.08   62.19
  -3  -4   7 1238.98   61.59
  -3  -4   7 1321.67   66.19
   2   4  -7  818.02   44.00
   2   4  -7  836.42   45.60
   2   4  -7  850.61   43.70
   2   4  -7  846.22   42.60
   2   4  -7  809.92   43.70
  -2  -4   7  846.42   47.20
  -2  -4   7  823.42   44.40
  -2  -4   7  825.12   43.50
  -2  -4   7  785.32   42.80
   1   4  -7  306.47   18.70
   1   4  -7  313.67   20.50
   1   4  -7  305.47   20.80
   1   4  -7  324.27   23.80
   1   4  -7  306.07   18.20
  -1  -4   7  299.37   21.00
  -1  -4   7  261.07   24.30
  -1  -4   7  277.77   19.60
  -1  -4   7  300.07   19.40
   0   4  -7    9.90    8.50
   0   4  -7   26.20   11.40
   0   4  -7    2.80    6.00
   0  -4   7   -3.20   10.80
   0  -4   7   -1.50    9.00
   0  -4   7   -4.20    7.90
   0  -4   7   16.10    6.80
  -1   4  -7  397.86   23.50
  -1   4  -7  414.26   29.50
  -1   4  -7  411.66   27.30
   1  -4   7  410.96   27.30
   1  -4   7  418.76   28.50
   1  -4   7  377.96   24.70
   1  -4   7  386.76   27.10
  -2   4  -7  451.95   28.60
  -2   4  -7  511.95   35.10
  -2   4  -7  517.85   33.40
   2  -4   7  517.45   34.70
   2  -4   7  482.75   31.90
   2  -4   7  486.15   29.30
  -3   4  -7  701.83   46.70
  -3   4  -7  753.02   48.10
  -3   4  -7  755.72   40.80
   3  -4   7  755.02   43.30
   3  -4   7  718.83   44.00
   3  -4   7  755.62   47.70
  -4   4  -7  411.16   28.70
  -4   4  -7  370.26   34.50
  -4   4  -7  408.66   38.80
   4  -4   7  397.46   31.70
   4  -4   7  415.56   38.00
   4  -4   7  405.06   28.50
  -5   4  -7  114.99   20.20
  -5   4  -7  151.58   27.50
  -5   4  -7  122.89   23.80
   5  -4   7  188.48   30.00
   5  -4   7  147.39   18.90
   5  -4   7  135.49   22.40
  -6   4  -7   10.20   24.90
  -6   4  -7  -16.50   28.20
  -6   4  -7  -21.00   23.00
   6  -4   7    2.20   31.00
   6  -4   7   42.00   24.70
  -7   4  -7  201.98   33.20
  -7   4  -7  136.99   32.30
  -7   4  -7  146.59   35.80
   7  -4   7  169.18   35.70
   7  -4   7  176.18   28.80
   7  -4   7  225.88   39.90
  -8   4  -7  200.88   34.90
  -8   4  -7  220.28   37.80
  -8   4  -7  331.37   50.79
   8  -4   7  195.98   34.60
   8  -4   7  219.58   41.90
   8  -4   7  310.37   45.70
  11   3  -7  126.99   42.70
  11   3  -7  127.99   36.40
  11   3  -7  177.88   35.40
 -11  -3   7  164.98   41.50
 -11  -3   7   90.79   39.00
  10   3  -7  282.47   36.40
  10   3  -7  285.17   44.70
  10   3  -7  405.66   47.30
 -10  -3   7  265.07   42.40
 -10  -3   7  256.27   35.20
   9   3  -7  285.37   34.90
   9   3  -7  269.67   37.00
   9   3  -7  301.27   43.00
  -9  -3   7  237.28   34.50
  -9  -3   7  286.57   35.90
   8   3  -7  102.29   24.80
   8   3  -7  113.99   19.30
   8   3  -7  141.79   19.80
  -8  -3   7   95.19   19.70
  -8  -3   7   69.59   24.00
  -8  -3   7  115.59   23.10
   7   3  -7   73.99   14.40
   7   3  -7   85.79   20.70
   7   3  -7   80.99   14.40
  -7  -3   7   71.89   18.90
  -7  -3   7   73.59   15.60
  -7  -3   7   84.09   20.60
   6   3  -7  381.16   32.00
   6   3  -7  348.57   25.10
   6   3  -7  337.17   25.20
  -6  -3   7  362.86   25.70
  -6  -3   7  380.26   28.80
  -6  -3   7  391.46   35.50
   5   3  -7 1105.79   58.69
   5   3  -7 1091.49   58.69
   5   3  -7 1198.98   63.29
  -5  -3   7 1118.89   60.19
  -5  -3   7 1130.59   58.89
  -5  -3   7 1221.28   63.89
   4   3  -7 1064.19   56.79
   4   3  -7 1011.70   52.59
   4   3  -7 1024.30   52.49
   4   3  -7 1013.90   51.79
  -4  -3   7  994.30   52.59
  -4  -3   7 1053.99   57.29
  -4  -3   7  992.30   53.29
   3   3  -7 1008.30   56.29
   3   3  -7 1088.99   54.29
   3   3  -7 1115.99   55.89
   3   3  -7  997.40   57.29
   3   3  -7 1072.39   54.39
  -3  -3   7 1087.19   55.99
  -3  -3   7 1096.49   54.39
  -3  -3   7 1091.69   54.39
  -3  -3   7 1021.10   54.59
  -3  -3   7 1082.49   58.59
   2   3  -7  343.27   20.40
   2   3  -7  347.97   20.90
   2   3  -7  338.07   21.30
   2   3  -7  353.76   23.00
   2   3  -7  364.36   20.50
   2   3  -7  283.07   23.90
   2   3  -7  343.37   20.10
  -2  -3   7  331.87   20.50
  -2  -3   7  309.57   20.00
  -2  -3   7  306.47   25.40
  -2  -3   7  347.57   23.40
  -2  -3   7  332.47   20.50
  -2  -3   7  335.57   21.30
  -2  -3   7  330.97   21.70
   1   3  -7  188.28   15.70
   1   3  -7  160.18   12.60
   1   3  -7  174.68   16.40
   1   3  -7  151.18   12.80
  -1  -3   7  142.89   14.70
  -1  -3   7  167.78   13.00
  -1  -3   7  160.88   16.20
  -1  -3   7  153.48   19.30
  -1  -3   7  161.38   13.00
   0   3  -7   20.30    6.50
   0   3  -7   26.30    5.90
   0   3  -7   14.80    9.50
   0   3  -7   22.50    9.40
   0   3  -7   13.90    8.60
   0  -3   7   39.40   10.40
   0  -3   7   17.10    7.90
   0  -3   7   21.50    6.70
   0  -3   7   35.40   10.10
  -1   3  -7  586.74   35.70
  -1   3  -7  601.34   32.40
  -1   3  -7  581.24   35.50
   1  -3   7  576.44   37.00
   1  -3   7  600.14   32.20
   1  -3   7  594.44   34.50
  -2   3  -7 1618.84   86.09
  -2   3  -7 1666.43   85.89
  -2   3  -7 1707.83   82.69
   2  -3   7 1662.83   87.29
   2  -3   7 1674.03   82.49
   2  -3   7 1625.94   84.89
  -3   3  -7 1239.08   63.09
  -3   3  -7 1288.77   67.49
  -3   3  -7 1162.48   67.39
   3  -3   7 1160.18   69.09
   3  -3   7 1294.77   62.79
   3  -3   7 1210.98   65.99
  -4   3  -7  554.44   41.10
  -4   3  -7  540.55   33.70
  -4   3  -7  522.05   48.40
   4  -3   7  537.95   37.70
   4  -3   7  499.75   42.80
   4  -3   7  554.24   33.00
  -5   3  -7   97.59   26.60
  -5   3  -7  141.39   24.10
  -5   3  -7   89.09   18.70
   5  -3   7  100.59   27.60
   5  -3   7  135.99   22.90
   5  -3   7  108.89   17.50
  -6   3  -7  -11.10   29.20
  -6   3  -7    1.00   21.10
  -6   3  -7   -5.10   24.40
   6  -3   7  -11.80   19.20
   6  -3   7   -4.10   23.70
   6  -3   7    6.50   31.10
  -7   3  -7  132.79   35.40
  -7   3  -7  130.29   31.30
  -7   3  -7  132.29   31.10
   7  -3   7  141.89   31.80
   7  -3   7  101.39   33.00
   7  -3   7  176.08   37.70
  -8   3  -7  309.77   49.20
  -8   3  -7  270.97   41.30
  -8   3  -7  208.88   38.00
   8  -3   7  242.58   35.00
   8  -3   7  240.08   44.10
  11   2  -7  198.68   36.80
  11   2  -7  201.98   41.60
  11   2  -7  245.28   35.90
 -11  -2   7  193.28   41.70
 -11  -2   7  171.98   40.00
  10   2  -7  306.37   44.80
  10   2  -7  362.26   56.09
  10   2  -7  347.27   44.10
 -10  -2   7  280.77   43.40
 -10  -2   7  358.76   50.49
   9   2  -7  499.75   43.70
   9   2  -7  427.36   38.70
   9   2  -7  434.46   42.10
  -9  -2   7  444.06   45.90
  -9  -2   7  471.65   40.60
   8   2  -7  240.48   26.60
   8   2  -7  234.88   28.50
   8   2  -7  270.37   32.90
  -8  -2   7  255.97   28.10
  -8  -2   7  230.28   32.50
   7   2  -7    8.80   11.80
   7   2  -7   27.00   12.80
   7   2  -7   -2.50   15.60
  -7  -2   7   19.00   16.10
  -7  -2   7    1.90   13.60
   6   2  -7   24.20   14.50
   6   2  -7   14.40    9.20
   6   2  -7    8.70    9.50
  -6  -2   7   10.10   11.00
  -6  -2   7   23.10   13.00
  -6  -2   7  -15.60   14.70
   5   2  -7  788.72   46.00
   5   2  -7  746.53   41.10
   5   2  -7  797.32   41.80
  -5  -2   7  764.42   42.00
  -5  -2   7  755.02   45.90
  -5  -2   7  764.92   42.80
  -5  -2   7  785.52   42.60
   4   2  -7  690.43   37.90
   4   2  -7  833.22   53.19
   4   2  -7  732.43   38.10
   4   2  -7  722.83   37.70
   4   2  -7  688.33   42.20
  -4  -2   7  725.23   39.00
  -4  -2   7  667.43   39.00
  -4  -2   7  723.33   40.00
  -4  -2   7  738.63   42.90
   3   2  -7 1086.99   53.89
   3   2  -7  985.80   56.99
   3   2  -7 1108.29   54.59
   3   2  -7 1047.70   54.29
   3   2  -7 1082.79   54.29
  -3  -2   7 1110.79   54.89
  -3  -2   7 1114.69   55.89
  -3  -2   7 1064.99   54.79
  -3  -2   7 1080.89   54.79
  -3  -2   7 1003.60   57.59
   2   2  -7  266.07   19.10
   2   2  -7  209.68   19.70
   2   2  -7  247.88   16.30
   2   2  -7  245.68   16.60
   2   2  -7  255.07   17.90
   2   2  -7  251.37   16.50
   2   2  -7  243.08   16.00
  -2  -2   7  251.77   19.00
  -2  -2   7  230.38   16.60
  -2  -2   7  254.67   16.90
  -2  -2   7  236.68   20.80
  -2  -2   7  227.88   15.60
  -2  -2   7  262.57   18.50
  -2  -2   7  249.38   17.00
   1   2  -7   -2.80    5.30
   1   2  -7    3.60    5.70
   1   2  -7   -3.00    8.10
   1   2  -7    2.80    7.40
   1   2  -7   -5.60    7.90
  -1  -2   7   -2.30    6.60
  -1  -2   7    0.00    5.20
  -1  -2   7    5.70    7.80
  -1  -2   7   14.50    8.30
  -1  -2   7    8.50    9.10
   0   2  -7   67.89   10.40
   0   2  -7   59.09    8.70
   0   2  -7   87.79   12.90
   0   2  -7   77.39    9.40
   0   2  -7   71.89   10.90
   0  -2   7   74.49   12.60
   0  -2   7   59.99   10.90
   0  -2   7   64.79    9.90
   0  -2   7   73.79    9.70
   0  -2   7   63.19    7.90
  -1   2  -7  683.13   39.90
  -1   2  -7  720.53   38.00
   1  -2   7  715.13   43.00
   1  -2   7  717.53   39.80
   1  -2   7  710.73   37.10
  -2   2  -7 1853.71   88.89
  -2   2  -7 1741.23   90.69
   2  -2   7 1724.53   93.29
   2  -2   7 1800.02   87.69
   2  -2   7 1789.02   90.59
  -3   2  -7 1315.07   68.89
  -3   2  -7 1305.37   65.89
   3  -2   7 1313.77   64.69
   3  -2   7 1204.38   72.19
   3  -2   7 1262.27   68.39
  -4   2  -7  333.27   31.60
  -4   2  -7  352.56   25.60
   4  -2   7  329.57   29.20
   4  -2   7  318.17   23.80
   4  -2   7  315.17   35.90
  -5   2  -7    3.20   22.00
   5  -2   7   18.70   20.10
   5  -2   7   13.40   13.80
   5  -2   7    1.50   24.60
  -6   2  -7   22.30   23.60
  -6   2  -7   -3.60   28.70
  -6   2  -7   26.30   20.40
   6  -2   7   -1.10   29.30
   6  -2   7  -18.10   18.00
   6  -2   7   16.50   24.80
  -7   2  -7  148.99   31.00
  -7   2  -7  207.28   32.00
  -7   2  -7  220.88   39.70
   7  -2   7  162.48   36.90
   7  -2   7  261.07   38.70
  -8   2  -7  353.96   51.49
  -8   2  -7  355.96   51.09
  -8   2  -7  353.66   57.89
   8  -2   7  458.15   59.89
  11   1  -7  201.98   36.00
  11   1  -7  159.18   33.30
 -11  -1   7  176.78   39.10
 -11  -1   7  248.18   43.30
  10   1  -7  462.85   45.70
  10   1  -7  422.06   45.20
  10   1  -7  456.35   46.50
 -10  -1   7  391.06   45.40
 -10  -1   7  447.86   53.29
   9   1  -7  301.47   35.80
   9   1  -7  302.67   37.70
   9   1  -7  352.66   38.70
  -9  -1   7  373.26   41.70
  -9  -1   7  391.86   35.80
   8   1  -7   76.19   16.60
   8   1  -7  103.29   20.20
  -8  -1   7   86.29   18.80
  -8  -1   7  136.39   22.90
   7   1  -7   37.80   16.00
   7   1  -7   35.40   13.60
   7   1  -7   27.90   11.40
  -7  -1   7   63.39   14.40
  -7  -1   7   26.80   13.80
  -7  -1   7   43.30   15.90
   6   1  -7   52.39   14.60
   6   1  -7   75.99   11.80
   6   1  -7   59.89    9.70
  -6  -1   7   55.29   12.90
  -6  -1   7   90.99   14.30
  -6  -1   7   86.39   13.10
   5   1  -7 1264.17   68.89
   5   1  -7 1284.37   65.69
   5   1  -7 1364.46   65.29
  -5  -1   7 1289.87   67.09
  -5  -1   7 1313.17   67.29
  -5  -1   7 1299.27   66.79
   4   1  -7  833.92   41.90
   4   1  -7  827.82   44.90
   4   1  -7  824.22   42.20
   4   1  -7  758.12   45.00
   4   1  -7  808.12   42.80
   4   1  -7  756.22   43.70
  -4  -1   7  865.01   44.50
  -4  -1   7  800.12   43.40
  -4  -1   7  837.62   43.50
   3   1  -7  638.04   34.30
   3   1  -7  655.53   35.10
   3   1  -7  664.63   34.20
   3   1  -7  674.43   37.10
  -3  -1   7  648.54   35.60
  -3  -1   7  648.24   35.70
  -3  -1   7  639.74   35.50
  -3  -1   7  669.83   36.70
   2   1  -7  737.93   38.80
   2   1  -7  752.32   39.40
   2   1  -7  731.33   37.50
   2   1  -7  738.53   38.40
   2   1  -7  732.83   38.40
  -2  -1   7  718.13   39.00
  -2  -1   7  752.12   40.30
  -2  -1   7  718.83   40.20
  -2  -1   7  723.43   38.50
   1   1  -7   41.60    7.40
   1   1  -7   36.60    6.70
   1   1  -7   36.50    6.50
   1   1  -7   55.79    9.90
   1   1  -7   46.00    6.50
   1   1  -7   39.00    7.10
  -1  -1   7   40.70    8.00
  -1  -1   7   25.80    8.80
  -1  -1   7   41.20    6.70
  -1  -1   7   49.40   10.50
   0   1  -7  216.08   17.90
   0   1  -7  196.68   15.00
   0   1  -7  218.68   14.40
   0   1  -7  239.58   16.20
   0   1  -7  225.88   14.60
   0   1  -7  229.88   13.90
   0  -1   7  201.48   14.90
   0  -1   7  221.38   17.30
   0  -1   7  215.98   18.40
   0  -1   7  220.38   21.40
  -1   1  -7  504.05   31.10
  -1   1  -7  544.35   29.30
  -1   1  -7  482.35   27.10
  -1   1  -7  527.35   27.80
   1  -1   7  511.95   31.80
   1  -1   7  480.55   35.10
   1  -1   7  532.45   30.70
  -2   1  -7  782.12   40.70
  -2   1  -7  795.52   44.40
  -2   1  -7  798.22   42.60
   2  -1   7  783.62   48.50
   2  -1   7  787.32   44.30
  -3   1  -7  403.36   24.00
  -3   1  -7  392.26   29.40
  -3   1  -7  406.66   26.20
   3  -1   7  386.46   29.20
   3  -1   7  393.36   35.00
   3  -1   7  424.26   24.20
  -4   1  -7  142.29   19.40
  -4   1  -7  172.18   26.40
   4  -1   7  158.38   16.90
   4  -1   7  172.88   24.60
   4  -1   7  168.98   25.20
  -5   1  -7  -18.60   15.40
  -5   1  -7   21.90   21.60
   5  -1   7    9.30   13.40
   5  -1   7  -10.90   24.30
   5  -1   7   37.90   22.00
  -6   1  -7   18.40   21.50
  -6   1  -7   62.69   30.10
   6  -1   7   30.20   30.40
   6  -1   7   15.60   26.70
   6  -1   7   45.00   18.00
  -7   1  -7  223.98   31.30
  -7   1  -7  264.47   42.50
   7  -1   7  188.08   37.10
   7  -1   7  240.98   40.30
  -8   1  -7  231.48   40.10
  -8   1  -7  279.87   47.80
   8  -1   7  157.78   42.20
   8  -1   7  314.27   44.40
  11   0  -7   50.89   30.90
  11   0  -7   51.19   29.90
 -11   0   7   36.10   34.10
 -11   0   7  -12.90   38.40
  10   0  -7  424.36   43.10
  10   0  -7  392.06   45.70
 -10   0   7  411.26   50.09
 -10   0   7  436.36   44.50
   9   0  -7  259.57   35.80
   9   0  -7  265.17   28.70
  -9   0   7  240.08   32.00
  -9   0   7  233.08   35.10
  -9   0   7  283.57   38.00
   8   0  -7   37.30   18.80
   8   0  -7   26.20   18.10
  -8   0   7   56.19   19.80
  -8   0   7   85.29   18.80
   7   0  -7  236.38   25.40
   7   0  -7  230.48   25.10
  -7   0   7  229.58   25.20
  -7   0   7  237.28   24.70
  -7   0   7  207.38   22.60
   6   0  -7  366.96   27.60
   6   0  -7  389.46   26.10
   6   0  -7  323.87   26.60
  -6   0   7  375.96   25.60
  -6   0   7  394.56   27.40
  -6   0   7  361.36   27.30
   5   0  -7  429.16   30.50
   5   0  -7  496.85   29.00
   5   0  -7  502.35   29.30
  -5   0   7  514.55   30.90
  -5   0   7  475.25   29.70
  -5   0   7  522.15   29.70
   4   0  -7 1351.06   70.89
   4   0  -7 1360.56   70.29
   4   0  -7 1384.76   69.29
   4   0  -7 1386.96   68.89
  -4   0   7 1398.66   69.99
  -4   0   7 1349.36   70.29
  -4   0   7 1362.96   69.79
  -4   0   7 1397.46   70.69
   3   0  -7  525.25   28.70
   3   0  -7  543.65   30.50
   3   0  -7  542.25   29.90
  -3   0   7  525.05   30.60
  -3   0   7  544.65   31.40
  -3   0   7  523.55   30.40
  -3   0   7  552.34   31.70
   2   0  -7  320.17   20.00
   2   0  -7  323.17   19.60
   2   0  -7  335.67   20.60
   2   0  -7  296.77   18.10
   2   0  -7  312.97   19.50
  -2   0   7  315.07   20.10
  -2   0   7  311.57   23.00
  -2   0   7  291.17   21.80
   1   0  -7   55.59    7.10
   1   0  -7   41.40    7.40
   1   0  -7   36.00    7.50
  -1   0   7   44.30    7.60
  -1   0   7   36.20    9.30
  -1   0   7   64.29   12.40
   0   0  -7  371.86   23.00
   0   0  -7  396.16   22.50
   0   0  -7  374.36   25.00
   0   0  -7  372.86   23.10
   0   0   7  381.76   25.30
   0   0   7  404.46   24.10
   0   0   7  373.96   28.80
  -1   0  -7  816.52   46.10
  -1   0  -7  847.52   43.40
  -1   0  -7  857.61   45.20
   1   0   7  882.71   45.70
   1   0   7  826.52   46.50
   1   0   7  811.52   50.09
  -2   0  -7 1019.00   55.79
  -2   0  -7 1049.09   52.79
  -2   0  -7 1020.10   54.59
   2   0   7  998.80   59.69
   2   0   7 1054.09   56.49
   2   0   7 1057.19   55.79
  -3   0  -7  571.04   36.30
  -3   0  -7  557.04   33.10
  -3   0  -7  573.24   31.60
   3   0   7  524.35   35.60
   3   0   7  544.65   41.90
  -4   0  -7  259.57   28.30
  -4   0  -7  257.97   22.90
  -4   0  -7  262.07   20.70
   4   0   7  238.08   33.80
   4   0   7  223.68   28.60
  -5   0  -7   17.10   15.00
  -5   0  -7  -22.20   15.60
  -5   0  -7   22.10   20.90
   5   0   7   18.70   27.60
   5   0   7   15.50   20.70
  -6   0  -7   99.29   22.50
  -6   0  -7  149.39   30.80
  -6   0  -7   95.89   21.60
   6   0   7  105.29   29.60
   6   0   7  150.98   33.30
  -7   0  -7  260.47   37.70
  -7   0  -7  288.87   43.10
   7   0   7  248.38   40.00
   7   0   7  255.87   40.20
  -8   0  -7  200.38   50.39
  -8   0  -7  183.78   38.90
   8   0   7  181.58   42.10
   8   0   7  264.27   45.60
  11  -1  -7  373.06   49.10
  11  -1  -7  270.67   34.90
 -11   1   7  330.07   49.80
 -11   1   7  310.57   44.30
  10  -1  -7  470.75   45.40
  10  -1  -7  403.06   41.00
 -10   1   7  342.57   44.00
 -10   1   7  341.57   45.10
 -10   1   7  397.76   49.00
   9  -1  -7  291.77   33.90
   9  -1  -7  286.37   35.20
   9  -1  -7  235.48   33.20
  -9   1   7  272.07   37.80
  -9   1   7  264.77   34.70
  -9   1   7  292.77   33.20
   8  -1  -7   81.89   22.90
   8  -1  -7   24.10   17.20
   8  -1  -7   27.00   18.40
  -8   1   7   53.89   20.30
  -8   1   7   54.49   20.30
  -8   1   7   68.19   17.80
   7  -1  -7  110.89   18.30
   7  -1  -7   93.09   15.10
   7  -1  -7   71.39   18.70
  -7   1   7  115.19   18.10
  -7   1   7   87.69   16.40
  -7   1   7   98.39   18.60
   6  -1  -7  449.66   33.60
   6  -1  -7  532.65   34.40
   6  -1  -7  498.65   33.70
  -6   1   7  521.25   34.00
  -6   1   7  545.05   34.30
  -6   1   7  538.15   32.20
   5  -1  -7  339.37   22.60
   5  -1  -7  333.47   25.30
   5  -1  -7  346.47   24.70
  -5   1   7  326.17   24.50
  -5   1   7  359.16   23.70
  -5   1   7  334.07   25.40
   4  -1  -7 1216.88   61.99
   4  -1  -7 1225.18   62.59
   4  -1  -7 1212.48   61.89
  -4   1   7 1220.88   62.79
  -4   1   7 1201.18   62.39
  -4   1   7 1213.38   63.49
   3  -1  -7  325.47   21.10
   3  -1  -7  305.37   19.40
   3  -1  -7  343.57   20.70
  -3   1   7  316.57   21.30
  -3   1   7  332.47   24.30
  -3   1   7  324.77   22.90
   2  -1  -7   57.19    8.30
   2  -1  -7   64.39    8.20
   2  -1  -7   56.49    8.30
  -2   1   7   64.09   13.40
  -2   1   7   57.09   10.40
  -2   1   7   46.60    8.30
   1  -1  -7  143.39   13.20
   1  -1  -7  167.08   22.10
   1  -1  -7  160.68   13.90
   1  -1  -7  152.48   12.30
  -1   1   7  159.98   21.10
  -1   1   7  173.28   16.90
  -1   1   7  171.18   14.10
   0  -1  -7  956.00   48.10
   0  -1  -7  941.61   48.80
   0   1   7  842.52   53.99
   0   1   7  981.80   49.00
   0   1   7  926.51   50.59
  -1  -1  -7  751.32   39.30
  -1  -1  -7  723.93   42.10
  -1  -1  -7  754.62   40.20
   1   1   7  778.82   41.00
   1   1   7  719.73   42.20
   1   1   7  690.83   46.60
  -2  -1  -7  773.02   44.90
  -2  -1  -7  800.52   41.40
  -2  -1  -7  790.52   42.60
   2   1   7  768.12   49.90
   2   1   7  759.82   45.00
   2   1   7  758.02   44.20
  -3  -1  -7  587.74   38.10
  -3  -1  -7  582.74   34.70
  -3  -1  -7  589.24   33.70
   3   1   7  564.74   38.70
   3   1   7  627.64   44.40
   3   1   7  533.85   38.30
  -4  -1  -7   36.90   16.40
  -4  -1  -7   30.60   16.60
  -4  -1  -7   35.00   15.80
   4   1   7   21.50   18.50
  -5  -1  -7   52.29   22.40
  -5  -1  -7   11.40   16.20
  -5  -1  -7   31.20   16.80
   5   1   7   47.80   23.70
   5   1   7   38.70   28.00
  -6  -1  -7  218.38   29.90
  -6  -1  -7  211.28   31.30
   6   1   7  193.28   34.70
   6   1   7  264.57   37.10
  -7  -1  -7  206.48   33.00
  -7  -1  -7  174.48   30.90
  -7  -1  -7  272.47   43.00
   7   1   7  136.39   38.50
   7   1   7  211.08   40.30
  11  -2  -7  375.76   43.40
  11  -2  -7  325.97   46.70
  11  -2  -7  280.47   39.90
 -11   2   7  206.28   41.30
 -11   2   7  241.18   38.60
  10  -2  -7  250.87   35.20
  10  -2  -7  310.87   41.20
  10  -2  -7  284.47   31.60
 -10   2   7  269.57   35.00
 -10   2   7  296.17   37.70
   9  -2  -7  202.08   25.10
   9  -2  -7  137.79   27.70
   9  -2  -7  216.78   31.40
  -9   2   7  189.08   28.70
  -9   2   7  144.79   24.70
  -9   2   7  222.98   41.40
   8  -2  -7   -4.20   18.70
   8  -2  -7    5.40   16.20
   8  -2  -7   -0.40   18.10
  -8   2   7  -27.50   19.70
  -8   2   7   14.60   16.60
  -8   2   7   10.10   19.60
   7  -2  -7   44.70   16.60
   7  -2  -7   82.29   16.70
   7  -2  -7   64.69   14.80
  -7   2   7   48.10   14.60
  -7   2   7   58.89   16.00
  -7   2   7  104.89   18.50
   6  -2  -7  656.33   41.10
   6  -2  -7  698.13   39.40
   6  -2  -7  695.53   40.80
  -6   2   7  710.33   42.50
  -6   2   7  703.43   40.30
  -6   2   7  650.73   39.80
   5  -2  -7  454.55   27.70
   5  -2  -7  437.46   29.00
   5  -2  -7  441.56   29.00
  -5   2   7  472.05   30.90
  -5   2   7  428.16   28.40
   4  -2  -7  670.43   35.90
   4  -2  -7  670.23   36.10
   4  -2  -7  573.54   35.60
  -4   2   7  601.94   37.70
  -4   2   7  642.04   36.40
  -4   2   7  703.63   38.90
   3  -2  -7  904.71   46.50
   3  -2  -7  885.91   46.20
  -3   2   7  885.21   50.69
  -3   2   7  857.21   47.00
  -3   2   7  876.61   48.50
   2  -2  -7   78.09   10.80
   2  -2  -7   69.99    9.70
   2  -2  -7   73.19    9.90
  -2   2   7   76.39   12.20
  -2   2   7   93.99   11.90
  -2   2   7   65.59   16.20
   1  -2  -7  229.58   15.90
   1  -2  -7  227.38   17.30
   1  -2  -7  241.68   17.30
  -1   2   7  239.38   20.40
  -1   2   7  231.48   27.50
   0  -2  -7  544.25   28.60
   0  -2  -7  526.05   30.60
   0  -2  -7  545.35   30.30
   0   2   7  531.65   30.90
   0   2   7  529.75   33.40
   0   2   7  530.85   39.90
  -1  -2  -7  375.26   23.00
  -1  -2  -7  347.27   23.00
   1   2   7  336.77   24.40
   1   2   7  345.27   34.90
   1   2   7  343.27   26.40
  -2  -2  -7  346.57   28.60
  -2  -2  -7  333.07   24.10
  -2  -2  -7  350.46   24.60
   2   2   7  388.06   27.50
   2   2   7  374.76   36.60
   2   2   7  343.07   28.40
  -3  -2  -7  328.57   29.70
  -3  -2  -7  363.66   25.10
  -3  -2  -7  307.67   24.60
   3   2   7  336.27   31.10
   3   2   7  345.17   38.20
   3   2   7  350.06   30.00
  -4  -2  -7   17.70   14.80
  -4  -2  -7   45.40   14.10
   4   2   7   47.40   21.90
   4   2   7   28.40   24.90
  -5  -2  -7   42.00   18.00
  -5  -2  -7   35.80   19.10
  -5  -2  -7   52.69   23.90
   5   2   7   -5.60   26.10
   5   2   7   56.49   31.20
  -6  -2  -7  194.38   33.80
  -6  -2  -7  228.28   32.80
  -6  -2  -7  171.48   26.60
   6   2   7  174.38   37.50
   6   2   7  143.19   35.40
  -7  -2  -7  189.98   43.50
  -7  -2  -7  237.38   35.00
  -7  -2  -7  155.88   31.70
   7   2   7  245.58   43.30
   7   2   7  177.68   41.20
  11  -3  -7  122.39   33.50
  11  -3  -7   62.79   35.40
  11  -3  -7   77.69   31.00
 -11   3   7   96.99   33.80
 -11   3   7  114.09   40.60
 -11   3   7  166.68   39.40
  10  -3  -7  183.28   33.30
  10  -3  -7  195.38   28.70
  10  -3  -7  181.38   32.60
 -10   3   7  217.58   35.70
 -10   3   7  126.39   29.50
 -10   3   7  241.68   35.10
   9  -3  -7  108.09   23.40
   9  -3  -7   54.59   23.30
   9  -3  -7   94.89   26.10
  -9   3   7   78.69   22.50
  -9   3   7  104.59   25.80
  -9   3   7   89.59   29.30
   8  -3  -7   12.30   15.40
   8  -3  -7   27.10   19.70
   8  -3  -7   37.20   20.70
  -8   3   7    3.10   17.00
  -8   3   7   34.80   19.90
  -8   3   7    6.00   22.40
   7  -3  -7  174.18   25.20
   7  -3  -7  172.18   22.60
  -7   3   7  151.68   19.90
  -7   3   7  160.48   23.20
   6  -3  -7  615.54   40.30
   6  -3  -7  602.24   37.60
   6  -3  -7  670.63   39.90
  -6   3   7  600.24   38.40
  -6   3   7  678.13   41.30
   5  -3  -7  955.80   54.79
   5  -3  -7 1117.99   57.09
   5  -3  -7 1050.39   56.49
  -5   3   7 1089.29   57.19
  -5   3   7 1094.29   58.49
  -5   3   7 1081.49   58.89
   4  -3  -7  736.13   39.60
   4  -3  -7  729.23   39.70
  -4   3   7  741.03   44.50
  -4   3   7  713.63   40.50
  -4   3   7  664.33   41.80
   3  -3  -7  292.47   20.70
   3  -3  -7  264.47   19.30
   3  -3  -7  271.67   19.60
  -3   3   7  212.08   28.70
  -3   3   7  302.87   25.80
  -3   3   7  255.07   20.40
   2  -3  -7   13.40    7.80
   2  -3  -7   14.80    8.10
   2  -3  -7    8.10    7.50
  -2   3   7    2.90   10.20
  -2   3   7    4.20    7.70
  -2   3   7    6.80   16.40
   1  -3  -7  132.79   14.80
   1  -3  -7  128.39   12.80
   1  -3  -7  153.58   18.80
  -1   3   7  151.98   22.50
  -1   3   7  140.89   18.20
   0  -3  -7  706.33   39.00
   0  -3  -7  690.53   36.60
   0  -3  -7  713.33   38.60
   0   3   7  725.63   41.90
   0   3   7  651.73   47.70
   0   3   7  701.43   38.50
  -1  -3  -7  867.71   48.80
  -1  -3  -7  918.11   48.80
   1   3   7  972.60   52.39
   1   3   7  951.00   49.99
   1   3   7  851.81   58.09
  -2  -3  -7  374.36   31.20
  -2  -3  -7  354.76   25.10
  -2  -3  -7  319.27   25.10
   2   3   7  346.47   29.10
   2   3   7  325.37   29.70
   2   3   7  347.07   38.30
  -3  -3  -7  258.37   31.00
  -3  -3  -7  236.38   22.70
  -3  -3  -7  244.48   23.30
   3   3   7  218.38   29.70
   3   3   7  234.08   31.60
   3   3   7  210.68   29.60
  -4  -3  -7   10.30   21.00
  -4  -3  -7   40.50   15.30
   4   3   7   59.29   28.70
   4   3   7   15.80   23.00
   4   3   7   29.80   36.10
  -5  -3  -7   91.09   20.80
  -5  -3  -7   40.10   20.40
  -5  -3  -7   57.39   26.10
   5   3   7  -25.40   28.20
   5   3   7  112.89   35.90
  -6  -3  -7  228.78   36.50
  -6  -3  -7  212.98   29.70
   6   3   7  231.78   41.30
  10  -4  -7   62.49   27.40
  10  -4  -7   60.29   30.80
  10  -4  -7   73.99   29.20
 -10   4   7  116.09   37.00
 -10   4   7   96.59   28.50
   9  -4  -7    2.80   24.00
   9  -4  -7   63.89   24.80
   9  -4  -7  -13.80   25.20
  -9   4   7   89.19   30.10
  -9   4   7   50.49   23.10
   8  -4  -7   41.40   21.30
   8  -4  -7   20.40   20.70
   8  -4  -7    3.80   18.20
  -8   4   7   38.30   19.60
  -8   4   7   51.19   25.30
   7  -4  -7  486.35   34.20
   7  -4  -7  490.15   36.60
   7  -4  -7  471.55   34.70
  -7   4   7  511.55   34.90
   6  -4  -7  760.82   53.09
   6  -4  -7  895.81   46.10
   6  -4  -7  864.41   47.80
  -6   4   7  859.61   50.99
  -6   4   7  711.13   53.09
   5  -4  -7 1333.07   72.09
   5  -4  -7 1427.16   72.29
   5  -4  -7 1393.16   69.69
  -5   4   7 1390.76   72.69
  -5   4   7 1432.06   75.49
  -5   4   7 1362.76   74.49
   4  -4  -7  251.97   21.90
   4  -4  -7  283.27   21.70
  -4   4   7  366.06   32.00
  -4   4   7  271.17   22.30
  -4   4   7  277.87   25.60
   3  -4  -7    2.20    9.10
   3  -4  -7   23.20    9.40
   3  -4  -7   21.40    9.20
  -3   4   7  -13.60   17.00
  -3   4   7    5.20   14.00
  -3   4   7   17.90    9.30
   2  -4  -7   31.20    8.70
   2  -4  -7   34.40    9.70
   2  -4  -7   40.40   10.20
  -2   4   7   30.90    9.80
  -2   4   7   -4.80   18.40
  -2   4   7   29.00   12.70
   1  -4  -7  384.66   24.70
   1  -4  -7  369.86   23.20
   1  -4  -7  382.26   24.60
  -1   4   7  304.27   39.10
  -1   4   7  356.86   27.90
   0  -4  -7  893.61   46.40
   0  -4  -7  854.51   48.40
   0  -4  -7  920.81   48.70
   0   4   7  910.11   51.89
   0   4   7  902.41   58.89
  -1  -4  -7  798.82   44.70
  -1  -4  -7  766.92   44.30
  -1  -4  -7  790.42   41.80
   1   4   7  843.02   49.00
   1   4   7  821.72   55.69
   1   4   7  796.52   47.00
  -2  -4  -7  392.46   38.10
  -2  -4  -7  430.56   30.60
   2   4   7  409.96   33.80
   2   4   7  444.76   35.00
   2   4   7  382.76   42.70
  -3  -4  -7   62.49   16.90
  -3  -4  -7   78.09   22.00
  -3  -4  -7   44.60   14.40
   3   4   7   52.59   27.50
   3   4   7   27.30   21.10
   3   4   7   93.69   22.50
  -4  -4  -7    1.30   23.10
  -4  -4  -7   28.70   19.30
  -4  -4  -7    5.10   17.40
   4   4   7   11.70   31.70
   4   4   7  -36.50   24.60
   4   4   7   33.80   24.60
  -5  -4  -7  148.99   25.70
  -5  -4  -7  137.39   24.40
  -5  -4  -7  141.59   30.90
   5   4   7  100.89   37.80
   5   4   7   53.89   31.90
  -6  -4  -7  234.38   31.10
  -6  -4  -7  293.27   40.20
  -6  -4  -7  308.47   49.90
   6   4   7  157.38   39.50
   6   4   7  303.37   47.00
  10  -5  -7   66.19   28.80
  10  -5  -7   58.79   31.40
  10  -5  -7   24.30   29.70
 -10   5   7   74.19   38.90
 -10   5   7   65.09   29.10
   9  -5  -7  -19.90   23.20
   9  -5  -7   26.10   27.50
   9  -5  -7  -59.69   23.90
  -9   5   7   -9.50   32.20
  -9   5   7   36.70   24.60
   8  -5  -7   75.99   23.20
   8  -5  -7   40.70   22.70
   8  -5  -7   79.19   21.60
  -8   5   7   59.69   28.30
  -8   5   7   53.89   21.50
   7  -5  -7  531.95   36.50
   7  -5  -7  555.64   35.50
   7  -5  -7  457.65   39.00
  -7   5   7  529.45   44.10
  -7   5   7  519.85   38.10
   6  -5  -7  767.32   43.10
   6  -5  -7  793.22   47.10
   6  -5  -7  768.52   45.50
  -6   5   7  791.12   47.30
  -6   5   7  771.52   52.49
  -6   5   7  787.92   50.49
   5  -5  -7  544.65   36.40
  -5   5   7  523.35   40.60
  -5   5   7  472.55   44.80
   4  -5  -7  176.98   18.80
   4  -5  -7  148.49   19.30
   4  -5  -7  204.18   20.70
  -4   5   7  196.58   25.70
  -4   5   7  146.39   20.40
  -4   5   7  154.18   23.80
   3  -5  -7   76.99   12.50
   3  -5  -7   55.69   12.60
   3  -5  -7   60.99   12.10
  -3   5   7   74.39   15.70
  -3   5   7   71.99   20.70
  -3   5   7   75.79   13.10
   2  -5  -7   63.39   11.80
   2  -5  -7   29.30   10.60
   2  -5  -7   33.50   11.00
  -2   5   7   31.20   20.60
  -2   5   7   44.90   15.20
  -2   5   7   49.80   11.40
   1  -5  -7  423.66   28.40
   1  -5  -7  428.66   27.00
   1  -5  -7  398.26   27.90
  -1   5   7  456.85   33.10
  -1   5   7  416.26   41.00
   0  -5  -7  948.51   49.40
   0  -5  -7  908.21   51.09
   0   5   7  943.91   55.69
   0   5   7  943.31   63.19
  -1  -5  -7  611.34   34.60
  -1  -5  -7  576.74   41.00
  -1  -5  -7  640.64   38.20
   1   5   7  524.65   50.09
   1   5   7  668.13   39.40
  -2  -5  -7  241.48   24.80
  -2  -5  -7  256.27   26.30
   2   5   7  187.28   31.10
   2   5   7  305.07   42.70
   2   5   7  312.67   34.10
  -3  -5  -7   62.89   19.30
  -3  -5  -7  106.29   25.30
  -3  -5  -7   54.49   17.70
   3   5   7  114.99   32.30
   3   5   7   54.89   27.00
   3   5   7   78.29   24.30
  -4  -5  -7    1.00   26.00
  -4  -5  -7    9.40   21.20
  -4  -5  -7  -24.90   18.10
   4   5   7  -23.00   28.60
   4   5   7  -37.60   24.90
   4   5   7  -40.40   34.60
  -5  -5  -7  136.89   27.00
  -5  -5  -7  193.38   28.30
   5   5   7  191.98   43.10
   5   5   7  158.18   38.20
   9  -6  -7  -36.30   26.20
   9  -6  -7   21.30   27.10
   9  -6  -7   16.40   24.80
  -9   6   7   30.10   36.70
  -9   6   7   24.20   26.50
   8  -6  -7  100.49   22.80
   8  -6  -7   83.19   25.70
   8  -6  -7   94.79   24.70
  -8   6   7   51.19   30.50
  -8   6   7   61.19   22.50
   7  -6  -7  362.16   29.70
   7  -6  -7  274.87   34.60
   7  -6  -7  411.26   33.50
  -7   6   7  425.16   42.90
  -7   6   7  345.37   33.30
   6  -6  -7  382.56   30.30
   6  -6  -7  363.66   32.90
   6  -6  -7  358.36   26.20
  -6   6   7  372.96   31.60
  -6   6   7  351.26   39.40
  -6   6   7  364.36   37.40
   5  -6  -7  378.06   30.20
   5  -6  -7  408.26   29.20
  -5   6   7  333.47   40.60
  -5   6   7  385.76   31.00
  -5   6   7  380.86   34.90
   4  -6  -7  255.37   24.60
   4  -6  -7  249.68   23.30
   4  -6  -7  232.18   27.80
  -4   6   7  243.68   27.60
  -4   6   7  224.88   30.60
  -4   6   7  224.98   25.10
   3  -6  -7   -3.90   11.90
   3  -6  -7   -6.00   11.90
  -3   6   7    0.50   22.60
  -3   6   7   -0.80   15.20
   2  -6  -7  128.69   19.30
   2  -6  -7  141.69   16.70
   2  -6  -7  113.89   19.10
  -2   6   7  140.79   25.70
  -2   6   7  135.39   20.90
   1  -6  -7  365.06   27.90
   1  -6  -7  388.26   27.30
  -1   6   7  377.36   34.90
  -1   6   7  366.26   41.90
   0  -6  -7  763.12   43.20
   0  -6  -7  778.22   45.10
   0  -6  -7  745.23   45.00
   0   6   7  807.42   51.09
   0   6   7  733.43   56.89
  -1  -6  -7  491.25   32.60
  -1  -6  -7  418.96   29.70
  -1  -6  -7  441.26   33.70
   1   6   7  506.05   40.20
   1   6   7  397.36   48.30
  -2  -6  -7   99.09   19.10
  -2  -6  -7  140.49   20.90
   2   6   7  127.99   25.60
   2   6   7  110.49   32.90
  -3  -6  -7   17.30   19.80
  -3  -6  -7   18.90   19.30
  -3  -6  -7    1.70   27.60
   3   6   7    6.20   35.90
   3   6   7  -15.50   24.10
   3   6   7   50.79   33.90
  -4  -6  -7   29.70   28.80
  -4  -6  -7   48.60   25.40
  -4  -6  -7    3.80   23.10
   4   6   7   63.79   39.00
   4   6   7   63.49   35.50
   4   6   7   53.59   30.20
   8  -7  -7  112.29   25.30
   8  -7  -7   63.89   25.70
   8  -7  -7  124.39   24.50
  -8   7   7  134.79   34.40
  -8   7   7   70.39   23.60
   7  -7  -7  381.86   35.60
   7  -7  -7  363.66   37.10
  -7   7   7  368.76   47.40
  -7   7   7  438.66   36.20
   6  -7  -7  452.55   36.80
   6  -7  -7  403.16   35.30
  -6   7   7  489.15   43.30
  -6   7   7  416.46   36.00
  -6   7   7  444.86   45.70
   5  -7  -7  336.07   30.30
   5  -7  -7  362.46   31.50
   5  -7  -7  339.87   31.40
  -5   7   7  304.37   36.20
  -5   7   7  368.36   31.60
  -5   7   7  356.96   43.90
   4  -7  -7  111.59   18.00
   4  -7  -7  102.59   17.40
   4  -7  -7  132.69   18.30
  -4   7   7  120.89   17.90
  -4   7   7   98.29   22.70
  -4   7   7  117.49   46.10
   3  -7  -7  -19.90   14.00
   3  -7  -7    0.80   14.00
   3  -7  -7   10.20   13.90
  -3   7   7    3.60   14.30
  -3   7   7   -9.80   18.30
  -3   7   7  -53.99   24.40
   2  -7  -7  151.28   21.10
   2  -7  -7  150.38   19.70
   2  -7  -7  156.28   23.20
  -2   7   7  139.69   30.50
  -2   7   7  205.38   31.90
   1  -7  -7  284.57   27.60
   1  -7  -7  253.57   28.30
   1  -7  -7  280.97   27.80
  -1   7   7  319.77   44.80
  -1   7   7  362.36   36.20
   0  -7  -7  249.08   27.40
   0  -7  -7  243.48   27.50
   0  -7  -7  261.07   27.10
   0   7   7  323.87   36.90
   0   7   7  290.97   45.90
  -1  -7  -7  336.97   31.60
  -1  -7  -7  322.27   28.40
  -1  -7  -7  274.97   31.50
   1   7   7  293.57   40.30
   1   7   7  394.96   40.10
  -2  -7  -7   58.09   19.80
  -2  -7  -7   18.20   19.60
   2   7   7   63.09   26.50
   2   7   7   51.79   35.10
  -3  -7  -7    9.00   30.90
  -3  -7  -7   -6.80   23.70
  -3  -7  -7   48.40   21.20
   3   7   7    0.50   32.10
   3   7   7   20.70   29.40
   7  -8  -7  271.37   36.20
   7  -8  -7  258.47   34.40
  -7   8   7  281.47   35.30
  -7   8   7  268.37   46.00
   6  -8  -7  383.06   37.60
   6  -8  -7  325.37   35.20
  -6   8   7  405.16   35.90
  -6   8   7  420.46   45.10
  -6   8   7  343.07   47.30
   5  -8  -7  249.78   31.10
   5  -8  -7  240.28   31.10
   5  -8  -7  270.77   30.20
  -5   8   7  239.78   31.10
  -5   8   7  196.08   35.10
  -5   8   7  239.98   38.80
   4  -8  -7  131.69   19.90
   4  -8  -7   96.59   19.70
   4  -8  -7  103.59   19.50
  -4   8   7  102.49   19.60
  -4   8   7   63.59   30.90
  -4   8   7  127.69   25.70
   3  -8  -7   20.80   16.00
   3  -8  -7   20.90   17.60
   3  -8  -7   36.50   17.70
  -3   8   7  -31.90   28.40
  -3   8   7    7.70   22.20
   2  -8  -7  219.88   27.20
   2  -8  -7  184.78   27.10
   2  -8  -7  193.98   28.10
  -2   8   7  208.88   37.20
  -2   8   7  231.48   29.70
   1  -8  -7  458.15   32.90
   1  -8  -7  352.16   34.10
   1  -8  -7  340.37   34.10
  -1   8   7  367.36   53.09
  -1   8   7  390.86   42.90
   0  -8  -7  205.18   31.60
   0  -8  -7  243.48   31.30
   0  -8  -7  373.56   34.70
   0   8   7  314.27   42.70
   0   8   7  323.47   41.80
  -1  -8  -7  227.38   33.40
  -1  -8  -7  261.87   31.90
  -1  -8  -7  234.48   32.70
   1   8   7  282.37   41.20
   1   8   7  333.67   43.00
  -2  -8  -7    4.70   21.90
  -2  -8  -7   53.69   21.90
   2   8   7   41.60   30.10
   2   8   7   47.90   37.90
   5  -9  -7  132.09   24.10
   5  -9  -7   97.99   22.20
   5  -9  -7  108.09   22.00
  -5   9   7  164.78   24.80
  -5   9   7  131.09   28.70
  -5   9   7   72.69   35.60
   4  -9  -7   30.30   20.50
   4  -9  -7   23.60   20.30
   4  -9  -7   -0.30   18.50
  -4   9   7   10.90   19.60
  -4   9   7    6.10   34.50
  -4   9   7    9.60   25.50
   3  -9  -7   77.89   19.90
   3  -9  -7   59.39   20.30
   3  -9  -7   62.29   21.40
  -3   9   7   64.09   27.50
  -3   9   7   23.70   34.70
   2  -9  -7  160.78   22.90
   2  -9  -7  141.19   22.30
   2  -9  -7   95.59   22.20
  -2   9   7  132.29   38.00
  -2   9   7  158.88   30.70
   1  -9  -7  360.36   36.10
   1  -9  -7  344.67   36.00
   1  -9  -7  427.76   36.80
  -1   9   7  394.46   48.80
  -1   9   7  452.45   58.29
   0  -9  -7  373.46   37.40
   0  -9  -7  335.07   35.70
   0  -9  -7  334.27   37.70
   0   9   7  430.56   58.89
   0   9   7  467.05   49.80
   2  11  -8   10.90   24.40
   2  11  -8   17.00   21.60
   2  11  -8   28.90   19.40
  -2 -11   8  -11.00   24.80
  -2 -11   8   40.10   19.20
   1  11  -8   33.80   21.00
   1  11  -8   12.80   19.30
  -1 -11   8   38.90   19.70
  -1 -11   8  -10.90   25.60
   0  11  -8  153.98   25.30
   0  11  -8  155.18   23.40
   0 -11   8  117.29   22.20
   0 -11   8  166.08   30.00
  -1  11  -8  318.37   44.10
  -1  11  -8  259.87   34.70
  -1  11  -8  297.67   37.00
   1 -11   8  228.48   32.50
   1 -11   8  337.77   37.50
   5  10  -8  245.58   35.80
   5  10  -8  229.18   37.20
   5  10  -8  241.58   34.90
  -5 -10   8  354.26   47.70
  -5 -10   8  176.48   32.10
   4  10  -8  371.16   36.60
   4  10  -8  282.67   34.70
   4  10  -8  256.97   35.30
  -4 -10   8  370.46   38.30
  -4 -10   8  269.27   34.10
  -4 -10   8  248.68   34.20
   3  10  -8  126.49   21.80
   3  10  -8  146.19   23.90
   3  10  -8  104.79   20.70
  -3 -10   8  142.49   27.20
  -3 -10   8  136.29   22.20
   2  10  -8   27.90   17.00
   2  10  -8   25.60   17.70
   2  10  -8    4.70   21.70
  -2 -10   8   10.20   23.10
  -2 -10   8   -2.70   16.40
   1  10  -8  127.39   20.70
   1  10  -8  136.09   21.60
  -1 -10   8  141.09   20.80
  -1 -10   8  123.89   25.20
   0  10  -8  270.07   31.50
   0  10  -8  292.07   34.60
   0  10  -8  337.07   33.70
   0 -10   8  281.57   41.10
   0 -10   8  294.27   35.00
  -1  10  -8  387.66   35.40
  -1  10  -8  378.56   37.50
  -1  10  -8  353.86   43.40
   1 -10   8  340.27   37.00
   1 -10   8  394.16   42.80
  -2  10  -8  173.78   26.90
  -2  10  -8  196.48   31.00
  -2  10  -8  233.18   34.10
   2 -10   8  172.78   26.50
   2 -10   8  210.68   28.70
   2 -10   8  185.68   25.80
  -3  10  -8  100.79   27.00
  -3  10  -8   66.49   29.20
  -3  10  -8  120.39   22.60
   3 -10   8  123.99   24.00
   3 -10   8   68.69   26.10
   6   9  -8  167.98   26.30
   6   9  -8  185.48   26.40
  -6  -9   8  171.98   32.20
  -6  -9   8  190.58   34.10
   5   9  -8  365.46   36.80
   5   9  -8  368.06   36.70
   5   9  -8  385.46   40.70
  -5  -9   8  391.96   45.00
  -5  -9   8  443.36   44.90
   4   9  -8  243.38   32.00
   4   9  -8  215.48   30.10
   4   9  -8  267.47   29.60
  -4  -9   8  308.17   38.50
  -4  -9   8  280.47   30.80
   3   9  -8  148.79   21.00
   3   9  -8  109.19   18.80
   3   9  -8   91.09   18.70
  -3  -9   8  143.29   23.70
  -3  -9   8  135.79   19.30
  -3  -9   8  113.09   19.10
   2   9  -8   11.50   14.90
   2   9  -8  -19.00   14.30
  -2  -9   8    4.70   14.00
  -2  -9   8   -9.50   19.20
   1   9  -8  196.08   22.00
   1   9  -8  186.78   32.00
   1   9  -8  220.98   26.20
  -1  -9   8  194.88   26.40
  -1  -9   8  217.58   26.00
   0   9  -8  488.95   38.80
   0   9  -8  539.45   38.10
   0   9  -8  518.15   38.40
   0  -9   8  496.85   43.00
   0  -9   8  559.54   38.40
  -1   9  -8  607.54   42.40
  -1   9  -8  455.55   45.20
  -1   9  -8  508.85   39.30
   1  -9   8  571.04   40.60
   1  -9   8  565.54   42.00
   1  -9   8  538.65   63.59
  -2   9  -8  355.46   36.80
  -2   9  -8  236.18   39.80
  -2   9  -8  308.27   32.30
   2  -9   8  282.87   35.70
   2  -9   8  278.47   38.10
   2  -9   8  371.76   33.90
  -3   9  -8  226.78   29.00
  -3   9  -8  152.28   29.80
  -3   9  -8  187.88   31.40
   3  -9   8  163.28   24.90
   3  -9   8  121.49   38.90
   3  -9   8  246.28   35.20
  -4   9  -8  -28.20   19.20
  -4   9  -8    9.70   26.90
  -4   9  -8   23.90   30.10
   4  -9   8   25.40   24.90
   4  -9   8   -9.00   22.20
  -5   9  -8   84.49   33.80
  -5   9  -8  106.89   33.20
   5  -9   8   83.99   30.40
   7   8  -8  155.58   25.70
   7   8  -8  132.29   25.10
  -7  -8   8  147.69   31.70
  -7  -8   8  150.48   35.80
   6   8  -8  505.75   39.80
   6   8  -8  439.96   38.70
   6   8  -8  454.15   36.80
  -6  -8   8  409.76   48.50
  -6  -8   8  540.35   49.90
   5   8  -8  600.24   43.10
   5   8  -8  670.73   45.50
   5   8  -8  634.94   42.80
  -5  -8   8  659.73   50.09
  -5  -8   8  637.54   49.30
   4   8  -8  484.05   34.70
   4   8  -8  411.76   33.40
   4   8  -8  483.55   34.70
  -4  -8   8  387.26   37.90
  -4  -8   8  402.86   39.70
  -4  -8   8  437.76   33.30
   3   8  -8   74.09   20.70
   3   8  -8   48.70   14.90
   3   8  -8   83.49   16.20
  -3  -8   8   68.89   14.90
  -3  -8   8   39.30   15.50
  -3  -8   8   88.29   19.80
   2   8  -8    8.50   12.10
   2   8  -8   -5.10   13.30
  -2  -8   8   22.10   12.90
  -2  -8   8   -0.20   17.30
   1   8  -8  253.77   28.10
   1   8  -8  272.27   27.70
   1   8  -8  228.18   26.50
  -1  -8   8  260.07   29.60
  -1  -8   8  237.38   24.60
   0   8  -8  547.45   40.60
   0   8  -8  521.85   36.10
   0   8  -8  491.05   35.40
   0  -8   8  479.05   36.70
   0  -8   8  492.85   34.90
   0  -8   8  469.05   38.50
  -1   8  -8  577.74   37.70
  -1   8  -8  538.75   39.70
  -1   8  -8  498.75   48.20
   1  -8   8  572.74   39.80
   1  -8   8  550.14   37.80
   1  -8   8  535.55   41.00
  -2   8  -8  495.05   39.10
  -2   8  -8  435.26   35.50
  -2   8  -8  460.05   45.30
   2  -8   8  479.95   35.20
   2  -8   8  403.06   37.50
   2  -8   8  410.96   38.40
  -3   8  -8   29.30   27.20
  -3   8  -8   77.89   23.10
   3  -8   8   60.79   30.80
   3  -8   8   89.09   22.10
   3  -8   8   73.79   20.00
  -4   8  -8  -28.20   27.80
  -4   8  -8  -34.80   25.40
   4  -8   8   28.10   21.50
   4  -8   8    1.20   22.50
  -5   8  -8  133.89   32.70
  -5   8  -8  100.39   33.40
   5  -8   8  121.99   27.80
   5  -8   8  108.99   29.50
   8   7  -8   72.59   24.50
   8   7  -8   29.00   24.80
  -8  -7   8   31.50   30.50
  -8  -7   8  -30.40   36.60
   7   7  -8  351.46   36.60
   7   7  -8  491.95   39.00
  -7  -7   8  409.16   50.29
  -7  -7   8  466.15   49.60
   6   7  -8  531.75   38.50
   6   7  -8  536.15   40.00
   6   7  -8  476.55   37.90
  -6  -7   8  530.35   47.00
  -6  -7   8  515.55   46.90
   5   7  -8  594.14   36.10
   5   7  -8  566.34   38.60
   5   7  -8  644.34   38.80
  -5  -7   8  540.85   45.30
  -5  -7   8  516.25   46.40
   4   7  -8  263.27   25.40
   4   7  -8  249.58   23.70
   4   7  -8  233.98   24.50
  -4  -7   8  223.08   24.00
  -4  -7   8  244.88   31.30
  -4  -7   8  264.17   26.50
   3   7  -8   -6.60   10.60
   3   7  -8   13.60   11.60
   3   7  -8   18.30   12.80
  -3  -7   8   23.50   12.20
  -3  -7   8   17.90   21.80
  -3  -7   8    3.60   11.80
   2   7  -8   40.90   12.90
   2   7  -8   37.50   14.80
   2   7  -8   33.30   14.30
  -2  -7   8    2.30   13.80
  -2  -7   8   21.40   16.30
  -2  -7   8   16.00   10.10
   1   7  -8  231.98   30.40
   1   7  -8  241.98   23.70
   1   7  -8  222.18   24.10
  -1  -7   8  266.17   27.50
  -1  -7   8  238.78   29.30
   0   7  -8  923.61   50.69
   0   7  -8  750.42   55.39
   0  -7   8  898.31   51.79
   0  -7   8  945.21   52.79
  -1   7  -8  692.23   44.60
  -1   7  -8  740.33   43.70
  -1   7  -8  709.23   51.99
   1  -7   8  712.93   45.30
   1  -7   8  699.73   44.70
   1  -7   8  672.83   48.10
  -2   7  -8  375.26   54.09
  -2   7  -8  372.56   34.80
   2  -7   8  316.17   35.70
   2  -7   8  383.86   30.00
   2  -7   8  320.17   31.90
  -3   7  -8   41.40   26.00
  -3   7  -8   33.90   20.60
   3  -7   8   37.80   18.10
   3  -7   8   66.19   17.00
  -4   7  -8   26.20   25.30
  -4   7  -8  -34.00   28.70
   4  -7   8   15.10   19.20
   4  -7   8   12.70   21.30
  -5   7  -8  176.78   28.90
  -5   7  -8   84.89   33.60
  -5   7  -8  158.68   32.10
   5  -7   8  146.29   29.50
   5  -7   8  115.99   26.00
  -6   7  -8  441.16   53.69
  -6   7  -8  428.66   53.39
  -6   7  -8  483.55   52.89
   6  -7   8  321.47   48.80
   6  -7   8  489.35   48.30
   9   6  -8   18.00   26.60
   9   6  -8  -34.80   35.00
   9   6  -8  -19.40   26.70
  -9  -6   8  -40.10   31.50
  -9  -6   8    8.60   38.60
   8   6  -8  131.19   25.20
   8   6  -8   74.09   34.50
   8   6  -8  106.29   23.00
  -8  -6   8   49.80   30.80
  -8  -6   8   72.29   36.30
   7   6  -8  301.77   34.10
   7   6  -8  414.56   45.30
   7   6  -8  343.07   32.70
  -7  -6   8  344.57   45.50
  -7  -6   8  331.17   42.60
   6   6  -8  672.33   37.70
   6   6  -8  668.63   42.00
   6   6  -8  610.34   41.60
  -6  -6   8  635.34   48.10
  -6  -6   8  651.13   49.30
   5   6  -8  314.77   26.40
   5   6  -8  323.37   24.10
  -5  -6   8  270.67   29.50
  -5  -6   8  269.17   33.30
   4   6  -8  100.69   13.60
   4   6  -8   83.39   14.30
  -4  -6   8  139.59   20.60
  -4  -6   8  110.09   23.20
  -4  -6   8  152.58   21.60
   3   6  -8   -7.50   10.00
   3   6  -8   17.20   11.10
   3   6  -8    5.80    9.90
  -3  -6   8   10.40   15.80
  -3  -6   8   -2.80    9.90
  -3  -6   8   -8.90   10.20
   2   6  -8  120.89   17.80
   2   6  -8  129.39   17.50
   2   6  -8   90.49   19.50
  -2  -6   8  118.79   17.30
  -2  -6   8  131.19   15.10
  -2  -6   8  129.69   19.10
   1   6  -8  477.05   32.00
   1   6  -8  416.86   39.00
   1   6  -8  494.55   31.90
  -1  -6   8  498.55   31.00
  -1  -6   8  536.05   36.00
  -1  -6   8  513.65   33.00
   0   6  -8 1444.06   83.99
   0   6  -8 1548.05   78.69
   0   6  -8 1548.55   78.69
   0  -6   8 1484.95   79.09
   0  -6   8 1488.85   79.59
   0  -6   8 1500.75   77.29
  -1   6  -8  641.04   53.99
  -1   6  -8  726.73   42.60
   1  -6   8  745.73   40.60
   1  -6   8  629.04   42.40
   1  -6   8  660.03   42.30
  -2   6  -8  338.47   30.60
  -2   6  -8  282.67   40.40
   2  -6   8  322.07   28.70
   2  -6   8  316.37   28.80
   2  -6   8  272.37   26.60
  -3   6  -8    3.40   26.20
  -3   6  -8    8.70   23.10
   3  -6   8   -2.80   16.40
  -4   6  -8  132.89   29.90
  -4   6  -8   64.79   19.60
  -4   6  -8   86.99   25.20
   4  -6   8  113.89   20.00
   4  -6   8   87.89   22.10
  -5   6  -8  282.67   46.50
  -5   6  -8  288.17   42.90
   5  -6   8  227.68   38.90
   5  -6   8  289.07   35.60
  -6   6  -8  445.96   54.69
  -6   6  -8  428.06   53.19
  -6   6  -8  463.55   46.10
   6  -6   8  393.96   51.49
   6  -6   8  545.75   46.80
   9   5  -8   -7.70   24.90
   9   5  -8   46.70   36.60
   9   5  -8   32.00   26.90
  -9  -5   8    4.70   35.00
  -9  -5   8    7.50   35.90
  -9  -5   8    1.60   25.50
   8   5  -8  113.19   24.80
   8   5  -8  144.89   31.60
   8   5  -8  109.79   22.30
  -8  -5   8   56.09   30.80
  -8  -5   8  138.79   28.70
  -8  -5   8  121.39   22.40
   7   5  -8  394.06   33.60
   7   5  -8  428.46   46.10
   7   5  -8  449.36   34.70
  -7  -5   8  443.16   43.20
  -7  -5   8  448.66   41.80
  -7  -5   8  374.46   32.50
   6   5  -8  678.83   42.90
   6   5  -8  730.63   43.50
   6   5  -8  720.73   49.99
  -6  -5   8  711.73   41.60
  -6  -5   8  729.03   50.09
   5   5  -8  413.56   27.10
   5   5  -8  396.06   32.00
   5   5  -8  454.65   30.00
  -5  -5   8  441.16   32.40
  -5  -5   8  529.85   38.70
   4   5  -8   64.59   10.70
   4   5  -8   51.59   11.50
   4   5  -8   63.19   11.30
  -4  -5   8   77.79   13.50
  -4  -5   8   87.39   18.90
  -4  -5   8   61.09   11.90
   3   5  -8   -2.70    8.60
   3   5  -8   -1.30    8.30
   3   5  -8    4.40    9.50
   3   5  -8   -0.30   12.30
  -3  -5   8    1.60    9.30
  -3  -5   8   10.70    8.80
  -3  -5   8   20.30   14.90
   2   5  -8  137.19   23.30
   2   5  -8  183.28   18.10
   2   5  -8  176.88   17.30
   2   5  -8  193.78   18.20
  -2  -5   8  171.88   24.60
  -2  -5   8  192.18   20.90
  -2  -5   8  153.98   16.00
  -2  -5   8  165.38   20.30
   1   5  -8  439.36   27.30
   1   5  -8  388.66   32.20
   1   5  -8  411.66   27.40
  -1  -5   8  367.96   31.80
  -1  -5   8  407.06   28.00
  -1  -5   8  399.46   25.80
   0   5  -8 1200.88   64.09
   0   5  -8 1247.68   63.99
   0   5  -8 1237.08   67.69
   0  -5   8 1143.29   65.09
   0  -5   8 1200.08   62.39
   0  -5   8 1189.68   64.49
  -1   5  -8  768.42   42.10
  -1   5  -8  840.22   51.79
  -1   5  -8  800.52   47.20
   1  -5   8  796.82   46.70
   1  -5   8  778.52   46.50
   1  -5   8  803.72   44.30
  -2   5  -8   45.30   16.80
  -2   5  -8   49.40   10.90
  -2   5  -8   24.50   21.90
   2  -5   8   39.90   12.20
   2  -5   8   37.20   14.20
  -3   5  -8    8.60   13.00
  -3   5  -8  -26.50   23.70
  -3   5  -8  -16.80   17.90
   3  -5   8   -6.90   16.00
   3  -5   8   12.30   13.30
  -4   5  -8  161.88   26.40
  -4   5  -8  188.38   31.00
  -4   5  -8  137.49   19.80
   4  -5   8  198.08   26.10
   4  -5   8  112.89   29.10
   4  -5   8  180.08   29.90
  -5   5  -8  278.37   34.90
  -5   5  -8  317.77   46.10
  -5   5  -8  227.88   33.20
   5  -5   8  310.37   34.80
   5  -5   8  250.97   37.50
  -6   5  -8  347.07   50.69
  -6   5  -8  350.16   50.09
  -6   5  -8  273.67   42.60
   6  -5   8  381.36   41.60
   6  -5   8  360.26   45.90
  -7   5  -8  221.48   39.20
  -7   5  -8  344.87   50.89
  -7   5  -8  233.88   37.40
   7  -5   8  234.88   40.60
   7  -5   8  290.17   34.70
  10   4  -8  -20.30   31.30
  10   4  -8    5.80   31.00
  10   4  -8   73.19   35.00
 -10  -4   8   -2.80   38.30
 -10  -4   8  -12.00   31.30
   9   4  -8   19.80   23.50
   9   4  -8   56.09   25.60
   9   4  -8   -9.00   31.10
  -9  -4   8   27.50   25.50
  -9  -4   8   31.30   29.40
  -9  -4   8    0.00   33.80
   8   4  -8  385.46   43.80
   8   4  -8  292.07   33.90
  -8  -4   8  313.57   43.00
  -8  -4   8  263.67   40.70
  -8  -4   8  296.47   33.60
   7   4  -8  339.97   30.00
   7   4  -8  299.97   28.70
   7   4  -8  328.27   38.80
  -7  -4   8  348.17   35.30
  -7  -4   8  375.56   37.50
  -7  -4   8  335.27   29.40
   6   4  -8  363.76   27.40
   6   4  -8  397.16   29.00
  -6  -4   8  353.26   30.90
  -6  -4   8  334.17   26.70
   5   4  -8  528.85   30.30
   5   4  -8  520.35   32.40
   5   4  -8  575.54   40.80
   5   4  -8  520.65   32.60
  -5  -4   8  502.25   34.50
  -5  -4   8  609.54   41.30
  -5  -4   8  508.85   31.90
   4   4  -8  119.89   15.40
   4   4  -8  116.09   14.30
   4   4  -8  122.59   15.00
   4   4  -8  114.09   18.40
  -4  -4   8  114.49   16.70
  -4  -4   8  135.89   20.50
  -4  -4   8   97.49   14.80
   3   4  -8   36.30    8.20
   3   4  -8   50.29   12.20
   3   4  -8   27.00    8.70
   3   4  -8   34.50   14.40
   3   4  -8   38.20    9.80
   3   4  -8   30.90    8.90
  -3  -4   8   36.60    9.00
  -3  -4   8   36.70    9.80
  -3  -4   8   36.80   16.00
  -3  -4   8   33.00    8.50
   2   4  -8  458.15   35.00
   2   4  -8  453.35   25.10
   2   4  -8  409.26   25.00
   2   4  -8  404.66   26.70
   2   4  -8  443.46   26.70
   2   4  -8  423.76   25.90
  -2  -4   8  343.27   32.10
  -2  -4   8  420.16   26.00
  -2  -4   8  407.36   27.20
  -2  -4   8  409.86   25.30
   1   4  -8  632.84   35.90
   1   4  -8  627.14   32.70
   1   4  -8  607.14   33.60
   1   4  -8  610.44   35.30
   1   4  -8  605.34   37.80
  -1  -4   8  597.84   33.20
  -1  -4   8  555.54   38.80
  -1  -4   8  592.14   36.00
  -1  -4   8  594.54   34.00
   0   4  -8  754.62   43.20
   0   4  -8  692.53   41.10
   0   4  -8  668.53   37.60
   0  -4   8  694.63   38.50
   0  -4   8  667.63   41.90
   0  -4   8  732.03   41.10
   0  -4   8  695.33   41.80
  -1   4  -8  915.21   52.89
  -1   4  -8  904.31   51.89
  -1   4  -8  887.11   47.70
   1  -4   8  934.61   50.09
   1  -4   8  888.41   51.19
   1  -4   8  928.71   53.09
   1  -4   8  909.41   48.40
  -2   4  -8   83.99   12.30
  -2   4  -8  120.09   18.70
  -2   4  -8   90.79   19.40
   2  -4   8  106.69   19.70
   2  -4   8   96.89   13.00
   2  -4   8   89.39   16.10
  -3   4  -8    0.90   12.40
  -3   4  -8    2.30   19.50
   3  -4   8   31.60   12.80
   3  -4   8   -5.00   25.50
  -4   4  -8  217.28   34.40
  -4   4  -8  281.47   43.40
  -4   4  -8  240.68   26.00
   4  -4   8  229.88   30.10
   4  -4   8  250.87   40.10
   4  -4   8  231.98   26.30
  -5   4  -8  307.87   43.10
  -5   4  -8  318.27   46.90
  -5   4  -8  333.57   33.60
   5  -4   8  424.26   35.20
   5  -4   8  381.76   40.30
   5  -4   8  388.96   49.50
  -6   4  -8  358.76   48.60
  -6   4  -8  295.07   39.50
  -6   4  -8  388.76   53.69
   6  -4   8  288.47   46.30
   6  -4   8  306.17   39.30
   6  -4   8  302.27   43.70
  -7   4  -8  191.78   37.40
  -7   4  -8  183.28   38.50
  -7   4  -8  158.08   35.40
   7  -4   8  185.18   39.20
   7  -4   8  220.48   44.90
  10   3  -8   24.90   30.10
  10   3  -8   21.00   31.60
  10   3  -8   51.39   32.10
 -10  -3   8   60.29   35.90
 -10  -3   8  -29.20   30.60
   9   3  -8  117.09   29.60
   9   3  -8   99.59   28.90
   9   3  -8  106.99   26.20
  -9  -3   8   48.70   31.10
  -9  -3   8   82.19   26.90
   8   3  -8  294.27   32.90
   8   3  -8  279.77   29.60
   8   3  -8  323.87   38.60
  -8  -3   8  310.67   37.90
  -8  -3   8  234.58   35.10
   7   3  -8  523.85   35.60
   7   3  -8  547.05   43.40
   7   3  -8  456.05   33.60
  -7  -3   8  512.95   39.60
  -7  -3   8  498.15   34.70
  -7  -3   8  545.25   42.00
   6   3  -8  477.85   30.40
   6   3  -8  460.25   38.20
   6   3  -8  439.96   29.60
  -6  -3   8  489.35   39.10
  -6  -3   8  430.96   30.10
  -6  -3   8  429.36   32.90
   5   3  -8  257.67   20.60
   5   3  -8  222.28   23.40
   5   3  -8  263.67   20.90
   5   3  -8  255.97   28.70
  -5  -3   8  271.57   25.10
  -5  -3   8  283.77   21.60
  -5  -3   8  296.97   29.60
   4   3  -8   -9.10   11.10
   4   3  -8   13.50    8.40
   4   3  -8   22.10   13.80
   4   3  -8   16.00    8.10
   4   3  -8    6.30    7.80
  -4  -3   8    7.00   10.00
  -4  -3   8   10.30    9.40
  -4  -3   8   21.40   14.80
  -4  -3   8   10.90   11.20
   3   3  -8  246.88   18.10
   3   3  -8  245.08   22.20
   3   3  -8  237.58   18.20
   3   3  -8  254.67   18.10
   3   3  -8  242.88   18.30
   3   3  -8  222.98   24.20
   3   3  -8  245.58   19.40
  -3  -3   8  236.48   18.40
  -3  -3   8  202.68   25.60
  -3  -3   8  265.77   19.00
  -3  -3   8  215.18   17.80
  -3  -3   8  290.87   22.20
   2   3  -8  554.74   32.40
   2   3  -8  522.15   29.50
   2   3  -8  516.25   29.00
   2   3  -8  526.95   31.00
   2   3  -8  523.35   30.10
   2   3  -8  424.96   32.40
   2   3  -8  501.75   28.80
  -2  -3   8  493.15   33.80
  -2  -3   8  534.85   29.60
  -2  -3   8  508.75   28.90
  -2  -3   8  526.95   32.40
  -2  -3   8  489.45   30.50
  -2  -3   8  494.45   29.20
  -2  -3   8  498.05   31.30
   1   3  -8  816.42   42.50
   1   3  -8  811.12   44.60
   1   3  -8  784.72   44.70
   1   3  -8  788.52   45.10
   1   3  -8  783.82   41.70
  -1  -3   8  790.72   42.00
  -1  -3   8  809.92   45.30
  -1  -3   8  811.02   44.20
  -1  -3   8  781.82   45.40
   0   3  -8  436.56   30.40
   0   3  -8  450.35   31.20
   0   3  -8  453.35   25.30
   0   3  -8  484.65   27.30
   0   3  -8  461.85   27.90
   0  -3   8  435.06   29.20
   0  -3   8  490.55   29.70
   0  -3   8  447.26   33.00
   0  -3   8  435.76   26.70
  -1   3  -8 1037.80   52.89
  -1   3  -8 1021.00   56.19
  -1   3  -8 1018.80   56.69
   1  -3   8 1018.80   55.29
   1  -3   8  963.30   51.99
   1  -3   8 1004.00   58.29
  -2   3  -8   -8.20    9.40
  -2   3  -8   25.50   14.60
  -2   3  -8    4.90   14.80
   2  -3   8   17.50   17.70
   2  -3   8   -1.20    8.90
   2  -3   8    2.10   11.90
  -3   3  -8  416.46   41.60
  -3   3  -8  409.56   27.70
  -3   3  -8  365.96   42.60
   3  -3   8  356.76   31.10
   3  -3   8  424.56   27.50
   3  -3   8  339.47   47.20
  -4   3  -8  315.37   26.90
  -4   3  -8  300.97   37.00
  -4   3  -8  353.56   36.60
   4  -3   8  311.27   40.80
   4  -3   8  320.77   27.20
   4  -3   8  233.98   31.40
  -5   3  -8  422.16   43.40
  -5   3  -8  343.17   33.20
  -5   3  -8  392.76   48.50
   5  -3   8  381.26   32.20
   5  -3   8  367.96   48.80
   5  -3   8  343.87   40.00
  -6   3  -8  278.67   35.80
  -6   3  -8  237.18   41.60
  -6   3  -8  352.66   46.30
   6  -3   8  337.07   46.30
   6  -3   8  327.27   34.90
   6  -3   8  303.27   43.50
  -7   3  -8  320.37   50.49
  -7   3  -8  180.58   41.20
  -7   3  -8  180.68   36.10
   7  -3   8  183.88   37.40
   7  -3   8  260.07   45.30
   7  -3   8  232.18   40.10
  10   2  -8  -17.40   29.50
  10   2  -8   26.00   30.30
 -10  -2   8    8.00   36.60
 -10  -2   8    5.30   29.60
   9   2  -8  199.78   30.70
   9   2  -8  130.79   27.20
   9   2  -8  154.18   25.10
  -9  -2   8  160.28   27.50
  -9  -2   8  144.69   31.60
   8   2  -8  390.16   35.00
   8   2  -8  413.06   40.20
   8   2  -8  389.56   35.60
  -8  -2   8  368.46   35.70
  -8  -2   8  448.26   39.70
   7   2  -8  809.12   46.50
   7   2  -8  831.42   53.09
   7   2  -8  854.31   48.20
  -7  -2   8  783.12   48.00
  -7  -2   8  869.81   51.79
   6   2  -8  493.95   36.60
   6   2  -8  441.86   29.30
   6   2  -8  443.66   28.70
  -6  -2   8  451.55   31.90
  -6  -2   8  466.35   32.30
  -6  -2   8  456.95   30.40
   5   2  -8  132.09   14.80
   5   2  -8  139.89   16.10
   5   2  -8  122.29   18.70
  -5  -2   8  142.89   17.40
  -5  -2   8  155.18   18.90
  -5  -2   8  130.69   20.40
   4   2  -8    8.00    6.80
   4   2  -8   -1.20   12.80
   4   2  -8    2.30    7.50
   4   2  -8   -3.40    8.10
   4   2  -8   12.00    7.50
  -4  -2   8    7.80    9.40
  -4  -2   8    8.90    8.40
  -4  -2   8   -6.80   10.70
  -4  -2   8    3.20    9.60
   3   2  -8  221.68   16.30
   3   2  -8  224.78   20.40
   3   2  -8  211.08   26.50
   3   2  -8  189.68   17.10
   3   2  -8  217.08   17.00
   3   2  -8  213.78   16.50
   3   2  -8  216.18   18.00
  -3  -2   8  220.58   18.40
  -3  -2   8  183.98   19.70
  -3  -2   8  233.58   17.50
  -3  -2   8  206.88   18.00
   2   2  -8  395.16   25.10
   2   2  -8  413.16   27.50
   2   2  -8  435.66   27.90
   2   2  -8  405.86   26.70
   2   2  -8  419.16   25.30
   2   2  -8  426.96   24.70
   2   2  -8  403.46   23.90
  -2  -2   8  411.36   23.90
  -2  -2   8  410.96   25.40
  -2  -2   8  411.36   28.20
  -2  -2   8  401.26   27.50
  -2  -2   8  404.96   25.60
   1   2  -8  771.62   41.20
   1   2  -8  803.12   41.50
   1   2  -8  780.22   44.40
   1   2  -8  791.52   42.40
   1   2  -8  795.52   42.30
  -1  -2   8  765.92   41.10
  -1  -2   8  766.72   44.80
  -1  -2   8  811.62   45.20
  -1  -2   8  835.92   43.60
   0   2  -8  711.43   42.00
   0   2  -8  757.32   39.80
   0   2  -8  703.93   37.90
   0  -2   8  700.93   38.20
   0  -2   8  800.82   44.60
   0  -2   8  703.43   42.30
   0  -2   8  730.23   41.20
  -1   2  -8  237.08   18.80
  -1   2  -8  230.58   16.10
  -1   2  -8  260.37   22.70
   1  -2   8  240.38   22.00
   1  -2   8  214.38   17.30
   1  -2   8  203.68   27.40
  -2   2  -8   -2.20    9.70
  -2   2  -8  -16.00   12.10
   2  -2   8    4.90    8.20
   2  -2   8    7.80   12.40
   2  -2   8   -0.40   18.10
  -3   2  -8  449.95   29.60
  -3   2  -8  443.06   35.80
   3  -2   8  416.56   27.20
   3  -2   8  379.06   41.10
   3  -2   8  462.25   33.20
  -4   2  -8  273.37   33.90
  -4   2  -8  285.87   36.70
   4  -2   8  307.07   24.90
   4  -2   8  277.07   31.50
   4  -2   8  296.97   40.90
  -5   2  -8  372.06   45.10
  -5   2  -8  376.86   33.30
   5  -2   8  384.76   47.90
   5  -2   8  401.36   31.40
   5  -2   8  355.06   40.80
  -6   2  -8  267.07   41.90
  -6   2  -8  316.57   35.90
  -6   2  -8  322.77   45.20
   6  -2   8  284.47   47.00
   6  -2   8  269.87   41.50
   6  -2   8  256.87   35.30
  -7   2  -8  131.09   33.30
  -7   2  -8  214.58   44.70
  -7   2  -8  130.89   35.50
   7  -2   8  168.48   40.10
   7  -2   8  142.49   42.60
  11   1  -8   52.99   31.60
 -11  -1   8    8.80   39.40
 -11  -1   8  106.29   36.50
  10   1  -8   33.30   28.50
  10   1  -8   19.00   29.60
 -10  -1   8   -7.50   30.60
 -10  -1   8  -32.60   33.70
   9   1  -8  211.38   29.50
   9   1  -8  181.08   27.80
  -9  -1   8  234.18   29.10
  -9  -1   8  172.98   31.70
   8   1  -8  360.06   31.40
   8   1  -8  402.26   36.60
   8   1  -8  385.66   39.40
  -8  -1   8  457.55   41.00
  -8  -1   8  491.95   37.50
  -8  -1   8  432.86   35.20
   7   1  -8  610.74   38.90
   7   1  -8  591.54   48.10
  -7  -1   8  562.04   37.80
  -7  -1   8  579.84   42.20
  -7  -1   8  606.74   40.10
   6   1  -8  440.16   34.70
   6   1  -8  492.95   30.80
   6   1  -8  472.95   28.30
   6   1  -8  476.45   31.00
  -6  -1   8  439.66   30.90
  -6  -1   8  516.15   33.30
  -6  -1   8  435.06   35.60
   5   1  -8  218.08   16.30
   5   1  -8  188.08   17.80
   5   1  -8  199.88   18.70
   5   1  -8  192.38   24.30
  -5  -1   8  240.48   22.70
  -5  -1   8  199.98   20.00
  -5  -1   8  212.68   19.70
   4   1  -8   14.90    8.40
   4   1  -8   10.80   11.30
   4   1  -8   -0.50    7.70
   4   1  -8    3.10    8.00
   4   1  -8    7.30    6.50
  -4  -1   8    1.80   10.90
  -4  -1   8   22.00    9.70
  -4  -1   8    2.60    8.90
  -4  -1   8   -0.90   10.50
   3   1  -8  296.47   19.70
   3   1  -8  301.87   22.60
   3   1  -8  305.37   22.30
   3   1  -8  290.77   20.70
   3   1  -8  324.37   21.30
  -3  -1   8  313.37   21.40
  -3  -1   8  312.47   24.00
  -3  -1   8  335.37   22.70
  -3  -1   8  296.17   20.20
  -3  -1   8  299.37   21.80
   2   1  -8 1109.49   55.69
   2   1  -8 1107.69   56.39
   2   1  -8 1049.20   54.39
   2   1  -8 1128.89   55.79
   2   1  -8 1100.99   56.09
  -2  -1   8 1079.59   56.49
  -2  -1   8 1082.49   58.29
  -2  -1   8 1050.49   57.99
  -2  -1   8 1063.79   55.89
   1   1  -8 1394.66   69.69
   1   1  -8 1342.57   68.29
   1   1  -8 1364.96   71.29
   1   1  -8 1368.36   68.69
   1   1  -8 1333.27   67.49
  -1  -1   8 1428.76   72.79
  -1  -1   8 1309.87   67.59
  -1  -1   8 1436.76   70.09
  -1  -1   8 1360.16   71.59
   0   1  -8  883.41   47.10
   0   1  -8  866.81   45.80
   0   1  -8  862.21   51.59
   0  -1   8  880.91   49.40
   0  -1   8  914.61   48.10
   0  -1   8  888.41   51.69
  -1   1  -8  116.49   13.60
  -1   1  -8  138.59   15.60
  -1   1  -8  118.19   15.70
   1  -1   8  122.19   18.30
   1  -1   8   93.99   19.90
   1  -1   8  109.59   15.80
  -2   1  -8   61.19   14.50
  -2   1  -8   66.59   10.00
  -2   1  -8   50.89   11.60
   2  -1   8   46.60   19.80
   2  -1   8   64.09   14.20
  -3   1  -8  254.87   19.70
  -3   1  -8  227.08   34.10
  -3   1  -8  265.97   22.60
   3  -1   8  239.98   26.50
   3  -1   8  206.98   35.10
  -4   1  -8  319.97   28.50
  -4   1  -8  338.87   35.10
   4  -1   8  283.07   33.70
   4  -1   8  348.37   41.70
  -5   1  -8  449.86   36.40
  -5   1  -8  472.65   46.70
   5  -1   8  388.76   43.70
   5  -1   8  503.95   51.99
  -6   1  -8  245.88   40.60
  -6   1  -8  217.48   30.10
   6  -1   8  300.97   43.20
   6  -1   8  316.27   47.00
  -7   1  -8   90.79   44.50
  -7   1  -8   97.89   30.60
   7  -1   8  120.09   39.20
   7  -1   8    4.90   40.90
  11   0  -8  -48.20   28.80
  11   0  -8   47.40   31.40
 -11   0   8  -12.50   38.60
 -11   0   8   36.70   34.90
  10   0  -8  -34.00   28.30
  10   0  -8   23.70   27.10
 -10   0   8   19.90   33.70
 -10   0   8   18.70   29.00
   9   0  -8  330.27   37.20
   9   0  -8  255.57   39.20
  -9   0   8  288.97   40.80
  -9   0   8  258.67   38.70
  -9   0   8  278.97   35.50
   8   0  -8  670.93   46.90
   8   0  -8  516.35   46.60
   8   0  -8  653.73   43.10
  -8   0   8  667.63   45.80
  -8   0   8  677.23   45.20
  -8   0   8  589.74   42.00
   7   0  -8  930.01   62.19
   7   0  -8  982.40   55.69
   7   0  -8  965.90   56.29
  -7   0   8 1041.30   57.49
  -7   0   8  991.80   56.59
  -7   0   8  928.01   54.89
   6   0  -8  202.98   20.80
   6   0  -8  189.58   25.00
   6   0  -8  193.48   23.20
  -6   0   8  214.98   22.50
  -6   0   8  204.78   21.50
  -6   0   8  234.98   25.40
   5   0  -8   20.90   10.40
   5   0  -8   14.30    9.70
   5   0  -8   24.50   11.90
  -5   0   8   23.80   11.00
  -5   0   8   24.60   12.80
  -5   0   8   21.50   10.90
   4   0  -8   12.80    8.30
   4   0  -8   26.80    9.00
   4   0  -8    9.30    9.80
  -4   0   8    3.90    9.80
  -4   0   8   16.50    9.60
  -4   0   8   22.20   11.90
  -4   0   8   14.30    9.60
   3   0  -8  407.66   25.30
   3   0  -8  404.56   23.70
   3   0  -8  396.86   25.90
   3   0  -8  435.86   26.10
  -3   0   8  424.26   27.80
  -3   0   8  382.86   28.50
  -3   0   8  416.96   25.90
   2   0  -8 1575.54   79.79
   2   0  -8 1575.34   78.79
   2   0  -8 1592.24   79.19
  -2   0   8 1615.04   78.99
  -2   0   8 1532.65   79.99
  -2   0   8 1628.64   82.19
  -2   0   8 1553.94   81.29
   1   0  -8  844.22   44.50
   1   0  -8  882.51   45.60
   1   0  -8  860.61   46.30
  -1   0   8  886.21   51.09
  -1   0   8  907.11   46.40
  -1   0   8  828.42   48.30
   0   0  -8  554.54   30.60
   0   0  -8  550.24   34.60
   0   0  -8  571.64   32.00
   0   0   8  513.15   34.60
   0   0   8  544.25   32.50
   0   0   8  519.35   39.10
  -1   0  -8   53.79    9.90
  -1   0  -8   62.49   14.00
  -1   0  -8   58.09   10.80
   1   0   8   60.29   12.70
   1   0   8   57.79   18.90
   1   0   8   61.39   13.80
  -2   0  -8   -5.30   11.00
  -2   0  -8   12.50   13.40
  -2   0  -8   -7.40    9.80
   2   0   8   -4.90   12.50
   2   0   8    7.60   13.70
   2   0   8    7.20   19.30
  -3   0  -8  173.78   19.00
   3   0   8  166.78   22.20
   3   0   8  204.08   34.00
  -4   0  -8  614.04   36.50
  -4   0  -8  631.54   44.50
  -4   0  -8  559.14   38.60
   4   0   8  614.14   51.49
   4   0   8  564.14   44.80
  -5   0  -8  500.55   47.20
  -5   0  -8  423.96   33.80
  -5   0  -8  464.05   36.90
   5   0   8  399.86   44.50
   5   0   8  458.65   53.99
  -6   0  -8  352.66   38.00
  -6   0  -8  410.06   55.49
   6   0   8  302.57   43.50
   6   0   8  241.68   41.20
  -7   0  -8  129.49   45.00
  -7   0  -8  116.99   31.40
   7   0   8  165.98   44.80
  11  -1  -8   19.10   34.20
  11  -1  -8    0.50   33.20
  11  -1  -8   33.20   29.90
 -11   1   8   -3.80   33.60
 -11   1   8   30.80   39.80
  10  -1  -8   49.50   33.50
  10  -1  -8   26.40   29.50
  10  -1  -8   46.10   26.50
 -10   1   8   63.19   35.00
 -10   1   8   31.30   29.00
   9  -1  -8  415.16   41.50
   9  -1  -8  393.56   43.40
   9  -1  -8  479.75   40.90
  -9   1   8  520.05   45.80
  -9   1   8  461.25   45.90
  -9   1   8  426.96   40.60
   8  -1  -8  809.82   47.90
   8  -1  -8  687.83   50.59
  -8   1   8  716.63   47.80
  -8   1   8  767.22   49.99
  -8   1   8  786.02   51.59
   7  -1  -8  847.02   48.50
   7  -1  -8  799.02   50.69
   7  -1  -8  723.73   50.19
  -7   1   8  911.51   51.79
  -7   1   8  816.42   48.60
  -7   1   8  881.71   50.49
   6  -1  -8  169.68   19.90
   6  -1  -8  171.28   20.00
   6  -1  -8  173.68   23.60
  -6   1   8  203.68   21.60
  -6   1   8  154.88   21.00
  -6   1   8  172.18   25.20
   5  -1  -8   12.50    9.70
   5  -1  -8   -2.10   11.30
   5  -1  -8    7.90   12.30
  -5   1   8   17.40   10.70
  -5   1   8   -7.70   11.10
  -5   1   8    5.40   13.20
   4  -1  -8   99.79   12.40
   4  -1  -8   92.69   13.20
   4  -1  -8   88.39   12.70
  -4   1   8  101.99   15.40
  -4   1   8  105.59   13.30
  -4   1   8  102.79   13.80
   3  -1  -8  516.65   30.00
   3  -1  -8  547.85   30.90
   3  -1  -8  517.55   30.10
  -3   1   8  493.25   36.90
  -3   1   8  489.35   30.80
  -3   1   8  500.85   33.90
   2  -1  -8  771.72   42.20
   2  -1  -8  801.82   41.80
   2  -1  -8  744.63   40.80
  -2   1   8  741.23   44.50
  -2   1   8  791.12   46.80
  -2   1   8  787.92   42.70
   1  -1  -8  929.31   47.90
   1  -1  -8  894.31   46.30
   1  -1  -8  908.51   48.60
  -1   1   8  863.71   53.99
  -1   1   8  955.10   48.30
  -1   1   8  887.21   50.79
   0  -1  -8  398.66   26.30
   0  -1  -8  405.86   25.30
   0   1   8  413.96   26.70
   0   1   8  399.26   35.30
   0   1   8  418.66   29.70
  -1  -1  -8   28.00    9.70
  -1  -1  -8   31.10   14.10
  -1  -1  -8   34.10   10.30
   1   1   8   24.60   13.70
   1   1   8   30.90   19.20
   1   1   8   40.60   12.10
  -2  -1  -8   74.19   13.10
  -2  -1  -8   67.49   16.60
  -2  -1  -8   75.49   12.70
   2   1   8   61.89   21.20
   2   1   8   79.79   16.30
   2   1   8   59.39   16.70
  -3  -1  -8  291.37   25.00
  -3  -1  -8  326.77   32.60
  -3  -1  -8  294.67   25.70
   3   1   8  319.37   31.20
   3   1   8  369.56   40.60
  -4  -1  -8  725.63   45.30
  -4  -1  -8  761.92   43.80
  -4  -1  -8  831.12   51.89
   4   1   8  656.93   52.19
   4   1   8  763.52   59.39
  -5  -1  -8  492.25   36.10
  -5  -1  -8  458.25   37.70
  -5  -1  -8  560.84   48.20
   5   1   8  403.16   54.29
   5   1   8  324.67   48.20
  -6  -1  -8  193.68   27.80
  -6  -1  -8  207.98   38.00
  -6  -1  -8  145.19   28.50
   6   1   8   72.09   37.90
   6   1   8  192.18   42.70
  10  -2  -8  111.59   28.10
  10  -2  -8   83.99   30.10
  10  -2  -8   90.59   32.20
 -10   2   8   73.19   30.10
 -10   2   8  118.49   34.90
 -10   2   8   47.10   32.60
   9  -2  -8  420.46   39.00
   9  -2  -8  282.17   37.10
   9  -2  -8  289.57   40.70
  -9   2   8  296.67   43.40
  -9   2   8  340.77   37.50
  -9   2   8  415.46   44.00
   8  -2  -8  499.15   43.30
   8  -2  -8  411.86   41.80
   8  -2  -8  549.45   39.00
  -8   2   8  529.15   39.10
  -8   2   8  558.64   42.10
  -8   2   8  548.35   45.30
   7  -2  -8  273.87   31.20
   7  -2  -8  287.67   30.10
   7  -2  -8  315.37   27.70
  -7   2   8  356.16   34.40
  -7   2   8  294.57   28.00
  -7   2   8  333.17   30.10
   6  -2  -8  236.98   24.70
   6  -2  -8  216.48   25.60
  -6   2   8  271.37   28.60
  -6   2   8  187.28   28.80
   5  -2  -8   53.99   14.10
   5  -2  -8   89.99   14.00
   5  -2  -8   97.09   13.50
  -5   2   8   87.59   16.90
  -5   2   8   69.09   13.40
  -5   2   8   96.69   13.70
   4  -2  -8  314.37   22.90
   4  -2  -8  287.37   21.70
  -4   2   8  269.77   22.60
  -4   2   8  265.87   25.90
  -4   2   8  311.97   26.70
   3  -2  -8  758.72   41.40
   3  -2  -8  778.82   42.90
   3  -2  -8  745.13   42.00
  -3   2   8  766.92   42.90
  -3   2   8  802.92   47.70
  -3   2   8  749.13   44.90
   2  -2  -8 1082.09   58.49
   2  -2  -8 1088.09   55.99
   2  -2  -8 1097.09   57.09
  -2   2   8 1076.79   59.89
  -2   2   8 1151.78   64.09
  -2   2   8 1079.19   57.89
   1  -2  -8  833.82   46.10
   1  -2  -8  839.82   43.50
   1  -2  -8  914.31   45.70
  -1   2   8  838.92   49.60
  -1   2   8  768.62   53.19
   0  -2  -8  277.97   22.00
   0  -2  -8  305.27   21.70
   0  -2  -8  282.37   18.30
   0   2   8  263.47   21.90
   0   2   8  270.67   35.10
   0   2   8  284.97   26.10
  -1  -2  -8   75.49   16.90
  -1  -2  -8   74.99   12.30
  -1  -2  -8   45.20   12.10
   1   2   8   71.69   24.00
   1   2   8   88.29   14.10
   1   2   8   60.99   16.20
  -2  -2  -8  270.37   22.90
  -2  -2  -8  235.08   22.00
   2   2   8  210.58   31.20
   2   2   8  254.67   26.40
   2   2   8  248.98   36.80
  -3  -2  -8  389.46   30.40
  -3  -2  -8  446.76   31.30
  -3  -2  -8  428.66   37.20
   3   2   8  449.46   47.00
   3   2   8  460.25   39.90
   3   2   8  463.55   38.00
  -4  -2  -8  603.04   46.20
  -4  -2  -8  513.95   37.50
   4   2   8  562.94   47.30
   4   2   8  490.95   53.69
  -5  -2  -8  327.17   33.20
  -5  -2  -8  334.87   46.90
  -5  -2  -8  291.27   34.10
   5   2   8  243.78   41.90
   5   2   8  284.07   46.50
  -6  -2  -8   41.50   27.10
  -6  -2  -8   72.59   37.00
  -6  -2  -8   64.79   28.20
   6   2   8   36.80   37.80
   6   2   8  116.69   41.10
  10  -3  -8  130.39   29.20
  10  -3  -8  135.39   30.30
  10  -3  -8   51.29   30.20
 -10   3   8  115.09   36.80
 -10   3   8   42.70   33.00
 -10   3   8  128.99   30.30
   9  -3  -8  138.29   26.30
   9  -3  -8  172.88   30.40
   9  -3  -8  156.18   26.80
  -9   3   8  157.48   26.40
  -9   3   8  145.69   34.10
  -9   3   8  214.88   30.70
   8  -3  -8  442.96   42.10
   8  -3  -8  529.55   38.40
   8  -3  -8  477.15   39.70
  -8   3   8  446.46   37.10
  -8   3   8  465.55   46.10
   7  -3  -8  263.17   30.90
   7  -3  -8  353.26   32.90
   7  -3  -8  343.07   29.40
  -7   3   8  365.96   29.80
   6  -3  -8   82.29   19.40
   6  -3  -8  141.39   20.20
   6  -3  -8   96.79   21.90
  -6   3   8  147.99   21.50
  -6   3   8  115.29   17.50
   5  -3  -8  133.49   19.60
   5  -3  -8  132.79   20.80
   5  -3  -8  153.68   17.90
  -5   3   8  124.09   17.80
  -5   3   8  141.19   19.50
  -5   3   8  152.38   19.20
   4  -3  -8  223.68   21.20
   4  -3  -8  208.38   20.70
   4  -3  -8  212.38   20.30
  -4   3   8  212.78   21.20
  -4   3   8  235.68   28.30
  -4   3   8  235.68   25.10
   3  -3  -8  351.06   24.30
   3  -3  -8  354.06   23.50
   3  -3  -8  335.97   24.70
  -3   3   8  321.37   24.90
  -3   3   8  290.17   31.10
  -3   3   8  364.86   35.00
   2  -3  -8  625.64   35.70
   2  -3  -8  603.74   33.80
   2  -3  -8  617.24   36.00
  -2   3   8  536.75   45.60
  -2   3   8  596.04   38.40
  -2   3   8  616.94   36.20
   1  -3  -8  520.35   31.90
   1  -3  -8  533.55   32.20
   1  -3  -8  543.05   29.80
  -1   3   8  433.96   43.70
  -1   3   8  539.25   35.90
   0  -3  -8  173.48   19.50
   0  -3  -8  164.48   15.30
   0  -3  -8  157.58   18.20
   0   3   8  170.98   18.80
   0   3   8  156.38   24.20
   0   3   8  226.38   35.80
  -1  -3  -8  -12.30   12.10
  -1  -3  -8    8.60   11.60
   1   3   8   -7.50   43.10
   1   3   8   -5.60   13.40
   1   3   8   10.80   26.20
  -2  -3  -8  187.88   24.10
  -2  -3  -8  311.67   33.20
   2   3   8  246.38   29.00
   2   3   8  297.37   41.80
   2   3   8  269.87   33.10
  -3  -3  -8  390.36   39.30
  -3  -3  -8  355.96   30.90
  -3  -3  -8  398.26   31.30
   3   3   8  390.46   38.90
   3   3   8  416.06   40.90
   3   3   8  388.86   48.70
  -4  -3  -8  297.97   32.30
  -4  -3  -8  362.06   44.30
  -4  -3  -8  293.37   31.10
   4   3   8  306.57   44.00
   4   3   8  275.67   42.00
  -5  -3  -8  225.28   35.00
  -5  -3  -8  205.68   27.90
  -5  -3  -8  235.28   35.50
   5   3   8  370.76   57.59
   5   3   8  187.88   37.30
  10  -4  -8  159.28   34.00
  10  -4  -8  136.89   34.00
  10  -4  -8  258.17   33.20
 -10   4   8  221.28   33.10
 -10   4   8  159.28   42.70
   9  -4  -8  198.18   32.60
   9  -4  -8  179.88   28.90
   9  -4  -8  243.58   29.90
  -9   4   8  227.98   37.20
  -9   4   8  177.78   29.20
   8  -4  -8  508.55   43.80
   8  -4  -8  391.26   44.10
   8  -4  -8  593.94   40.90
  -8   4   8  516.05   40.40
   7  -4  -8  426.46   33.30
   7  -4  -8  419.96   32.60
   7  -4  -8  392.36   36.30
  -7   4   8  429.66   41.00
  -7   4   8  355.56   33.50
   6  -4  -8   57.69   13.50
   6  -4  -8   27.80   13.70
   6  -4  -8   27.80   16.60
  -6   4   8   48.60   15.30
  -6   4   8   16.60   19.40
   5  -4  -8   68.39   14.10
  -5   4   8   72.69   14.90
  -5   4   8   43.80   18.40
  -5   4   8   70.49   19.50
   4  -4  -8  368.66   26.20
   4  -4  -8  297.87   37.40
   4  -4  -8  381.46   26.60
  -4   4   8  280.47   36.60
  -4   4   8  350.46   35.90
   3  -4  -8  112.89   16.80
   3  -4  -8  107.79   17.90
  -3   4   8  115.89   19.00
  -3   4   8  109.09   24.80
   2  -4  -8  446.26   36.60
   2  -4  -8  439.36   31.30
   2  -4  -8  475.45   28.60
  -2   4   8  422.46   32.00
  -2   4   8  444.86   43.70
   1  -4  -8  500.25   29.80
  -1   4   8  500.55   46.20
  -1   4   8  494.95   42.70
   0  -4  -8   46.10   13.30
   0  -4  -8   47.90   10.50
   0  -4  -8   37.70   14.10
   0   4   8   82.09   32.20
   0   4   8   61.09   17.50
  -1  -4  -8   12.50   12.90
  -1  -4  -8   16.40   15.20
   1   4   8    4.20   15.60
   1   4   8  -30.10   25.80
   1   4   8   16.20   18.40
  -2  -4  -8  229.98   29.10
  -2  -4  -8  235.38   26.20
  -2  -4  -8  209.18   25.40
   2   4   8  198.38   35.70
   2   4   8  223.88   33.80
   2   4   8  248.38   31.20
  -3  -4  -8  568.84   48.30
  -3  -4  -8  496.25   38.20
  -3  -4  -8  523.55   38.20
   3   4   8  473.05   56.59
   3   4   8  587.64   48.10
  -4  -4  -8  299.97   34.10
  -4  -4  -8  328.47   46.50
  -4  -4  -8  287.57   33.20
   4   4   8  396.56   48.90
   4   4   8  230.68   37.80
   4   4   8  359.26   55.99
  -5  -4  -8  111.49   25.90
  -5  -4  -8   60.69   34.00
  -5  -4  -8  105.39   27.10
   5   4   8  115.19   42.30
   5   4   8   61.79   38.40
   9  -5  -8  333.37   42.50
   9  -5  -8  381.66   45.80
   9  -5  -8  424.56   43.20
  -9   5   8  358.26   57.69
  -9   5   8  341.37   44.90
   8  -5  -8  180.28   29.60
   8  -5  -8  246.68   33.40
  -8   5   8  219.38   28.00
  -8   5   8  250.97   35.90
   7  -5  -8  187.38   28.20
   7  -5  -8  161.78   20.60
   7  -5  -8  188.18   25.50
  -7   5   8  172.38   23.40
  -7   5   8  191.88   30.50
   6  -5  -8   -1.40   15.40
   6  -5  -8   12.40   16.90
  -6   5   8    0.60   22.70
  -6   5   8   -9.50   21.30
  -6   5   8    1.40   16.20
   5  -5  -8  155.08   19.10
   5  -5  -8  166.38   22.10
  -5   5   8  160.28   23.20
  -5   5   8  155.28   20.10
  -5   5   8  175.48   27.00
   4  -5  -8  763.82   44.70
   4  -5  -8  794.12   45.80
  -4   5   8  812.92   46.50
  -4   5   8  739.33   49.20
  -4   5   8  713.53   55.59
   3  -5  -8  427.96   30.10
   3  -5  -8  399.76   28.50
   3  -5  -8  413.76   29.00
  -3   5   8  442.76   34.50
  -3   5   8  292.27   43.80
  -3   5   8  394.86   31.10
   2  -5  -8  378.46   26.00
   2  -5  -8  344.17   27.70
   2  -5  -8  354.56   27.70
  -2   5   8  310.17   44.50
  -2   5   8  380.16   33.50
   1  -5  -8  300.17   26.00
   1  -5  -8  328.37   26.70
   1  -5  -8  331.57   24.30
  -1   5   8  306.97   32.50
  -1   5   8  284.17   37.00
   0  -5  -8   58.09   16.30
   0  -5  -8   27.80   13.90
   0  -5  -8   63.39   13.00
   0   5   8   31.60   28.50
   0   5   8   60.89   20.60
  -1  -5  -8   91.69   17.40
  -1  -5  -8  124.59   19.40
   1   5   8   92.19   32.70
   1   5   8   86.99   23.00
   1   5   8   96.69   19.40
  -2  -5  -8  325.87   45.50
  -2  -5  -8  339.37   32.70
  -2  -5  -8  341.17   31.80
   2   5   8  350.46   37.80
   2   5   8  322.37   52.59
   2   5   8  428.16   41.00
  -3  -5  -8  382.86   47.00
  -3  -5  -8  375.86   35.10
  -3  -5  -8  313.87   34.40
   3   5   8  332.77   45.70
   3   5   8  446.86   47.00
   3   5   8  323.27   44.90
  -4  -5  -8  116.49   25.30
  -4  -5  -8  257.47   35.60
  -4  -5  -8  191.58   34.50
   4   5   8  187.68   34.50
   4   5   8  139.79   36.60
   4   5   8   95.99   41.00
   8  -6  -8   59.79   25.40
   8  -6  -8  105.19   26.20
  -8   6   8  114.09   24.80
  -8   6   8  133.99   34.30
   7  -6  -8   99.59   23.80
   7  -6  -8   98.89   22.40
  -7   6   8   66.99   21.30
  -7   6   8   71.39   29.00
   6  -6  -8   13.30   18.80
   6  -6  -8   26.20   17.60
  -6   6   8   12.90   18.40
  -6   6   8   23.50   23.80
  -6   6   8   89.99   26.40
   5  -6  -8   95.19   18.90
   5  -6  -8   97.09   18.50
   5  -6  -8   93.09   17.90
  -5   6   8  101.69   29.70
  -5   6   8   70.99   22.50
  -5   6   8   77.09   18.60
   4  -6  -8  394.66   31.60
   4  -6  -8  425.26   32.40
   4  -6  -8  373.96   30.50
  -4   6   8  451.15   33.70
  -4   6   8  322.67   49.30
  -4   6   8  411.46   37.70
   3  -6  -8  583.54   39.20
   3  -6  -8  651.93   40.30
   3  -6  -8  641.14   38.50
  -3   6   8  526.75   55.39
  -3   6   8  596.24   45.70
  -3   6   8  625.84   41.00
   2  -6  -8  221.68   25.30
   2  -6  -8  252.57   25.20
   2  -6  -8  269.17   25.70
  -2   6   8  239.18   36.30
  -2   6   8  229.58   34.00
   1  -6  -8  190.28   25.70
   1  -6  -8  157.38   20.20
   1  -6  -8  183.08   23.20
  -1   6   8  213.78   29.70
  -1   6   8  208.78   36.30
   0  -6  -8  -20.20   16.60
   0  -6  -8  -10.20   14.80
   0  -6  -8  -12.00   15.40
   0   6   8  -21.90   31.50
   0   6   8   -4.10   21.60
  -1  -6  -8  212.58   29.50
  -1  -6  -8  193.58   27.90
   1   6   8  125.59   38.80
   1   6   8  202.68   29.80
  -2  -6  -8  306.47   33.50
  -2  -6  -8  221.98   32.80
   2   6   8  383.36   57.79
   2   6   8  305.07   44.90
  -3  -6  -8  240.98   33.90
  -3  -6  -8  310.27   49.10
  -3  -6  -8  249.18   35.00
   3   6   8  326.17   47.70
   3   6   8  195.88   44.80
   3   6   8  179.88   39.40
   7  -7  -8   90.89   24.30
   7  -7  -8   63.69   24.30
  -7   7   8   96.09   23.10
  -7   7   8   54.09   31.50
   6  -7  -8  -18.80   20.00
   6  -7  -8   -7.70   20.30
   6  -7  -8  -22.60   19.90
  -6   7   8  -27.90   18.80
  -6   7   8   -5.50   26.50
   5  -7  -8  239.58   30.60
   5  -7  -8  207.08   28.90
   5  -7  -8  214.28   24.60
  -5   7   8  131.59   33.70
  -5   7   8  246.88   30.60
  -5   7   8  221.38   30.40
   4  -7  -8  324.27   31.30
   4  -7  -8  416.46   34.60
   4  -7  -8  332.07   32.50
  -4   7   8  350.06   34.10
  -4   7   8  384.96   41.30
  -4   7   8  298.97   41.40
   3  -7  -8  568.04   39.20
   3  -7  -8  496.45   38.20
   3  -7  -8  549.15   37.00
  -3   7   8  550.14   46.50
  -3   7   8  404.46   57.69
   2  -7  -8  286.67   28.00
   2  -7  -8  228.68   29.60
   2  -7  -8  239.78   29.60
  -2   7   8  243.58   38.90
  -2   7   8  270.97   38.70
   1  -7  -8   75.79   18.80
   1  -7  -8   48.80   18.60
   1  -7  -8   31.90   18.40
  -1   7   8   92.39   36.30
  -1   7   8   41.40   25.30
   0  -7  -8  -31.40   17.40
   0  -7  -8    7.70   19.40
   0   7   8   12.50   25.50
   0   7   8    9.10   36.70
  -1  -7  -8   91.99   22.70
  -1  -7  -8   94.29   21.90
   1   7   8   61.79   28.40
   1   7   8   87.69   39.20
  -2  -7  -8  199.68   26.10
  -2  -7  -8  217.88   27.20
   2   7   8  334.37   47.30
   2   7   8  147.09   43.60
   6  -8  -8   20.60   22.00
   6  -8  -8   15.80   22.30
   6  -8  -8   42.20   21.30
  -6   8   8   14.50   22.30
  -6   8   8   36.20   27.80
   5  -8  -8  505.85   40.00
   5  -8  -8  396.86   37.90
   5  -8  -8  458.25   40.00
  -5   8   8  433.86   59.09
  -5   8   8  488.75   47.80
  -5   8   8  473.65   40.80
   4  -8  -8  502.45   38.80
   4  -8  -8  443.96   40.30
   4  -8  -8  511.55   37.80
  -4   8   8  520.25   47.10
  -4   8   8  339.67   46.50
  -4   8   8  452.95   40.00
   3  -8  -8  338.07   35.90
   3  -8  -8  430.86   35.30
   3  -8  -8  327.37   34.90
  -3   8   8  265.47   43.90
  -3   8   8  432.56   46.10
   2  -8  -8  101.19   21.50
   2  -8  -8  107.89   22.00
   2  -8  -8   91.29   22.40
  -2   8   8   87.39   39.70
  -2   8   8  150.28   30.20
   1  -8  -8   17.80   21.00
   1  -8  -8   54.29   21.10
   1  -8  -8   30.60   20.80
  -1   8   8   12.10   38.80
  -1   8   8   57.19   29.50
   0  -8  -8    5.90   20.90
   0  -8  -8    7.60   21.70
   0   8   8  -41.40   38.50
   0   8   8  -31.10   29.10
   4  10  -9   96.39   23.30
   4  10  -9   98.19   24.00
   4  10  -9   58.29   22.40
  -4 -10   9   98.09   30.90
  -4 -10   9   82.59   21.10
   3  10  -9  379.56   39.50
   3  10  -9  370.06   36.60
   3  10  -9  339.27   35.80
  -3 -10   9  338.27   47.30
  -3 -10   9  402.16   38.30
   2  10  -9  589.84   45.50
   2  10  -9  525.75   41.60
   2  10  -9  506.05   43.60
  -2 -10   9  505.65   50.69
  -2 -10   9  528.05   42.30
   1  10  -9  325.47   35.50
   1  10  -9  290.07   34.40
  -1 -10   9  318.17   35.20
  -1 -10   9  304.47   44.80
   0  10  -9   89.59   23.40
   0  10  -9  117.29   21.80
   0  10  -9   90.29   27.50
   0 -10   9  112.29   28.60
   0 -10   9  110.49   20.90
  -1  10  -9   82.49   24.10
  -1  10  -9   49.20   19.70
   1 -10   9   76.49   22.90
   1 -10   9  125.69   29.30
  -2  10  -9    3.00   24.30
  -2  10  -9   22.70   28.10
   2 -10   9   25.90   23.50
   2 -10   9   24.40   22.10
   5   9  -9   41.70   21.00
   5   9  -9    3.80   20.40
   5   9  -9   32.20   20.90
  -5  -9   9   -9.30   26.70
  -5  -9   9    8.00   28.40
   4   9  -9  132.49   23.60
   4   9  -9  170.38   22.30
   4   9  -9  180.78   30.10
  -4  -9   9  177.68   23.20
  -4  -9   9  127.39   30.30
  -4  -9   9  163.78   24.70
   3   9  -9  405.76   35.90
   3   9  -9  353.66   33.40
   3   9  -9  303.07   33.60
  -3  -9   9  387.36   44.40
  -3  -9   9  349.27   34.90
   2   9  -9  241.18   28.00
   2   9  -9  246.48   29.70
   2   9  -9  283.07   30.90
  -2  -9   9  267.37   32.70
  -2  -9   9  222.58   31.30
   1   9  -9  207.88   25.00
   1   9  -9  230.68   24.80
   1   9  -9  231.28   29.80
  -1  -9   9  278.57   40.50
  -1  -9   9  221.98   31.30
   0   9  -9   14.30   19.30
   0   9  -9   43.20   23.50
   0   9  -9   30.60   16.50
   0  -9   9   26.80   18.60
   0  -9   9   11.60   23.60
  -1   9  -9   38.90   22.20
  -1   9  -9   16.60   23.80
  -1   9  -9   19.20   16.60
   1  -9   9   33.30   19.80
   1  -9   9    2.00   20.10
   1  -9   9  -12.60   24.20
  -2   9  -9  108.19   28.50
  -2   9  -9  156.98   27.00
  -2   9  -9  117.59   21.90
   2  -9   9  121.19   23.70
   2  -9   9  107.39   24.90
  -3   9  -9  448.06   40.50
  -3   9  -9  442.26   48.00
  -3   9  -9  339.47   52.19
   3  -9   9  368.16   43.50
   3  -9   9  483.55   42.30
   7   8  -9  127.29   26.00
   7   8  -9   85.59   24.60
  -7  -8   9  199.98   35.80
  -7  -8   9  112.79   37.40
   6   8  -9   56.99   21.30
   6   8  -9    4.20   21.40
  -6  -8   9   20.30   27.60
  -6  -8   9   33.90   30.70
   5   8  -9   56.19   19.40
   5   8  -9   59.89   21.30
   5   8  -9  101.89   19.90
  -5  -8   9   32.20   24.80
  -5  -8   9   -6.20   26.40
   4   8  -9  282.77   28.80
   4   8  -9  234.38   28.70
   4   8  -9  275.47   31.50
  -4  -8   9  257.47   32.30
  -4  -8   9  209.48   30.10
  -4  -8   9  204.78   29.80
   3   8  -9  421.26   35.20
   3   8  -9  420.36   31.90
   3   8  -9  374.36   33.70
  -3  -8   9  447.56   34.90
  -3  -8   9  426.66   42.80
  -3  -8   9  377.06   30.40
   2   8  -9  421.06   33.80
   2   8  -9  406.26   33.20
   2   8  -9  390.06   35.50
   2   8  -9  370.76   39.70
  -2  -8   9  438.06   33.70
  -2  -8   9  418.16   42.50
   1   8  -9  347.27   30.40
   1   8  -9  291.57   30.30
   1   8  -9  308.27   39.10
  -1  -8   9  301.07   29.70
  -1  -8   9  316.97   39.30
   0   8  -9   38.20   18.70
   0   8  -9   62.49   25.20
   0   8  -9   81.69   16.90
   0  -8   9   58.19   18.80
   0  -8   9   44.50   17.30
   0  -8   9   45.00   23.40
  -1   8  -9   22.80   15.50
  -1   8  -9   27.90   19.90
  -1   8  -9    0.50   25.60
   1  -8   9   57.19   17.20
   1  -8   9   30.90   18.70
   1  -8   9    7.20   21.90
  -2   8  -9  230.78   36.40
  -2   8  -9  213.38   30.70
  -2   8  -9  130.99   30.90
   2  -8   9  143.99   26.60
   2  -8   9  196.98   24.20
  -3   8  -9  392.86   44.50
  -3   8  -9  382.26   51.39
   3  -8   9  360.46   39.40
   3  -8   9  384.66   40.40
  -4   8  -9  375.16   48.60
  -4   8  -9  364.76   54.39
   4  -8   9  397.26   43.10
   4  -8   9  300.77   43.60
   8   7  -9  195.58   30.00
   8   7  -9  221.68   40.10
   8   7  -9  191.08   29.80
  -8  -7   9  145.89   39.10
  -8  -7   9  211.18   36.80
   7   7  -9  130.39   23.40
   7   7  -9  125.99   34.50
   7   7  -9  140.79   24.30
  -7  -7   9  127.89   33.50
  -7  -7   9  128.59   32.90
   6   7  -9   27.80   19.90
   6   7  -9   16.20   18.20
  -6  -7   9   42.70   29.50
  -6  -7   9   17.60   26.00
   5   7  -9  115.49   19.10
   5   7  -9  101.29   18.50
   5   7  -9  127.19   20.10
  -5  -7   9   98.79   27.70
  -5  -7   9  119.99   22.90
   4   7  -9  553.94   38.50
   4   7  -9  570.34   39.20
   4   7  -9  550.34   38.20
  -4  -7   9  594.24   38.90
  -4  -7   9  616.14   47.80
  -4  -7   9  553.64   39.60
   3   7  -9  564.54   37.60
   3   7  -9  582.64   38.50
   3   7  -9  573.14   37.30
  -3  -7   9  596.54   47.10
  -3  -7   9  538.65   35.60
  -3  -7   9  524.85   37.00
   2   7  -9  399.56   38.80
   2   7  -9  476.45   33.90
   2   7  -9  429.86   39.80
   2   7  -9  463.65   34.50
  -2  -7   9  502.65   41.90
  -2  -7   9  469.05   32.80
   1   7  -9  204.88   25.50
   1   7  -9  205.48   25.00
   1   7  -9  208.98   29.30
  -1  -7   9  198.48   26.60
  -1  -7   9  206.88   23.90
  -1  -7   9  228.58   34.00
   0   7  -9  108.59   17.30
   0   7  -9  110.89   28.10
   0   7  -9   85.39   18.10
   0  -7   9   78.09   22.80
   0  -7   9  106.89   17.20
   0  -7   9  111.79   19.10
  -1   7  -9  125.89   19.40
  -1   7  -9   96.09   29.70
  -1   7  -9  127.49   21.70
   1  -7   9  126.19   21.10
   1  -7   9  137.59   19.10
   1  -7   9  110.49   23.90
  -2   7  -9  316.97   37.90
  -2   7  -9  313.47   46.50
   2  -7   9  392.86   33.10
   2  -7   9  354.56   35.80
  -3   7  -9  627.94   55.09
  -3   7  -9  534.15   46.80
   3  -7   9  456.25   43.90
   3  -7   9  510.15   41.40
  -4   7  -9  574.74   56.99
  -4   7  -9  384.66   48.80
   4  -7   9  491.05   42.90
   4  -7   9  427.76   45.60
  -5   7  -9  202.78   38.10
  -5   7  -9  155.48   34.40
   5  -7   9  163.68   33.40
   5  -7   9  194.38   30.00
   8   6  -9  108.69   26.40
   8   6  -9  219.98   38.60
   8   6  -9  140.09   25.50
  -8  -6   9   90.99   35.20
  -8  -6   9  166.38   39.00
   7   6  -9  124.49   34.60
   7   6  -9   74.19   22.60
   7   6  -9   64.09   19.80
  -7  -6   9  111.59   31.30
  -7  -6   9   66.59   29.70
   6   6  -9   20.30   27.10
   6   6  -9   -3.70   17.60
   6   6  -9   13.20   17.30
   6   6  -9   16.80   15.80
  -6  -6   9  -14.30   25.40
  -6  -6   9  -23.70   22.20
   5   6  -9  139.69   23.10
   5   6  -9  126.29   16.00
   5   6  -9  138.09   19.00
  -5  -6   9  145.29   27.20
   4   6  -9  351.26   28.50
   4   6  -9  347.47   29.00
   4   6  -9  346.97   27.00
  -4  -6   9  373.36   39.00
  -4  -6   9  300.87   28.30
  -4  -6   9  397.76   28.20
   3   6  -9  386.86   27.70
   3   6  -9  359.96   34.30
   3   6  -9  328.07   38.40
   3   6  -9  373.56   28.50
  -3  -6   9  365.96   37.10
  -3  -6   9  322.37   26.50
  -3  -6   9  384.36   28.10
   2   6  -9  455.55   40.60
   2   6  -9  499.05   32.60
   2   6  -9  491.95   29.20
   2   6  -9  500.75   44.40
   2   6  -9  472.35   43.90
  -2  -6   9  499.45   40.30
  -2  -6   9  450.65   29.80
   1   6  -9   92.09   24.40
   1   6  -9   83.19   15.40
   1   6  -9  100.59   16.40
  -1  -6   9   79.79   14.30
  -1  -6   9   76.69   17.00
  -1  -6   9   67.99   19.50
   0   6  -9   41.40   14.10
   0   6  -9   45.50   16.00
   0   6  -9   45.80   24.30
   0  -6   9   11.70   12.90
   0  -6   9   40.40   19.70
   0  -6   9   27.10   14.50
  -1   6  -9  212.38   28.40
   1  -6   9  190.38   28.70
   1  -6   9  159.58   24.10
   1  -6   9  178.98   26.30
  -2   6  -9  529.35   50.89
  -2   6  -9  466.25   40.00
   2  -6   9  472.45   34.20
   2  -6   9  387.76   37.10
  -3   6  -9  689.23   56.09
  -3   6  -9  556.84   46.20
  -3   6  -9  506.95   38.40
   3  -6   9  551.94   40.50
   3  -6   9  511.75   43.50
  -4   6  -9  336.57   45.90
  -4   6  -9  436.76   54.99
  -4   6  -9  434.56   48.50
   4  -6   9  448.06   40.00
   4  -6   9  433.76   44.40
  -5   6  -9  177.88   34.20
  -5   6  -9  220.48   38.70
  -5   6  -9  116.49   32.50
   5  -6   9  186.88   33.70
   5  -6   9  232.08   28.40
   9   5  -9  478.95   45.20
   9   5  -9  397.96   42.90
   9   5  -9  294.57   41.40
  -9  -5   9  242.58   42.60
  -9  -5   9  403.66   53.29
  -9  -5   9  378.26   42.00
   8   5  -9   87.49   33.00
   8   5  -9  117.69   23.40
   8   5  -9   73.89   24.20
  -8  -5   9  103.69   30.60
  -8  -5   9  101.29   24.20
  -8  -5   9   98.29   33.70
   7   5  -9   46.40   17.10
   7   5  -9   15.30   18.90
   7   5  -9   18.10   27.90
  -7  -5   9   22.80   24.90
  -7  -5   9   75.79   18.80
  -7  -5   9   24.10   26.40
   6   5  -9    8.00   27.50
   6   5  -9   11.20   15.40
  -6  -5   9   27.70   20.30
  -6  -5   9   11.50   14.90
  -6  -5   9    4.30   24.00
   5   5  -9  156.18   21.60
   5   5  -9  144.79   18.10
   5   5  -9  142.69   18.80
   5   5  -9  176.88   27.10
  -5  -5   9  163.28   26.30
  -5  -5   9  167.98   24.60
   4   5  -9  592.54   35.90
   4   5  -9  655.93   39.60
   4   5  -9  650.93   36.90
   4   5  -9  635.04   45.90
   4   5  -9  652.33   38.50
   4   5  -9  548.45   40.20
  -4  -5   9  701.63   48.00
  -4  -5   9  629.64   38.30
   3   5  -9  855.11   54.49
   3   5  -9  891.71   48.80
   3   5  -9  919.31   48.00
   3   5  -9  870.91   48.10
   3   5  -9  844.92   46.80
   3   5  -9  789.82   51.39
  -3  -5   9  931.81   56.59
  -3  -5   9  901.81   48.00
  -3  -5   9  817.22   47.30
   2   5  -9  460.95   31.50
   2   5  -9  478.35   30.40
   2   5  -9  469.25   31.30
   2   5  -9  479.35   28.40
   2   5  -9  431.66   36.60
  -2  -5   9  495.15   39.80
  -2  -5   9  450.85   32.30
  -2  -5   9  471.25   30.60
  -2  -5   9  481.75   30.10
   1   5  -9   35.20   13.30
   1   5  -9   36.50   17.80
   1   5  -9   32.50   11.70
  -1  -5   9   28.20   12.50
  -1  -5   9   45.70   18.00
  -1  -5   9   40.70   11.60
   0   5  -9    2.80   13.60
   0   5  -9   14.50   18.90
   0   5  -9    6.90    9.30
   0   5  -9   17.80   12.00
   0  -5   9   14.70   12.80
   0  -5   9   15.00   10.80
   0  -5   9   23.60   16.90
  -1   5  -9  147.49   17.70
  -1   5  -9  153.88   21.70
  -1   5  -9  174.78   26.00
   1  -5   9  157.18   21.00
   1  -5   9  156.98   20.90
  -2   5  -9  581.94   52.09
  -2   5  -9  639.64   45.70
  -2   5  -9  622.14   37.20
   2  -5   9  628.94   39.30
   2  -5   9  616.64   42.70
  -3   5  -9  454.95   35.00
  -3   5  -9  543.85   51.99
  -3   5  -9  470.75   43.60
   3  -5   9  454.95   40.10
   3  -5   9  512.85   35.80
   3  -5   9  472.05   47.40
  -4   5  -9  283.97   30.20
  -4   5  -9  330.97   50.29
  -4   5  -9  258.77   33.50
   4  -5   9  227.08   30.40
   4  -5   9  213.68   37.70
   4  -5   9  258.67   32.60
  -5   5  -9   15.20   35.10
  -5   5  -9   35.80   24.70
  -5   5  -9   -3.60   30.90
   5  -5   9   41.80   23.10
   5  -5   9   53.39   29.80
   5  -5   9   38.00   38.80
  -6   5  -9  -27.60   35.50
  -6   5  -9   32.70   33.10
  -6   5  -9   15.00   33.60
   6  -5   9   57.99   33.70
   6  -5   9   -4.40   28.70
   9   4  -9  316.77   38.70
   9   4  -9  271.27   38.60
   9   4  -9  214.78   32.90
  -9  -4   9  259.87   40.70
  -9  -4   9  275.77   40.10
   8   4  -9   91.59   23.50
   8   4  -9  138.79   22.60
   8   4  -9  147.39   32.40
  -8  -4   9   91.29   24.10
  -8  -4   9  140.39   30.10
  -8  -4   9   77.89   29.70
   7   4  -9   14.20   15.70
   7   4  -9   12.10   16.60
   7   4  -9   38.30   25.70
  -7  -4   9   34.30   20.00
  -7  -4   9   34.70   25.60
  -7  -4   9   13.40   22.10
   6   4  -9   26.30   22.60
   6   4  -9    0.90   14.30
   6   4  -9   12.10   13.20
  -6  -4   9    0.50   21.90
  -6  -4   9   26.30   14.80
  -6  -4   9   -5.40   17.60
   5   4  -9  553.44   35.30
   5   4  -9  584.94   36.00
   5   4  -9  614.84   65.39
   5   4  -9  593.74   32.90
  -5  -4   9  540.25   35.50
  -5  -4   9  560.14   37.20
  -5  -4   9  536.85   55.69
   4   4  -9 1450.65   79.99
   4   4  -9 1446.46   74.39
   4   4  -9 1429.66   76.09
   4   4  -9 1413.26   73.89
   4   4  -9 1397.06   73.39
   4   4  -9 1490.25   73.79
  -4  -4   9 1469.15   73.89
  -4  -4   9 1353.26   74.49
  -4  -4   9 1544.45   80.99
   3   4  -9 1021.40   54.29
   3   4  -9 1011.30   53.19
   3   4  -9 1004.40   56.09
   3   4  -9 1057.79   65.09
   3   4  -9  988.70   53.99
   3   4  -9 1044.30   53.59
   3   4  -9  934.01   58.79
  -3  -4   9  983.00   60.29
  -3  -4   9 1033.70   53.29
  -3  -4   9 1022.30   53.59
  -3  -4   9  974.10   53.39
   2   4  -9  267.07   20.20
   2   4  -9  284.87   23.20
   2   4  -9  250.27   20.60
   2   4  -9  244.18   28.20
   2   4  -9  255.57   22.40
   2   4  -9  310.17   27.20
   2   4  -9  278.07   21.00
  -2  -4   9  274.97   23.30
  -2  -4   9  233.48   30.50
  -2  -4   9  257.37   20.40
  -2  -4   9  247.48   20.60
   1   4  -9   77.89   13.10
   1   4  -9   79.79   16.40
   1   4  -9   52.29    9.90
   1   4  -9   71.89   14.40
   1   4  -9   90.99   17.00
   1   4  -9   60.89   10.80
  -1  -4   9   73.99   15.40
  -1  -4   9   65.49   11.20
  -1  -4   9   63.29   16.90
  -1  -4   9   72.99   13.70
   0   4  -9   48.80   16.80
   0   4  -9   52.29   15.20
   0   4  -9   63.29   10.90
   0   4  -9   33.30   12.70
   0  -4   9   60.39   15.90
   0  -4   9   31.50   14.10
   0  -4   9   50.29   10.70
   0  -4   9   45.50   13.30
  -1   4  -9  112.79   21.40
  -1   4  -9  135.49   18.70
   1  -4   9  118.59   17.20
   1  -4   9  120.79   14.90
  -2   4  -9  500.05   33.20
  -2   4  -9  499.35   41.90
  -2   4  -9  544.15   44.50
   2  -4   9  562.84   34.10
   2  -4   9  521.35   44.40
   2  -4   9  550.24   38.20
  -3   4  -9  789.32   45.50
  -3   4  -9  827.52   56.69
  -3   4  -9  677.93   52.19
   3  -4   9  644.54   55.79
   3  -4   9  709.33   49.10
   3  -4   9  790.52   44.90
  -4   4  -9  263.27   34.30
  -4   4  -9  280.27   38.20
  -4   4  -9  333.67   30.30
   4  -4   9  313.87   37.70
   4  -4   9  294.97   39.60
   4  -4   9  303.47   31.70
  -5   4  -9    3.10   23.40
  -5   4  -9    1.30   34.50
  -5   4  -9   15.60   31.10
   5  -4   9   26.90   28.10
   5  -4   9   32.30   21.10
   5  -4   9   20.20   37.20
  -6   4  -9   81.39   29.80
  -6   4  -9   37.90   37.60
  -6   4  -9  -14.60   33.20
   6  -4   9   26.90   32.90
   6  -4   9   50.49   42.70
   6  -4   9   -6.00   27.60
  10   3  -9  234.58   38.20
  10   3  -9  395.06   51.49
 -10  -3   9  269.87   44.90
 -10  -3   9  280.07   38.20
   9   3  -9  192.48   33.80
   9   3  -9  158.78   32.80
   9   3  -9  212.08   30.90
  -9  -3   9  181.68   30.50
  -9  -3   9  115.19   35.00
   8   3  -9  112.69   23.00
   8   3  -9  136.19   21.00
   8   3  -9  146.19   29.00
  -8  -3   9  105.49   24.20
  -8  -3   9  174.78   29.40
   7   3  -9   23.80   15.80
   7   3  -9   -5.30   14.00
   7   3  -9   18.00   23.60
  -7  -3   9    2.00   16.30
  -7  -3   9   20.90   20.10
   6   3  -9   24.40   12.00
   6   3  -9   20.00   22.30
   6   3  -9   17.60   15.50
  -6  -3   9    9.60   20.70
  -6  -3   9   28.90   14.50
  -6  -3   9   70.39   19.10
   5   3  -9  590.14   38.30
   5   3  -9  591.74   33.60
   5   3  -9  599.74   44.10
   5   3  -9  573.64   36.00
   5   3  -9  575.14   36.20
   5   3  -9  596.04   35.20
  -5  -3   9  587.54   36.20
  -5  -3   9  626.94   44.30
  -5  -3   9  603.84   38.70
  -5  -3   9  564.24   37.20
   4   3  -9 1101.99   57.49
   4   3  -9  987.70   62.29
   4   3  -9 1096.59   56.99
   4   3  -9 1105.89   57.19
   4   3  -9 1117.19   57.69
   4   3  -9 1057.69   60.39
   4   3  -9 1063.19   57.59
  -4  -3   9 1140.49   60.19
  -4  -3   9 1076.79   58.19
  -4  -3   9 1136.09   57.89
  -4  -3   9 1112.09   63.79
   3   3  -9  586.94   41.30
   3   3  -9  627.74   35.70
   3   3  -9  642.64   36.50
   3   3  -9  666.23   37.00
   3   3  -9  648.14   36.90
   3   3  -9  690.33   40.60
   3   3  -9  667.73   37.70
  -3  -3   9  642.14   37.00
  -3  -3   9  657.13   40.40
  -3  -3   9  610.44   36.90
  -3  -3   9  607.64   37.70
  -3  -3   9  643.54   42.70
   2   3  -9  219.38   18.90
   2   3  -9  241.28   24.20
   2   3  -9  192.28   18.10
   2   3  -9  219.08   19.30
   2   3  -9  212.08   23.20
   2   3  -9  188.98   18.30
   2   3  -9  231.28   21.60
  -2  -3   9  183.18   17.40
  -2  -3   9  252.87   25.60
  -2  -3   9  213.88   23.50
  -2  -3   9  221.08   20.40
  -2  -3   9  214.58   21.80
   1   3  -9    6.10   10.80
   1   3  -9   23.10   12.70
   1   3  -9    2.90    8.70
   1   3  -9   17.90   13.70
   1   3  -9   25.60    8.50
   1   3  -9    8.10    9.40
  -1  -3   9    6.70   12.50
  -1  -3   9   16.70   11.20
  -1  -3   9   11.40    8.70
  -1  -3   9   21.80   13.90
   0   3  -9  128.19   19.10
   0   3  -9  106.69   13.30
   0   3  -9  119.89   16.60
   0   3  -9  130.79   18.80
   0   3  -9  119.09   15.40
   0  -3   9  127.59   20.60
   0  -3   9  113.09   15.60
   0  -3   9  145.99   20.70
  -1   3  -9  174.98   26.90
  -1   3  -9  213.68   20.90
  -1   3  -9  237.78   28.20
   1  -3   9  220.08   30.50
   1  -3   9  240.28   24.40
   1  -3   9  164.88   18.60
  -2   3  -9  588.34   45.80
  -2   3  -9  659.03   38.40
  -2   3  -9  638.34   45.20
   2  -3   9  619.54   36.90
   2  -3   9  656.83   49.10
   2  -3   9  617.64   46.80
  -3   3  -9  948.11   57.89
  -3   3  -9  848.32   58.89
   3  -3   9  922.91   62.39
   3  -3   9  828.02   54.69
   3  -3   9  923.31   49.80
  -4   3  -9  581.04   50.29
  -4   3  -9  582.04   39.10
  -4   3  -9  560.84   50.79
   4  -3   9  498.55   55.79
   4  -3   9  554.14   38.10
   4  -3   9  523.55   45.10
  -5   3  -9   -3.70   22.40
  -5   3  -9   -2.80   30.90
  -5   3  -9   32.90   35.30
   5  -3   9   47.80   38.30
   5  -3   9   12.70   28.10
   5  -3   9   -9.80   20.70
  -6   3  -9   -8.00   39.80
  -6   3  -9   17.40   33.20
  -6   3  -9   13.90   28.20
   6  -3   9  107.49   43.70
   6  -3   9   16.60   34.00
  10   2  -9  243.28   35.50
  10   2  -9  225.38   36.10
 -10  -2   9  253.37   35.90
 -10  -2   9  184.68   39.90
   9   2  -9  279.87   40.40
   9   2  -9  227.38   33.00
  -9  -2   9  283.07   37.60
  -9  -2   9  213.58   31.50
   8   2  -9  103.69   28.30
   8   2  -9   84.79   22.40
   8   2  -9   82.59   20.80
  -8  -2   9   68.89   21.90
  -8  -2   9   32.90   24.90
   7   2  -9   12.70   22.80
   7   2  -9    3.90   13.20
   7   2  -9   38.90   16.80
  -7  -2   9   38.10   18.90
   6   2  -9  264.67   26.70
   6   2  -9  260.37   24.20
   6   2  -9  243.58   32.90
   6   2  -9  288.27   22.40
  -6  -2   9  276.27   29.30
  -6  -2   9  238.78   31.90
  -6  -2   9  241.88   25.00
   5   2  -9  432.26   34.50
   5   2  -9  383.06   25.80
   5   2  -9  404.46   28.10
   5   2  -9  404.06   25.00
   5   2  -9  365.86   26.90
  -5  -2   9  396.66   32.00
  -5  -2   9  395.16   29.10
  -5  -2   9  406.56   28.90
   4   2  -9  972.30   53.89
   4   2  -9  951.00   51.19
   4   2  -9  947.71   50.29
   4   2  -9  976.50   50.89
   4   2  -9  976.40   50.39
   4   2  -9  846.62   54.39
   4   2  -9  979.50   51.79
  -4  -2   9  981.00   51.89
  -4  -2   9  948.11   51.99
  -4  -2   9  987.40   53.89
  -4  -2   9  920.81   50.99
   3   2  -9  726.83   39.90
   3   2  -9  758.32   40.70
   3   2  -9  771.42   41.60
   3   2  -9  770.42   44.20
   3   2  -9  734.83   43.40
   3   2  -9  756.92   41.20
   3   2  -9  709.03   42.00
  -3  -2   9  708.13   41.70
  -3  -2   9  704.53   42.20
  -3  -2   9  709.83   41.70
  -3  -2   9  775.72   44.20
   2   2  -9   56.19   13.20
   2   2  -9   45.20    8.90
   2   2  -9   54.99   10.30
   2   2  -9   57.59   14.40
   2   2  -9   52.39   12.90
   2   2  -9   41.80   10.40
   2   2  -9   58.39   10.90
  -2  -2   9   47.10   13.30
  -2  -2   9   52.29   10.70
  -2  -2   9   53.79   14.50
  -2  -2   9   50.49    9.00
   1   2  -9   14.10   12.80
   1   2  -9    7.50    7.70
   1   2  -9   -2.30    7.60
   1   2  -9    0.80    8.30
   1   2  -9    9.50    9.20
   1   2  -9    9.40   13.00
  -1  -2   9   -2.80    7.60
  -1  -2   9   11.70   13.70
  -1  -2   9    5.80   10.50
  -1  -2   9   -2.70   12.80
   0   2  -9  191.38   16.60
   0   2  -9  196.28   19.50
   0   2  -9  188.38   24.00
   0  -2   9  249.28   27.80
   0  -2   9  201.38   16.80
   0  -2   9  192.58   21.90
  -1   2  -9  604.04   39.80
  -1   2  -9  582.74   35.80
   1  -2   9  597.44   33.10
   1  -2   9  538.65   44.50
   1  -2   9  621.94   38.80
  -2   2  -9  594.04   36.80
  -2   2  -9  548.75   40.50
   2  -2   9  609.14   39.50
   2  -2   9  507.25   47.10
   2  -2   9  576.44   33.30
  -3   2  -9  711.33   48.10
  -3   2  -9  719.63   42.30
   3  -2   9  622.64   46.20
   3  -2   9  637.14   54.29
  -4   2  -9  212.78   27.40
  -4   2  -9  146.49   28.50
   4  -2   9  139.59   25.80
   4  -2   9  193.18   35.40
  -5   2  -9  -18.60   22.00
  -5   2  -9   33.10   33.60
  -5   2  -9   -1.70   29.90
   5  -2   9  -65.49   35.70
   5  -2   9  -28.00   28.40
  -6   2  -9  100.99   42.10
  -6   2  -9   78.09   28.80
  -6   2  -9   50.09   32.40
   6  -2   9   62.89   35.40
   6  -2   9   33.00   41.10
  10   1  -9   93.49   33.20
  10   1  -9   97.39   30.70
 -10  -1   9  120.99   33.30
 -10  -1   9  104.29   37.40
   9   1  -9  206.68   32.90
   9   1  -9  146.49   29.10
   9   1  -9  161.58   29.10
  -9  -1   9  135.59   28.80
  -9  -1   9  251.17   34.10
   8   1  -9   28.90   19.70
   8   1  -9  -20.10   20.50
   8   1  -9   37.70   23.70
  -8  -1   9   33.70   23.90
  -8  -1   9   29.10   20.20
  -8  -1   9   14.20   21.70
   7   1  -9  -10.50   19.20
   7   1  -9   49.50   17.30
   7   1  -9   25.60   20.30
  -7  -1   9   57.69   18.20
  -7  -1   9   32.60   19.40
  -7  -1   9   72.99   17.50
   6   1  -9  432.46   30.30
   6   1  -9  376.86   30.00
  -6  -1   9  415.06   30.40
  -6  -1   9  384.36   34.60
  -6  -1   9  408.16   32.30
   5   1  -9  464.85   35.50
   5   1  -9  494.55   29.20
   5   1  -9  485.75   30.60
   5   1  -9  499.55   28.90
   5   1  -9  485.95   31.60
  -5  -1   9  513.55   35.70
  -5  -1   9  486.85   32.60
  -5  -1   9  488.95   32.60
   4   1  -9  639.44   35.00
   4   1  -9  625.24   35.40
   4   1  -9  647.04   37.70
   4   1  -9  633.24   36.80
   4   1  -9  618.64   37.10
   4   1  -9  636.04   39.20
  -4  -1   9  667.63   40.50
  -4  -1   9  630.74   37.40
  -4  -1   9  619.74   37.60
  -4  -1   9  631.14   37.90
   3   1  -9  424.66   27.50
   3   1  -9  449.36   28.80
   3   1  -9  418.96   25.70
   3   1  -9  440.06   26.30
   3   1  -9  430.96   28.20
  -3  -1   9  414.96   26.70
  -3  -1   9  441.36   28.60
  -3  -1   9  425.96   29.80
  -3  -1   9  426.86   31.90
   2   1  -9   20.60    9.00
   2   1  -9   12.90    9.50
   2   1  -9   15.10   13.00
   2   1  -9   15.20    9.90
   2   1  -9   15.00    9.70
   2   1  -9   26.30    7.40
  -2  -1   9   20.60    9.20
  -2  -1   9   21.10   10.50
  -2  -1   9   13.10   12.80
  -2  -1   9   11.30   12.30
   1   1  -9   63.49    9.10
   1   1  -9   89.49   15.60
   1   1  -9   59.79   10.50
   1   1  -9   45.90   11.20
  -1  -1   9   68.79   12.10
  -1  -1   9   89.49   17.90
  -1  -1   9   77.49   14.70
   0   1  -9  313.47   23.50
   0   1  -9  280.27   21.00
   0   1  -9  300.27   27.60
   0  -1   9  268.17   27.20
   0  -1   9  307.27   24.60
   0  -1   9  302.87   31.80
  -1   1  -9  581.14   42.20
  -1   1  -9  615.34   36.40
  -1   1  -9  618.04   34.00
   1  -1   9  545.65   45.10
   1  -1   9  555.54   41.10
   1  -1   9  632.34   38.50
  -2   1  -9  422.76   46.20
  -2   1  -9  520.85   38.50
  -2   1  -9  498.95   30.50
   2  -1   9  488.75   45.20
   2  -1   9  540.15   36.40
  -3   1  -9  384.96   30.10
  -3   1  -9  298.37   36.10
  -3   1  -9  362.06   26.30
   3  -1   9  355.36   35.40
   3  -1   9  448.16   45.30
  -4   1  -9   69.79   25.90
  -4   1  -9   49.70   19.80
   4  -1   9   80.99   33.90
   4  -1   9   55.19   24.90
  -5   1  -9   -4.30   22.40
  -5   1  -9   13.70   32.00
   5  -1   9   17.20   29.80
   5  -1   9   30.50   39.50
  -6   1  -9  180.58   42.70
  -6   1  -9  161.48   29.80
   6  -1   9  120.49   37.80
   6  -1   9   97.99   43.90
  10   0  -9  175.78   32.00
  10   0  -9  216.68   34.50
  10   0  -9  165.88   34.80
 -10   0   9  148.39   32.90
 -10   0   9  239.48   38.60
   9   0  -9  161.08   29.00
   9   0  -9  177.78   29.30
   9   0  -9  214.98   32.50
  -9   0   9  198.38   32.70
  -9   0   9  196.68   28.70
  -9   0   9  127.39   36.30
   8   0  -9    5.10   21.80
   8   0  -9   -4.60   18.60
   8   0  -9  -47.50   22.80
  -8   0   9  -15.20   22.40
  -8   0   9   20.90   23.00
  -8   0   9   13.70   19.80
   7   0  -9   32.50   20.80
   7   0  -9   19.30   15.60
   7   0  -9   65.99   19.80
  -7   0   9    8.70   16.10
  -7   0   9   41.60   21.00
  -7   0   9   41.40   18.80
   6   0  -9  285.47   28.10
   6   0  -9  290.57   25.80
  -6   0   9  292.87   30.50
  -6   0   9  283.47   27.40
   5   0  -9  630.24   37.10
   5   0  -9  627.44   39.90
   5   0  -9  627.94   36.60
  -5   0   9  563.84   37.30
  -5   0   9  590.84   38.20
  -5   0   9  598.34   40.70
   4   0  -9  482.15   29.30
   4   0  -9  478.55   31.30
   4   0  -9  478.95   30.40
   4   0  -9  485.25   32.00
  -4   0   9  453.55   31.50
  -4   0   9  469.55   34.90
  -4   0   9  486.15   31.50
   3   0  -9  575.04   32.40
   3   0  -9  577.14   34.60
   3   0  -9  591.04   35.50
   3   0  -9  606.84   34.70
  -3   0   9  577.94   38.50
  -3   0   9  601.04   37.90
  -3   0   9  590.54   35.80
   2   0  -9   37.60   10.40
   2   0  -9   48.00   10.00
   2   0  -9   45.40   10.70
  -2   0   9   48.00    9.60
  -2   0   9   31.70   13.60
  -2   0   9   60.39   11.70
  -2   0   9   50.49   15.50
   1   0  -9  232.48   18.30
   1   0  -9  279.47   20.90
   1   0  -9  278.77   21.80
   1   0  -9  281.27   26.80
  -1   0   9  269.67   30.50
  -1   0   9  300.37   26.00
  -1   0   9  292.87   22.70
   0   0  -9  261.27   26.70
   0   0  -9  285.77   22.90
   0   0  -9  298.07   21.30
   0   0   9  245.88   26.90
   0   0   9  238.88   32.20
   0   0   9  256.77   23.50
  -1   0  -9  622.24   43.30
  -1   0  -9  614.94   36.50
  -1   0  -9  615.64   40.70
   1   0   9  602.04   38.00
   1   0   9  550.64   45.30
   1   0   9  428.36   60.59
  -2   0  -9  355.66   26.40
  -2   0  -9  395.36   34.30
  -2   0  -9  384.26   29.10
   2   0   9  353.86   31.80
   2   0   9  368.66   42.60
  -3   0  -9  410.76   38.50
  -3   0  -9  410.16   28.80
  -3   0  -9  384.66   35.50
   3   0   9  361.26   47.60
   3   0   9  383.76   37.00
  -4   0  -9  102.29   21.30
  -4   0  -9   99.29   18.80
  -4   0  -9  118.49   27.60
   4   0   9   82.99   34.90
   4   0   9   96.79   27.50
  -5   0  -9   67.39   33.30
  -5   0  -9   19.60   23.60
   5   0   9   51.29   38.60
   5   0   9   15.70   32.60
  -6   0  -9  201.88   31.20
  -6   0  -9  259.97   44.20
   6   0   9  148.69   41.00
   6   0   9  272.67   46.20
  10  -1  -9  217.48   37.50
  10  -1  -9  252.77   34.80
  10  -1  -9  214.18   32.20
 -10   1   9  292.87   39.40
 -10   1   9  196.78   34.00
   9  -1  -9   60.69   30.10
   9  -1  -9   70.39   26.00
   9  -1  -9   60.59   26.20
  -9   1   9   77.69   29.90
  -9   1   9   50.39   37.60
  -9   1   9   84.89   26.60
   8  -1  -9   10.60   24.50
   8  -1  -9   27.70   22.70
   8  -1  -9  -26.90   18.80
  -8   1   9   -0.70   20.40
  -8   1   9   41.90   25.80
  -8   1   9   33.00   22.90
   7  -1  -9  157.18   23.40
   7  -1  -9  168.28   25.20
   7  -1  -9  122.09   23.90
  -7   1   9  157.58   25.30
  -7   1   9  172.28   21.50
  -7   1   9  201.28   23.50
   6  -1  -9  360.46   32.20
   6  -1  -9  267.77   31.10
   6  -1  -9  392.16   28.40
  -6   1   9  303.87   28.50
  -6   1   9  377.96   34.70
   5  -1  -9  931.51   50.69
   5  -1  -9  847.12   49.20
  -5   1   9  808.22   47.50
  -5   1   9  866.61   51.99
   4  -1  -9  659.33   37.80
   4  -1  -9  686.33   38.70
   4  -1  -9  544.95   36.90
   4  -1  -9  649.74   38.20
  -4   1   9  631.24   41.10
  -4   1   9  637.64   39.30
  -4   1   9  627.14   38.40
   3  -1  -9  140.59   18.40
   3  -1  -9  161.48   18.30
   3  -1  -9  173.38   17.70
  -3   1   9  148.09   23.60
  -3   1   9  144.89   18.80
  -3   1   9  176.88   25.40
   2  -1  -9   28.20   10.60
   2  -1  -9   48.50    9.40
   2  -1  -9   31.30   10.80
  -2   1   9    3.20   13.50
  -2   1   9   21.90   16.20
  -2   1   9   22.60   12.80
   1  -1  -9  145.79   18.60
   1  -1  -9  157.98   14.90
   1  -1  -9  152.48   17.90
  -1   1   9  184.08   24.60
  -1   1   9  181.38   18.70
  -1   1   9  156.88   23.30
   0  -1  -9  428.46   38.00
   0  -1  -9  487.55   29.60
   0   1   9  379.16   40.30
   0   1   9  450.25   30.90
  -1  -1  -9  671.13   39.10
  -1  -1  -9  709.73   44.60
  -1  -1  -9  666.53   40.00
   1   1   9  703.53   44.90
   1   1   9  639.54   44.40
   1   1   9  566.04   50.59
  -2  -1  -9  346.17   27.90
  -2  -1  -9  310.67   34.60
  -2  -1  -9  336.47   26.60
   2   1   9  338.17   35.50
   2   1   9  335.47   31.90
   2   1   9  295.77   44.00
  -3  -1  -9  178.68   26.60
  -3  -1  -9  130.09   19.80
  -3  -1  -9  136.99   18.60
   3   1   9  121.69   33.10
   3   1   9  125.19   25.80
  -4  -1  -9   53.99   27.10
  -4  -1  -9   34.10   23.00
  -4  -1  -9   21.60   20.20
   4   1   9   83.29   35.50
   4   1   9   29.50   28.20
  -5  -1  -9   68.89   23.60
  -5  -1  -9  115.69   34.20
  -5  -1  -9   30.50   24.00
   5   1   9   73.59   34.90
   5   1   9   88.29   39.20
  10  -2  -9   70.69   32.60
  10  -2  -9   83.79   31.10
 -10   2   9  106.49   36.20
 -10   2   9  125.99   35.90
 -10   2   9  121.59   29.90
   9  -2  -9   78.29   25.90
   9  -2  -9   -7.30   23.80
   9  -2  -9   52.49   28.70
  -9   2   9   14.50   30.40
  -9   2   9   19.30   24.20
  -9   2   9   17.80   28.60
   8  -2  -9   35.70   19.80
   8  -2  -9  -18.20   23.70
   8  -2  -9   39.40   22.70
  -8   2   9  -10.40   20.40
  -8   2   9  -14.20   23.00
  -8   2   9   12.80   26.90
   7  -2  -9  259.17   34.50
   7  -2  -9  315.07   32.30
   7  -2  -9  314.67   30.60
  -7   2   9  335.57   31.00
  -7   2   9  339.97   39.10
   6  -2  -9  377.86   34.60
   6  -2  -9  401.26   31.90
   6  -2  -9  434.16   30.90
  -6   2   9  397.76   31.60
   5  -2  -9  397.86   32.00
   5  -2  -9  522.95   34.20
   5  -2  -9  485.15   32.50
  -5   2   9  511.55   33.70
  -5   2   9  443.36   33.10
  -5   2   9  509.25   37.30
   4  -2  -9  386.36   30.00
   4  -2  -9  424.46   28.20
  -4   2   9  395.96   32.40
  -4   2   9  370.26   32.50
  -4   2   9  363.86   29.10
   3  -2  -9   55.49   11.60
   3  -2  -9   49.90   12.50
  -3   2   9   66.79   17.00
  -3   2   9   50.19   19.50
   2  -2  -9    6.30    9.20
   2  -2  -9    3.00   11.30
  -2   2   9  -12.30   19.00
  -2   2   9  -16.70   16.50
   1  -2  -9  268.87   19.70
   1  -2  -9  276.97   24.60
   1  -2  -9  332.77   24.00
  -1   2   9  271.57   34.70
  -1   2   9  280.97   37.80
   0  -2  -9  644.24   38.30
   0  -2  -9  650.93   38.50
   0   2   9  623.04   37.60
   0   2   9  453.85   68.19
   0   2   9  606.64   41.90
  -1  -2  -9  511.15   35.20
  -1  -2  -9  493.25   35.00
  -1  -2  -9  582.74   42.30
   1   2   9  539.65   36.90
   1   2   9  543.45   50.09
   1   2   9  579.84   50.29
  -2  -2  -9  413.46   31.90
  -2  -2  -9  404.96   33.60
  -2  -2  -9  451.75   40.10
   2   2   9  391.56   38.00
   2   2   9  456.85   40.60
   2   2   9  380.96   49.40
  -3  -2  -9   39.60   18.20
  -3  -2  -9   39.90   17.60
  -3  -2  -9   47.30   25.60
   3   2   9   85.79   25.80
   3   2   9   57.49   26.60
   3   2   9   86.89   32.40
  -4  -2  -9   14.40   20.30
  -4  -2  -9  -23.30   28.30
  -4  -2  -9   14.40   20.20
   4   2   9  -45.20   34.80
   4   2   9   20.10   29.80
  -5  -2  -9   48.90   23.80
  -5  -2  -9   97.79   35.00
  -5  -2  -9    9.40   25.50
   5   2   9   97.19   39.70
   5   2   9   12.50   35.30
   9  -3  -9  -51.69   27.30
   9  -3  -9   26.80   25.00
   9  -3  -9  -36.60   28.30
  -9   3   9   -4.30   32.70
  -9   3   9   48.20   24.90
   8  -3  -9   -2.40   31.40
   8  -3  -9  -33.80   24.50
   8  -3  -9   12.40   21.40
  -8   3   9   16.10   21.00
  -8   3   9    9.10   28.60
   7  -3  -9  178.78   24.10
   7  -3  -9  120.79   25.20
   7  -3  -9  216.18   27.50
  -7   3   9  239.88   38.00
  -7   3   9  180.08   27.20
   6  -3  -9  522.25   39.00
   6  -3  -9  506.55   36.60
   6  -3  -9  559.54   40.90
  -6   3   9  579.74   37.80
  -6   3   9  541.45   44.10
   5  -3  -9  674.33   43.40
   5  -3  -9  674.53   40.60
  -5   3   9  633.74   41.30
  -5   3   9  630.34   45.00
  -5   3   9  691.83   46.40
   4  -3  -9  653.73   41.90
   4  -3  -9  689.93   41.30
   4  -3  -9  694.73   41.10
  -4   3   9  697.93   46.40
  -4   3   9  774.32   48.70
  -4   3   9  665.13   42.20
   3  -3  -9   73.79   13.50
   3  -3  -9   79.39   14.60
   3  -3  -9   65.49   13.60
  -3   3   9   47.40   13.80
  -3   3   9   90.59   18.40
  -3   3   9   80.39   22.60
   2  -3  -9  122.29   16.20
   2  -3  -9  115.49   15.50
   2  -3  -9  118.99   16.50
  -2   3   9  129.69   20.20
  -2   3   9  102.79   25.70
   1  -3  -9  204.98   23.40
   1  -3  -9  203.48   18.80
   1  -3  -9  231.58   22.40
  -1   3   9  205.88   27.30
   0  -3  -9  567.64   36.80
   0  -3  -9  618.84   37.40
   0   3   9  481.55   52.49
   0   3   9  582.14   43.60
  -1  -3  -9  444.56   32.40
  -1  -3  -9  422.76   32.30
  -1  -3  -9  458.65   41.80
   1   3   9  460.45   35.10
   1   3   9  444.16   40.00
   1   3   9  397.16   51.89
  -2  -3  -9  329.07   30.50
  -2  -3  -9  324.87   31.00
  -2  -3  -9  356.46   41.40
   2   3   9  395.86   36.40
   2   3   9  368.46   43.60
   2   3   9  287.67   42.10
  -3  -3  -9   38.30   19.80
  -3  -3  -9   36.50   20.40
  -3  -3  -9  -18.60   27.00
   3   3   9  -36.80   34.70
   3   3   9   43.60   28.70
   3   3   9   10.90   25.00
  -4  -3  -9   11.50   32.50
  -4  -3  -9   34.60   21.60
  -4  -3  -9   19.00   23.20
   4   3   9   15.60   32.20
   4   3   9  -18.60   37.70
   9  -4  -9    7.50   29.90
   9  -4  -9  -50.79   28.60
   9  -4  -9   11.20   25.30
  -9   4   9   15.30   36.00
  -9   4   9    1.10   24.40
   8  -4  -9   41.10   23.10
   8  -4  -9   33.90   25.60
   8  -4  -9   66.59   28.00
  -8   4   9   33.30   22.20
  -8   4   9   66.99   31.40
   7  -4  -9  280.47   34.20
   7  -4  -9  232.88   30.80
   7  -4  -9  263.07   31.20
  -7   4   9  293.17   43.90
  -7   4   9  233.48   31.30
   6  -4  -9  822.72   48.40
   6  -4  -9  812.62   49.50
  -6   4   9  768.72   49.60
  -6   4   9  751.02   55.19
   5  -4  -9  767.92   47.10
   5  -4  -9  766.22   46.70
   5  -4  -9  820.12   48.40
  -5   4   9  761.32   48.40
  -5   4   9  798.02   52.99
   4  -4  -9  406.66   31.10
   4  -4  -9  377.96   29.90
  -4   4   9  373.36   36.10
  -4   4   9  386.26   31.00
  -4   4   9  352.26   42.50
   3  -4  -9   44.70   14.60
   3  -4  -9   30.20   13.90
   3  -4  -9   28.60   12.90
  -3   4   9   31.20   25.50
  -3   4   9    9.10   14.00
  -3   4   9   25.30   18.10
   2  -4  -9  119.39   17.80
   2  -4  -9   84.79   14.50
   2  -4  -9  114.59   16.50
  -2   4   9  141.19   22.20
  -2   4   9  111.19   36.70
   1  -4  -9  159.58   24.30
   1  -4  -9  178.48   20.10
   1  -4  -9  194.48   23.20
  -1   4   9  176.98   30.20
  -1   4   9  120.19   32.10
   0  -4  -9  596.44   34.80
   0  -4  -9  529.35   37.70
   0  -4  -9  577.84   38.20
   0   4   9  549.85   44.70
   0   4   9  504.25   57.39
  -1  -4  -9  519.55   36.10
  -1  -4  -9  483.05   35.60
   1   4   9  437.56   37.00
   1   4   9  446.06   44.70
   1   4   9  491.05   58.79
  -2  -4  -9  237.48   29.40
  -2  -4  -9  263.87   43.00
  -2  -4  -9  177.28   24.00
   2   4   9  172.48   31.10
   2   4   9  176.98   42.60
   2   4   9  223.78   34.20
  -3  -4  -9   27.30   21.00
  -3  -4  -9   46.40   22.80
  -3  -4  -9   23.70   32.40
   3   4   9  -12.80   29.00
   3   4   9   26.60   37.60
   3   4   9  -10.30   30.20
   4   4   9   96.59   42.50
   8  -5  -9   84.19   30.90
   8  -5  -9   77.39   24.00
  -8   5   9   58.09   23.50
  -8   5   9  113.59   34.90
   7  -5  -9  226.58   32.20
   7  -5  -9  243.48   35.00
  -7   5   9  211.88   27.20
  -7   5   9  288.27   45.30
   6  -5  -9  506.75   38.60
   6  -5  -9  494.35   38.10
  -6   5   9  503.85   40.20
  -6   5   9  509.35   47.20
   5  -5  -9  339.67   30.90
   5  -5  -9  396.16   33.00
   5  -5  -9  289.27   30.00
  -5   5   9  329.77   39.50
  -5   5   9  331.57   44.50
  -5   5   9  332.87   32.80
   4  -5  -9   79.19   17.20
   4  -5  -9   77.49   17.90
   4  -5  -9   94.29   16.30
  -4   5   9   84.59   23.40
  -4   5   9  125.09   33.70
  -4   5   9   62.59   19.20
   3  -5  -9   -4.90   14.70
   3  -5  -9   -2.20   15.50
   3  -5  -9    6.90   15.70
  -3   5   9   29.90   30.70
  -3   5   9   14.90   16.40
  -3   5   9  -34.40   19.70
   2  -5  -9  163.48   22.60
   2  -5  -9  160.08   20.50
   2  -5  -9  167.48   20.60
  -2   5   9  165.28   35.90
  -2   5   9  171.98   26.20
   1  -5  -9  411.66   30.50
   1  -5  -9  424.66   33.60
   1  -5  -9  390.76   33.40
  -1   5   9  420.46   56.99
  -1   5   9  382.16   40.70
   0  -5  -9  432.26   36.40
   0  -5  -9  475.25   35.20
   0   5   9  385.46   59.89
   0   5   9  443.86   44.70
  -1  -5  -9  499.45   39.90
  -1  -5  -9  581.14   40.70
   1   5   9  480.25   65.09
   1   5   9  590.24   50.29
  -2  -5  -9  164.08   24.60
  -2  -5  -9  208.38   26.30
  -2  -5  -9  200.08   37.80
   2   5   9  227.38   43.80
   2   5   9  178.08   33.90
  -3  -5  -9   34.90   24.90
  -3  -5  -9   39.30   33.10
  -3  -5  -9   21.50   22.60
   3   5   9   22.90   33.70
   3   5   9   14.80   39.70
   7  -6  -9  160.98   26.70
   7  -6  -9  169.48   25.10
  -7   6   9  147.59   33.90
  -7   6   9  178.08   26.90
   6  -6  -9  322.17   35.90
   6  -6  -9  272.67   34.10
   6  -6  -9  338.17   34.30
  -6   6   9  322.57   44.50
  -6   6   9  285.07   34.80
   5  -6  -9  274.77   32.40
   5  -6  -9  221.48   31.50
   5  -6  -9  230.68   30.30
  -5   6   9  272.17   33.70
  -5   6   9  298.77   39.20
  -5   6   9  273.07   32.60
   4  -6  -9   69.59   19.60
   4  -6  -9   61.99   17.20
   4  -6  -9   37.10   18.70
  -4   6   9   84.79   20.30
  -4   6   9   64.09   34.20
  -4   6   9  101.69   26.20
   3  -6  -9    0.30   17.10
   3  -6  -9   17.90   17.70
   3  -6  -9   15.70   16.30
  -3   6   9   21.90   36.90
  -3   6   9    4.90   23.70
   2  -6  -9  233.78   29.90
   2  -6  -9  227.98   26.90
   2  -6  -9  218.48   29.50
  -2   6   9  251.97   38.90
  -2   6   9  147.49   40.90
   1  -6  -9  451.35   36.80
   1  -6  -9  504.85   47.40
   1  -6  -9  361.16   36.20
  -1   6   9  305.17   50.09
  -1   6   9  482.65   46.30
   0  -6  -9  176.98   25.20
   0  -6  -9  239.78   31.50
   0   6   9  241.28   45.60
   0   6   9  243.38   32.90
  -1  -6  -9  171.08   25.60
  -1  -6  -9  181.58   26.20
   1   6   9  180.98   44.30
   1   6   9  278.57   45.10
   6  -7  -9  206.68   27.30
   6  -7  -9  229.38   35.00
   6  -7  -9  227.18   27.60
  -6   7   9  284.97   36.10
  -6   7   9  214.98   28.20
   5  -7  -9  283.77   34.90
   5  -7  -9  231.08   32.30
   5  -7  -9  189.48   26.10
  -5   7   9  250.27   42.60
  -5   7   9  208.88   40.80
  -5   7   9  293.07   35.20
   4  -7  -9   75.19   20.70
   4  -7  -9   61.09   21.60
   4  -7  -9   47.80   19.40
  -4   7   9   74.69   28.10
  -4   7   9   64.49   39.40
  -4   7   9   65.79   21.70
   3  -7  -9   26.20   19.60
   3  -7  -9   19.30   20.30
   3  -7  -9   19.80   19.40
  -3   7   9  -20.40   39.80
  -3   7   9   30.10   26.00
   2  -7  -9  135.19   23.30
   2  -7  -9  209.08   30.00
   2  -7  -9  171.78   24.80
  -2   7   9  163.18   34.30
  -2   7   9  121.29   44.90
   1  -7  -9  362.06   40.50
   1  -7  -9  257.67   34.50
   1  -7  -9  306.17   35.10
  -1   7   9  254.07   49.90
  -1   7   9  304.47   46.00
   4   9 -10  344.27   35.10
   4   9 -10  295.17   37.30
   4   9 -10  249.58   35.80
  -4  -9  10  220.98   37.60
  -4  -9  10  267.67   35.80
   3   9 -10   71.59   20.60
   3   9 -10  106.69   22.60
   3   9 -10  104.39   20.20
  -3  -9  10   -5.40   30.50
  -3  -9  10   27.20   20.60
   2   9 -10   50.89   19.10
   2   9 -10   34.40   18.90
   2   9 -10   18.10   21.30
  -2  -9  10    5.20   18.90
  -2  -9  10   21.40   30.30
   1   9 -10  160.58   24.00
   1   9 -10  203.18   25.10
  -1  -9  10  171.88   34.60
  -1  -9  10  160.88   23.40
   0   9 -10  396.76   41.10
   0   9 -10  490.05   49.30
   0   9 -10  403.26   38.00
   0  -9  10  457.45   39.20
   0  -9  10  353.36   51.19
  -1   9 -10  425.46   43.70
  -1   9 -10  363.86   52.19
  -1   9 -10  413.56   38.40
   1  -9  10  366.56   41.30
   1  -9  10  382.26   40.10
   6   8 -10  365.96   38.70
   6   8 -10  325.17   39.80
  -6  -8  10  367.76   47.00
  -6  -8  10  303.17   42.20
   5   8 -10  356.66   38.30
   5   8 -10  237.78   34.00
   5   8 -10  315.67   33.30
  -5  -8  10  278.77   36.80
  -5  -8  10  292.07   39.20
   4   8 -10  139.59   20.90
   4   8 -10  119.09   21.70
   4   8 -10  109.69   22.50
  -4  -8  10  137.09   22.00
  -4  -8  10  176.98   34.80
  -4  -8  10  141.79   21.70
   3   8 -10   56.59   17.30
   3   8 -10   80.39   19.20
   3   8 -10   81.09   20.30
  -3  -8  10   76.79   28.90
  -3  -8  10   30.90   18.60
   2   8 -10   86.59   22.60
   2   8 -10   30.10   18.20
   2   8 -10   68.49   19.90
  -2  -8  10   53.69   30.00
  -2  -8  10   50.89   19.10
   1   8 -10  364.16   34.80
   1   8 -10  345.97   34.00
   1   8 -10  286.47   50.49
  -1  -8  10  365.56   33.90
  -1  -8  10  301.17   46.90
   0   8 -10  447.06   40.10
   0   8 -10  441.26   38.10
   0   8 -10  403.26   48.50
   0  -8  10  401.76   40.90
   0  -8  10  538.95   38.70
   0  -8  10  367.16   48.70
  -1   8 -10  390.56   41.20
  -1   8 -10  283.17   37.80
  -1   8 -10  280.07   33.40
   1  -8  10  311.47   37.80
   1  -8  10  355.86   36.10
  -2   8 -10  193.68   35.90
  -2   8 -10  148.69   24.10
  -2   8 -10  147.49   28.20
   2  -8  10  123.69   26.80
   2  -8  10  168.88   24.90
  -3   8 -10  -31.90   20.20
  -3   8 -10   -5.60   34.30
  -3   8 -10   -8.70   27.70
   3  -8  10   18.50   24.30
   3  -8  10    4.20   25.40
   7   7 -10  324.57   41.50
   7   7 -10  477.95   58.99
   7   7 -10  322.77   38.70
  -7  -7  10  314.47   40.30
  -7  -7  10  423.86   56.99
   6   7 -10  345.37   36.80
   6   7 -10  393.26   42.90
   6   7 -10  388.56   39.80
  -6  -7  10  417.36   52.79
  -6  -7  10  412.86   41.50
   5   7 -10  290.67   33.80
   5   7 -10  282.07   38.70
   5   7 -10  321.47   49.60
   5   7 -10  299.97   31.70
  -5  -7  10  317.87   35.00
  -5  -7  10  339.07   40.70
   4   7 -10  113.59   19.80
   4   7 -10  126.49   18.40
   4   7 -10  148.19   20.80
  -4  -7  10  156.48   31.90
  -4  -7  10  129.29   35.70
  -4  -7  10  165.38   21.50
   3   7 -10   29.50   16.30
   3   7 -10   29.90   15.50
   3   7 -10  -20.90   12.90
   3   7 -10    5.90   14.90
   3   7 -10   25.30   41.20
  -3  -7  10   13.80   15.10
  -3  -7  10   -4.70   26.90
  -3  -7  10    0.80   14.50
   2   7 -10  100.79   29.10
   2   7 -10  129.79   19.30
   2   7 -10  116.79   18.60
   2   7 -10  104.99   18.70
  -2  -7  10  122.89   19.20
  -2  -7  10  117.69   29.00
   1   7 -10  241.38   39.20
   1   7 -10  316.67   31.40
   1   7 -10  347.37   31.60
  -1  -7  10  284.47   30.60
  -1  -7  10  305.77   36.70
  -1  -7  10  306.27   33.60
   0   7 -10  478.35   53.89
   0   7 -10  548.25   42.00
   0   7 -10  537.15   40.10
   0  -7  10  624.04   39.40
   0  -7  10  484.55   48.00
   0  -7  10  520.05   42.50
  -1   7 -10  409.76   42.40
  -1   7 -10  408.66   54.89
  -1   7 -10  492.85   38.70
   1  -7  10  423.36   40.80
   1  -7  10  469.05   37.40
  -2   7 -10  156.18   27.70
  -2   7 -10  170.98   38.10
  -2   7 -10  198.08   30.90
   2  -7  10  126.49   26.80
   2  -7  10  140.09   23.20
  -3   7 -10    2.40   27.50
  -3   7 -10  -40.90   33.90
   3  -7  10   40.30   26.30
   3  -7  10   33.60   22.80
   8   6 -10  133.89   36.90
   8   6 -10  136.29   28.90
  -8  -6  10  227.08   37.00
  -8  -6  10  204.08   37.60
   7   6 -10  448.36   38.20
   7   6 -10  413.46   41.30
   7   6 -10  467.85   57.09
  -7  -6  10  324.97   46.60
  -7  -6  10  398.46   54.49
   6   6 -10  638.24   57.89
   6   6 -10  478.55   39.80
   6   6 -10  456.65   37.90
  -6  -6  10  470.75   43.60
  -6  -6  10  518.95   55.99
   5   6 -10  309.07   46.80
   5   6 -10  402.96   33.10
   5   6 -10  391.56   32.20
   5   6 -10  374.76   29.70
  -5  -6  10  310.57   35.10
  -5  -6  10  373.46   50.19
   4   6 -10  113.79   17.10
   4   6 -10  128.79   27.30
   4   6 -10  127.79   17.30
   4   6 -10  107.19   17.60
  -4  -6  10  164.18   20.40
  -4  -6  10  140.49   18.90
  -4  -6  10  147.29   29.40
   3   6 -10    4.50   14.00
   3   6 -10   41.50   23.90
   3   6 -10   15.80   22.40
   3   6 -10   18.60   12.90
   3   6 -10   28.50   23.60
   3   6 -10   16.90   13.90
  -3  -6  10   35.40   14.40
  -3  -6  10   35.50   26.20
  -3  -6  10   44.00   14.30
   2   6 -10  173.98   22.40
   2   6 -10  151.38   19.40
   2   6 -10  122.89   25.90
   2   6 -10  142.49   23.70
  -2  -6  10  135.99   19.90
  -2  -6  10  134.49   28.10
  -2  -6  10  135.69   18.00
   1   6 -10  601.54   38.30
   1   6 -10  491.45   38.80
   1   6 -10  543.95   58.99
  -1  -6  10  537.75   36.70
  -1  -6  10  462.85   46.90
  -1  -6  10  560.84   40.00
   0   6 -10  507.45   38.10
   0   6 -10  525.05   40.30
   0   6 -10  540.05   52.09
   0  -6  10  543.35   40.40
   0  -6  10  475.15   44.50
   0  -6  10  514.85   36.50
  -1   6 -10  579.84   45.10
  -1   6 -10  558.24   55.09
  -1   6 -10  528.85   40.70
   1  -6  10  490.05   42.30
   1  -6  10  543.95   38.20
  -2   6 -10  142.39   27.90
  -2   6 -10  134.99   19.30
  -2   6 -10  136.19   34.80
   2  -6  10  168.28   25.50
   2  -6  10  126.79   21.40
  -3   6 -10   72.09   36.60
  -3   6 -10  -27.00   20.50
  -3   6 -10   15.50   26.40
   3  -6  10   24.40   20.60
   3  -6  10   34.50   25.00
  -4   6 -10   95.29   32.00
  -4   6 -10  143.39   28.10
  -4   6 -10  150.48   39.80
   4  -6  10   82.99   24.90
   4  -6  10   87.39   30.00
   8   5 -10  162.18   27.80
   8   5 -10  185.08   36.60
   8   5 -10  179.68   26.80
  -8  -5  10  197.68   36.40
  -8  -5  10  160.58   35.60
  -8  -5  10  221.38   32.90
   7   5 -10  347.97   36.40
   7   5 -10  308.27   40.90
   7   5 -10  290.47   33.40
  -7  -5  10  380.16   42.70
  -7  -5  10  419.86   51.69
   6   5 -10  318.17   30.30
   6   5 -10  384.36   46.50
   6   5 -10  300.37   32.10
  -6  -5  10  355.96   36.70
  -6  -5  10  375.06   46.30
  -6  -5  10  338.77   30.60
   5   5 -10   87.99   15.00
   5   5 -10   56.19   15.80
   5   5 -10   66.19   13.90
   5   5 -10   70.69   15.70
   5   5 -10   65.69   26.50
  -5  -5  10   79.79   15.70
  -5  -5  10   92.69   19.20
  -5  -5  10   75.19   26.20
   4   5 -10   24.70   13.40
   4   5 -10   47.30   15.80
   4   5 -10    6.20   19.10
   4   5 -10   18.60   13.70
   4   5 -10   19.00   12.20
   4   5 -10   50.09   25.10
   4   5 -10   29.20   13.00
  -4  -5  10   40.60   15.60
  -4  -5  10   33.00   13.60
  -4  -5  10   46.20   25.10
   3   5 -10   82.19   13.70
   3   5 -10   94.49   16.40
   3   5 -10   72.09   15.20
   3   5 -10   88.69   24.10
   3   5 -10   77.29   21.00
  -3  -5  10   69.39   15.00
  -3  -5  10   90.29   26.40
  -3  -5  10   89.09   17.90
   2   5 -10  372.16   37.30
   2   5 -10  373.36   28.80
   2   5 -10  414.86   31.40
   2   5 -10  380.16   37.10
   2   5 -10  377.86   26.60
   2   5 -10  375.46   26.30
   2   5 -10  358.16   31.20
  -2  -5  10  379.96   28.40
  -2  -5  10  328.77   40.50
  -2  -5  10  328.37   34.50
   1   5 -10  580.14   44.50
   1   5 -10  663.13   41.80
   1   5 -10  689.73   43.40
   1   5 -10  635.14   48.40
   1   5 -10  651.23   39.80
  -1  -5  10  657.53   43.50
  -1  -5  10  648.44   48.60
  -1  -5  10  686.03   40.00
   0   5 -10  485.45   39.20
   0   5 -10  472.55   35.20
   0   5 -10  509.85   36.00
   0   5 -10  497.85   47.80
   0   5 -10  460.95   31.10
   0  -5  10  465.15   37.70
   0  -5  10  510.65   33.70
   0  -5  10  467.95   36.90
  -1   5 -10  345.87   27.00
  -1   5 -10  380.36   43.90
  -1   5 -10  334.47   38.10
   1  -5  10  340.77   33.70
   1  -5  10  346.97   29.60
  -2   5 -10   99.59   25.80
  -2   5 -10   32.40   30.10
  -2   5 -10   86.49   16.70
   2  -5  10   73.09   22.20
   2  -5  10   69.89   29.00
  -3   5 -10   15.30   34.70
  -3   5 -10   -8.60   19.20
  -3   5 -10    3.60   28.10
   3  -5  10   49.80   20.20
   3  -5  10    6.50   23.10
   3  -5  10   78.79   34.90
  -4   5 -10  121.89   25.90
  -4   5 -10  148.89   39.90
  -4   5 -10  121.39   34.60
   4  -5  10   93.29   40.70
   4  -5  10  154.58   24.10
   4  -5  10  134.49   30.00
   9   4 -10   63.89   30.80
   9   4 -10   40.50   34.40
   9   4 -10   71.29   29.10
  -9  -4  10   83.49   35.50
  -9  -4  10   85.19   27.90
   8   4 -10  171.48   25.20
   8   4 -10  188.58   35.90
   8   4 -10  183.08   27.50
  -8  -4  10  264.37   33.70
  -8  -4  10  206.68   34.60
   7   4 -10  227.78   31.30
   7   4 -10  371.16   47.60
   7   4 -10  282.87   32.50
  -7  -4  10  313.47   36.80
  -7  -4  10  372.56   39.80
  -7  -4  10  277.37   33.80
   6   4 -10  308.67   43.30
   6   4 -10  338.47   29.90
   6   4 -10  297.77   27.80
  -6  -4  10  304.77   33.40
  -6  -4  10  306.07   42.60
  -6  -4  10  270.37   29.70
   5   4 -10   28.90   12.20
   5   4 -10   38.10   15.40
   5   4 -10   29.10   22.80
   5   4 -10   44.60   14.60
   5   4 -10   45.20   12.90
   5   4 -10   10.90   28.60
   5   4 -10   47.90   13.30
  -5  -4  10   34.40   15.20
  -5  -4  10   29.40   16.20
  -5  -4  10   61.69   24.00
   4   4 -10   11.40   12.30
   4   4 -10   19.50   25.90
   4   4 -10    2.30   12.90
   4   4 -10   16.90   13.00
   4   4 -10    7.60   11.60
   4   4 -10   24.30   11.80
   4   4 -10   17.70   18.30
  -4  -4  10    9.30   12.60
  -4  -4  10   -7.30   13.30
  -4  -4  10   18.40   28.30
   3   4 -10  113.99   14.40
   3   4 -10   74.49   13.30
   3   4 -10   94.59   14.60
   3   4 -10  138.69   23.10
   3   4 -10   91.09   15.20
   3   4 -10  117.79   20.40
   3   4 -10   97.69   14.20
  -3  -4  10  105.59   14.90
  -3  -4  10   89.79   13.70
  -3  -4  10   90.99   22.00
   2   4 -10  415.66   32.80
   2   4 -10  430.86   29.30
   2   4 -10  464.05   36.80
   2   4 -10  425.46   28.60
   2   4 -10  442.66   29.50
   2   4 -10  446.96   35.30
   2   4 -10  481.35   32.00
  -2  -4  10  472.15   37.80
  -2  -4  10  448.26   32.80
  -2  -4  10  402.96   29.10
   1   4 -10  650.63   36.00
   1   4 -10  626.54   45.10
   1   4 -10  654.93   38.00
   1   4 -10  617.14   37.20
   1   4 -10  655.53   40.10
   1   4 -10  626.14   40.40
  -1  -4  10  672.53   43.40
  -1  -4  10  611.94   41.30
  -1  -4  10  618.54   37.90
   0   4 -10  479.95   31.00
   0   4 -10  439.26   38.30
   0   4 -10  412.96   39.70
   0  -4  10  452.65   30.70
   0  -4  10  478.95   39.30
   0  -4  10  453.45   37.00
  -1   4 -10   68.39   14.40
  -1   4 -10   99.19   22.90
  -1   4 -10   82.39   23.60
   1  -4  10   76.09   14.60
   1  -4  10   48.00   23.20
   1  -4  10   74.59   18.60
  -2   4 -10   55.19   24.90
  -2   4 -10   45.40   17.90
  -2   4 -10   70.39   25.80
   2  -4  10   49.70   20.30
   2  -4  10   81.89   28.40
   2  -4  10   42.00   15.20
  -3   4 -10   71.79   31.90
  -3   4 -10   91.09   19.40
  -3   4 -10  108.29   30.70
   3  -4  10  100.69   34.30
   3  -4  10   83.09   24.30
   3  -4  10   98.09   19.00
  -4   4 -10  336.27   52.89
  -4   4 -10  400.26   37.00
  -4   4 -10  372.06   58.99
   4  -4  10  360.36   47.50
   4  -4  10  474.55   39.00
   4  -4  10  391.06   46.40
  -5   4 -10  393.16   60.69
  -5   4 -10  255.47   41.10
  -5   4 -10  338.17   41.90
   5  -4  10  322.97   48.00
   5  -4  10  387.06   48.70
   9   3 -10  152.98   31.10
   9   3 -10  166.88   35.90
  -9  -3  10  132.39   28.60
  -9  -3  10  152.28   36.70
   8   3 -10  403.66   36.80
   8   3 -10  460.55   50.39
   8   3 -10  364.76   40.40
  -8  -3  10  419.16   39.80
  -8  -3  10  385.46   46.00
   7   3 -10  484.25   48.90
   7   3 -10  434.96   35.90
   7   3 -10  516.75   37.20
   7   3 -10  529.85   39.40
  -7  -3  10  505.75   42.80
  -7  -3  10  442.86   38.30
   6   3 -10  554.44   37.20
   6   3 -10  518.75   36.10
   6   3 -10  554.04   35.40
   6   3 -10  483.95   39.70
   6   3 -10  528.05   45.70
  -6  -3  10  545.45   39.30
  -6  -3  10  453.25   40.00
   5   3 -10  196.78   31.20
   5   3 -10  241.48   22.80
   5   3 -10  186.28   23.60
   5   3 -10  216.88   27.50
   5   3 -10  228.48   22.10
   5   3 -10  228.88   21.00
   5   3 -10  205.48   23.80
  -5  -3  10  242.08   25.00
  -5  -3  10  169.28   29.60
  -5  -3  10  203.48   25.00
   4   3 -10    7.30   16.00
   4   3 -10    4.30   12.30
   4   3 -10   17.40   12.40
   4   3 -10    6.20   18.50
   4   3 -10   12.50   10.60
   4   3 -10    1.00   11.90
   4   3 -10   17.10   11.20
  -4  -3  10    9.70   12.60
  -4  -3  10   33.40   13.40
  -4  -3  10    7.00   16.80
   3   3 -10  120.69   15.30
   3   3 -10  125.29   15.00
   3   3 -10   99.09   14.60
   3   3 -10  120.79   16.90
   3   3 -10  122.99   16.60
   3   3 -10  107.99   18.80
   3   3 -10  112.39   19.90
  -3  -3  10  132.79   16.90
  -3  -3  10  109.99   15.20
  -3  -3  10  105.59   19.00
   2   3 -10  601.84   37.90
   2   3 -10  564.44   38.60
   2   3 -10  641.34   40.30
   2   3 -10  618.94   36.10
   2   3 -10  627.44   35.50
   2   3 -10  610.74   42.40
   2   3 -10  635.34   37.50
  -2  -3  10  639.44   38.70
  -2  -3  10  619.84   40.50
  -2  -3  10  604.44   40.70
   1   3 -10  428.56   27.50
   1   3 -10  461.25   31.70
   1   3 -10  433.06   28.30
   1   3 -10  418.16   30.20
   1   3 -10  445.86   27.70
   1   3 -10  428.66   34.60
   1   3 -10  417.16   35.20
  -1  -3  10  436.36   28.00
  -1  -3  10  443.86   32.30
  -1  -3  10  414.66   36.30
   0   3 -10  389.46   35.10
   0   3 -10  391.16   28.40
   0   3 -10  377.56   36.60
   0  -3  10  373.96   32.40
   0  -3  10  399.86   26.90
   0  -3  10  345.47   37.80
  -1   3 -10  145.79   21.10
  -1   3 -10  138.09   23.70
  -1   3 -10  147.59   25.80
   1  -3  10  136.49   21.20
   1  -3  10  153.08   27.50
   1  -3  10  133.19   15.40
  -2   3 -10    0.50   24.50
  -2   3 -10   27.10   23.80
  -2   3 -10   14.90   15.80
   2  -3  10    3.90   13.10
   2  -3  10   -1.70   28.30
   2  -3  10  -11.00   19.10
  -3   3 -10  153.78   21.50
  -3   3 -10  190.78   30.40
  -3   3 -10  209.68   32.80
   3  -3  10  108.89   23.30
   3  -3  10  137.29   36.40
   3  -3  10  183.08   28.40
  -4   3 -10  594.44   58.59
  -4   3 -10  523.35   41.70
  -4   3 -10  489.55   56.49
   4  -3  10  563.14   64.79
   4  -3  10  545.05   51.29
  -5   3 -10  302.27   45.20
  -5   3 -10  285.47   40.80
  -5   3 -10  290.27   40.60
   5  -3  10  262.47   48.30
   5  -3  10  362.66   48.20
   9   2 -10  237.88   35.20
   9   2 -10  217.88   31.50
   9   2 -10  143.19   30.80
  -9  -2  10  200.18   36.90
  -9  -2  10  179.18   30.80
   8   2 -10  514.85   51.99
   8   2 -10  497.55   43.50
   8   2 -10  450.85   42.50
  -8  -2  10  483.75   47.60
  -8  -2  10  454.85   41.20
   7   2 -10  514.85   47.40
   7   2 -10  530.15   39.90
   7   2 -10  505.05   35.60
   7   2 -10  502.75   39.10
  -7  -2  10  460.25   43.60
  -7  -2  10  558.34   41.90
  -7  -2  10  471.15   39.20
   6   2 -10  210.88   23.20
   6   2 -10  161.88   25.90
   6   2 -10  215.68   26.10
  -6  -2  10  200.98   32.50
  -6  -2  10  217.88   28.30
  -6  -2  10  182.78   26.30
   5   2 -10   54.49   13.70
   5   2 -10   57.59   15.00
   5   2 -10   57.29   31.90
   5   2 -10   78.39   12.50
   5   2 -10   85.39   18.50
   5   2 -10   74.99   13.00
  -5  -2  10   74.79   16.50
  -5  -2  10   87.39   19.00
  -5  -2  10   79.39   16.40
   4   2 -10   27.60   10.70
   4   2 -10   47.50   13.10
   4   2 -10   34.90   10.80
   4   2 -10   45.00   16.30
   4   2 -10   19.00   17.50
   4   2 -10   51.29   13.30
   4   2 -10   41.70   12.90
  -4  -2  10   12.20   12.80
  -4  -2  10   27.10   12.90
  -4  -2  10   41.80   15.80
  -4  -2  10   24.90   14.70
   3   2 -10  169.88   21.50
   3   2 -10  142.19   21.40
   3   2 -10  149.69   20.40
   3   2 -10  140.29   18.40
   3   2 -10  161.68   19.30
   3   2 -10  138.39   21.80
   3   2 -10  124.69   16.70
  -3  -2  10  134.79   20.00
  -3  -2  10  150.98   22.80
  -3  -2  10  163.58   20.10
  -3  -2  10  132.49   19.60
   2   2 -10  761.82   42.70
   2   2 -10  737.53   47.60
   2   2 -10  756.72   43.00
   2   2 -10  814.52   47.00
   2   2 -10  758.42   43.70
   2   2 -10  770.72   44.00
   2   2 -10  720.13   42.00
  -2  -2  10  756.72   48.20
  -2  -2  10  797.22   47.60
  -2  -2  10  733.43   45.70
   1   2 -10  828.32   45.00
   1   2 -10  801.32   43.60
   1   2 -10  828.22   44.20
   1   2 -10  878.51   47.30
   1   2 -10  871.41   51.49
  -1  -2  10  785.42   52.29
  -1  -2  10  866.01   48.20
  -1  -2  10  770.42   56.79
  -1  -2  10  765.62   43.70
   0   2 -10  613.64   36.40
   0   2 -10  708.13   40.60
   0   2 -10  642.54   37.70
   0   2 -10  661.03   45.30
   0  -2  10  635.64   37.70
   0  -2  10  687.73   42.80
   0  -2  10  740.93   49.20
  -1   2 -10  144.79   18.40
  -1   2 -10  141.09   23.20
  -1   2 -10  131.99   18.10
   1  -2  10  157.68   22.40
   1  -2  10  164.58   28.90
  -2   2 -10  -10.70   20.90
  -2   2 -10    3.10   15.70
   2  -2  10   -0.10   28.10
   2  -2  10   24.50   19.30
  -3   2 -10   73.99   27.30
  -3   2 -10   88.79   19.70
   3  -2  10   74.79   23.60
   3  -2  10   38.10   33.30
  -4   2 -10  370.26   50.69
  -4   2 -10  303.17   34.70
  -4   2 -10  233.48   36.50
   4  -2  10  291.97   44.50
   4  -2  10  294.17   44.40
  -5   2 -10  303.47   41.30
  -5   2 -10  438.86   60.09
  -5   2 -10  319.67   40.50
   5  -2  10  436.26   61.99
   5  -2  10  347.97   51.39
   9   1 -10  195.58   31.00
   9   1 -10  232.18   32.60
   9   1 -10  200.38   35.00
  -9  -1  10  248.98   35.60
  -9  -1  10  204.38   31.40
   8   1 -10  295.77   45.10
   8   1 -10  248.08   36.70
   8   1 -10  273.67   38.20
  -8  -1  10  294.77   35.80
  -8  -1  10  324.07   41.00
   7   1 -10  365.86   42.10
   7   1 -10  410.06   36.80
   7   1 -10  410.16   35.50
  -7  -1  10  410.86   39.50
  -7  -1  10  412.26   35.60
  -7  -1  10  385.16   40.90
   6   1 -10  141.39   18.60
   6   1 -10   82.69   22.00
   6   1 -10  112.69   18.90
  -6  -1  10  147.69   20.50
  -6  -1  10  114.39   19.80
  -6  -1  10  163.98   24.10
   5   1 -10   19.10   14.70
   5   1 -10   23.60   11.80
   5   1 -10   38.30   13.40
  -5  -1  10   20.40   15.60
  -5  -1  10   34.80   15.90
  -5  -1  10   41.90   19.00
  -5  -1  10   29.90   12.70
   4   1 -10   72.89   10.80
   4   1 -10   59.49   17.80
   4   1 -10   56.49   19.50
   4   1 -10   56.09   14.40
   4   1 -10   60.89   11.60
   4   1 -10   75.99   15.90
  -4  -1  10   67.69   17.00
  -4  -1  10   35.60   14.50
  -4  -1  10   50.39   18.20
   3   1 -10  224.08   23.20
   3   1 -10  238.08   19.60
   3   1 -10  244.68   20.80
   3   1 -10  225.28   22.50
   3   1 -10  220.48   28.30
   3   1 -10  243.68   23.20
  -3  -1  10  272.37   21.80
  -3  -1  10  259.77   23.20
  -3  -1  10  197.78   27.60
  -3  -1  10  222.28   26.10
   2   1 -10  635.84   35.90
   2   1 -10  635.94   38.40
   2   1 -10  690.33   41.00
   2   1 -10  640.14   37.30
   2   1 -10  609.94   44.40
   2   1 -10  644.74   38.40
  -2  -1  10  667.43   43.10
  -2  -1  10  685.33   44.80
  -2  -1  10  680.23   39.50
   1   1 -10 1190.68   62.09
   1   1 -10 1136.79   60.39
   1   1 -10 1181.78   68.19
  -1  -1  10 1150.18   69.49
  -1  -1  10 1230.18   70.19
  -1  -1  10 1233.58   64.49
   0   1 -10  298.97   23.90
   0   1 -10  291.87   26.50
   0   1 -10  286.57   32.10
   0  -1  10  281.27   31.70
   0  -1  10  336.57   28.60
   0  -1  10  326.97   39.00
  -1   1 -10   19.50   14.60
  -1   1 -10   23.70   12.70
  -1   1 -10   26.60   19.70
   1  -1  10   24.10   27.00
   1  -1  10   12.60   16.90
  -2   1 -10   67.89   15.30
  -2   1 -10   30.90   22.20
  -2   1 -10   35.40   16.50
   2  -1  10   68.99   20.70
   2  -1  10  105.39   32.70
  -3   1 -10   98.39   20.80
  -3   1 -10   98.39   27.40
   3  -1  10  111.69   25.90
   3  -1  10  157.28   38.10
  -4   1 -10  246.68   34.90
  -4   1 -10  291.37   48.70
   4  -1  10  255.37   35.70
   4  -1  10  293.07   47.70
  -5   1 -10  484.05   43.90
  -5   1 -10  585.24   61.29
   5  -1  10  391.06   52.89
   5  -1  10  391.56   54.69
   9   0 -10  316.37   43.10
   9   0 -10  200.68   35.00
   9   0 -10  276.27   40.70
  -9   0  10  285.27   36.90
  -9   0  10  204.38   30.70
   8   0 -10  561.14   42.30
   8   0 -10  386.16   44.50
   8   0 -10  449.56   47.30
  -8   0  10  424.76   40.70
  -8   0  10  536.25   47.30
   7   0 -10  499.45   38.50
   7   0 -10  435.16   43.70
  -7   0  10  471.35   44.60
  -7   0  10  501.65   39.20
  -7   0  10  556.04   41.60
   6   0 -10  300.77   30.20
   6   0 -10  271.47   33.00
   6   0 -10  223.28   30.30
  -6   0  10  328.37   36.70
  -6   0  10  285.37   29.20
   5   0 -10    7.90   14.90
   5   0 -10   10.40   13.90
   5   0 -10    7.10   14.20
  -5   0  10   38.80   19.50
  -5   0  10   19.80   18.90
  -5   0  10    6.20   14.80
   4   0 -10   80.79   14.90
   4   0 -10   45.50   12.60
   4   0 -10   67.99   14.80
   4   0 -10   45.20   14.50
  -4   0  10   78.79   18.90
  -4   0  10   59.19   16.30
  -4   0  10   59.09   14.50
   3   0 -10  381.36   27.60
   3   0 -10  396.56   29.50
   3   0 -10  388.56   28.50
  -3   0  10  358.76   32.70
  -3   0  10  362.36   39.00
  -3   0  10  367.16   28.40
   2   0 -10  516.75   40.20
   2   0 -10  528.75   33.00
   2   0 -10  488.65   31.00
   2   0 -10  521.75   34.50
  -2   0  10  520.45   32.80
  -2   0  10  457.55   40.70
  -2   0  10  580.54   42.00
   1   0 -10  653.33   40.40
   1   0 -10  654.33   44.80
   1   0 -10  615.44   35.30
   1   0 -10  619.94   38.60
  -1   0  10  691.63   40.20
  -1   0  10  679.13   51.79
  -1   0  10  623.64   44.10
   0   0 -10   89.39   14.40
   0   0 -10  109.59   21.20
   0   0 -10   89.49   16.40
   0   0  10   87.69   25.90
   0   0  10  102.39   20.30
   0   0  10   83.79   17.00
  -1   0 -10   -8.30   13.30
  -1   0 -10   -1.50   15.30
  -1   0 -10    7.70   19.90
   1   0  10   -8.50   26.50
   1   0  10   -0.20   18.80
   1   0  10   13.90   19.40
  -2   0 -10   51.39   19.20
  -2   0 -10   72.39   17.50
  -2   0 -10   47.20   23.20
   2   0  10   37.80   32.00
   2   0  10   84.89   21.60
  -3   0 -10  211.88   31.90
  -3   0 -10  212.88   29.70
  -3   0 -10  177.98   25.50
   3   0  10  175.48   41.20
   3   0  10  177.88   30.20
  -4   0 -10  366.96   49.80
  -4   0 -10  279.07   36.90
   4   0  10  230.68   45.50
   4   0  10  301.47   46.50
   9  -1 -10  375.56   44.20
   9  -1 -10  316.07   47.00
   9  -1 -10  312.77   42.30
  -9   1  10  296.47   39.80
  -9   1  10  233.48   37.90
  -9   1  10  328.97   47.40
   8  -1 -10  486.15   44.80
   8  -1 -10  524.45   42.30
   8  -1 -10  462.95   49.60
  -8   1  10  541.95   42.90
  -8   1  10  425.86   51.09
  -8   1  10  425.96   46.10
   7  -1 -10  284.97   38.70
   7  -1 -10  339.27   32.80
   7  -1 -10  278.17   39.20
  -7   1  10  295.17   32.70
  -7   1  10  321.87   42.50
   6  -1 -10  180.58   25.70
   6  -1 -10  119.49   22.30
   6  -1 -10  202.98   30.10
  -6   1  10  134.29   20.90
  -6   1  10  152.58   25.60
   5  -1 -10   -7.70   17.40
   5  -1 -10   -5.30   14.60
   5  -1 -10    8.20   18.60
   5  -1 -10    7.80   16.80
  -5   1  10   16.20   19.80
  -5   1  10   -8.30   14.60
  -5   1  10   30.40   15.80
   4  -1 -10  156.28   22.50
   4  -1 -10  156.88   22.60
   4  -1 -10  163.68   19.00
  -4   1  10  141.89   22.40
  -4   1  10  154.98   22.40
  -4   1  10  170.08   26.90
   3  -1 -10  694.93   40.10
   3  -1 -10  675.53   42.50
   3  -1 -10  706.63   41.80
  -3   1  10  724.63   42.80
  -3   1  10  684.03   46.90
  -3   1  10  681.13   47.20
   2  -1 -10  738.43   43.10
   2  -1 -10  686.63   39.10
   2  -1 -10  672.13   43.40
  -2   1  10  712.63   51.09
  -2   1  10  701.13   46.60
   1  -1 -10  599.44   40.20
   1  -1 -10  676.93   45.60
   1  -1 -10  630.04   35.50
  -1   1  10  627.24   52.09
  -1   1  10  633.04   44.10
  -1   1  10  654.83   42.90
   0  -1 -10  192.78   25.30
   0  -1 -10  167.18   23.90
   0   1  10  154.18   23.90
   0   1  10  170.08   30.10
   0   1  10  153.58   25.10
  -1  -1 -10    9.50   16.40
  -1  -1 -10   29.30   21.70
  -1  -1 -10   30.20   16.40
   1   1  10   47.00   30.60
   1   1  10   54.49   18.30
   1   1  10   43.10   22.10
  -2  -1 -10   14.80   23.90
  -2  -1 -10   17.40   17.40
  -2  -1 -10   15.10   18.20
   2   1  10   50.79   33.60
   2   1  10    7.40   24.30
   2   1  10   16.90   21.30
  -3  -1 -10  204.78   25.20
  -3  -1 -10  216.48   33.20
  -3  -1 -10  179.68   25.10
   3   1  10  182.68   30.00
   3   1  10  195.38   40.60
  -4  -1 -10  292.47   35.10
  -4  -1 -10  357.16   37.00
  -4  -1 -10  282.87   38.80
   4   1  10  297.67   40.30
   4   1  10  294.77   46.80
   9  -2 -10  247.28   32.60
   9  -2 -10  286.77   37.90
   9  -2 -10  262.67   34.50
  -9   2  10  284.27   38.60
  -9   2  10  349.07   55.29
   8  -2 -10  313.97   38.90
   8  -2 -10  257.77   30.20
   8  -2 -10  246.78   34.10
  -8   2  10  381.26   50.79
  -8   2  10  227.18   30.90
   7  -2 -10  166.88   27.30
   7  -2 -10  210.08   30.10
   7  -2 -10  158.58   25.90
  -7   2  10  217.98   32.10
  -7   2  10  134.69   23.80
   6  -2 -10   13.20   17.30
   6  -2 -10   30.80   19.90
   6  -2 -10   32.20   18.90
  -6   2  10   46.10   24.60
  -6   2  10   23.40   18.00
   5  -2 -10   47.10   15.50
   5  -2 -10   48.20   16.00
   5  -2 -10   40.80   15.70
  -5   2  10   37.20   17.30
  -5   2  10   48.80   17.60
  -5   2  10   61.09   22.20
   4  -2 -10  397.36   32.30
   4  -2 -10  399.36   31.40
   4  -2 -10  425.16   32.80
  -4   2  10  474.05   38.30
  -4   2  10  410.76   38.10
  -4   2  10  433.66   33.10
   3  -2 -10  607.94   36.60
   3  -2 -10  635.14   38.80
   3  -2 -10  619.74   39.70
  -3   2  10  582.24   47.00
  -3   2  10  591.84   39.60
  -3   2  10  590.44   43.90
   2  -2 -10  540.65   35.80
   2  -2 -10  563.34   36.80
   2  -2 -10  518.95   33.30
  -2   2  10  534.25   41.30
   1  -2 -10  428.96   30.70
   1  -2 -10  380.16   25.90
   1  -2 -10  398.36   31.40
  -1   2  10  389.76   47.00
  -1   2  10  382.36   37.20
   0  -2 -10   82.79   18.60
   0  -2 -10  136.09   24.40
   0  -2 -10  140.09   19.10
   0   2  10  120.99   31.30
   0   2  10  195.68   31.20
   0   2  10  135.59   18.50
  -1  -2 -10    5.30   16.70
  -1  -2 -10   -8.60   16.80
  -1  -2 -10  -28.00   22.90
   1   2  10   -1.20   18.10
   1   2  10   14.10   22.80
   1   2  10   -9.40   31.60
  -2  -2 -10   65.39   19.70
  -2  -2 -10   60.59   20.50
  -2  -2 -10  109.49   29.10
   2   2  10  100.69   28.00
   2   2  10  113.59   29.50
   2   2  10  168.48   40.10
  -3  -2 -10  383.36   49.30
  -3  -2 -10  307.07   35.00
  -3  -2 -10  338.27   35.40
   3   2  10  361.06   45.70
   3   2  10  351.76   48.50
   8  -3 -10  187.28   39.40
   8  -3 -10  103.69   28.70
   8  -3 -10  145.79   25.60
  -8   3  10  212.28   37.30
  -8   3  10  163.78   27.00
   7  -3 -10  101.69   22.10
   7  -3 -10  149.59   25.70
  -7   3  10  148.79   23.30
  -7   3  10  154.78   32.20
   6  -3 -10    4.50   17.50
   6  -3 -10   66.29   19.00
  -6   3  10    0.80   26.70
  -6   3  10    4.20   18.50
   5  -3 -10   47.30   17.80
   5  -3 -10   84.09   17.80
   5  -3 -10   92.69   17.70
  -5   3  10   73.29   20.00
  -5   3  10   49.20   23.60
  -5   3  10   48.50   17.50
   4  -3 -10  412.96   33.50
   4  -3 -10  438.36   32.30
   4  -3 -10  469.55   34.30
  -4   3  10  421.36   34.70
  -4   3  10  431.46   40.90
  -4   3  10  487.75   44.20
   3  -3 -10  341.87   30.60
   3  -3 -10  300.07   27.90
   3  -3 -10  332.07   29.60
  -3   3  10  322.47   36.50
  -3   3  10  327.17   29.60
   2  -3 -10  151.08   20.20
   2  -3 -10  193.28   23.40
   2  -3 -10  111.59   19.10
  -2   3  10  175.48   25.20
  -2   3  10  203.88   34.70
   1  -3 -10  117.99   19.30
   1  -3 -10   89.19   18.20
  -1   3  10  147.09   24.80
  -1   3  10   92.59   34.60
   0  -3 -10   74.09   19.00
   0  -3 -10   48.80   17.30
   0  -3 -10  104.09   26.90
   0   3  10   84.79   35.10
   0   3  10   41.90   23.80
  -1  -3 -10   87.19   20.10
  -1  -3 -10   82.99   20.30
  -1  -3 -10  126.89   29.30
   1   3  10   84.49   38.30
   1   3  10  107.39   28.10
  -2  -3 -10  225.88   32.50
  -2  -3 -10  299.87   32.90
  -2  -3 -10  269.97   35.80
   2   3  10  272.67   37.50
   2   3  10  400.46   63.39
   2   3  10  292.57   37.60
  -3  -3 -10  254.87   34.90
  -3  -3 -10  333.37   37.40
  -3  -3 -10  306.87   38.70
   3   3  10  278.37   37.40
   3   3  10  234.48   44.90
   3   3  10  312.87   52.69
   8  -4 -10  225.08   31.30
   8  -4 -10  185.78   27.20
  -8   4  10  243.58   39.70
  -8   4  10  165.38   27.70
   7  -4 -10   77.69   22.10
   7  -4 -10   80.29   24.70
  -7   4  10  124.89   24.10
  -7   4  10  104.89   34.00
   6  -4 -10    1.90   18.00
   6  -4 -10  -17.90   19.70
   6  -4 -10   20.10   19.60
  -6   4  10   31.20   28.20
  -6   4  10   10.40   19.90
   5  -4 -10   37.40   18.80
   5  -4 -10   75.69   20.00
   5  -4 -10   72.59   19.00
  -5   4  10   61.09   19.50
  -5   4  10   99.09   26.30
  -5   4  10   70.79   26.60
   4  -4 -10  362.06   33.60
   4  -4 -10  356.36   32.40
   4  -4 -10  321.57   29.70
  -4   4  10  347.97   34.20
  -4   4  10  445.96   40.80
   3  -4 -10  574.14   37.00
   3  -4 -10  563.14   40.60
   3  -4 -10  572.54   39.70
  -3   4  10  487.95   58.29
  -3   4  10  551.74   46.80
   2  -4 -10  349.77   31.70
   2  -4 -10  319.67   31.20
   2  -4 -10  270.87   31.40
  -2   4  10  287.87   37.80
  -2   4  10  242.58   41.00
   1  -4 -10   65.69   19.50
   1  -4 -10   72.79   19.70
  -1   4  10   47.00   37.20
  -1   4  10   44.70   25.30
   0  -4 -10   31.80   18.60
   0  -4 -10    4.10   19.70
   0   4  10   -2.50   38.30
   0   4  10   19.50   25.30
  -1  -4 -10   94.79   32.00
  -1  -4 -10   29.90   21.40
  -1  -4 -10   46.60   20.60
   1   4  10   69.09   29.30
   1   4  10   18.80   39.40
  -2  -4 -10  208.98   27.10
  -2  -4 -10  130.29   24.80
  -2  -4 -10  200.18   35.50
   2   4  10  115.59   45.00
   7  -5 -10   49.50   24.60
   7  -5 -10   -6.80   20.90
  -7   5  10   22.40   22.70
  -7   5  10   23.20   32.20
   6  -5 -10    3.10   19.30
   6  -5 -10  -12.10   19.40
   6  -5 -10    6.00   20.80
  -6   5  10  -10.70   19.90
  -6   5  10    9.50   28.90
   5  -5 -10  211.38   29.60
   5  -5 -10  130.89   22.90
  -5   5  10  135.39   33.00
  -5   5  10  138.29   24.20
  -5   5  10  108.29   29.90
   4  -5 -10  362.16   35.50
   4  -5 -10  309.17   33.60
   4  -5 -10  350.66   31.90
  -4   5  10  352.36   54.09
  -4   5  10  359.16   43.90
  -4   5  10  320.47   35.30
   3  -5 -10  521.25   41.80
   3  -5 -10  533.75   40.20
   3  -5 -10  513.05   36.00
  -3   5  10  386.36   61.79
  -3   5  10  483.05   46.60
   2  -5 -10  327.87   34.00
   2  -5 -10  375.06   35.50
   2  -5 -10  334.57   30.60
  -2   5  10  296.07   46.60
  -2   5  10  393.06   43.40
   1  -5 -10   74.09   22.90
   1  -5 -10   22.30   20.50
  -1   5  10   83.59   41.80
  -1   5  10   65.69   26.90
   0  -5 -10    3.00   20.40
   0  -5 -10   -7.20   22.10
   0   5  10   12.70   29.40
   0   5  10   20.60   42.90
  -1  -5 -10  -19.00   32.70
  -1  -5 -10   31.50   22.70
  -1  -5 -10   67.79   25.30
   1   5  10   72.99   43.10
   1   5  10   66.49   30.60
   5  -6 -10   53.09   21.20
   5  -6 -10   97.09   21.70
   5  -6 -10  113.99   23.00
  -5   6  10   69.89   30.60
  -5   6  10  103.49   24.20
  -5   6  10   94.89   40.60
   4  -6 -10  311.47   32.60
   4  -6 -10  292.37   35.50
   4  -6 -10  314.47   32.40
  -4   6  10  248.08   42.80
  -4   6  10  281.07   44.60
  -4   6  10  299.97   35.70
   3  -6 -10  299.77   37.00
   3  -6 -10  337.67   35.50
   3  -6 -10  365.56   34.30
  -3   6  10  456.15   46.00
  -3   6  10  325.47   51.29
   2  -6 -10  300.67   33.90
   2  -6 -10  327.27   36.60
   2  -6 -10  229.88   34.90
  -2   6  10  249.08   34.70
  -2   6  10  262.47   49.60
   1  -6 -10   72.19   23.30
   1  -6 -10   35.60   22.70
  -1   6  10   -0.10   27.70
  -1   6  10   -2.70   43.80
   4   8 -11  260.37   27.40
   4   8 -11  195.08   26.60
   4   8 -11  210.58   26.10
  -4  -8  11  266.27   35.40
  -4  -8  11  219.18   41.70
   3   8 -11  383.36   37.70
   3   8 -11  435.76   37.80
   3   8 -11  452.35   38.70
  -3  -8  11  298.47   37.70
  -3  -8  11  353.36   46.00
   2   8 -11  405.36   37.90
   2   8 -11  417.66   36.90
   2   8 -11  364.96   37.20
  -2  -8  11  346.17   38.00
  -2  -8  11  400.76   56.39
   1   8 -11  113.59   39.70
   1   8 -11  152.38   25.10
   1   8 -11  166.98   24.20
   1   8 -11  174.68   24.60
  -1  -8  11  143.59   23.60
  -1  -8  11  150.08   36.00
   0   8 -11   17.20   19.90
   0   8 -11   40.00   23.70
   0   8 -11    1.00   35.20
   0  -8  11   -0.70   20.20
   0  -8  11    2.30   22.50
   5   7 -11  128.69   23.50
   5   7 -11  106.79   21.90
   5   7 -11  178.48   37.40
  -5  -7  11  164.58   26.40
  -5  -7  11   95.59   39.60
   4   7 -11  218.38   32.00
   4   7 -11  227.18   28.60
   4   7 -11  213.18   36.90
   4   7 -11  256.87   30.70
   4   7 -11  201.48   30.60
  -4  -7  11  289.07   41.60
  -4  -7  11  290.17   34.50
  -4  -7  11  183.18   23.70
   3   7 -11  379.26   34.90
   3   7 -11  336.37   40.80
   3   7 -11  352.66   32.70
   3   7 -11  297.17   38.90
  -3  -7  11  339.37   34.60
  -3  -7  11  512.15   55.69
   2   7 -11  224.58   30.90
   2   7 -11  272.47   28.50
   2   7 -11  233.08   36.80
   2   7 -11  232.98   30.70
   2   7 -11  154.88   32.20
  -2  -7  11  228.98   31.30
  -2  -7  11  253.87   35.40
   1   7 -11   53.79   33.70
   1   7 -11   81.39   19.50
   1   7 -11   75.69   21.20
   1   7 -11   50.39   26.70
   1   7 -11   72.99   20.30
  -1  -7  11   72.49   23.00
  -1  -7  11   55.29   19.20
  -1  -7  11  101.89   30.30
   0   7 -11   42.80   39.40
   0   7 -11    7.70   22.30
   0   7 -11   24.50   19.10
   0  -7  11    2.30   20.70
   0  -7  11   32.00   19.10
  -1   7 -11  220.58   34.80
  -1   7 -11  217.98   40.30
  -1   7 -11  316.57   41.70
   1  -7  11  204.58   29.40
   1  -7  11  212.58   26.30
  -2   7 -11  319.37   46.40
  -2   7 -11  382.86   38.60
  -2   7 -11  387.66   63.29
   2  -7  11  290.47   38.50
   2  -7  11  272.07   41.00
   6   6 -11   72.29   32.80
   6   6 -11   35.60   21.10
   6   6 -11   37.80   20.10
  -6  -6  11   14.50   25.30
  -6  -6  11   61.69   34.30
   5   6 -11  254.37   36.20
   5   6 -11  196.58   28.90
   5   6 -11  235.28   30.20
   5   6 -11  247.98   30.20
  -5  -6  11  216.78   33.00
  -5  -6  11  225.48   38.00
   4   6 -11  356.36   46.80
   4   6 -11  302.07   31.20
   4   6 -11  337.07   30.10
   4   6 -11  335.07   31.90
   4   6 -11  263.77   28.40
  -4  -6  11  294.07   30.80
  -4  -6  11  255.07   38.20
   3   6 -11  321.87   29.70
   3   6 -11  314.17   43.90
   3   6 -11  341.17   30.60
   3   6 -11  319.77   30.20
   3   6 -11  277.47   46.80
   3   6 -11  300.97   31.70
  -3  -6  11  278.67   28.30
  -3  -6  11  339.97   41.60
  -3  -6  11  276.67   30.90
   2   6 -11  270.87   32.80
   2   6 -11  286.97   39.20
   2   6 -11  338.67   29.40
   2   6 -11  364.16   32.30
   2   6 -11  317.87   51.69
  -2  -6  11  332.77   47.60
  -2  -6  11  344.77   31.50
   1   6 -11  141.39   28.40
   1   6 -11  131.49   21.90
   1   6 -11  122.89   20.90
   1   6 -11  111.59   32.90
   1   6 -11  113.89   19.10
  -1  -6  11  112.19   23.00
  -1  -6  11  160.08   21.50
  -1  -6  11  136.19   27.90
   0   6 -11   24.90   32.50
   0   6 -11   51.49   22.10
   0   6 -11   10.40   17.10
   0  -6  11   12.80   21.50
   0  -6  11    9.50   17.20
  -1   6 -11  306.97   41.20
  -1   6 -11  168.68   40.50
  -1   6 -11  259.87   33.70
   1  -6  11  229.98   38.10
   1  -6  11  272.67   31.90
  -2   6 -11  287.87   36.20
  -2   6 -11  384.86   62.09
   2  -6  11  292.87   35.00
   2  -6  11  319.77   41.00
   7   5 -11  -16.20   21.60
   7   5 -11   69.69   33.80
   7   5 -11   13.80   21.60
  -7  -5  11  -45.50   27.60
  -7  -5  11  -18.70   31.50
   6   5 -11   26.70   18.90
   6   5 -11   24.20   16.70
   6   5 -11   23.10   18.40
   6   5 -11   41.60   29.60
   6   5 -11   53.99   18.00
  -6  -5  11   94.19   33.20
  -6  -5  11   22.50   22.70
  -6  -5  11   39.90   18.00
   5   5 -11  203.38   26.40
   5   5 -11  175.58   21.80
   5   5 -11  204.68   27.10
   5   5 -11  207.48   25.10
   5   5 -11  209.88   27.70
   5   5 -11  173.08   31.60
  -5  -5  11  156.08   23.90
  -5  -5  11  249.68   35.90
  -5  -5  11  194.98   26.80
   4   5 -11  438.26   48.80
   4   5 -11  373.36   43.20
   4   5 -11  449.46   34.10
   4   5 -11  529.25   34.20
   4   5 -11  544.05   34.80
   4   5 -11  507.65   36.10
  -4  -5  11  498.55   52.79
  -4  -5  11  433.16   36.80
   3   5 -11  733.73   44.80
   3   5 -11  693.53   42.20
   3   5 -11  742.13   51.79
   3   5 -11  575.74   52.09
   3   5 -11  731.03   43.20
   3   5 -11  691.03   48.50
   3   5 -11  658.33   51.39
  -3  -5  11  741.33   44.20
  -3  -5  11  648.64   56.49
   2   5 -11  354.56   29.70
   2   5 -11  419.36   42.50
   2   5 -11  390.56   41.30
   2   5 -11  392.76   28.40
   2   5 -11  301.27   29.40
   2   5 -11  387.86   34.50
   2   5 -11  374.76   33.20
  -2  -5  11  447.76   44.10
  -2  -5  11  376.86   31.10
  -2  -5  11  408.26   35.60
   1   5 -11   49.20   21.90
   1   5 -11   37.30   16.50
   1   5 -11   -6.50   23.60
   1   5 -11   45.80   14.20
   1   5 -11   42.20   18.70
   1   5 -11   24.60   18.90
  -1  -5  11   26.60   18.30
  -1  -5  11   51.39   20.80
  -1  -5  11   48.70   15.70
   0   5 -11   16.40   26.90
   0   5 -11   23.80   15.70
   0   5 -11   16.30   17.10
   0   5 -11   44.10   21.90
   0  -5  11   23.90   16.20
   0  -5  11   21.30   19.70
  -1   5 -11  247.88   28.50
  -1   5 -11  268.67   42.40
  -1   5 -11  263.87   36.60
   1  -5  11  281.07   37.40
   1  -5  11  326.37   30.50
  -2   5 -11  452.25   36.20
  -2   5 -11  444.86   58.69
  -2   5 -11  437.86   50.19
   2  -5  11  381.06   45.50
   2  -5  11  430.76   36.70
  -3   5 -11  349.47   48.50
  -3   5 -11  380.16   53.09
  -3   5 -11  345.57   38.10
   3  -5  11  356.76   46.90
   3  -5  11  389.16   45.40
   3  -5  11  378.76   45.60
   8   4 -11   57.39   25.90
   8   4 -11   17.10   33.20
   8   4 -11   -1.70   25.30
  -8  -4  11   47.40   26.30
  -8  -4  11   66.99   32.10
   7   4 -11   -7.50   20.10
   7   4 -11  -34.80   29.90
   7   4 -11   13.60   20.50
   7   4 -11   28.30   20.40
  -7  -4  11   -3.80   25.70
  -7  -4  11    0.70   20.70
   6   4 -11   45.60   16.70
   6   4 -11   62.49   18.00
   6   4 -11   81.99   18.50
   6   4 -11   37.30   28.00
   6   4 -11   60.79   20.20
  -6  -4  11   51.79   22.40
  -6  -4  11   33.70   19.00
   5   4 -11  169.98   24.20
   5   4 -11  156.18   20.40
   5   4 -11  143.09   25.80
   5   4 -11  219.38   25.30
   5   4 -11  168.98   29.00
   5   4 -11  189.48   24.80
   5   4 -11  161.28   24.50
  -5  -4  11  161.18   21.60
  -5  -4  11  145.29   23.00
   4   4 -11  569.34   42.00
   4   4 -11  535.65   37.40
   4   4 -11  621.04   37.70
   4   4 -11  545.85   36.60
   4   4 -11  550.84   43.50
   4   4 -11  630.24   46.90
   4   4 -11  523.85   45.20
  -4  -4  11  555.14   38.60
  -4  -4  11  525.95   38.90
   3   4 -11  551.64   36.40
   3   4 -11  453.55   60.09
   3   4 -11  523.15   34.60
   3   4 -11  450.85   48.80
   3   4 -11  493.75   37.50
   3   4 -11  522.95   34.10
   3   4 -11  460.75   48.30
   2   4 -11  163.08   24.10
   2   4 -11  129.39   15.50
   2   4 -11  130.59   20.00
   2   4 -11  107.99   16.90
   2   4 -11  125.09   16.50
   2   4 -11  119.19   20.80
   2   4 -11  117.89   25.00
  -2  -4  11  123.79   16.30
  -2  -4  11  143.79   20.80
   1   4 -11   14.10   11.90
   1   4 -11   -2.40   18.00
   1   4 -11   -8.40   14.50
   1   4 -11  -12.10   12.20
   1   4 -11   15.90   16.30
   1   4 -11   -5.90   22.30
   1   4 -11    9.80   22.50
  -1  -4  11    8.50   12.70
  -1  -4  11    0.10   20.30
  -1  -4  11    4.80   16.80
   0   4 -11   83.89   25.50
   0   4 -11   97.99   17.60
   0   4 -11   82.89   23.80
   0   4 -11   94.09   15.30
   0  -4  11  102.39   16.80
   0  -4  11  119.79   27.20
   0  -4  11   76.39   21.20
  -1   4 -11  310.97   29.90
  -1   4 -11  348.37   43.20
  -1   4 -11  281.17   42.70
   1  -4  11  331.27   38.10
   1  -4  11  322.87   29.60
   1  -4  11  345.17   46.40
  -2   4 -11  423.66   50.29
  -2   4 -11  477.25   53.69
  -2   4 -11  382.86   35.60
   2  -4  11  418.86   55.49
   2  -4  11  419.06   43.60
  -3   4 -11  142.69   25.40
  -3   4 -11  187.88   36.00
  -3   4 -11  161.68   40.20
   3  -4  11  134.39   30.20
   3  -4  11  207.98   41.90
   8   3 -11   81.29   33.10
   8   3 -11   29.60   24.90
   8   3 -11   43.30   25.30
  -8  -3  11   44.60   29.30
  -8  -3  11   47.20   25.90
   7   3 -11   -4.40   19.40
   7   3 -11    5.40   29.90
   7   3 -11  -20.60   19.60
  -7  -3  11   -8.80   21.20
  -7  -3  11    6.10   25.60
   6   3 -11  167.58   22.30
   6   3 -11  170.18   21.10
   6   3 -11  124.99   27.10
   6   3 -11  189.28   26.80
   6   3 -11  204.58   26.70
   6   3 -11  195.98   29.70
  -6  -3  11  121.89   31.60
  -6  -3  11  195.88   25.80
  -6  -3  11  213.38   30.80
   5   3 -11  343.67   39.00
   5   3 -11  364.26   30.50
   5   3 -11  363.96   31.10
   5   3 -11  415.16   30.90
   5   3 -11  379.86   29.80
   5   3 -11  332.87   30.10
   5   3 -11  338.57   38.00
  -5  -3  11  358.36   32.40
  -5  -3  11  345.67   38.50
  -5  -3  11  357.26   33.50
   4   3 -11  437.16   33.10
   4   3 -11  443.36   31.40
   4   3 -11  373.96   38.10
   4   3 -11  447.56   32.20
   4   3 -11  418.56   33.00
   4   3 -11  474.95   39.40
   4   3 -11  441.56   32.40
  -4  -3  11  458.65   41.10
  -4  -3  11  464.05   34.40
   3   3 -11  337.07   31.40
   3   3 -11  297.77   30.90
   3   3 -11  380.56   35.80
   3   3 -11  397.66   33.20
   3   3 -11  360.76   30.70
   3   3 -11  308.57   26.70
   3   3 -11  363.96   42.00
  -3  -3  11  294.87   49.40
  -3  -3  11  369.56   32.30
   2   3 -11  141.69   15.40
   2   3 -11  136.09   17.80
   2   3 -11  107.19   20.70
   2   3 -11  127.89   19.70
   2   3 -11  111.89   19.60
   2   3 -11  121.79   23.40
   2   3 -11  161.38   22.60
  -2  -3  11  147.59   22.50
  -2  -3  11  141.59   19.50
   1   3 -11   -7.40   11.90
   1   3 -11    4.50   19.10
   1   3 -11  -10.90   11.30
   1   3 -11  -12.90   15.00
   1   3 -11   24.40   14.20
   1   3 -11  -16.00   19.40
   1   3 -11   -4.10   12.40
  -1  -3  11   -2.90   19.50
  -1  -3  11  -20.30   20.00
  -1  -3  11   -6.40   11.60
   0   3 -11   81.09   13.90
   0   3 -11   97.29   17.00
   0   3 -11  107.29   25.20
   0   3 -11   99.69   23.80
   0  -3  11  135.09   21.70
   0  -3  11  103.99   27.90
   0  -3  11   79.99   14.40
  -1   3 -11  270.77   43.50
  -1   3 -11  305.77   41.30
  -1   3 -11  329.87   30.40
   1  -3  11  305.77   39.60
   1  -3  11  346.77   37.50
  -2   3 -11  402.06   34.50
  -2   3 -11  326.97   50.09
  -2   3 -11  423.26   49.20
   2  -3  11  383.66   41.40
   2  -3  11  368.56   57.89
  -3   3 -11  128.69   24.30
  -3   3 -11  124.49   35.90
   3  -3  11  176.48   43.00
   3  -3  11  149.49   31.20
   8   2 -11   12.10   26.30
   8   2 -11   27.30   31.00
   8   2 -11  -35.90   23.70
  -8  -2  11   31.70   24.90
  -8  -2  11  -16.20   27.80
   7   2 -11    4.50   27.10
   7   2 -11   57.99   21.70
   7   2 -11   55.69   20.90
  -7  -2  11    5.90   21.90
  -7  -2  11   34.80   24.80
   6   2 -11  383.76   33.80
   6   2 -11  396.56   34.00
   6   2 -11  318.77   40.90
   6   2 -11  377.46   39.80
   6   2 -11  390.66   34.00
  -6  -2  11  408.66   37.90
  -6  -2  11  405.76   36.10
  -6  -2  11  418.06   41.50
   5   2 -11  468.75   52.89
   5   2 -11  561.44   38.80
   5   2 -11  571.74   36.20
   5   2 -11  601.94   38.70
   5   2 -11  569.04   37.20
   5   2 -11  559.44   37.10
   5   2 -11  553.34   43.80
  -5  -2  11  539.65   39.60
  -5  -2  11  571.04   48.30
   4   2 -11  429.36   43.00
   4   2 -11  424.76   44.60
   4   2 -11  449.06   33.70
   4   2 -11  471.25   33.00
   4   2 -11  500.25   34.00
   4   2 -11  450.25   31.20
   4   2 -11  485.55   31.90
  -4  -2  11  392.46   54.39
  -4  -2  11  455.25   35.00
  -4  -2  11  422.56   34.60
   3   2 -11  294.27   27.30
   3   2 -11  269.57   34.40
   3   2 -11  264.37   25.70
   3   2 -11  268.97   30.10
   3   2 -11  287.07   33.70
   3   2 -11  282.47   30.00
   3   2 -11  263.27   23.50
  -3  -2  11  295.97   34.70
  -3  -2  11  244.08   31.40
   2   2 -11   63.79   15.50
   2   2 -11  141.89   22.20
   2   2 -11   78.29   13.00
   2   2 -11   65.59   15.10
   2   2 -11   94.69   14.80
   2   2 -11   49.99   19.90
   2   2 -11   83.99   15.80
  -2  -2  11   72.39   21.50
  -2  -2  11   87.79   16.60
  -2  -2  11   79.59   21.70
   1   2 -11   68.39   15.20
   1   2 -11   82.89   16.80
   1   2 -11   55.09   21.20
   1   2 -11   36.20   13.90
   1   2 -11   62.79   21.40
  -1  -2  11   29.00   23.10
  -1  -2  11   75.59   21.60
  -1  -2  11   83.59   18.40
   0   2 -11  330.47   26.90
   0   2 -11  305.07   37.60
   0   2 -11  293.27   29.30
   0   2 -11  316.37   39.60
   0  -2  11  304.87   44.20
   0  -2  11  297.07   34.00
  -1   2 -11  473.75   45.90
  -1   2 -11  546.05   34.90
  -1   2 -11  533.15   50.89
  -1   2 -11  495.55   38.00
   1  -2  11  530.45   43.50
   1  -2  11  482.15   54.59
  -2   2 -11  467.45   38.70
  -2   2 -11  569.24   50.89
  -2   2 -11  395.26   53.39
   2  -2  11  453.35   60.19
   2  -2  11  514.45   44.50
  -3   2 -11  270.87   33.70
  -3   2 -11  188.48   35.10
  -3   2 -11  211.78   36.80
   3  -2  11  221.68   33.10
   3  -2  11  199.38   42.80
   8   1 -11    9.10   24.70
   8   1 -11   18.20   30.30
   8   1 -11   59.89   28.40
  -8  -1  11   34.90   25.50
  -8  -1  11   20.10   28.60
   7   1 -11  108.09   25.10
   7   1 -11  124.79   23.70
   7   1 -11  127.49   28.60
  -7  -1  11   81.79   23.20
  -7  -1  11  111.59   25.90
  -7  -1  11   59.99   26.90
   6   1 -11  375.36   33.60
   6   1 -11  335.77   39.70
   6   1 -11  368.06   32.90
  -6  -1  11  321.87   35.20
  -6  -1  11  406.66   44.40
   5   1 -11  336.37   30.20
   5   1 -11  418.36   31.30
   5   1 -11  399.06   32.10
   5   1 -11  387.76   35.80
   5   1 -11  374.46   31.50
  -5  -1  11  388.56   41.30
  -5  -1  11  355.06   32.70
  -5  -1  11  333.97   30.90
   4   1 -11  383.06   36.90
   4   1 -11  351.16   31.30
   4   1 -11  352.76   30.00
   4   1 -11  315.47   30.90
   4   1 -11  362.36   27.90
  -4  -1  11  361.86   33.40
  -4  -1  11  393.36   32.40
  -4  -1  11  388.26   37.80
   3   1 -11  143.69   21.60
   3   1 -11  154.48   23.70
   3   1 -11  152.28   22.50
   3   1 -11  141.89   22.60
   3   1 -11  126.09   17.10
   3   1 -11  176.88   24.20
   3   1 -11  124.39   15.60
  -3  -1  11  136.19   17.20
  -3  -1  11  139.79   23.20
  -3  -1  11  160.78   24.10
   2   1 -11   27.80   13.60
   2   1 -11   31.30   19.90
   2   1 -11   13.20   13.60
   2   1 -11   24.80   14.80
   2   1 -11   12.00   12.70
  -2  -1  11   44.20   22.30
  -2  -1  11   47.10   20.50
  -2  -1  11   28.40   14.90
   1   1 -11  102.89   18.70
   1   1 -11   99.19   23.40
   1   1 -11   58.89   26.10
  -1  -1  11  127.89   19.10
  -1  -1  11  110.09   23.80
  -1  -1  11  129.49   27.30
   0   1 -11  482.35   33.90
   0   1 -11  457.95   43.70
   0   1 -11  515.35   36.80
   0  -1  11  485.75   39.40
   0  -1  11  500.75   43.50
   0  -1  11  503.65   53.49
  -1   1 -11  547.25   42.70
  -1   1 -11  600.54   49.90
  -1   1 -11  606.54   41.50
   1  -1  11  567.24   60.29
   1  -1  11  546.95   44.30
  -2   1 -11  311.67   45.20
  -2   1 -11  347.37   36.50
  -2   1 -11  317.37   34.70
   2  -1  11  322.37   46.80
   2  -1  11  347.67   40.80
  -3   1 -11  154.68   32.50
  -3   1 -11   82.39   24.10
   3  -1  11   90.79   29.50
   3  -1  11  163.68   45.30
   8   0 -11   34.10   29.30
   8   0 -11   28.50   30.20
   8   0 -11    2.30   23.10
  -8   0  11  -33.00   30.30
  -8   0  11   -3.40   28.20
  -8   0  11  -16.20   24.60
   7   0 -11  199.18   26.20
   7   0 -11  179.28   29.10
   7   0 -11  220.08   29.80
  -7   0  11  142.59   26.80
  -7   0  11  146.39   30.80
   6   0 -11  366.66   33.40
   6   0 -11  351.96   33.60
   6   0 -11  359.56   37.60
   6   0 -11  346.77   48.70
  -6   0  11  357.36   44.50
  -6   0  11  317.17   34.20
   5   0 -11  317.07   30.00
   5   0 -11  334.17   39.50
   5   0 -11  297.97   30.60
   5   0 -11  235.28   34.10
   5   0 -11  320.57   30.50
  -5   0  11  261.47   30.70
  -5   0  11  317.87   40.10
  -5   0  11  278.77   30.40
   4   0 -11  328.87   29.10
   4   0 -11  335.17   42.60
   4   0 -11  312.77   30.90
  -4   0  11  359.26   34.90
  -4   0  11  371.46   38.80
  -4   0  11  293.97   31.30
   3   0 -11  208.08   26.90
   3   0 -11  163.08   23.60
   3   0 -11  183.18   22.70
   3   0 -11  200.78   26.60
  -3   0  11  216.78   32.60
  -3   0  11  182.18   37.00
   2   0 -11  -20.30   11.60
   2   0 -11  -14.50   13.50
   2   0 -11    3.40   15.30
   2   0 -11    5.50   14.40
   2   0 -11   12.00   21.70
  -2   0  11   -8.10   14.20
  -2   0  11   32.90   23.30
  -2   0  11   10.10   19.90
   1   0 -11  109.79   26.90
   1   0 -11   82.59   16.50
   1   0 -11   79.19   18.40
  -1   0  11  128.09   23.70
  -1   0  11  102.99   18.20
  -1   0  11  136.19   30.10
   0   0 -11  473.35   36.90
   0   0 -11  443.96   44.40
   0   0 -11  469.65   34.80
   0   0  11  436.76   54.09
   0   0  11  504.75   45.00
   0   0  11  491.35   38.00
  -1   0 -11  460.25   34.10
  -1   0 -11  417.26   45.70
  -1   0 -11  433.76   37.20
   1   0  11  352.96   45.20
   1   0  11  421.16   40.20
   1   0  11  425.76   57.59
  -2   0 -11  276.87   44.80
  -2   0 -11  229.58   31.40
  -2   0 -11  284.27   33.50
   2   0  11  272.87   38.50
   2   0  11  288.77   46.00
  -3   0 -11   29.00   23.60
  -3   0 -11   47.30   31.20
   3   0  11   78.49   30.30
   3   0  11   53.29   41.40
   8  -1 -11  -60.49   35.30
   8  -1 -11    3.90   28.90
   8  -1 -11   35.40   23.80
  -8   1  11   -1.90   23.70
  -8   1  11   30.70   31.50
   7  -1 -11  185.98   24.50
   7  -1 -11  154.08   32.50
   7  -1 -11  180.78   28.30
  -7   1  11  123.79   24.00
  -7   1  11  136.59   32.10
   6  -1 -11  489.95   40.00
   6  -1 -11  438.16   37.50
   6  -1 -11  426.16   38.30
  -6   1  11  444.36   38.70
  -6   1  11  388.16   48.30
   5  -1 -11  493.45   36.70
   5  -1 -11  530.45   38.00
   5  -1 -11  489.25   37.70
  -5   1  11  456.65   37.70
  -5   1  11  424.96   41.20
  -5   1  11  463.45   46.10
   4  -1 -11  172.78   25.90
   4  -1 -11  181.88   22.80
   4  -1 -11  191.78   25.10
  -4   1  11  211.98   33.40
  -4   1  11  181.18   27.90
  -4   1  11  196.28   28.20
   3  -1 -11   51.29   17.20
   3  -1 -11   77.89   17.60
   3  -1 -11   56.59   16.40
  -3   1  11   46.20   23.20
  -3   1  11   80.89   23.70
   2  -1 -11   49.70   13.90
   2  -1 -11   47.20   16.80
   2  -1 -11  106.99   25.00
   2  -1 -11   68.69   18.50
  -2   1  11   41.20   26.10
  -2   1  11   80.59   22.90
   1  -1 -11  170.78   25.20
   1  -1 -11  110.69   26.30
   1  -1 -11  114.19   20.10
  -1   1  11   73.49   29.90
  -1   1  11  127.89   25.80
   0  -1 -11  403.16   35.60
   0  -1 -11  435.76   34.30
   0  -1 -11  422.26   44.70
   0   1  11  394.16   55.09
   0   1  11  413.26   45.00
   0   1  11  444.36   37.50
  -1  -1 -11  462.85   48.70
  -1  -1 -11  574.04   38.10
  -1  -1 -11  466.45   40.40
   1   1  11  436.76   61.19
   1   1  11  477.45   49.90
   1   1  11  519.05   41.30
  -2  -1 -11  259.17   34.10
  -2  -1 -11  328.07   47.60
  -2  -1 -11  309.97   34.10
   2   1  11  261.17   46.30
   2   1  11  278.87   40.60
   8  -2 -11   43.50   23.80
   8  -2 -11   75.89   30.40
  -8   2  11   56.99   25.40
   7  -2 -11  222.28   29.80
   7  -2 -11  219.68   32.60
  -7   2  11  213.68   35.10
  -7   2  11  183.68   26.90
   6  -2 -11  513.15   40.00
   6  -2 -11  484.35   37.80
   6  -2 -11  434.36   37.60
  -6   2  11  392.16   48.00
  -6   2  11  375.56   38.20
   5  -2 -11  427.86   36.60
   5  -2 -11  437.66   36.50
   5  -2 -11  465.45   36.10
  -5   2  11  352.86   45.60
  -5   2  11  452.75   38.00
  -5   2  11  439.16   47.30
   4  -2 -11  149.39   18.70
   4  -2 -11  115.79   20.80
   4  -2 -11  132.69   19.90
  -4   2  11  103.79   20.90
  -4   2  11   58.79   34.70
  -4   2  11  135.79   26.50
   3  -2 -11  121.59   19.70
   3  -2 -11   56.69   18.70
   3  -2 -11  114.39   20.20
  -3   2  11  113.49   28.30
  -3   2  11   69.69   24.70
   2  -2 -11    6.20   17.50
   2  -2 -11   -0.40   17.00
   2  -2 -11   23.80   14.70
  -2   2  11    5.80   23.70
  -2   2  11   22.50   30.00
   1  -2 -11  213.98   28.50
   1  -2 -11  243.88   38.90
   1  -2 -11  225.28   29.80
  -1   2  11  139.39   36.50
  -1   2  11  167.88   29.50
   0  -2 -11  448.36   47.70
   0  -2 -11  511.35   38.10
   0  -2 -11  460.45   36.90
   0   2  11  370.36   49.00
   0   2  11  399.56   46.60
  -1  -2 -11  495.45   40.80
  -1  -2 -11  476.35   39.10
  -1  -2 -11  516.75   51.09
   1   2  11  438.26   63.79
   1   2  11  466.65   51.59
  -2  -2 -11  200.88   34.20
  -2  -2 -11  155.88   26.30
  -2  -2 -11  163.48   25.40
   2   2  11  176.48   34.30
   2   2  11  190.78   44.70
   7  -3 -11  399.16   41.90
   7  -3 -11  336.87   36.50
   7  -3 -11  349.47   38.20
  -7   3  11  320.67   52.29
  -7   3  11  336.67   38.30
   6  -3 -11  404.16   38.20
   6  -3 -11  397.46   37.20
   6  -3 -11  415.76   36.60
  -6   3  11  326.47   37.70
  -6   3  11  346.07   50.09
   5  -3 -11  446.36   35.40
   5  -3 -11  419.96   36.70
   5  -3 -11  361.76   35.30
  -5   3  11  340.07   38.10
  -5   3  11  398.76   48.20
   4  -3 -11  199.28   30.10
   4  -3 -11  209.88   29.70
   4  -3 -11  169.68   26.30
  -4   3  11  211.08   31.40
  -4   3  11  134.79   29.50
  -4   3  11  203.98   24.60
   3  -3 -11   58.39   20.20
   3  -3 -11   52.69   16.60
   3  -3 -11   86.09   20.90
  -3   3  11   79.89   25.70
  -3   3  11  104.29   30.40
   2  -3 -11   -2.10   18.50
   2  -3 -11    7.30   19.20
  -2   3  11    5.50   31.50
  -2   3  11    9.90   25.70
   1  -3 -11  325.07   34.70
   1  -3 -11  328.57   34.20
  -1   3  11  280.27   44.40
  -1   3  11  375.66   44.90
   0  -3 -11  316.37   48.40
   0  -3 -11  308.97   34.60
   0  -3 -11  333.57   35.70
   0   3  11  304.27   47.00
   0   3  11  358.46   45.20
  -1  -3 -11  391.16   39.00
  -1  -3 -11  404.66   38.10
  -1  -3 -11  505.35   52.19
   1   3  11  296.67   49.40
   1   3  11  387.76   49.40
   6  -4 -11  284.47   35.60
   6  -4 -11  293.37   36.20
   6  -4 -11  308.27   34.50
  -6   4  11  403.96   49.10
  -6   4  11  245.38   35.40
   5  -4 -11  250.57   33.40
   5  -4 -11  213.78   31.70
   5  -4 -11  272.77   31.10
  -5   4  11  210.48   28.00
  -5   4  11  257.77   34.70
   4  -4 -11   16.90   19.70
   4  -4 -11   65.39   18.60
   4  -4 -11   66.29   20.50
  -4   4  11   52.19   27.70
  -4   4  11   33.40   32.50
  -4   4  11   69.89   20.60
   3  -4 -11   20.80   19.20
   3  -4 -11    8.90   17.30
   3  -4 -11  -10.60   20.30
  -3   4  11    3.40   34.40
  -3   4  11    4.50   25.20
   2  -4 -11   52.39   22.20
   2  -4 -11   88.09   21.10
  -2   4  11   51.89   28.30
  -2   4  11  -26.90   38.20
   1  -4 -11  286.97   35.00
   1  -4 -11  310.67   36.50
  -1   4  11  234.18   48.50
  -1   4  11  288.57   44.90
   4   6 -12   53.19   31.40
   4   6 -12   -3.60   18.60
   4   6 -12   27.10   18.50
   4   6 -12   13.00   19.20
   4   6 -12   10.20   20.30
  -4  -6  12    1.20   21.30
  -4  -6  12   43.40   34.40
   3   6 -12   96.09   20.50
   3   6 -12   42.10   44.40
   3   6 -12   75.89   19.90
   3   6 -12   -0.70   28.70
   3   6 -12   56.49   18.60
  -3  -6  12   60.49   32.60
  -3  -6  12   78.49   20.40
   2   6 -12  173.78   24.40
   2   6 -12  130.49   30.40
   2   6 -12  188.38   21.60
   2   6 -12  130.49   25.00
   2   6 -12  158.48   37.20
  -2  -6  12  160.28   22.10
  -2  -6  12  218.48   45.70
   1   6 -12  332.97   36.80
   1   6 -12  375.26   58.19
   1   6 -12  293.57   32.80
   1   6 -12  384.06   40.70
  -1  -6  12  336.57   34.00
  -1  -6  12  375.46   41.60
   0   6 -12  265.17   33.40
   0   6 -12  283.57   43.00
   0   6 -12  328.27   36.70
   0   6 -12  308.47   46.00
   0  -6  12  362.26   41.00
   0  -6  12  316.87   35.70
   5   5 -12   88.39   20.50
   5   5 -12   62.69   30.70
   5   5 -12  110.19   21.40
   5   5 -12   97.19   20.30
  -5  -5  12   66.69   22.10
   4   5 -12    6.80   26.40
   4   5 -12   46.60   18.30
   4   5 -12   43.00   18.60
   4   5 -12   26.30   39.30
   4   5 -12   41.00   18.00
   4   5 -12   91.39   20.20
   4   5 -12   30.70   18.30
   3   5 -12  215.48   35.20
   3   5 -12  211.28   27.40
   3   5 -12  233.68   29.60
   3   5 -12  268.87   31.50
   3   5 -12  252.77   32.10
   3   5 -12  222.78   26.80
   3   5 -12  224.58   29.80
   2   5 -12  294.57   35.50
   2   5 -12  335.67   47.70
   2   5 -12  356.96   34.40
   2   5 -12  304.37   41.90
   2   5 -12  350.56   31.40
   2   5 -12  290.47   31.40
  -2  -5  12  349.37   38.10
  -2  -5  12  335.37   32.10
   1   5 -12  370.36   49.60
   1   5 -12  375.96   40.50
   1   5 -12  396.16   32.30
   1   5 -12  379.06   35.70
   1   5 -12  311.37   33.90
  -1  -5  12  379.06   40.70
  -1  -5  12  383.56   33.20
   0   5 -12  392.96   38.50
   0   5 -12  406.66   52.99
   0   5 -12  318.17   35.10
   0   5 -12  458.45   46.40
   0   5 -12  387.56   36.40
   0  -5  12  413.76   35.60
   0  -5  12  395.66   42.80
  -1   5 -12  234.38   40.60
  -1   5 -12   92.89   24.20
  -1   5 -12  153.48   32.90
   1  -5  12  158.48   28.10
   6   4 -12  216.88   34.40
   6   4 -12  281.87   32.80
   6   4 -12  251.17   40.80
   6   4 -12  216.98   26.60
   6   4 -12  299.47   33.20
  -6  -4  12  214.98   29.40
  -6  -4  12  258.57   33.90
   5   4 -12  126.49   21.00
   5   4 -12  106.59   27.50
   5   4 -12  112.59   20.30
   5   4 -12  130.49   20.40
   5   4 -12  171.58   22.50
  -5  -4  12  101.89   21.40
  -5  -4  12  140.49   23.90
   4   4 -12   -1.60   22.10
   4   4 -12   -2.70   16.00
   4   4 -12    1.60   16.70
   4   4 -12    8.60   16.40
   4   4 -12   -0.30   18.00
   4   4 -12    8.80   26.00
   4   4 -12   25.70   16.10
   3   4 -12  307.47   40.40
   3   4 -12  236.88   31.60
   3   4 -12  276.87   27.30
   3   4 -12  282.57   30.50
   3   4 -12  212.88   28.80
   3   4 -12  262.17   35.00
   3   4 -12  246.98   28.20
   2   4 -12  372.26   32.40
   2   4 -12  379.86   33.70
   2   4 -12  452.55   38.10
   2   4 -12  298.57   42.40
   2   4 -12  300.17   29.50
   2   4 -12  338.57   43.30
   2   4 -12  443.86   34.70
  -2  -4  12  358.06   37.50
   1   4 -12  464.95   47.00
   1   4 -12  388.36   30.10
   1   4 -12  377.96   35.00
   1   4 -12  404.36   41.40
   1   4 -12  331.47   33.20
  -1  -4  12  347.57   30.30
  -1  -4  12  372.86   44.80
  -1  -4  12  379.66   38.80
   0   4 -12  293.97   34.20
   0   4 -12  221.28   35.20
   0   4 -12  266.07   43.10
   0   4 -12  322.27   33.20
   0  -4  12  366.76   50.49
   0  -4  12  339.57   39.20
  -1   4 -12   59.49   32.70
  -1   4 -12   89.99   21.90
  -1   4 -12   56.29   31.60
   1  -4  12  127.69   26.10
   1  -4  12  113.79   36.40
   6   3 -12  289.67   33.60
   6   3 -12  280.17   33.60
   6   3 -12  260.47   31.70
   6   3 -12  260.47   34.50
  -6  -3  12  315.07   37.50
  -6  -3  12  188.38   26.20
   5   3 -12   65.09   24.70
   5   3 -12   54.29   19.10
   5   3 -12   47.50   18.20
   5   3 -12   78.19   18.50
   5   3 -12   56.29   26.60
  -5  -3  12   78.99   20.20
  -5  -3  12   31.90   25.30
   4   3 -12   33.60   25.30
   4   3 -12   20.60   20.90
   4   3 -12   -5.10   16.10
   4   3 -12   14.10   17.50
   4   3 -12   26.50   16.90
   4   3 -12   19.20   15.20
   4   3 -12   37.30   16.40
  -4  -3  12   19.10   24.30
   3   3 -12  252.67   31.70
   3   3 -12  249.68   29.30
   3   3 -12  325.67   28.00
   3   3 -12  279.17   39.00
   3   3 -12  244.08   29.80
   3   3 -12  244.58   31.90
  -3  -3  12  247.48   35.10
   2   3 -12  330.07   32.70
   2   3 -12  396.46   41.60
   2   3 -12  331.27   29.50
   2   3 -12  308.97   29.50
   2   3 -12  325.77   37.80
   2   3 -12  400.46   32.60
  -2  -3  12  387.96   35.90
  -2  -3  12  249.58   40.60
   1   3 -12  345.27   41.70
   1   3 -12  260.67   31.90
   1   3 -12  319.17   44.20
   1   3 -12  313.37   30.80
  -1  -3  12  267.87   44.00
  -1  -3  12  284.97   35.60
   0   3 -12  214.18   33.90
   0   3 -12  277.57   43.40
   0   3 -12  249.68   31.60
   0  -3  12  208.58   38.70
   0  -3  12  276.17   36.90
  -1   3 -12   34.80   31.60
  -1   3 -12   37.90   21.00
  -1   3 -12   86.89   31.80
   1  -3  12   59.09   25.80
   1  -3  12   78.09   37.30
   7   2 -12  312.97   35.90
   7   2 -12  240.58   36.20
   7   2 -12  395.36   40.90
   7   2 -12  322.07   38.40
  -7  -2  12  207.88   32.90
  -7  -2  12  257.57   38.40
   6   2 -12  152.88   23.70
   6   2 -12  145.49   28.80
   6   2 -12  196.98   29.10
   6   2 -12  156.68   23.70
   6   2 -12  157.68   30.30
  -6  -2  12  133.59   30.60
  -6  -2  12  113.49   23.80
   5   2 -12  -25.80   16.60
   5   2 -12  -13.20   24.70
   5   2 -12  -11.50   16.90
   5   2 -12  -10.20   17.20
   5   2 -12   14.30   23.10
  -5  -2  12    6.20   24.60
  -5  -2  12    5.20   18.60
   4   2 -12   62.39   19.70
   4   2 -12   43.00   16.40
   4   2 -12   80.59   20.10
   4   2 -12   87.29   25.70
   4   2 -12   48.20   18.00
   4   2 -12   32.80   16.70
  -4  -2  12   54.29   26.40
  -4  -2  12   48.70   19.40
   3   2 -12  254.27   36.60
   3   2 -12  218.88   27.60
   3   2 -12  228.48   32.30
   3   2 -12  244.48   31.50
   3   2 -12  289.27   30.60
   3   2 -12  261.17   29.40
  -3  -2  12  219.48   27.70
  -3  -2  12  243.78   40.50
   2   2 -12  329.77   40.30
   2   2 -12  357.06   37.80
   2   2 -12  260.87   31.40
   2   2 -12  249.97   30.90
   2   2 -12  295.17   28.10
  -2  -2  12  325.47   46.30
  -2  -2  12  259.67   42.30
  -2  -2  12  277.57   40.80
   1   2 -12  339.47   44.10
   1   2 -12  318.27   41.70
   1   2 -12  302.87   30.60
   1   2 -12  323.07   34.60
   1   2 -12  300.27   32.90
  -1  -2  12  357.76   48.50
  -1  -2  12  369.76   35.60
   0   2 -12  303.67   43.60
   0   2 -12  315.97   48.50
   0   2 -12  296.97   34.40
   0   2 -12  303.67   34.20
   0  -2  12  361.86   38.10
   0  -2  12  266.17   42.70
  -1   2 -12  120.19   33.70
  -1   2 -12   62.79   23.30
  -1   2 -12   82.59   30.50
   1  -2  12   13.40   37.60
   1  -2  12   95.79   24.80
   7   1 -12  226.18   27.70
   7   1 -12  246.18   34.60
   7   1 -12  160.28   49.60
   7   1 -12  235.98   33.60
  -7  -1  12  178.28   36.90
  -7  -1  12  199.08   28.10
   6   1 -12  162.98   23.10
   6   1 -12  118.89   22.10
   6   1 -12  123.69   26.90
   6   1 -12  173.48   30.30
  -6  -1  12  137.29   28.90
  -6  -1  12  105.89   24.50
   5   1 -12    5.50   17.10
   5   1 -12  -15.80   22.90
   5   1 -12  -17.30   16.90
   5   1 -12   -5.10   27.70
  -5  -1  12   23.40   25.60
  -5  -1  12  -25.40   19.70
   4   1 -12   75.89   20.50
   4   1 -12   78.49   25.30
   4   1 -12   62.49   18.40
   4   1 -12   84.49   19.40
   4   1 -12   96.79   19.50
  -4  -1  12   89.39   21.50
  -4  -1  12   56.39   20.40
  -4  -1  12   92.79   27.10
   3   1 -12  274.37   43.80
   3   1 -12  297.77   31.70
   3   1 -12  305.37   29.50
   3   1 -12  288.87   35.60
  -3  -1  12  243.78   40.50
  -3  -1  12  273.77   40.10
   2   1 -12  516.85   38.20
   2   1 -12  512.95   36.10
   2   1 -12  445.36   51.09
   2   1 -12  408.96   44.80
   2   1 -12  383.16   42.90
  -2  -1  12  482.95   47.40
  -2  -1  12  475.15   49.70
   1   1 -12  309.67   34.20
   1   1 -12  382.66   32.00
   1   1 -12  329.37   43.40
  -1  -1  12  360.76   35.90
  -1  -1  12  270.77   43.90
  -1  -1  12  355.46   50.89
   0   1 -12  151.18   31.50
   0   1 -12  166.18   24.10
   0   1 -12  168.58   22.80
   0  -1  12  138.69   24.50
   0  -1  12  147.69   40.40
  -1   1 -12  -22.60   22.10
  -1   1 -12   18.00   28.10
   1  -1  12  -19.40   38.80
   1  -1  12   30.80   24.30
   6   0 -12   60.49   20.90
   6   0 -12   60.59   21.00
   6   0 -12   63.79   24.70
  -6   0  12   42.80   22.50
  -6   0  12   70.59   29.60
   5   0 -12   11.70   18.20
   5   0 -12   19.80   20.40
   5   0 -12  -41.10   17.50
  -5   0  12   -7.30   19.90
  -5   0  12   24.30   28.20
   4   0 -12  153.68   31.30
   4   0 -12  168.78   23.20
   4   0 -12  156.78   21.20
   4   0 -12  123.59   20.50
  -4   0  12  145.69   28.40
  -4   0  12  131.99   24.90
  -4   0  12  139.39   24.70
   3   0 -12  376.76   32.10
   3   0 -12  371.26   35.40
   3   0 -12  288.37   42.60
   3   0 -12  368.06   36.30
  -3   0  12  344.47   44.50
  -3   0  12  352.66   44.40
   2   0 -12  524.25   40.90
   2   0 -12  520.75   47.70
   2   0 -12  527.05   38.10
  -2   0  12  434.56   47.80
  -2   0  12  490.65   53.69
   1   0 -12  335.97   44.70
   1   0 -12  315.77   35.60
   1   0 -12  268.97   35.40
  -1   0  12  348.37   43.60
  -1   0  12  310.07   43.50
   0   0 -12   64.79   28.50
   0   0 -12   43.80   22.10
   0   0 -12   89.79   21.70
   0   0  12   78.59   29.40
   0   0  12   44.30   39.60
  -1   0 -12   12.40   30.50
  -1   0 -12    9.70   23.00
   1   0  12  -66.59   41.30
   6  -1 -12  -32.20   22.90
   6  -1 -12  -11.10   19.80
   6  -1 -12   33.30   21.00
  -6   1  12   13.90   31.20
  -6   1  12   17.50   21.30
   5  -1 -12    5.10   19.30
   5  -1 -12   -1.10   19.10
   5  -1 -12   10.40   19.20
  -5   1  12    6.10   20.40
  -5   1  12   28.40   28.50
   4  -1 -12  211.88   29.30
   4  -1 -12  215.48   30.50
   4  -1 -12  276.37   33.30
  -4   1  12  221.88   34.30
  -4   1  12  235.98   31.30
   3  -1 -12  373.46   37.60
   3  -1 -12  369.86   45.70
   3  -1 -12  429.66   35.90
   3  -1 -12  335.37   38.10
  -3   1  12  393.16   49.60
  -3   1  12  426.86   46.00
   2  -1 -12  410.26   37.90
   2  -1 -12  394.66   35.20
   2  -1 -12  324.67   46.60
  -2   1  12  399.66   45.70
  -2   1  12  368.76   43.40
   1  -1 -12  223.78   32.30
   1  -1 -12  210.78   35.60
   1  -1 -12  141.79   25.60
  -1   1  12  192.18   40.90
  -1   1  12  226.28   32.90
   0  -1 -12   47.00   22.70
   0  -1 -12   29.50   22.20
   0  -1 -12   49.70   30.00
   0   1  12   50.99   41.50
   0   1  12   32.80   29.70
   5  -2 -12   69.29   21.20
   5  -2 -12   56.99   21.60
   5  -2 -12   56.99   20.80
  -5   2  12   96.49   30.50
  -5   2  12   82.89   23.40
   4  -2 -12  361.36   35.90
   4  -2 -12  360.46   37.00
   4  -2 -12  361.46   35.20
  -4   2  12  373.66   46.00
  -4   2  12  346.67   48.30
   3  -2 -12  529.25   42.30
   3  -2 -12  510.15   41.70
  -3   2  12  569.44   54.79
  -3   2  12  499.35   50.89
   2  -2 -12  238.18   33.50
   2  -2 -12  194.18   26.70
   2  -2 -12  326.77   43.60
  -2   2  12  246.28   33.60
  -2   2  12  199.88   38.40
   1  -2 -12   53.19   22.80
   1  -2 -12   55.29   29.60
   1  -2 -12   15.70   21.30
  -1   2  12   30.80   29.10
  -1   2  12   45.40   38.00
   0   0   0    0.00    0.00

_computing_structure_solution     'SHELXT 2014/5 (Sheldrick, 2014)'
;
_shelx_hkl_checksum              205
_olex2_date_sample_data_collection 2021-09-27
_olex2_date_sample_submission    2021-09-24
_olex2_exptl_crystal_mounting_method
'Frozen on a Mitegen cryoloop using Paretone oil.'
_olex2_submission_special_instructions 'No special instructions were received'
loop_
_space_group_symop_operation_xyz
'x, y, z'
'-x, -y, -z'
loop_
_atom_site_label
_atom_site_type_symbol
_atom_site_fract_x
_atom_site_fract_y
_atom_site_fract_z
_atom_site_U_iso_or_equiv
_atom_site_adp_type
_atom_site_occupancy
_atom_site_site_symmetry_order
_atom_site_calc_flag
_atom_site_refinement_flags_posn
_atom_site_refinement_flags_adp
_atom_site_refinement_flags_occupancy
_atom_site_disorder_assembly
_atom_site_disorder_group
Au1 Au 0.41928(2) 0.47798(2) 0.23572(2) 0.01434(5) Uani 1 1 d . . . . .
F2 F 0.4772(3) 0.1464(2) 0.0918(2) 0.0221(5) Uani 1 1 d . . . . .
F1 F 0.9315(3) 0.2756(3) -0.0283(3) 0.0278(6) Uani 1 1 d . . . . .
O3 O 0.2660(3) 0.5900(3) 0.3212(3) 0.0190(6) Uani 1 1 d . . . . .
O1 O 0.2765(3) 0.3006(3) 0.2131(3) 0.0185(6) Uani 1 1 d . . . . .
F7 F 0.0950(3) 0.6318(3) 0.6104(3) 0.0353(7) Uani 1 1 d . . . . .
F8 F 0.0102(3) 0.6677(3) 0.3956(3) 0.0355(7) Uani 1 1 d . . . . .
O2 O 0.4434(4) 0.2173(3) 0.3856(3) 0.0219(6) Uani 1 1 d . . . . .
O4 O 0.2928(3) 0.4775(3) 0.5120(3) 0.0194(6) Uani 1 1 d . . . . .
F3 F 0.2440(4) -0.0237(3) 0.3121(4) 0.0532(9) Uani 1 1 d . . . . .
F6 F 0.2079(4) 0.7990(3) 0.5393(4) 0.0470(8) Uani 1 1 d . . . . .
N1 N 0.5510(4) 0.6591(3) 0.2444(3) 0.0143(6) Uani 1 1 d . . . . .
F4 F 0.0950(5) 0.0613(4) 0.1543(4) 0.0778(14) Uani 1 1 d . . . . .
F5 F 0.1112(4) 0.1297(4) 0.3805(5) 0.0733(13) Uani 1 1 d . . . . .
C1 C 0.5185(5) 0.7889(4) 0.2985(4) 0.0179(8) Uani 1 1 d . . . . .
H1 H 0.431397 0.795978 0.336168 0.021 Uiso 1 1 calc R U . . .
C5 C 0.6753(5) 0.6457(4) 0.1890(4) 0.0167(8) Uani 1 1 d . . . . .
C6 C 0.6907(5) 0.4956(4) 0.1339(4) 0.0158(8) Uani 1 1 d . . . . .
C8 C 0.8143(5) 0.3151(4) 0.0269(4) 0.0198(8) Uani 1 1 d . . . . .
C14 C 0.2431(4) 0.5641(4) 0.4426(4) 0.0157(8) Uani 1 1 d . . . . .
C11 C 0.5749(5) 0.3926(4) 0.1437(4) 0.0150(8) Uani 1 1 d . . . . .
C7 C 0.8122(5) 0.4582(4) 0.0769(4) 0.0192(8) Uani 1 1 d . . . . .
H7 H 0.890317 0.528342 0.072560 0.023 Uiso 1 1 calc R U . . .
C4 C 0.7693(5) 0.7652(4) 0.1873(4) 0.0189(8) Uani 1 1 d . . . . .
H4 H 0.855026 0.756422 0.147767 0.023 Uiso 1 1 calc R U . . .
C9 C 0.7047(5) 0.2096(4) 0.0325(4) 0.0206(9) Uani 1 1 d . . . . .
H9 H 0.709873 0.111950 -0.002163 0.025 Uiso 1 1 calc R U . . .
C3 C 0.7373(5) 0.8992(4) 0.2441(4) 0.0206(9) Uani 1 1 d . . . . .
H3 H 0.802222 0.982412 0.244787 0.025 Uiso 1 1 calc R U . . .
C15 C 0.1375(5) 0.6663(4) 0.4970(4) 0.0179(8) Uani 1 1 d . . . . .
C2 C 0.6107(5) 0.9108(4) 0.2995(4) 0.0195(8) Uani 1 1 d . . . . .
H2 H 0.587723 1.001834 0.337780 0.023 Uiso 1 1 calc R U . . .
C10 C 0.5861(5) 0.2515(4) 0.0910(4) 0.0174(8) Uani 1 1 d . . . . .
C12 C 0.3204(5) 0.2144(4) 0.3007(4) 0.0185(8) Uani 1 1 d . . . . .
C13 C 0.1905(6) 0.0947(5) 0.2860(5) 0.0276(10) Uani 1 1 d . . . . .
loop_
_atom_site_aniso_label
_atom_site_aniso_U_11
_atom_site_aniso_U_22
_atom_site_aniso_U_33
_atom_site_aniso_U_23
_atom_site_aniso_U_13
_atom_site_aniso_U_12
Au1 0.01871(8) 0.01382(7) 0.01193(7) 0.00399(5) 0.00471(5) 0.00503(5)
F2 0.0305(15) 0.0150(11) 0.0219(12) 0.0017(9) 0.0107(11) 0.0015(10)
F1 0.0294(15) 0.0242(13) 0.0363(14) 0.0039(11) 0.0201(12) 0.0098(11)
O3 0.0219(16) 0.0211(14) 0.0175(13) 0.0074(11) 0.0076(12) 0.0084(12)
O1 0.0164(15) 0.0198(14) 0.0197(14) 0.0046(11) 0.0046(12) 0.0032(12)
F7 0.0468(18) 0.0468(17) 0.0238(13) 0.0143(12) 0.0197(13) 0.0248(14)
F8 0.0261(15) 0.0560(18) 0.0249(13) 0.0064(13) 0.0036(12) 0.0208(14)
O2 0.0245(17) 0.0230(15) 0.0189(14) 0.0070(12) 0.0043(13) 0.0051(13)
O4 0.0229(16) 0.0193(14) 0.0162(13) 0.0047(11) 0.0028(12) 0.0073(12)
F3 0.044(2) 0.0251(15) 0.097(3) 0.0253(17) 0.0210(19) 0.0064(14)
F6 0.0412(19) 0.0178(13) 0.082(2) -0.0101(14) 0.0317(18) -0.0022(13)
N1 0.0194(18) 0.0134(15) 0.0122(14) 0.0034(12) 0.0057(13) 0.0067(13)
F4 0.077(3) 0.059(2) 0.067(2) 0.031(2) -0.035(2) -0.041(2)
F5 0.067(3) 0.0425(19) 0.123(3) -0.012(2) 0.074(3) -0.0093(18)
C1 0.023(2) 0.0177(19) 0.0146(18) 0.0037(15) 0.0061(16) 0.0072(16)
C5 0.021(2) 0.0170(18) 0.0130(17) 0.0054(14) 0.0024(16) 0.0066(16)
C6 0.020(2) 0.0172(18) 0.0085(16) 0.0013(14) 0.0021(15) 0.0038(16)
C8 0.021(2) 0.025(2) 0.0168(18) 0.0043(16) 0.0090(17) 0.0121(17)
C14 0.0110(19) 0.0163(18) 0.0174(18) 0.0000(15) 0.0024(15) -0.0008(15)
C11 0.014(2) 0.0215(19) 0.0090(16) 0.0051(14) 0.0004(15) 0.0059(16)
C7 0.020(2) 0.022(2) 0.0168(18) 0.0053(15) 0.0044(16) 0.0041(17)
C4 0.017(2) 0.0207(19) 0.0197(19) 0.0044(16) 0.0048(16) 0.0045(16)
C9 0.030(2) 0.0173(19) 0.0166(18) 0.0026(15) 0.0080(18) 0.0100(17)
C3 0.025(2) 0.0144(18) 0.0207(19) 0.0036(15) 0.0036(18) 0.0005(17)
C15 0.015(2) 0.0200(19) 0.0176(18) 0.0031(15) 0.0018(16) 0.0018(16)
C2 0.029(2) 0.0126(17) 0.0165(18) 0.0030(15) 0.0037(17) 0.0062(17)
C10 0.023(2) 0.0179(18) 0.0122(17) 0.0054(14) 0.0041(16) 0.0029(16)
C12 0.025(2) 0.0159(18) 0.0170(18) 0.0017(15) 0.0106(18) 0.0036(17)
C13 0.031(3) 0.021(2) 0.033(2) 0.0069(18) 0.011(2) 0.0069(19)
loop_
_atom_type_symbol
_atom_type_description
_atom_type_scat_dispersion_real
_atom_type_scat_dispersion_imag
_atom_type_scat_source
C C 0.0033 0.0016 'International Tables Vol C Tables 4.2.6.8 and 6.1.1.4'
H H 0.0000 0.0000 'International Tables Vol C Tables 4.2.6.8 and 6.1.1.4'
Au Au -2.0133 8.8022 'International Tables Vol C Tables 4.2.6.8 and 6.1.1.4'
F F 0.0171 0.0103 'International Tables Vol C Tables 4.2.6.8 and 6.1.1.4'
N N 0.0061 0.0033 'International Tables Vol C Tables 4.2.6.8 and 6.1.1.4'
O O 0.0106 0.0060 'International Tables Vol C Tables 4.2.6.8 and 6.1.1.4'
loop_
_geom_angle_atom_site_label_1
_geom_angle_atom_site_label_2
_geom_angle_atom_site_label_3
_geom_angle
_geom_angle_site_symmetry_1
_geom_angle_site_symmetry_3
_geom_angle_publ_flag
O1 Au1 O3 87.60(11) . . ?
O1 Au1 N1 175.45(12) . . ?
O1 Au1 C11 98.89(14) . . ?
N1 Au1 O3 91.37(12) . . ?
N1 Au1 C11 81.86(14) . . ?
C11 Au1 O3 172.50(13) . . ?
C14 O3 Au1 117.4(2) . . ?
C12 O1 Au1 116.8(3) . . ?
C1 N1 Au1 122.5(3) . . ?
C1 N1 C5 121.0(3) . . ?
C5 N1 Au1 116.5(2) . . ?
N1 C1 H1 119.7 . . ?
N1 C1 C2 120.5(4) . . ?
C2 C1 H1 119.7 . . ?
N1 C5 C6 112.9(3) . . ?
N1 C5 C4 120.1(3) . . ?
C4 C5 C6 127.0(4) . . ?
C11 C6 C5 115.7(3) . . ?
C7 C6 C5 122.1(4) . . ?
C7 C6 C11 122.2(4) . . ?
F1 C8 C7 118.6(4) . . ?
F1 C8 C9 118.0(4) . . ?
C9 C8 C7 123.4(4) . . ?
O3 C14 C15 110.2(3) . . ?
O4 C14 O3 129.5(4) . . ?
O4 C14 C15 120.3(3) . . ?
C6 C11 Au1 113.1(3) . . ?
C10 C11 Au1 130.3(3) . . ?
C10 C11 C6 116.6(4) . . ?
C6 C7 H7 121.3 . . ?
C8 C7 C6 117.3(4) . . ?
C8 C7 H7 121.3 . . ?
C5 C4 H4 120.4 . . ?
C5 C4 C3 119.2(4) . . ?
C3 C4 H4 120.4 . . ?
C8 C9 H9 121.3 . . ?
C8 C9 C10 117.4(4) . . ?
C10 C9 H9 121.3 . . ?
C4 C3 H3 120.1 . . ?
C2 C3 C4 119.9(4) . . ?
C2 C3 H3 120.1 . . ?
F7 C15 C14 112.2(3) . . ?
F8 C15 F7 106.8(3) . . ?
F8 C15 F6 107.4(3) . . ?
F8 C15 C14 112.5(3) . . ?
F6 C15 F7 106.7(3) . . ?
F6 C15 C14 111.0(3) . . ?
C1 C2 C3 119.2(4) . . ?
C1 C2 H2 120.4 . . ?
C3 C2 H2 120.4 . . ?
F2 C10 C11 120.5(4) . . ?
F2 C10 C9 116.4(3) . . ?
C11 C10 C9 123.1(4) . . ?
O1 C12 C13 110.9(4) . . ?
O2 C12 O1 129.4(4) . . ?
O2 C12 C13 119.7(4) . . ?
F3 C13 F4 106.0(4) . . ?
F3 C13 C12 111.6(4) . . ?
F4 C13 C12 113.4(4) . . ?
F5 C13 F3 106.4(4) . . ?
F5 C13 F4 108.4(5) . . ?
F5 C13 C12 110.8(4) . . ?
loop_
_geom_bond_atom_site_label_1
_geom_bond_atom_site_label_2
_geom_bond_distance
_geom_bond_site_symmetry_2
_geom_bond_publ_flag
Au1 O3 2.070(3) . ?
Au1 O1 1.999(3) . ?
Au1 N1 2.003(3) . ?
Au1 C11 2.004(4) . ?
F2 C10 1.354(5) . ?
F1 C8 1.355(4) . ?
O3 C14 1.300(4) . ?
O1 C12 1.301(5) . ?
F7 C15 1.330(4) . ?
F8 C15 1.326(5) . ?
O2 C12 1.212(5) . ?
O4 C14 1.205(5) . ?
F3 C13 1.313(5) . ?
F6 C15 1.327(5) . ?
N1 C1 1.353(5) . ?
N1 C5 1.367(5) . ?
F4 C13 1.327(6) . ?
F5 C13 1.313(5) . ?
C1 H1 0.9500 . ?
C1 C2 1.378(6) . ?
C5 C6 1.481(5) . ?
C5 C4 1.376(6) . ?
C6 C11 1.413(6) . ?
C6 C7 1.394(6) . ?
C8 C7 1.381(5) . ?
C8 C9 1.377(6) . ?
C14 C15 1.546(5) . ?
C11 C10 1.387(5) . ?
C7 H7 0.9500 . ?
C4 H4 0.9500 . ?
C4 C3 1.394(5) . ?
C9 H9 0.9500 . ?
C9 C10 1.389(6) . ?
C3 H3 0.9500 . ?
C3 C2 1.386(6) . ?
C2 H2 0.9500 . ?
C12 C13 1.539(6) . ?
loop_
_geom_torsion_atom_site_label_1
_geom_torsion_atom_site_label_2
_geom_torsion_atom_site_label_3
_geom_torsion_atom_site_label_4
_geom_torsion
_geom_torsion_site_symmetry_1
_geom_torsion_site_symmetry_2
_geom_torsion_site_symmetry_3
_geom_torsion_site_symmetry_4
_geom_torsion_publ_flag
Au1 O3 C14 O4 -4.2(6) . . . . ?
Au1 O3 C14 C15 174.9(2) . . . . ?
Au1 O1 C12 O2 -8.7(5) . . . . ?
Au1 O1 C12 C13 171.8(2) . . . . ?
Au1 N1 C1 C2 -178.6(3) . . . . ?
Au1 N1 C5 C6 -1.0(4) . . . . ?
Au1 N1 C5 C4 178.2(3) . . . . ?
Au1 C11 C10 F2 2.8(5) . . . . ?
Au1 C11 C10 C9 -178.5(3) . . . . ?
F1 C8 C7 C6 -179.6(3) . . . . ?
F1 C8 C9 C10 179.3(3) . . . . ?
O3 C14 C15 F7 171.8(3) . . . . ?
O3 C14 C15 F8 51.4(4) . . . . ?
O3 C14 C15 F6 -68.9(4) . . . . ?
O1 C12 C13 F3 149.0(4) . . . . ?
O1 C12 C13 F4 29.5(5) . . . . ?
O1 C12 C13 F5 -92.7(5) . . . . ?
O2 C12 C13 F3 -30.6(5) . . . . ?
O2 C12 C13 F4 -150.1(4) . . . . ?
O2 C12 C13 F5 87.7(5) . . . . ?
O4 C14 C15 F7 -9.0(5) . . . . ?
O4 C14 C15 F8 -129.5(4) . . . . ?
O4 C14 C15 F6 110.2(4) . . . . ?
N1 C1 C2 C3 0.1(6) . . . . ?
N1 C5 C6 C11 1.5(5) . . . . ?
N1 C5 C6 C7 -178.1(3) . . . . ?
N1 C5 C4 C3 0.8(6) . . . . ?
C1 N1 C5 C6 -179.4(3) . . . . ?
C1 N1 C5 C4 -0.2(6) . . . . ?
C5 N1 C1 C2 -0.2(6) . . . . ?
C5 C6 C11 Au1 -1.3(4) . . . . ?
C5 C6 C11 C10 179.2(3) . . . . ?
C5 C6 C7 C8 -179.3(4) . . . . ?
C5 C4 C3 C2 -0.9(6) . . . . ?
C6 C5 C4 C3 179.9(4) . . . . ?
C6 C11 C10 F2 -177.8(3) . . . . ?
C6 C11 C10 C9 0.8(6) . . . . ?
C8 C9 C10 F2 178.2(3) . . . . ?
C8 C9 C10 C11 -0.5(6) . . . . ?
C11 C6 C7 C8 1.2(6) . . . . ?
C7 C6 C11 Au1 178.3(3) . . . . ?
C7 C6 C11 C10 -1.2(5) . . . . ?
C7 C8 C9 C10 0.4(6) . . . . ?
C4 C5 C6 C11 -177.6(4) . . . . ?
C4 C5 C6 C7 2.8(6) . . . . ?
C4 C3 C2 C1 0.5(6) . . . . ?
C9 C8 C7 C6 -0.8(6) . . . . ?
