#------------------------------------------------------------------------------
#$Date: 2022-02-24 01:52:35 +0200 (Thu, 24 Feb 2022) $
#$Revision: 273135 $
#$URL: file:///home/coder/svn-repositories/cod/cif/7/70/95/7709599.cif $
#------------------------------------------------------------------------------
#
# This file is available in the Crystallography Open Database (COD),
# http://www.crystallography.net/
#
# All data on this site have been placed in the public domain by the
# contributors.
#
data_7709599
loop_
_publ_author_name
'Tang, Chunlan'
'Xing, Wen-Hao'
'Wang, Naizheng'
'Tang, Jian'
'Lin, Zheshuai'
'Wu, Jieyun'
'Yin, Wenlong'
'Bin, Kang'
_publ_section_title
;
 The synthesis and structure-property relation analysis of metal
 chalcohalide crystals Cs2InPS4X2 (X = Cl, Br) with mixed anions
;
_journal_name_full               'Dalton Transactions'
_journal_paper_doi               10.1039/D2DT00078D
_journal_year                    2022
_chemical_formula_moiety         'Br2 Cs2 In P S4'
_chemical_formula_sum            'Br2 Cs2 In P S4'
_chemical_formula_weight         699.67
_space_group_crystal_system      monoclinic
_space_group_IT_number           14
_space_group_name_Hall           '-P 2yn'
_space_group_name_H-M_alt        'P 1 21/n 1'
_atom_sites_solution_primary     iterative
_audit_creation_date             2021-06-09
_audit_creation_method
;
Olex2 1.2
(compiled 2018.05.29 svn.r3508 for OlexSys, GUI svn.r5506)
;
_cell_angle_alpha                90
_cell_angle_beta                 97.011(4)
_cell_angle_gamma                90
_cell_formula_units_Z            4
_cell_length_a                   9.8353(4)
_cell_length_b                   7.9969(3)
_cell_length_c                   16.4742(6)
_cell_measurement_reflns_used    8614
_cell_measurement_temperature    296.67(10)
_cell_measurement_theta_max      32.0980
_cell_measurement_theta_min      3.2580
_cell_volume                     1286.04(9)
_computing_cell_refinement       'CrysAlisPro 1.171.39.44a (Rigaku OD, 2018)'
_computing_data_collection       'CrysAlisPro 1.171.39.44a (Rigaku OD, 2018)'
_computing_data_reduction        'CrysAlisPro 1.171.39.44a (Rigaku OD, 2018)'
_computing_molecular_graphics    'Olex2 (Dolomanov et al., 2009)'
_computing_publication_material  'Olex2 (Dolomanov et al., 2009)'
_computing_structure_refinement  'ShelXL (Sheldrick, 2015)'
_computing_structure_solution    'olex2.solve (Bourhis et al., 2015)'
_diffrn_ambient_environment      air
_diffrn_ambient_temperature      296.67(10)
_diffrn_detector                 'CCD plate'
_diffrn_detector_type            HyPix
_diffrn_measured_fraction_theta_full 0.998
_diffrn_measured_fraction_theta_max 0.875
_diffrn_measurement_details
;
List of Runs (angles in degrees, time in seconds):

  # Type    Start    End  Width  t~exp~   \w     \q     \k     \f   Frames
--------------------------------------------------------------------------
  1  \w     -5.00  79.00   0.50    5.50    --    9.62  77.00   0.00  168
  2  \w      1.00  80.00   0.50    5.50    --    9.62  57.00 -90.00  158
  3  \w    -20.00  25.00   0.50    5.50    --   -8.52 -99.00 -60.00   90
  4  \w    -26.00  -1.00   0.50    5.50    --   -8.52 -99.00 120.00   50
  5  \w    -25.00  20.00   0.50    5.50    --    9.62 -99.00 150.00   90
  6  \w    -58.00  21.00   0.50    5.50    --    9.62 -37.00  60.00  158
  7  \w     12.00  43.00   0.50    5.50    --    9.62 -99.00-150.00   62
  8  \w    -25.00  39.00   0.50    5.50    --    9.62 -99.00-180.00  128
;
_diffrn_measurement_device       'four-circle diffractometer'
_diffrn_measurement_device_type  'XtaLAB Synergy, Dualflex, HyPix'
_diffrn_measurement_method       '\w scans'
_diffrn_orient_matrix_type
'CrysAlisPro convention (1999,Acta A55,543-557)'
_diffrn_orient_matrix_UB_11      0.0553166000
_diffrn_orient_matrix_UB_12      0.0571789000
_diffrn_orient_matrix_UB_13      0.0010180000
_diffrn_orient_matrix_UB_21      -0.0065203000
_diffrn_orient_matrix_UB_22      -0.0002600000
_diffrn_orient_matrix_UB_23      -0.0433555000
_diffrn_orient_matrix_UB_31      -0.0466675000
_diffrn_orient_matrix_UB_32      0.0677990000
_diffrn_orient_matrix_UB_33      -0.0009675000
_diffrn_radiation_monochromator  mirror
_diffrn_radiation_probe          x-ray
_diffrn_radiation_type           MoK\a
_diffrn_radiation_wavelength     0.71073
_diffrn_reflns_av_R_equivalents  0.0364
_diffrn_reflns_av_unetI/netI     0.0321
_diffrn_reflns_Laue_measured_fraction_full 0.998
_diffrn_reflns_Laue_measured_fraction_max 0.875
_diffrn_reflns_limit_h_max       14
_diffrn_reflns_limit_h_min       -13
_diffrn_reflns_limit_k_max       10
_diffrn_reflns_limit_k_min       -11
_diffrn_reflns_limit_l_max       18
_diffrn_reflns_limit_l_min       -24
_diffrn_reflns_number            19817
_diffrn_reflns_point_group_measured_fraction_full 0.998
_diffrn_reflns_point_group_measured_fraction_max 0.875
_diffrn_reflns_theta_full        25.242
_diffrn_reflns_theta_max         32.433
_diffrn_reflns_theta_min         3.293
_diffrn_source                   'micro-focus sealed X-ray tube'
_diffrn_source_type              'PhotonJet (Mo) X-ray Source'
_exptl_absorpt_coefficient_mu    14.347
_exptl_absorpt_correction_T_max  1.00000
_exptl_absorpt_correction_T_min  0.75655
_exptl_absorpt_correction_type   multi-scan
_exptl_absorpt_process_details
;
CrysAlisPro 1.171.39.44a (Rigaku Oxford Diffraction, 2018)
Empirical absorption correction using spherical harmonics,
 implemented in SCALE3 ABSPACK scaling algorithm.
;
_exptl_crystal_colour            'clear light colourless'
_exptl_crystal_colour_lustre     clear
_exptl_crystal_colour_modifier   light
_exptl_crystal_colour_primary    colourless
_exptl_crystal_density_diffrn    3.614
_exptl_crystal_description       block
_exptl_crystal_F_000             1232
_exptl_crystal_size_max          0.12
_exptl_crystal_size_mid          0.09
_exptl_crystal_size_min          0.07
_refine_diff_density_max         1.477
_refine_diff_density_min         -1.493
_refine_diff_density_rms         0.151
_refine_ls_extinction_coef       0.00059(6)
_refine_ls_extinction_expression Fc^*^=kFc[1+0.001xFc^2^\l^3^/sin(2\q)]^-1/4^
_refine_ls_extinction_method     'SHELXL-2017/1 (Sheldrick 2017)'
_refine_ls_goodness_of_fit_ref   1.070
_refine_ls_hydrogen_treatment    undef
_refine_ls_matrix_type           full
_refine_ls_number_parameters     92
_refine_ls_number_reflns         4051
_refine_ls_number_restraints     0
_refine_ls_restrained_S_all      1.070
_refine_ls_R_factor_all          0.0445
_refine_ls_R_factor_gt           0.0263
_refine_ls_shift/su_max          0.001
_refine_ls_shift/su_mean         0.000
_refine_ls_structure_factor_coef Fsqd
_refine_ls_weighting_details
'w=1/[\s^2^(Fo^2^)+(0.0165P)^2^+1.0071P] where P=(Fo^2^+2Fc^2^)/3'
_refine_ls_weighting_scheme      calc
_refine_ls_wR_factor_gt          0.0529
_refine_ls_wR_factor_ref         0.0570
_reflns_Friedel_coverage         0.000
_reflns_number_gt                2928
_reflns_number_total             4051
_reflns_threshold_expression     'I > 2\s(I)'
_cod_data_source_file            d2dt00078d1.cif
_cod_data_source_block           Cs2Br2InPS4
_cod_database_code               7709599
_shelx_shelxl_version_number     2017/1
_chemical_oxdiff_formula         InPSCsBr
_chemical_oxdiff_usercomment     'hemisphere  0.75  0.5  5.5s  RT'
_shelx_space_group_comment
;
The symmetry employed for this shelxl refinement is uniquely defined
by the following loop, which should always be used as a source of
symmetry information in preference to the above space-group names.
They are only intended as comments.
;
_shelx_estimated_absorpt_t_max   0.433
_shelx_estimated_absorpt_t_min   0.278
_reflns_odcompleteness_completeness 99.80
_reflns_odcompleteness_iscentric 1
_reflns_odcompleteness_theta     28.22
_olex2_refinement_description
;
;
_shelx_res_file
;
TITL exp_8045_a.res in P2(1)/n
    exp_8045.res
    created by SHELXL-2017/1 at 10:57:04 on 09-Jun-2021
REM Old TITL exp_8045 In P2(1)/n
REM SHELXT solution In P2(1)/n
REM R1 0.087, Rweak 0.001, Alpha 0.015, Orientation as input
REM Formula found by SHELXT: P S4 Br2 In3
CELL 0.71073 9.8353 7.9969 16.4742 90 97.011 90
ZERR 4 0.0004 0.0003 0.0006 0 0.004 0
LATT 1
SYMM 0.5-X,0.5+Y,0.5-Z
SFAC Br Cs In P S
UNIT 8 8 4 4 16

L.S. 4 0 0
PLAN  20
SIZE 0.07 0.09 0.12
list 4
fmap 2 53
acta
REM <olex2.extras>
REM <HklSrc "%.\\exp_8045.hkl">
REM </olex2.extras>

WGHT    0.016500    1.007100
EXTI    0.000590
FVAR       0.14286
IN    3    0.682678    0.500098    0.445061    11.00000    0.02147    0.02675 =
         0.01865    0.00181   -0.00020   -0.00002
CS1   2    0.559312    0.001187    0.273200    11.00000    0.03705    0.03511 =
         0.03983   -0.00248    0.00367    0.00242
CS2   2    0.351764    0.499984    0.091198    11.00000    0.04215    0.03457 =
         0.03672    0.00274    0.01322    0.00826
BR2   1    0.837794    0.747116    0.400348    11.00000    0.03164    0.02955 =
         0.03890   -0.00124    0.00779   -0.00946
BR1   1    0.827369    0.253081    0.390716    11.00000    0.03516    0.02873 =
         0.03601   -0.00218    0.00810    0.00589
P     4    0.364138    0.410325    0.361644    11.00000    0.02063    0.02179 =
         0.01745   -0.00089   -0.00082   -0.00202
S1    5    0.461583    0.275942    0.458989    11.00000    0.02745    0.02551 =
         0.02231    0.00440   -0.00136    0.00101
S2    5    0.273186    0.277299    0.269473    11.00000    0.03446    0.02680 =
         0.02200   -0.00455   -0.00359   -0.00495
S4    5    0.218107    0.550339    0.411826    11.00000    0.02900    0.04004 =
         0.02018   -0.00122   -0.00160    0.01184
S3    5    0.516387    0.557019    0.322254    11.00000    0.02622    0.03803 =
         0.02448    0.01156   -0.00348   -0.00867
HKLF 4




REM  exp_8045_a.res in P2(1)/n
REM R1 =  0.0263 for    2928 Fo > 4sig(Fo)  and  0.0445 for all    4051 data
REM     92 parameters refined using      0 restraints

END

WGHT      0.0165      1.0071

REM Highest difference peak  1.477,  deepest hole -1.493,  1-sigma level  0.151
Q1    1   0.2791  0.4748  0.0808  11.00000  0.05    1.48
Q2    1   0.5594 -0.0210  0.3179  11.00000  0.05    1.04
Q3    1   0.8846  0.6957  0.4337  11.00000  0.05    0.78
Q4    1   0.6208  0.0343  0.2796  11.00000  0.05    0.74
Q5    1   0.5152  0.4382  0.3186  11.00000  0.05    0.74
Q6    1   0.3775  0.4663  0.1016  11.00000  0.05    0.71
Q7    1   0.8746  0.3195  0.4067  11.00000  0.05    0.59
Q8    1   0.5570 -0.0322  0.2555  11.00000  0.05    0.58
Q9    1   0.7537  0.2657  0.4009  11.00000  0.05    0.57
Q10   1   0.3072  0.2183  0.3195  11.00000  0.05    0.54
Q11   1   0.4994  0.5690  0.3049  11.00000  0.05    0.54
Q12   1   0.7407  0.5462  0.4211  11.00000  0.05    0.53
Q13   1   0.4644  0.5025  0.1058  11.00000  0.05    0.52
Q14   1   0.7645  0.8398  0.3915  11.00000  0.05    0.51
Q15   1   0.7827  0.3206  0.3647  11.00000  0.05    0.50
Q16   1   0.3256  0.3400  0.3188  11.00000  0.05    0.50
Q17   1   0.8940  0.3214  0.3593  11.00000  0.05    0.49
Q18   1   0.3265  0.1531  0.4345  11.00000  0.05    0.49
Q19   1   0.4362  0.4960  0.3582  11.00000  0.05    0.49
Q20   1   0.6355  0.0590  0.2426  11.00000  0.05    0.48
;
_shelx_res_checksum              45434
_shelx_hkl_file
;
   0   0  -3    0.14    0.22
   0   0  -3    0.06    0.20
   0   0   4  496.69   20.94
   0   0  -4  530.32   21.08
   0   0  -4  522.61   20.97
   0   0   5    0.10    0.37
   0   0  -5    0.10    0.32
   0   0  -5    0.36    0.42
   0   0  -6 4355.37  174.34
   0   0  -6 4380.10  173.60
   0   0  -6 4424.99  174.19
   0   0  -7    1.02    0.56
   0   0  -7   -0.17    0.60
   0   0  -7    0.15    0.24
   0   0  -8    6.14    0.56
   0   0  -8    5.71    0.92
   0   0  -9    0.19    0.67
   0   0  -9    0.12    0.31
   0   0 -10  122.95    5.85
   0   0 -10  103.11    4.73
   0   0  10  117.43    5.89
   0   0  11    0.84    0.95
   0   0 -11    0.96    0.95
   0   0  11   -0.50    1.02
   0   0 -11    0.06    0.40
   0   0  12    3.54    1.37
   0   0 -12    5.33    1.28
   0   0  12    2.30    1.23
   0   0  13    1.50    1.16
   0   0 -13   -1.46    1.16
   0   0  13    2.36    1.29
   0   0 -14   91.72    5.63
   0   0  14   94.82    5.73
   0   0  14   91.98    5.38
   0   0 -15    1.04    1.64
   0   0  15    0.28    1.31
   0   0  15    2.04    1.46
   0   0 -16  157.38    8.29
   0   0 -16  188.82    9.38
   0   0 -17   -0.81    1.75
   0   0 -17    0.26    1.20
   0   0 -18  135.15    7.85
   0   0 -18  122.21    6.77
   0   0 -19   -2.29    1.81
   0   0 -19    0.28    1.49
   0   0 -20   35.44    3.99
   0   0 -20   30.01    3.02
   0   0 -21    1.03    2.30
   0   0 -22  216.32   12.08
   0  -1   2   40.92    1.71
   0   1  -2   37.00    1.81
   0   1  -2   33.10    1.78
   0   1   2   29.75    1.82
   0   1   2   36.13    1.90
   0  -1  -2   37.76    1.85
   0  -1   2   39.85    1.86
   0  -1  -2   36.99    1.69
   0  -1  -3  245.88    9.92
   0  -1   3  240.77    9.74
   0   1   3  226.35    9.90
   0   1   3  241.11    9.94
   0  -1  -3  231.23    9.69
   0   1  -3  238.16    9.85
   0  -1   3  231.72    9.80
   0   1  -3  232.08    9.81
   0   1  -4    1.73    0.41
   0   1   4    2.22    0.55
   0  -1  -4    2.12    0.38
   0  -1  -4    2.89    0.55
   0   1  -4    2.25    0.30
   0  -1   4    2.10    0.48
   0  -1   4    1.89    0.44
   0  -1  -5    0.66    0.36
   0   1  -5    1.69    0.48
   0  -1   5    1.87    0.56
   0   1  -5    0.82    0.45
   0  -1  -5    0.92    0.48
   0  -1  -6   12.08    1.21
   0  -1   6   12.97    1.19
   0   1  -6   11.37    1.17
   0  -1  -6   10.22    1.02
   0   1  -6   12.59    1.09
   0  -1   7  256.18   11.30
   0  -1  -7  258.00   11.21
   0  -1  -7  261.63   11.55
   0   1  -7  271.04   11.17
   0   1   7  248.60   11.10
   0   1  -7  260.39   11.37
   0   1   8   27.76    1.93
   0   1  -8   23.89    1.84
   0  -1  -8   27.70    2.20
   0  -1   8   27.92    2.05
   0  -1  -8   24.71    1.89
   0   1  -8   22.33    1.96
   0  -1   9 1825.00   73.13
   0   1  -9 1822.87   72.84
   0   1  -9 1821.23   73.21
   0  -1  -9 1845.58   73.44
   0   1  -9 1739.84   73.22
   0  -1  -9 1830.78   73.04
   0  -1 -10  254.44   11.66
   0  -1 -10  268.20   12.13
   0  -1  10  258.14   11.75
   0   1 -10  255.65   11.41
   0   1 -10  263.01   11.86
   0   1 -10  257.16   11.88
   0  -1  11   95.11    5.16
   0  -1 -11   78.42    4.88
   0   1  11   94.64    4.90
   0   1 -11   93.44    5.20
   0   1  11   86.84    5.16
   0  -1 -11   86.39    4.29
   0   1 -11   95.30    5.30
   0  -1 -11   95.19    5.44
   0   1 -11   83.68    4.66
   0   1  12   36.18    2.85
   0   1 -12   36.98    2.71
   0   1 -12   37.82    3.06
   0  -1 -12   41.47    3.39
   0   1  12   41.34    3.20
   0  -1 -12   42.02    3.09
   0  -1 -12   42.18    2.38
   0  -1  12   40.42    3.15
   0   1 -12   38.76    3.22
   0   1  13  285.77   13.10
   0   1 -13  302.63   13.34
   0  -1 -13  265.80   12.84
   0  -1  13  288.94   13.00
   0  -1 -13  299.95   13.50
   0  -1 -13  268.09   11.81
   0   1 -13  259.41   12.95
   0   1  13  270.51   12.58
   0   1 -14   25.51    2.82
   0  -1 -14   28.51    3.06
   0  -1 -14   26.34    2.76
   0  -1  14   24.79    2.74
   0  -1 -14   27.99    1.90
   0   1 -14   28.29    2.82
   0   1  14   33.58    3.06
   0   1  14   25.95    2.56
   0   1 -15  274.31   12.96
   0   1 -15  318.59   13.83
   0  -1 -15  269.26   13.99
   0  -1  15  289.58   13.67
   0  -1 -15  273.44   12.23
   0  -1 -15  304.12   13.81
   0   1  15  302.45   13.43
   0   1 -15  289.97   13.88
   0   1  15  308.20   13.92
   0   1 -16   40.13    3.50
   0   1 -16   28.61    2.56
   0   1  16   32.35    2.98
   0  -1 -16   26.71    1.93
   0  -1 -16   30.88    3.14
   0   1 -17  107.79    6.55
   0   1 -17   90.49    5.38
   0  -1 -17   97.63    6.26
   0   1 -18    8.02    1.77
   0   1 -18    6.26    2.16
   0  -1 -18    5.38    2.02
   0   1 -19   39.48    4.09
   0   1 -19   32.09    2.81
   0   1 -19   36.87    3.07
   0  -1 -19   33.97    3.82
   0  -1 -20   -0.47    2.20
   0   1 -20   -1.51    2.20
   0   1 -20   -0.72    1.39
   0   1 -21    6.16    2.51
   0   1 -21    3.19    2.43
   0  -1 -21    4.99    2.69
   0   1 -21    4.38    1.64
   0  -1 -22    1.57    2.42
   0   1 -22   -1.98    2.28
   0   1 -22   -0.56    2.61
   0  -2   0 1766.43   70.61
   0  -2   1    0.24    0.24
   0   2  -1    1.31    0.54
   0  -2  -1    0.88    0.49
   0  -2  -1    1.52    0.46
   0  -2   1    0.63    0.49
   0  -2  -1    0.96    0.27
   0  -2  -2   22.20    1.68
   0  -2   2   28.58    1.75
   0   2   2   25.50    1.28
   0  -2   2   25.34    1.49
   0  -2  -2   27.73    1.77
   0  -2  -2   28.84    1.53
   0  -2   2   26.74    1.40
   0   2   2   28.08    1.72
   0   2   3    0.62    0.51
   0  -2  -3    0.59    0.25
   0  -2   3    0.60    0.28
   0   2   3    0.52    0.24
   0   2  -3    0.19    0.23
   0  -2   3    0.12    0.26
   0  -2  -3    0.09    0.39
   0  -2   3    0.11    0.36
   0   2  -3    0.33    0.29
   0  -2   3    0.35    0.28
   0  -2   4  370.97   14.80
   0  -2  -4  369.22   15.03
   0   2   4  352.96   14.93
   0   2  -4  373.10   15.03
   0   2   4  365.34   15.49
   0  -2   4  365.88   15.34
   0   2  -4  373.28   15.08
   0  -2  -4  378.62   15.38
   0  -2   4  358.74   15.00
   0   2  -5    0.58    0.39
   0   2  -5    0.46    0.22
   0   2   5    0.31    0.55
   0  -2   5    0.26    0.45
   0  -2  -5    0.09    0.34
   0   2   5    0.24    0.35
   0  -2   5   -0.27    0.39
   0   2  -5    0.09    0.31
   0   2  -5   -0.48    0.51
   0  -2  -5   -0.43    0.55
   0   2  -6  443.01   17.48
   0  -2   6  424.40   17.57
   0  -2  -6  428.29   17.80
   0   2   6  417.05   17.28
   0   2   6  423.75   17.82
   0   2  -6  412.52   17.51
   0  -2  -6  412.89   17.37
   0  -2   6  413.64   17.40
   0   2  -6  412.11   16.89
   0   2  -6  422.85   17.39
   0   2   7    0.77    0.78
   0   2   7    1.75    0.56
   0   2  -7    2.68    0.41
   0   2  -7    1.24    0.75
   0  -2  -7    1.44    0.53
   0   2  -7    2.41    0.64
   0  -2   7    1.50    0.74
   0  -2  -7    2.14    0.89
   0   2  -7    1.75    0.64
   0   2  -7    4.64    0.83
   0  -2  -8  676.10   27.91
   0  -2  -8  665.59   27.40
   0   2  -8  665.57   27.42
   0   2   8  649.16   27.26
   0   2  -8  663.06   27.42
   0   2   8  684.27   27.88
   0   2  -8  723.95   27.64
   0   2  -8  670.03   27.78
   0  -2   8  668.68   27.46
   0   2  -8  641.46   26.77
   0   2  -9   86.52    4.10
   0  -2  -9   92.13    5.16
   0   2  -9   93.13    4.71
   0   2   9   86.88    4.58
   0   2  -9   93.10    4.89
   0   2  -9   88.50    4.99
   0   2   9   95.65    5.14
   0  -2  -9   90.59    4.72
   0  -2   9   87.48    4.75
   0   2 -10  215.61   10.01
   0   2 -10  196.14    8.94
   0  -2 -10  209.10    9.66
   0  -2  10  201.55    9.67
   0   2 -10  208.46    9.54
   0   2  10  228.44   10.20
   0  -2 -10  218.73   10.24
   0   2 -10  219.85    9.91
   0  -2  10  214.85    9.77
   0   2 -11    1.60    1.07
   0  -2  11    1.13    1.03
   0   2  11    1.70    1.23
   0   2 -11    0.11    0.52
   0  -2 -11    2.20    1.00
   0   2 -11    1.26    1.10
   0   2 -11    2.46    1.01
   0  -2 -11    1.51    1.19
   0   2  11    0.19    0.88
   0   2  12   64.63    3.84
   0   2 -12   58.69    4.11
   0  -2  12   55.86    3.95
   0  -2 -12   70.70    4.59
   0   2 -12   64.05    3.30
   0   2  12   65.28    4.43
   0   2 -12   57.09    4.13
   0  -2 -12   68.35    4.07
   0  -2 -13   52.28    3.99
   0  -2 -13   41.90    3.31
   0   2 -13   43.50    2.64
   0   2 -13   46.56    3.68
   0  -2  13   50.54    3.58
   0   2  13   40.69    3.10
   0   2  13   56.79    4.01
   0   2  13   46.51    3.65
   0   2  14  279.75   12.49
   0  -2 -14  259.82   13.29
   0   2 -14  280.10   13.15
   0  -2  14  274.61   12.74
   0   2 -14  252.02   11.66
   0   2  14  276.34   13.07
   0   2  14  296.39   13.35
   0  -2 -14  276.95   12.82
   0   2  15   -0.75    1.62
   0  -2 -15   -1.60    1.49
   0   2 -15    1.13    1.54
   0  -2 -15    0.84    1.60
   0   2 -15    0.30    0.86
   0  -2  15    0.63    1.52
   0   2 -15   -0.23    1.23
   0   2  15    0.26    1.24
   0  -2 -16    1.04    1.44
   0   2 -16    0.32    0.84
   0   2 -16    1.70    1.57
   0   2 -16   -0.24    1.20
   0   2 -16    0.81    1.57
   0   2  16   -0.84    1.46
   0  -2  16   -0.33    1.78
   0  -2 -17    0.37    1.61
   0   2 -17    3.75    1.45
   0   2 -17    1.82    1.68
   0   2 -17    1.74    1.81
   0   2 -17    0.67    0.95
   0   2 -18    0.85    0.93
   0  -2 -18    2.40    1.84
   0   2 -18    1.53    1.46
   0   2 -18    1.55    1.66
   0   2 -18    0.46    1.73
   0   2 -19    0.41    1.89
   0   2 -19    2.07    1.42
   0  -2 -19    2.14    2.10
   0   2 -19    0.35    1.10
   0   2 -19    1.48    2.02
   0   2 -20   -0.52    2.34
   0  -2 -20   -0.45    2.03
   0   2 -20   -0.17    1.05
   0   2 -20    5.67    2.33
   0  -2 -21    1.44    2.29
   0   2 -21    2.29    2.42
   0   2 -21    0.55    2.60
   0   2 -22   88.14    6.41
   0  -2 -22   82.60    6.39
   0   2 -23    1.50    2.48
   0  -3   0   -0.16    0.52
   0  -3  -1   13.24    1.35
   0  -3   1   15.63    1.42
   0  -3  -1   15.33    0.95
   0   3   1   16.36    0.97
   0  -3   2   49.05    2.60
   0   3  -2   45.73    2.53
   0   3   2   53.39    2.53
   0  -3  -2   48.37    3.00
   0  -3   2   49.88    2.51
   0  -3  -2   51.00    2.53
   0  -3   2   55.32    3.08
   0   3   3  395.21   16.11
   0  -3   3  397.01   16.52
   0  -3  -3  392.13   16.49
   0  -3  -3  406.11   17.04
   0  -3   3  398.34   15.97
   0  -3   3  402.46   16.93
   0   3   3  413.81   16.51
   0   3  -3  414.56   16.55
   0  -3   3  382.59   16.30
   0   3   3  401.78   16.92
   0   3   4    0.12    0.51
   0   3   4   -0.36    0.34
   0  -3   4    1.00    0.70
   0   3  -4   -0.25    0.57
   0  -3  -4    0.13    0.46
   0  -3   4    0.22    0.29
   0   3   4    0.70    0.65
   0  -3   4    0.08    0.36
   0   3  -4    0.38    0.46
   0  -3   4    0.08    0.34
   0   3  -4    0.15    0.61
   0   3  -5    2.81    0.82
   0  -3  -5    2.76    0.54
   0  -3   5    4.30    0.86
   0   3   5    3.68    0.80
   0   3   5    4.80    0.59
   0  -3   5    4.35    0.62
   0  -3  -5    3.08    0.74
   0   3  -5    3.29    0.61
   0   3   5    4.74    0.95
   0   3  -5    3.00    0.74
   0  -3   5    3.81    0.49
   0   3  -6   90.60    4.48
   0  -3  -6   88.05    4.56
   0   3   6   85.64    4.50
   0  -3   6   82.03    4.05
   0  -3   6   81.21    4.49
   0  -3   6   82.29    3.68
   0  -3  -6   85.61    4.10
   0   3   6   85.19    4.66
   0   3   6   84.33    3.97
   0   3  -6   85.00    4.44
   0   3  -6   89.97    4.19
   0  -3  -7  167.24    7.49
   0   3   7  169.33    8.07
   0   3  -7  176.73    7.57
   0  -3   7  164.33    7.84
   0  -3  -7  165.12    7.98
   0  -3   7  160.21    7.42
   0   3  -7  165.03    7.81
   0   3   7  164.55    7.33
   0   3  -7  163.54    7.74
   0   3  -8    1.58    1.02
   0   3  -8    1.64    0.85
   0  -3   8    1.00    0.83
   0   3   8    0.24    0.99
   0   3  -8    1.08    0.65
   0  -3  -8    0.93    0.92
   0  -3  -8    1.64    0.71
   0  -3   8    2.04    0.78
   0   3   8    0.37    0.57
   0   3  -9 1433.99   56.71
   0   3   9 1437.79   57.36
   0  -3   9 1388.15   55.73
   0   3   9 1337.00   56.42
   0  -3   9 1359.91   56.63
   0  -3  -9 1457.60   56.71
   0  -3  -9 1464.74   57.37
   0   3  -9 1439.01   57.06
   0   3  -9 1410.31   56.84
   0   3   9 1398.02   57.12
   0   3  10    3.62    1.15
   0   3 -10    3.12    1.11
   0   3 -10    2.56    1.03
   0   3  10    2.26    1.32
   0  -3 -10    1.93    0.91
   0  -3  10    2.85    1.03
   0  -3 -10    3.42    1.15
   0   3 -11   16.79    0.98
   0   3  11   14.95    2.12
   0   3 -11   15.14    1.97
   0  -3 -11   14.69    1.69
   0   3  11   12.94    1.88
   0  -3  11   11.20    1.61
   0  -3 -11   21.28    2.37
   0   3 -11   14.05    1.65
   0   3  12    9.43    1.79
   0   3  12   12.12    2.15
   0  -3 -12   10.94    1.90
   0   3 -12    7.34    1.60
   0   3  12   11.66    1.53
   0   3 -12   12.60    1.68
   0   3 -12   12.59    0.87
   0  -3 -12   11.96    1.61
   0  -3  12    8.85    1.56
   0   3  13  246.22   10.96
   0  -3 -13  240.80   11.97
   0   3 -13  235.86   11.24
   0   3 -13  238.28   11.01
   0   3  13  258.29   12.02
   0  -3 -13  236.42   11.28
   0  -3  13  240.48   11.20
   0   3  13  235.55   11.63
   0   3 -13  226.41   11.62
   0   3 -13  236.18   11.52
   0   3 -13  236.74    9.88
   0   3 -14    0.32    1.51
   0  -3 -14    0.80    1.56
   0  -3  14    0.28    1.23
   0  -3 -14   -0.57    1.27
   0   3  14    3.00    1.88
   0   3 -14    0.27    0.55
   0   3 -14    1.15    1.24
   0   3 -14    0.48    1.23
   0   3  14    0.46    1.21
   0   3 -14    1.45    1.53
   0   3  14    0.35    1.54
   0   3 -15  305.71   14.43
   0   3 -15  301.70   13.99
   0  -3 -15  303.94   14.43
   0  -3 -15  322.07   15.38
   0  -3  15  336.58   14.50
   0   3 -15  306.23   14.94
   0  -3 -15  343.01   14.09
   0   3 -15  301.90   12.81
   0   3  15  314.94   14.09
   0  -3 -16   76.86    5.13
   0   3 -16   77.86    4.71
   0   3 -16   87.09    5.71
   0  -3  16   73.78    5.00
   0   3  16   74.33    4.72
   0   3 -16   82.52    5.21
   0   3 -16   76.44    3.56
   0  -3 -16   77.25    4.56
   0  -3 -17   75.68    4.54
   0   3 -17   86.59    5.91
   0  -3 -17   86.95    5.50
   0   3 -17   82.28    5.32
   0   3 -17   69.93    4.67
   0   3 -17   77.05    3.52
   0  -3 -18    3.06    1.94
   0   3 -18    4.49    1.50
   0   3 -18    6.43    2.10
   0   3 -18    2.97    0.53
   0  -3 -18    4.72    1.33
   0   3 -19   70.73    5.28
   0  -3 -19   76.84    5.39
   0   3 -19   69.78    4.68
   0   3 -19   75.77    5.91
   0   3 -20    2.93    1.98
   0   3 -20   -2.15    2.48
   0  -3 -20    0.43    2.07
   0  -3 -21    1.82    2.21
   0   3 -21    1.70    2.47
   0   3 -21    0.44    2.02
   0  -3 -22    8.21    2.74
   0  -3 -22    8.66    2.45
   0   3 -22    1.82    2.14
   0   3 -23    3.78    2.55
   0  -3 -23    8.12    3.02
   0  -4   0 7249.68  288.09
   0   4  -1   67.94    3.25
   0  -4   1   70.63    4.06
   0  -4  -1   70.48    4.07
   0   4   1   64.58    3.07
   0  -4   2  101.76    4.79
   0  -4   2   97.66    5.39
   0   4  -2  104.77    4.74
   0  -4  -2   95.69    5.41
   0   4   2  101.36    4.60
   0  -4   3    0.13    0.53
   0   4  -3   -0.50    0.52
   0  -4   3   -0.10    0.39
   0   4   3   -0.05    0.28
   0   4   3    0.33    0.47
   0  -4  -3    0.69    0.69
   0  -4  -3   -0.11    0.48
   0  -4   3   -0.66    0.85
   0  -4   4   46.58    2.71
   0   4   4   42.34    2.20
   0  -4  -4   39.36    3.08
   0   4   4   49.71    2.73
   0   4  -4   45.91    2.72
   0  -4   4   47.84    2.49
   0  -4  -4   47.97    2.75
   0  -4   4   48.70    2.60
   0  -4   4   50.86    3.26
   0  -4   5   41.68    2.12
   0  -4  -5   40.68    2.71
   0   4  -5   42.04    2.71
   0  -4   5   46.65    2.43
   0  -4   5   41.07    2.39
   0   4   5   49.51    3.16
   0   4   5   46.56    2.79
   0  -4   5   47.20    3.13
   0   4   5   44.41    2.20
   0   4  -6 2647.27  103.23
   0  -4   6 2618.33  103.52
   0  -4   6 2514.94  102.42
   0   4   6 2552.40  102.39
   0  -4  -6 2662.02  103.26
   0   4   6 2745.69  103.67
   0  -4   6 2525.52  102.43
   0   4  -7    3.91    0.82
   0  -4  -7    1.16    1.03
   0  -4   7    3.53    0.53
   0  -4  -7    1.51    0.88
   0  -4   7    3.79    0.76
   0   4   7    3.27    1.20
   0   4   7    4.42    0.70
   0   4  -7    3.37    1.02
   0   4  -7    4.18    1.15
   0  -4   7    3.00    1.20
   0  -4  -7    5.88    1.33
   0   4  -8   12.08    1.61
   0   4  -8   14.77    1.43
   0  -4   8   11.60    1.22
   0  -4  -8    9.40    1.60
   0  -4  -8   11.70    1.25
   0   4  -8    9.12    1.51
   0   4   8   12.32    1.81
   0   4   8   12.88    1.16
   0   4   8   10.80    1.52
   0  -4   8    7.80    1.47
   0  -4  -8   18.39    1.90
   0  -4  -9   12.37    1.76
   0  -4   9   13.11    1.77
   0   4   9   13.61    1.84
   0  -4  -9   16.49    1.56
   0   4   9   11.36    1.24
   0   4  -9   12.14    1.46
   0   4   9   14.46    1.90
   0  -4   9   12.71    1.41
   0   4  -9    9.94    1.63
   0   4  -9   13.53    1.80
   0   4  10  107.99    6.57
   0  -4 -10  128.31    6.10
   0   4 -10  117.46    6.24
   0   4  10  115.84    5.73
   0   4 -10  135.49    6.62
   0  -4  10  109.72    5.83
   0   4 -10  120.44    6.05
   0  -4 -10  129.29    6.84
   0  -4  10  116.90    6.41
   0   4  10  115.91    6.44
   0   4 -10  119.55    6.53
   0  -4  10  122.49    5.29
   0   4  11   -0.32    1.39
   0  -4 -11   -1.30    1.44
   0  -4  11    0.15    0.37
   0   4 -11   -0.71    1.08
   0   4 -11   -0.30    1.15
   0   4 -11   -0.65    0.97
   0   4 -11   -0.55    1.37
   0  -4 -11   -0.21    0.95
   0  -4  11   -0.19    1.03
   0   4  11    0.87    1.17
   0  -4  12    0.86    1.08
   0  -4 -12   -0.71    1.12
   0   4  12    2.76    1.71
   0   4  12   -0.94    1.64
   0  -4 -12    2.13    1.50
   0   4 -12   -0.49    1.20
   0   4 -12   -0.89    1.33
   0   4  12    1.62    1.01
   0   4 -12    0.97    1.31
   0   4 -12    0.24    1.00
   0  -4  13   42.49    3.19
   0   4 -13   41.46    3.20
   0  -4 -13   41.91    3.82
   0   4 -13   46.99    3.69
   0   4 -13   42.71    3.25
   0  -4 -13   44.93    3.36
   0   4  13   43.68    3.92
   0   4  13   50.52    3.83
   0   4  13   47.82    3.08
   0  -4 -14   93.84    5.46
   0  -4  14   87.53    5.20
   0   4 -14   86.26    5.24
   0   4  14   88.29    4.96
   0   4 -14   93.96    5.39
   0  -4 -15    6.75    1.75
   0  -4  15    3.92    1.72
   0   4 -15    7.77    1.79
   0   4 -15    7.92    1.67
   0   4  15    6.71    1.53
   0  -4 -16  105.20    6.04
   0   4 -16   99.40    5.89
   0   4 -16  100.60    6.13
   0  -4 -16  115.45    6.46
   0  -4  16  110.23    6.25
   0   4 -17   11.43    2.03
   0  -4 -17   12.11    2.27
   0   4 -17    9.55    2.10
   0  -4 -17   12.14    2.01
   0  -4 -18  175.74    9.00
   0   4 -18  181.00    9.00
   0   4 -18  167.32    9.37
   0  -4 -18  169.99    9.55
   0  -4 -18  204.18    9.85
   0   4 -19   -1.14    1.87
   0  -4 -19    0.80    2.00
   0  -4 -19    1.59    2.00
   0   4 -20   30.06    3.51
   0  -4 -20   25.94    3.55
   0  -4 -20   33.36    3.75
   0  -4 -21    7.44    2.81
   0   4 -21    5.03    2.38
   0  -4 -21    7.04    2.37
   0   4 -22   48.22    4.70
   0  -4 -22   53.59    4.71
   0   4 -23    0.45    2.28
   0  -5   0   -0.55    0.99
   0   5   0    0.51    0.46
   0   5   1    0.40    0.38
   0  -5   1   -0.28    1.00
   0   5  -1    0.10    0.47
   0  -5  -1    1.41    1.07
   0  -5   2    6.65    0.95
   0  -5  -2    6.85    1.43
   0   5   2    5.79    0.75
   0  -5  -2    4.23    1.16
   0  -5   2    3.88    1.26
   0   5  -2    6.15    0.88
   0  -5  -3  408.44   18.68
   0   5  -3  434.52   17.63
   0  -5   3  419.70   17.67
   0  -5  -3  421.85   18.54
   0   5  -3  454.26   18.41
   0  -5   3  438.89   18.68
   0  -5   3  404.46   17.45
   0   5   3  433.45   17.48
   0   5   3  406.29   17.00
   0  -5   4    1.12    1.09
   0  -5  -4    2.33    1.11
   0  -5   4    0.91    0.62
   0   5   4    1.28    0.40
   0   5  -4    2.63    1.04
   0  -5  -4    2.94    1.16
   0  -5   4    1.12    0.78
   0   5  -4    0.48    0.73
   0   5   4    2.54    0.88
   0   5   5   14.51    0.97
   0  -5   5   16.52    2.01
   0  -5   5   14.09    1.32
   0  -5  -5   13.84    1.93
   0  -5   5   17.06    1.33
   0   5   5   12.31    1.41
   0   5  -5   14.75    1.76
   0   5  -5   12.60    1.45
   0  -5   6    1.41    1.11
   0   5   6    0.41    0.43
   0   5  -6    1.22    0.97
   0  -5  -6    0.20    0.90
   0  -5   6   -0.12    0.60
   0   5  -6   -1.02    0.87
   0  -5   6   -0.05    0.41
   0   5   7   10.53    1.58
   0  -5   7   11.45    1.83
   0  -5   7   13.05    1.13
   0   5  -7   14.73    1.67
   0  -5   7   12.75    1.05
   0   5   7   11.11    1.01
   0   5  -7   14.42    1.79
   0  -5  -7   13.55    1.96
   0  -5  -7   11.10    1.59
   0   5   7   14.14    1.91
   0   5   8   15.88    1.80
   0   5   8   15.54    2.13
   0   5   8   14.21    1.18
   0   5  -8   11.45    1.70
   0  -5   8   10.70    1.85
   0  -5  -8   13.55    2.09
   0  -5  -8   14.69    1.91
   0  -5   8   13.09    0.99
   0  -5   8   15.43    1.23
   0   5  -8   11.18    1.82
   0  -5  -8   10.65    1.88
   0   5  -9  608.61   26.07
   0  -5  -9  604.39   26.17
   0   5  -9  589.34   25.93
   0  -5  -9  635.98   26.71
   0   5   9  612.47   24.98
   0  -5   9  599.89   25.06
   0  -5   9  632.85   26.38
   0   5   9  612.40   26.00
   0   5   9  629.34   26.48
   0   5 -10  166.21    7.77
   0   5 -10  151.30    8.06
   0   5  10  155.58    8.21
   0   5  10  170.15    8.71
   0  -5 -10  163.09    8.78
   0  -5  10  158.32    8.43
   0   5 -10  164.27    8.38
   0  -5  10  165.13    7.49
   0  -5 -10  160.05    8.47
   0   5  10  166.06    7.35
   0   5 -10  155.22    8.23
   0   5 -11   98.68    5.22
   0  -5  11   98.45    5.00
   0   5 -11   93.69    5.48
   0   5 -11   92.73    5.75
   0   5  11  103.57    6.09
   0  -5  11   87.52    5.61
   0   5 -11   94.12    5.68
   0   5  11  102.09    5.81
   0  -5 -11   96.45    6.07
   0  -5  11   91.68    4.45
   0   5 -12   31.26    2.76
   0   5 -12   27.93    2.94
   0  -5 -12   28.26    3.06
   0  -5  12   30.08    1.72
   0   5 -12   32.10    2.64
   0  -5  12   33.84    2.56
   0   5  12   25.33    2.86
   0   5  12   29.58    3.18
   0   5 -12   31.42    3.05
   0  -5 -13  197.65    9.59
   0   5 -13  206.01    9.64
   0  -5  13  196.28    9.36
   0  -5 -13  200.54   10.44
   0   5  13  193.09    9.11
   0   5 -13  210.42   10.44
   0   5 -13  197.54    9.74
   0   5 -14   21.90    2.40
   0   5  14   25.28    2.22
   0   5 -14   25.21    2.63
   0   5 -14   19.33    2.75
   0  -5 -14   24.34    3.15
   0  -5 -14   27.44    2.59
   0  -5  14   20.71    2.29
   0   5 -15   66.59    4.52
   0  -5 -15   68.43    5.19
   0   5 -15   69.46    5.18
   0   5 -15   68.56    4.51
   0  -5 -15   81.52    4.76
   0  -5  15   61.61    4.26
   0   5 -16   10.11    2.07
   0  -5 -16   17.11    2.41
   0   5 -16   12.62    2.60
   0   5 -16   13.65    2.25
   0  -5 -16   13.45    2.68
   0  -5 -17   95.66    6.54
   0   5 -17   93.53    5.82
   0  -5 -17  113.39    6.26
   0   5 -17   94.27    5.99
   0   5 -17   99.98    6.82
   0  -5 -18    0.44    2.13
   0  -5 -18    2.12    1.82
   0   5 -18    4.88    1.77
   0   5 -18    3.58    2.30
   0  -5 -19   53.85    4.88
   0   5 -19   54.84    4.50
   0   5 -19   61.54    5.55
   0   5 -20    7.25    2.23
   0  -5 -20    7.15    2.77
   0  -5 -21   -0.45    2.29
   0   5 -21   -0.40    1.99
   0  -5 -22    0.45    2.63
   0   6   0  129.82    5.84
   0  -6   0  133.71    7.38
   0  -6  -1    0.91    0.99
   0   6  -1    0.80    0.57
   0   6   1    0.93    0.53
   0  -6  -1    0.68    1.22
   0  -6   1   -0.68    1.27
   0  -6   1    1.33    0.80
   0  -6   2    0.34    1.21
   0   6  -2    2.06    1.37
   0   6   2    0.57    0.54
   0  -6  -2    2.86    1.32
   0  -6   2   -0.16    0.75
   0   6  -2   -0.13    0.64
   0  -6  -2   -0.34    1.31
   0  -6   2    0.46    0.73
   0   6   2    1.23    0.44
   0   6   3    6.07    0.93
   0   6  -3    5.27    1.05
   0  -6   3    8.12    1.84
   0   6  -3   11.41    1.94
   0  -6   3    8.60    1.12
   0  -6  -3    7.93    1.64
   0  -6  -3   10.55    1.90
   0  -6   3    7.58    1.17
   0   6   3    6.12    0.62
   0   6   4  410.14   16.85
   0   6  -4  402.20   17.78
   0  -6   4  393.46   16.71
   0   6   4  390.99   16.06
   0  -6   4  405.83   18.20
   0  -6  -4  430.22   18.41
   0   6  -4  411.68   17.09
   0  -6   4  402.83   17.06
   0  -6  -4  387.49   18.06
   0  -6   5   29.77    2.17
   0   6   5   25.71    1.32
   0  -6  -5   17.43    2.38
   0   6  -5   24.00    2.12
   0  -6   5   31.47    3.04
   0  -6   5   27.85    1.89
   0   6   5   26.91    2.09
   0   6  -5   27.07    2.65
   0  -6   6  197.51    8.76
   0  -6   6  191.41    8.48
   0  -6  -6  188.92   10.03
   0   6   6  187.42    7.94
   0   6  -6  204.18    9.20
   0  -6   6  199.91    9.97
   0   6  -6  198.12    9.58
   0  -6   7    0.34    1.49
   0   6   7   -0.44    1.06
   0   6  -7    0.29    1.32
   0  -6  -7   -0.39    1.44
   0   6   7    0.41    0.45
   0   6  -7    0.24    1.14
   0  -6   7    0.95    0.75
   0  -6   8  226.93   11.00
   0  -6   8  219.00    9.36
   0   6  -8  213.33   10.45
   0   6  -8  212.75   10.59
   0  -6  -8  221.60   11.23
   0   6   8  224.25   10.33
   0  -6  -8  199.84   11.05
   0   6   8  221.44    9.18
   0  -6   9   29.35    1.84
   0   6   9   32.65    2.83
   0  -6   9   35.41    3.32
   0   6  -9   28.48    2.93
   0   6  -9   36.54    2.95
   0   6   9   38.38    3.44
   0  -6  -9   28.13    3.18
   0  -6  -9   31.37    3.26
   0   6   9   29.92    1.84
   0  -6 -10   93.65    6.27
   0  -6  10  100.46    4.77
   0   6  10   99.12    5.77
   0   6 -10   97.99    5.82
   0   6  10   92.16    6.04
   0   6 -10   97.64    5.92
   0   6  10  103.14    4.69
   0  -6  10   94.76    6.10
   0   6 -11    3.99    1.65
   0  -6  11    1.45    1.69
   0   6 -11    0.30    1.44
   0   6  11    1.70    0.83
   0  -6  11    0.60    0.97
   0   6  11   -0.31    1.53
   0  -6 -11    3.28    1.79
   0  -6  11    1.15    0.82
   0  -6  12    1.47    1.72
   0  -6 -12    2.52    1.89
   0  -6  12    4.75    1.21
   0   6 -12    5.02    1.80
   0   6 -12    2.47    1.65
   0  -6  12    2.38    0.90
   0   6  12    0.66    1.62
   0   6 -13   11.91    2.41
   0  -6  13    9.55    1.57
   0   6 -13   11.23    2.09
   0  -6 -13   13.78    2.63
   0   6 -14   96.21    5.30
   0  -6 -14   85.04    6.16
   0   6 -14   87.94    5.98
   0   6 -14   83.63    5.50
   0   6 -15    4.38    2.20
   0  -6 -15    0.45    1.99
   0   6 -15    0.32    1.53
   0   6 -15   -0.28    1.47
   0   6 -16   -0.32    1.74
   0  -6 -16   -0.46    2.09
   0   6 -16   -0.88    1.56
   0   6 -16   -1.87    2.27
   0   6 -17    0.99    2.35
   0   6 -17    2.48    1.69
   0  -6 -17    5.13    2.51
   0  -6 -18   16.06    3.03
   0   6 -18   11.43    2.41
   0   6 -18   16.83    3.31
   0  -6 -19    0.96    2.47
   0   6 -19    0.34    1.73
   0  -6 -20    0.48    2.44
   0  -6 -21    1.93    2.84
   0   7   0   -0.41    0.64
   0  -7   0   -2.01    1.78
   0  -7   0   -0.93    0.88
   0  -7   0   -0.35    1.45
   0  -7  -1   71.68    5.28
   0  -7   1   83.25    5.51
   0   7  -1   79.31    3.83
   0  -7  -1   68.43    5.01
   0   7   1   69.09    3.47
   0  -7   1   80.91    4.08
   0   7   2   34.09    1.81
   0   7   2   35.17    1.87
   0  -7  -2   32.06    3.48
   0   7  -2   40.77    2.43
   0  -7  -2   32.51    3.25
   0  -7   2   36.37    2.55
   0  -7   2   42.03    2.63
   0  -7   2   35.02    3.49
   0  -7   3  201.38    8.24
   0   7   3  210.55    7.99
   0  -7   3  217.94   10.13
   0   7  -3  209.11    8.35
   0   7   3  172.83    7.24
   0   7  -3  218.17    9.67
   0  -7  -3  193.30    9.66
   0  -7  -3  217.11   10.15
   0  -7   3  211.95    8.47
   0   7  -4    1.69    1.00
   0   7  -4    1.69    1.56
   0   7   4   -0.15    0.88
   0  -7  -4    0.39    1.31
   0  -7   4    2.58    0.90
   0  -7   4   -0.80    1.64
   0  -7  -4    3.34    1.71
   0   7  -5    4.04    1.67
   0  -7   5    1.87    0.79
   0  -7  -5    4.05    1.79
   0  -7  -5    3.40    1.85
   0  -7   5    1.19    1.63
   0  -7   5    1.87    1.04
   0   7  -5    3.57    1.20
   0  -7   6   -0.19    0.98
   0  -7   6    2.78    1.95
   0  -7  -6    0.84    1.58
   0   7  -6    2.79    1.22
   0  -7   6    1.28    0.81
   0   7  -6   -0.33    1.45
   0  -7  -7   61.25    4.70
   0  -7   7   49.92    3.24
   0   7  -7   55.15    3.76
   0   7  -7   58.43    4.23
   0  -7   7   68.61    4.81
   0   7   7   55.67    3.61
   0  -7   8    3.58    1.79
   0  -7   8    1.85    0.92
   0   7  -8    2.23    1.38
   0   7  -8    2.00    1.45
   0  -7  -8    1.34    1.67
   0   7   8    2.71    1.36
   0  -7  -8    4.44    1.79
   0   7  -9  387.85   16.83
   0  -7   9  384.75   17.24
   0  -7   9  343.78   14.93
   0  -7  -9  347.85   17.36
   0  -7  -9  385.74   17.66
   0   7  -9  394.56   16.64
   0   7   9  372.58   16.32
   0  -7  10    4.90    1.94
   0   7 -10    4.38    1.81
   0  -7 -10    4.59    2.21
   0   7 -10    3.88    1.73
   0   7  10    5.58    1.67
   0   7  11   12.00    2.15
   0  -7 -11   12.11    2.57
   0   7 -11   14.91    2.41
   0   7 -11   14.63    2.30
   0  -7  11   14.83    2.70
   0  -7 -12   -0.95    1.84
   0   7 -12   -0.37    1.63
   0  -7  12    0.41    1.93
   0  -7 -13   79.51    6.18
   0   7 -13   93.83    5.99
   0  -7  13   83.12    5.84
   0   7 -14    5.11    2.24
   0  -7 -14    7.85    2.58
   0   7 -15  160.54    9.00
   0  -7 -15  142.46    9.03
   0  -7 -16    1.01    2.53
   0   7 -16   -0.48    2.31
   0   7 -17   33.18    4.22
   0  -7 -17   31.17    4.11
   0  -7 -18   -1.04    2.36
   0  -8   0 1165.00   45.94
   0  -8   0 1078.52   45.31
   0  -8   0 1100.49   43.53
   0   8   0 1034.94   43.02
   0   8  -1   33.60    2.25
   0  -8   1   40.62    3.76
   0   8   1   34.46    1.93
   0  -8   1   40.19    2.62
   0  -8  -1   35.42    2.50
   0  -8   1   48.05    4.21
   0  -8  -1   44.38    3.90
   0  -8  -1   47.38    4.24
   0  -8  -2   30.73    3.58
   0   8   2   21.89    1.10
   0  -8   2   27.24    2.12
   0  -8   2   27.21    2.22
   0  -8   2   19.05    3.03
   0   8  -2   30.02    1.99
   0  -8  -2   28.45    3.19
   0  -8  -3   -1.74    1.93
   0  -8   3    0.93    1.90
   0  -8   3    0.50    0.95
   0   8  -3   -1.03    1.05
   0  -8  -3   -0.47    1.66
   0  -8   4   16.81    2.03
   0  -8  -4   27.64    3.37
   0   8  -4   16.77    1.88
   0  -8   4   19.27    1.76
   0  -8  -4   24.47    2.88
   0  -8   4   17.50    2.79
   0  -8   5   -0.46    1.82
   0   8  -5    2.18    1.24
   0   8   5    3.14    1.12
   0  -8   5    5.66    1.15
   0  -8  -5    3.64    1.84
   0  -8  -5    2.89    1.87
   0  -8   5    3.60    1.25
   0  -8   6  569.54   23.67
   0  -8  -6  511.20   23.33
   0   8  -6  495.02   21.78
   0  -8   6  495.46   21.67
   0   8   7    1.11    1.38
   0  -8   7   -0.46    2.17
   0   8  -7    0.79    1.30
   0  -8  -7    2.42    1.98
   0  -8   8    2.72    2.04
   0   8   8   -0.25    1.37
   0  -8  -8   -0.51    2.04
   0  -8  -8   -0.49    1.92
   0   8  -8    1.15    1.41
   0   8  -9   20.24    2.56
   0  -8  -9   26.66    3.54
   0  -8  -9   17.64    2.98
   0  -8   9   20.75    3.07
   0   8   9   20.64    2.41
   0  -8  10   12.91    2.63
   0  -8 -10   18.69    3.19
   0  -8 -10   14.57    2.90
   0   8  10   16.89    2.38
   0   8 -10   17.46    2.48
   0  -8  11   -0.46    2.21
   0   8 -11   -1.08    1.75
   0  -8 -11   -1.05    2.26
   0  -8  12    6.94    2.51
   0  -8 -12    8.02    2.75
   0   8 -12    6.56    2.23
   0   8 -13    2.47    2.05
   0  -8  13   -1.39    2.37
   0  -8 -13    3.79    2.69
   0   8 -14    1.76    2.16
   0  -8 -14    4.94    2.43
   0  -8  14    5.59    2.54
   0  -8 -15    2.77    2.59
   0   8 -15    2.33    2.26
   0  -8 -16   11.20    3.14
   0   8 -16   13.34    3.10
   0  -9   0   -1.06    2.05
   0   9   0    0.39    0.67
   0  -9   0   -0.95    1.92
   0  -9   0   -0.16    1.02
   0  -9   1    6.53    2.21
   0  -9   1    4.79    1.24
   0  -9  -1    4.16    1.17
   0   9  -1    4.51    0.88
   0  -9  -1    4.79    2.26
   0  -9  -1    5.30    2.01
   0  -9   1    8.45    2.62
   0  -9   2    0.93    1.82
   0  -9   2    5.82    2.31
   0  -9  -2    1.95    1.82
   0  -9  -2    2.15    2.24
   0   9  -2    2.54    0.96
   0  -9  -2    4.10    1.11
   0   9  -3   65.75    3.68
   0  -9  -3   65.86    5.52
   0  -9   3   64.68    5.46
   0  -9  -3   50.29    4.95
   0  -9  -3   61.27    3.54
   0  -9  -4   -0.55    2.16
   0  -9   4   -2.08    2.27
   0   9  -4    1.17    1.27
   0  -9  -4    0.50    2.04
   0  -9  -5   -0.55    2.50
   0  -9   5    1.55    2.29
   0  -9  -5    1.52    2.07
   0   9  -5   -0.44    1.29
   0  -9  -6   -0.52    1.90
   0  -9   6   -0.51    2.11
   0   9  -6   -0.98    1.49
   0   9   7    6.96    1.56
   0  -9  -7   14.85    3.09
   0   9  -7   13.22    2.09
   0  -9   7    9.30    2.84
   0  -9  -8    0.54    2.20
   0   9  -8    0.29    1.46
   0  -9   8    1.53    2.32
   0  -9  -9  107.31    7.59
   0  -9   9  118.10    7.58
   0  -9  -9   98.43    7.61
   0   9  -9  114.75    6.54
   0  -9 -10    4.04    2.76
   0  -9 -10    2.23    2.47
   0   9 -10   -0.35    1.67
   0  -9  10    0.51    2.52
   0  -9 -11  100.00    7.32
   0  -9  11   96.29    6.96
   0   9 -11   85.50    5.89
   0  -9  12    0.51    2.45
   0   9 -12    0.40    1.97
   0  -9 -12    1.78    2.87
   0  -9  13   35.92    4.30
   0   9 -13   28.81    3.68
   0   9 -14   -0.45    2.51
   0 -10   0   52.77    5.02
   0 -10   0   52.06    5.34
   0 -10  -1    1.79    2.67
   0 -10   1    0.53    2.28
   0 -10   1    2.38    2.39
   0 -10  -1    0.54    2.35
   0 -10   2    4.13    2.61
   0 -10   2   -0.52    2.31
   0  10  -2   -0.24    0.93
   0 -10  -2    0.60    2.33
   0 -10  -2   -1.07    2.12
   0 -10  -3   -1.62    2.49
   0  10  -3    0.47    1.10
   0 -10  -3   -1.21    2.59
   0 -10   3    2.61    2.06
   0 -10   3   -1.75    2.47
   0 -10  -4   54.84    5.58
   0 -10  -4   57.97    5.18
   0  10  -4   49.91    3.33
   0 -10   4   42.29    4.90
   0 -10  -5   12.19    3.09
   0 -10   5   11.50    3.24
   0 -10  -5    7.35    2.91
   0  10  -5    7.54    1.63
   0 -10  -6   19.77    3.67
   0 -10  -6   10.22    2.83
   0  10  -6   20.18    2.36
   0 -10   6   19.46    3.74
   0  10  -7    0.54    1.53
   0 -10   7    3.43    2.74
   0 -10  -7   -0.57    2.39
   0  10  -8   10.67    2.30
   0 -10   8   10.04    3.09
   0 -10  -8   12.07    3.01
   0 -10  -9    2.33    2.54
   0 -10   9    0.56    2.61
   0  10  -9    0.32    1.80
   0  10 -10   57.44    4.59
   0 -10 -10   49.83    5.39
   0  10 -11    2.99    2.15
   0 -10  11   -1.12    2.90
   0 -10  12    2.78    2.85
   0  10 -12    3.58    2.29
   0  10 -13    0.85    2.19
   0 -11   0   -0.59    2.48
   0 -11   1    5.25    2.76
   0 -11  -1    2.91    2.72
   0 -11  -2    1.75    2.51
   0 -11  -3   12.92    3.21
   1   0 -22    3.71    2.69
   1   0 -21  144.01    8.86
   1   0 -20   -0.95    2.33
   1   0 -20    2.62    1.83
   1   0 -19  177.30   10.27
   1   0 -19  197.92   10.24
   1   0 -19  169.72    9.20
   1   0 -18   -0.31    1.54
   1   0 -18   -1.43    2.14
   1   0 -18    0.42    1.74
   1   0 -17  562.94   23.50
   1   0 -17  526.49   22.97
   1   0 -16   -0.72    1.69
   1   0 -16   -0.83    1.76
   1   0 -15  502.33   22.90
  -1   0  15  543.94   23.09
   1   0 -14   -1.22    1.27
  -1   0  14    1.56    1.50
   1   0 -13  359.27   15.88
  -1   0  13  343.20   15.88
  -1   0  12    1.62    1.24
   1   0 -12   -0.25    0.93
  -1   0  11 1681.24   69.28
   1   0 -11 1733.95   69.22
  -1   0  10    0.45    0.98
   1   0 -10   -0.42    0.68
   1   0  -9  364.45   15.71
   1   0  -8   -0.17    0.61
   1   0  -7  268.43   11.74
   1   0  -7  263.72   11.54
   1   0  -6    0.21    0.29
   1   0  -6   -0.15    0.50
   1   0  -6    0.12    0.40
   1   0  -5 1452.73   58.98
   1   0  -5 1532.27   58.84
  -1   0   5 1441.41   58.54
   1   0  -4    0.25    0.33
  -1   0   4    0.17    0.21
   1   0  -4    0.20    0.36
  -1   0   3  235.65    9.96
   1   0  -3  253.10   10.17
   1   0  -2    2.45    0.37
  -1   0  -2    0.13    0.19
  -1   0  -2    0.28    0.21
  -1   0  -2    0.13    0.23
  -1   0  -3   79.27    3.68
  -1   0  -3   83.06    3.80
  -1   0  -4    0.54    0.38
  -1   0  -4    0.10    0.33
  -1   0  -5 3656.42  148.05
  -1   0  -5 3784.19  147.96
   1   0   6   -0.39    0.51
  -1   0  -6   -0.14    0.52
  -1   0  -7   18.55    1.60
  -1   0  -8    0.75    0.73
  -1   0  -9   40.33    2.81
   1   0  10    0.24    0.95
  -1   0 -10   -0.24    0.86
   1   0  11  898.52   35.88
  -1   0 -11  844.77   34.34
  -1   0 -11  885.07   35.86
  -1   0 -12   -0.05    0.36
   1   0  12   -0.28    1.22
   1   0  12    0.72    1.09
  -1   0 -12    1.42    1.16
  -1   0 -13   29.48    2.91
  -1   0 -13   32.16    1.62
   1   0  13   32.87    2.78
  -1   0 -13   35.81    2.92
   1   0  13   35.32    3.06
   1   0  14   -0.56    1.25
  -1   0 -14    0.34    1.28
  -1   0 -14   -0.29    1.28
   1   0  14    0.33    1.42
  -1   0 -15  353.96   16.39
  -1   0 -15  353.54   16.11
   1   0  15  343.68   15.86
   1   0  15  350.08   16.23
  -1   0 -16    1.17    1.65
  -1   0 -17    8.36    2.26
  -1   0 -17    4.51    1.37
  -1   0 -18    0.89    1.86
  -1   0 -18   -0.22    1.28
  -1   0 -19   36.80    3.03
  -1   0 -19   46.22    4.37
  -1   0 -20   -1.52    2.45
  -1   0 -21  164.84    8.98
  -1   0 -21  183.36   10.31
  -1   0 -22    1.12    2.55
  -1   0 -22    1.35    1.80
  -1   0 -22   -2.67    2.65
   1  -1 -23    1.07    2.60
   1   1 -22   14.88    3.42
   1  -1 -22   20.82    3.49
   1   1 -21   29.30    2.67
   1   1 -21   31.42    3.89
   1  -1 -21   28.87    3.80
   1  -1 -20   10.00    2.52
   1   1 -20    9.21    2.19
   1   1 -20    7.92    2.56
   1   1 -19    5.13    2.33
   1   1 -19    7.16    1.93
   1  -1 -19    8.99    2.47
   1   1 -18    0.61    1.45
   1   1 -18   -0.87    1.96
   1  -1 -18    0.40    1.69
   1   1 -18    0.92    1.76
   1   1 -17    2.58    1.82
   1   1 -17    0.41    1.63
   1   1 -17   -1.18    1.46
   1  -1 -17    1.12    1.63
   1  -1 -16   96.03    6.11
   1   1 -16  103.03    6.35
   1   1 -16  106.04    6.62
   1   1 -16  100.53    5.82
   1  -1 -15   22.88    2.88
   1  -1 -15   29.02    2.83
   1   1 -15   31.38    3.07
   1   1 -15   29.72    2.67
   1   1 -15   27.93    3.04
  -1  -1  15   30.68    2.95
  -1   1  15   26.66    2.83
   1   1 -14   -0.26    1.19
   1  -1 -14    2.28    0.81
   1   1 -14    3.22    1.36
   1   1 -14    2.41    1.39
   1  -1 -14    1.49    1.50
  -1   1  14    2.27    1.44
   1  -1 -14    4.67    1.45
  -1  -1  14    2.10    1.47
  -1  -1  13   55.49    3.75
   1   1 -13   47.00    3.67
   1  -1 -13   39.99    3.30
   1   1 -13   47.19    3.59
  -1   1  13   42.69    3.54
   1  -1 -13   47.10    2.79
   1   1 -13   52.09    3.48
   1  -1 -13   54.22    3.96
  -1  -1  12   16.44    1.97
   1  -1 -12   15.53    1.79
   1   1 -12   15.54    2.00
   1  -1 -12   13.37    1.36
   1   1 -12   14.83    1.94
  -1   1  12   16.58    2.02
   1  -1 -12   14.82    2.11
   1   1 -11   10.04    1.53
   1   1 -11   10.20    1.59
   1  -1 -11   10.09    1.41
   1  -1 -11    6.89    1.46
  -1   1  11    9.07    1.55
  -1  -1  11   10.35    1.61
   1  -1 -11   10.74    1.17
   1  -1 -10  337.27   15.23
   1  -1 -10  335.35   14.30
   1  -1 -10  340.52   14.74
   1   1 -10  335.21   14.87
   1   1 -10  344.92   15.04
   1   1 -10  340.35   15.07
  -1  -1  10  343.36   14.95
  -1  -1   9    6.14    1.15
   1  -1  -9    6.93    1.04
   1   1  -9    7.08    1.14
   1   1  -9    4.56    1.11
   1  -1  -9    4.21    0.81
   1   1  -9    6.98    1.15
   1  -1  -9    5.57    1.22
  -1   1   8  310.22   13.28
  -1  -1   8  311.53   12.67
   1   1  -8  308.35   13.55
   1  -1  -8  322.63   13.81
   1  -1  -8  313.90   13.36
   1   1  -8  319.48   13.63
  -1  -1   8  309.01   13.51
   1  -1  -8  303.23   13.11
   1   1  -7   56.48    3.13
  -1  -1   7   52.98    3.03
  -1   1   7   51.76    2.85
   1  -1  -7   49.00    2.76
   1  -1  -7   48.91    3.14
  -1  -1   7   53.74    2.46
   1   1  -7   56.95    3.16
   1  -1  -7   52.98    2.89
   1   1  -6   20.37    1.58
   1  -1  -6   19.73    1.43
   1  -1  -6   21.72    1.73
  -1  -1   6   19.08    1.53
   1  -1  -6   28.05    1.58
  -1   1   6   17.91    1.60
  -1  -1   5   13.90    1.15
  -1   1   5   12.73    1.20
   1   1  -5   12.43    1.16
   1  -1  -5   13.48    1.25
   1  -1  -5   13.77    1.02
  -1  -1   4 4251.92  166.58
   1  -1  -4 3961.70  166.73
   1  -1  -4 4181.08  166.41
  -1   1   4 4427.77  166.82
  -1   1   3   78.01    3.64
   1   1  -3   74.98    3.63
   1  -1  -3   75.23    3.57
  -1  -1   3   74.49    3.45
  -1  -1   3   73.36    3.62
   1  -1  -3   73.34    3.26
  -1   1   3   73.44    3.54
  -1   1   2  154.84    7.15
  -1   1   2  171.26    7.25
  -1  -1   2  168.64    7.07
  -1  -1   2  168.85    7.28
   1  -1  -2  179.64    7.19
   1  -1  -1   -0.18    0.21
  -1   1   1   -0.14    0.23
  -1  -1   1    0.07    0.21
  -1   1   0  159.51    6.46
  -1  -1   0  151.02    6.50
   1  -1   0  149.42    6.25
   1   1   1   38.35    1.94
   1   1   1   40.00    1.82
  -1  -1  -1   38.62    1.97
  -1   1  -1   40.87    2.01
   1  -1   1   36.49    1.83
   1  -1   1   37.41    1.97
  -1   1  -1   35.54    1.96
   1  -1   1   38.77    1.85
   1  -1   1   41.91    1.91
   1  -1   2 2891.49  110.94
   1  -1   2 2871.97  111.07
  -1   1  -2 2855.37  111.14
   1  -1   2 2711.81  110.87
   1  -1   2 2845.48  111.13
   1   1   2 2751.65  111.01
  -1   1  -2 2641.11  111.07
   1  -1   2 2884.74  111.09
   1   1   2 2783.09  111.08
  -1  -1  -3   46.64    2.25
   1  -1   3   38.43    2.07
   1   1   3   37.41    2.23
  -1   1  -3   39.31    2.20
   1  -1   3   43.64    2.20
  -1   1  -3   42.74    2.22
   1   1   3   43.50    2.17
   1  -1   3   40.28    1.92
  -1   1  -4   41.37    2.31
  -1   1  -4   41.83    1.97
   1  -1   4   39.16    2.25
  -1   1  -4   36.53    2.26
   1  -1   4   45.38    2.01
  -1   1  -4   42.05    1.86
  -1  -1  -4   38.82    2.25
  -1   1  -5  206.33    8.93
  -1  -1  -5  200.81    8.87
   1  -1   5  202.01    8.88
  -1   1  -5  213.72    9.00
  -1   1  -5  201.38    8.67
  -1   1  -5  200.95    8.44
  -1   1  -6  169.75    7.79
  -1   1  -6  183.55    7.81
  -1  -1  -6  169.39    7.70
   1  -1   6  176.23    7.74
  -1   1  -6  157.24    7.19
  -1   1  -6  178.66    7.48
  -1  -1  -7   14.18    1.36
   1  -1   7   12.98    1.36
  -1   1  -7   14.24    1.42
  -1   1  -7   13.39    1.05
  -1   1  -7   14.06    1.37
  -1  -1  -8  260.09   11.68
  -1   1  -8  273.37   11.80
  -1   1  -8  279.99   11.73
   1  -1   8  256.49   11.64
  -1   1  -8  252.88   11.08
   1  -1   9   11.08    1.45
  -1   1  -9   11.11    1.06
  -1   1  -9   10.54    1.36
  -1  -1  -9    7.75    1.24
  -1   1 -10  276.32   12.21
  -1   1 -10  261.39   11.35
   1   1  10  260.91   11.79
   1  -1  10  267.46   12.03
  -1   1 -10  259.17   11.96
  -1  -1 -10  261.46   11.98
  -1   1 -11   17.57    1.89
   1  -1  11   13.86    1.87
  -1  -1 -11   16.99    1.89
  -1   1 -11   14.06    1.82
   1  -1  11   16.37    1.78
  -1   1 -11   14.86    1.45
   1   1  11   13.96    1.85
   1   1  11   12.29    1.61
  -1   1 -12   34.89    3.06
   1   1  12   37.01    2.90
  -1   1 -12   36.36    2.47
  -1  -1 -12   39.79    3.11
   1  -1  12   41.18    3.19
   1   1  12   41.80    3.29
  -1   1 -12   39.16    3.12
   1   1  13   25.54    2.39
  -1   1 -13   28.60    2.67
  -1   1 -13   21.39    1.92
  -1  -1 -13   27.86    2.69
   1  -1  13   29.06    2.73
   1   1  13   22.17    2.57
  -1   1 -13   23.85    2.57
  -1  -1 -14  218.23   10.43
   1   1  14  212.86   10.43
   1  -1  14  213.00   10.34
  -1  -1 -14  194.71    8.92
  -1   1 -14  211.24   10.50
   1   1  14  216.12   10.06
  -1   1 -14  213.09   10.31
  -1   1 -14  194.43    9.32
   1   1  15    0.86    1.47
   1  -1  15    1.34    1.59
  -1   1 -15    1.13    1.78
  -1  -1 -15    2.47    1.75
  -1  -1 -15    2.78    0.80
  -1  -1 -16    0.83    0.70
  -1   1 -16    0.95    1.15
  -1  -1 -16    0.76    1.48
  -1   1 -16   -1.21    1.54
  -1   1 -17   13.83    2.60
  -1  -1 -17    9.36    1.03
  -1   1 -17   15.16    1.95
  -1  -1 -17    9.37    2.23
  -1   1 -18   62.66    4.13
  -1   1 -18   67.70    5.03
  -1   1 -18   76.92    5.47
  -1  -1 -18   68.28    5.15
  -1  -1 -19   45.84    4.27
  -1   1 -19   45.27    4.29
  -1   1 -19   37.68    2.99
  -1   1 -19   47.90    4.64
  -1   1 -19   39.99    3.23
  -1   1 -20   93.53    5.82
  -1   1 -20  112.06    7.25
  -1  -1 -20  113.61    7.32
  -1   1 -20  104.84    7.26
  -1   1 -21    1.66    1.54
  -1   1 -21    2.49    2.20
  -1  -1 -21    4.64    2.70
  -1   1 -21    0.55    2.29
  -1   1 -22   56.91    5.17
  -1  -1 -22   45.66    4.87
   1   2 -23   40.40    4.39
   1  -2 -23   36.87    4.38
   1  -2 -22    1.95    2.53
   1   2 -22   -0.91    2.32
   1  -2 -21    1.85    2.16
   1   2 -21   -0.86    2.06
   1   2 -21    2.17    2.75
   1  -2 -20    2.18    2.14
   1   2 -20    2.20    1.61
   1   2 -20    2.57    2.55
   1   2 -20    2.26    1.02
   1   2 -20    2.46    1.91
   1   2 -19   74.91    5.72
   1   2 -19   61.52    4.57
   1  -2 -19   71.73    5.32
   1   2 -19   69.63    3.65
   1  -2 -19   70.70    5.83
   1  -2 -18    2.99    1.21
   1   2 -18    2.50    0.94
   1  -2 -18    4.57    2.21
   1   2 -18    5.36    1.64
   1   2 -18    3.16    2.06
   1   2 -17  170.72    9.02
   1  -2 -17  173.44    9.37
   1   2 -17  161.83    8.88
   1   2 -17  153.65    8.05
   1   2 -17  139.18    6.95
   1  -2 -17  174.24    8.72
   1  -2 -16    4.44    1.88
   1   2 -16    1.18    1.53
  -1  -2  16    1.34    1.68
   1   2 -16    1.16    1.71
   1   2 -16    0.84    1.32
   1  -2 -16    1.98    1.46
   1   2 -16    2.06    0.80
  -1  -2  15   64.51    4.35
   1   2 -15   57.05    3.90
   1  -2 -15   60.36    4.21
   1  -2 -15   61.08    4.67
   1   2 -15   60.11    4.36
   1   2 -15   60.06    4.41
   1   2 -15   51.17    2.97
   1   2 -14    6.15    0.92
  -1   2  14    6.40    2.05
   1   2 -14    4.93    1.63
  -1  -2  14    4.63    1.48
   1   2 -14    2.39    1.53
  -1   2  14    8.03    1.95
   1  -2 -14   10.02    2.01
   1   2 -14    4.76    1.47
   1  -2 -14    5.56    1.48
   1  -2 -13 1075.45   45.05
  -1   2  13 1210.41   45.91
   1   2 -13 1126.30   45.51
  -1  -2  13 1075.59   45.13
   1   2 -13 1076.34   45.07
  -1   2  13 1109.64   45.51
   1   2 -13 1040.13   43.89
   1   2 -13 1129.43   45.60
   1  -2 -13 1186.78   46.00
   1   2 -12    0.82    1.18
   1   2 -12    0.29    1.05
   1  -2 -12    0.98    1.20
   1  -2 -12    0.68    1.08
  -1  -2  12    0.49    1.16
   1   2 -12    0.08    0.43
  -1   2  12    0.93    1.27
   1  -2 -11   13.41    1.56
   1   2 -11   14.48    1.00
   1   2 -11   19.71    2.16
   1   2 -11   14.57    1.86
  -1   2  11   16.86    2.06
   1  -2 -11   15.92    1.98
  -1  -2  11   14.26    1.77
   1  -2 -10   78.65    4.83
  -1   2  10   81.68    4.80
   1   2 -10   81.17    4.59
   1   2 -10   74.69    3.52
  -1  -2  10   76.12    4.46
   1  -2 -10   90.57    4.38
   1  -2 -10   87.77    4.42
   1   2 -10   81.43    4.73
   1   2  -9  149.69    7.47
  -1   2   9  156.07    7.61
   1  -2  -9  158.27    7.10
   1   2  -9  153.17    7.35
  -1  -2   9  148.04    7.19
  -1  -2   9  151.43    6.30
   1  -2  -9  162.56    7.69
   1  -2  -9  159.94    7.10
   1   2  -9  142.71    6.20
  -1   2   9  148.12    6.92
   1   2  -9  155.35    7.32
  -1   2   8    6.00    1.29
  -1   2   8    7.46    0.95
  -1  -2   8    8.27    1.16
   1  -2  -8    6.10    1.23
   1   2  -8    7.59    1.25
   1   2  -8    7.55    1.26
   1   2  -8    9.13    1.19
   1  -2  -8    8.23    1.00
  -1   2   7 2783.50  109.73
  -1   2   7 2680.45  108.96
   1  -2  -7 2789.77  109.04
   1   2  -7 2731.95  109.48
  -1  -2   7 2676.99  109.23
   1  -2  -7 2774.42  109.64
   1   2  -7 2759.74  109.28
   1   2  -7 2747.54  109.51
  -1   2   6   31.89    1.82
  -1   2   6   35.14    2.39
  -1  -2   6   30.09    2.22
   1  -2  -6   32.71    1.85
   1   2  -6   30.80    2.02
   1   2  -6   32.90    2.26
  -1  -2   6   33.82    2.05
   1  -2  -6   32.37    2.26
   1   2  -6   35.07    2.27
  -1   2   5  221.54   10.28
   1  -2  -5  230.33    9.64
   1  -2  -5  246.56   10.25
   1   2  -5  237.68    9.88
  -1  -2   5  237.47   10.27
   1   2  -5  226.25   10.11
  -1  -2   5  225.51    9.85
   1   2  -4   17.26    1.00
  -1   2   4   16.73    1.50
  -1  -2   4   19.10    1.52
   1  -2  -4   17.31    1.02
   1   2  -4   20.00    1.22
   1  -2  -4   16.17    1.34
  -1  -2   4   19.09    1.22
   1  -2  -3  722.43   29.22
  -1  -2   3  737.14   29.99
   1   2  -3  752.48   29.46
  -1   2   3  775.28   30.10
  -1  -2   3  730.38   29.50
   1  -2  -3  729.43   29.77
   1   2  -2   48.17    2.12
  -1  -2   2   44.16    2.55
   1   2  -2   40.99    2.11
   1  -2  -2   46.45    2.32
  -1   2   2   46.33    2.60
   1  -2  -1  332.91   13.37
   1   2  -1  319.42   13.15
  -1  -2   1  342.76   13.81
   1  -2   0   16.89    1.00
   1  -2   0   16.49    0.87
  -1  -2   0   19.11    1.38
  -1   2   0   16.33    0.89
   1  -2   0   17.03    1.30
   1  -2   1    0.59    0.38
  -1  -2  -1    0.82    0.48
   1  -2   1    0.48    0.38
   1  -2   1    0.51    0.26
   1   2   2    6.18    0.78
   1  -2   2    4.27    0.67
   1  -2   2    5.85    0.62
   1   2   2    6.73    0.74
   1  -2   2    6.76    0.75
   1  -2   2    4.98    0.66
   1  -2   3 3900.16  146.45
  -1   2  -3 3720.22  146.33
   1  -2   3 3869.58  146.57
  -1   2  -3 3830.24  146.36
   1   2   3 3713.96  146.35
   1  -2   3 3631.79  146.37
   1   2   3 3763.15  146.51
   1  -2   3 3864.54  146.39
   1  -2   4   33.21    2.12
   1   2   4   34.06    1.95
   1  -2   4   31.77    1.98
   1  -2   4   34.96    2.05
   1  -2   4   36.17    1.93
  -1   2  -4   31.88    1.89
  -1  -2  -4   35.39    2.03
   1  -2   4   34.81    1.92
   1  -2   4   34.73    1.80
  -1   2  -4   35.01    1.93
   1   2   4   33.38    2.10
   1  -2   4   33.02    1.94
   1  -2   5 1677.74   65.52
   1  -2   5 1512.52   65.13
   1   2   5 1636.64   65.50
   1  -2   5 1645.49   65.24
  -1  -2  -5 1688.07   65.36
  -1   2  -5 1563.51   65.09
   1  -2   5 1656.66   65.05
  -1   2  -5 1633.81   65.36
   1  -2   5 1656.87   64.86
  -1  -2  -5 1608.62   65.45
   1   2   5 1688.95   65.26
   1  -2   5 1643.93   65.39
  -1   2  -5 1611.93   65.10
   1  -2   6    1.32    0.51
  -1   2  -6    1.87    0.57
  -1   2  -6    1.68    0.50
   1  -2   6    1.41    0.58
   1  -2   6    1.17    0.67
  -1   2  -6    0.99    0.43
   1   2   6    1.50    0.58
   1  -2   6    0.53    0.27
   1   2   6    0.82    0.71
  -1  -2  -6    0.43    0.52
  -1  -2  -7  868.32   34.31
   1   2   7  826.31   34.09
   1  -2   7  824.30   34.20
  -1   2  -7  800.38   33.87
   1   2   7  859.37   34.48
  -1   2  -7  838.10   33.88
   1  -2   7  846.86   34.01
  -1   2  -7  864.61   34.33
   1  -2   8   14.81    1.50
  -1   2  -8   17.00    1.35
   1   2   8   15.97    1.47
   1   2   8   17.22    1.70
  -1   2  -8   15.73    1.29
  -1   2  -8   16.07    1.60
  -1  -2  -8   13.82    1.50
  -1   2  -8   13.41    1.61
   1  -2   9 1262.43   50.48
  -1   2  -9 1264.44   50.00
  -1  -2  -9 1219.64   50.53
  -1   2  -9 1194.50   50.59
  -1   2  -9 1239.77   50.75
   1   2   9 1258.87   50.78
  -1   2  -9 1234.27   49.97
  -1   2  -9 1245.94   50.55
   1  -2  10    0.22    0.99
  -1   2 -10   -0.51    0.88
  -1   2 -10    0.28    0.62
   1   2  10    0.38    0.83
   1   2  10   -0.26    1.06
   1  -2  10   -0.21    0.94
  -1   2 -10    0.23    0.80
  -1   2 -10    0.48    0.99
  -1   2 -10    0.14    0.65
  -1  -2 -10    0.22    0.85
   1   2  11 1106.02   45.27
   1   2  11 1156.91   45.90
  -1   2 -11 1125.20   45.60
  -1   2 -11 1091.28   44.84
   1  -2  11 1148.90   45.54
  -1   2 -11 1062.03   45.59
  -1  -2 -11 1082.24   45.56
  -1   2 -11 1143.71   45.86
   1  -2  11 1118.02   45.52
  -1   2 -11 1080.22   44.82
  -1   2 -12   29.68    2.22
   1   2  12   27.44    2.40
  -1   2 -12   25.48    2.57
  -1   2 -12   29.97    2.82
   1   2  12   30.01    2.88
   1  -2  12   28.13    2.72
   1  -2  12   31.72    2.68
  -1   2 -12   30.81    2.80
  -1   2 -12   33.29    2.23
  -1  -2 -12   30.28    2.67
  -1   2 -13  657.09   27.26
   1  -2  13  662.46   28.01
   1  -2  13  645.57   27.99
   1   2  13  622.73   28.20
  -1   2 -13  635.28   27.21
   1   2  13  731.67   28.63
  -1   2 -13  673.40   28.22
  -1   2 -13  659.66   28.38
   1   2  13  663.28   27.77
  -1  -2 -13  645.68   28.11
  -1   2 -13  676.24   28.22
   1  -2  14    0.30    1.44
  -1  -2 -14   -0.64    1.39
   1  -2  14    0.30    1.40
  -1   2 -14    0.89    0.94
  -1   2 -14   -0.36    0.87
   1   2  14    0.69    1.57
  -1   2 -14    0.64    1.50
   1   2  14    1.03    1.31
  -1   2 -14   -1.09    1.56
  -1   2 -14   -0.32    1.46
   1   2  14    0.70    1.48
   1   2  15  187.73    9.74
  -1   2 -15  199.01    9.63
  -1   2 -15  171.65    8.46
   1  -2  15  190.14    9.47
   1   2  15  176.46    8.99
  -1  -2 -15  186.22    9.48
  -1   2 -15  164.40    9.50
  -1  -2 -16   13.29    2.46
   1   2  16   10.02    2.07
  -1   2 -16   17.99    2.66
  -1   2 -16   15.85    1.75
  -1   2 -16   14.76    2.55
  -1   2 -17  176.10    8.58
  -1  -2 -17  177.06    9.72
  -1   2 -17  183.63   10.09
  -1   2 -17  192.42    9.88
  -1   2 -18    3.83    1.32
  -1   2 -18    5.72    2.29
  -1  -2 -18    9.20    2.37
  -1   2 -18    5.42    2.07
  -1   2 -18    3.82    1.39
  -1   2 -19  171.19    7.89
  -1  -2 -19  162.79    9.32
  -1   2 -19  166.32    9.68
  -1   2 -19  177.90    9.50
  -1   2 -19  143.02    7.79
  -1  -2 -20   -0.47    2.13
  -1   2 -20    6.39    2.61
  -1   2 -20    3.24    2.05
  -1   2 -20    3.01    1.41
  -1  -2 -21    1.74    1.82
  -1  -2 -21    4.45    2.37
  -1   2 -21    1.93    2.29
  -1   2 -21    1.12    2.59
  -1   2 -22    1.01    2.35
  -1  -2 -22   -1.05    2.77
   1  -3 -23    3.84    2.78
   1   3 -23    3.13    2.39
   1  -3 -22   36.21    4.15
   1   3 -22   27.63    3.65
   1   3 -21   15.69    3.28
   1  -3 -21   18.88    3.20
   1   3 -21   15.31    2.89
   1  -3 -20   37.88    3.83
   1   3 -20   35.04    3.58
   1   3 -20   34.49    4.30
   1   3 -19   -1.12    1.72
   1   3 -19    3.13    1.84
   1  -3 -19   -1.11    2.71
   1  -3 -19   -0.39    1.88
   1  -3 -19    1.16    1.29
   1   3 -19    1.00    2.08
   1   3 -18    2.78    1.68
   1  -3 -18    1.56    2.27
   1  -3 -18    2.12    1.30
   1   3 -18    3.51    1.76
   1   3 -18    1.87    2.01
   1  -3 -18    1.46    1.80
   1  -3 -17    4.88    2.10
   1   3 -17    1.32    1.92
   1  -3 -17    1.43    1.18
   1  -3 -17   -0.34    1.71
   1   3 -17    0.33    1.43
   1   3 -17    0.60    1.52
   1   3 -16   70.54    4.64
   1   3 -16   69.31    4.65
  -1  -3  16   62.30    4.53
   1  -3 -16   72.58    5.43
   1   3 -16   67.45    5.06
   1  -3 -16   67.29    4.22
   1  -3 -16   71.28    4.68
   1   3 -15   17.41    2.36
   1   3 -15   12.42    1.98
   1  -3 -15   17.06    2.17
   1  -3 -15   16.67    2.81
   1   3 -15   13.18    2.15
   1   3 -15   15.01    2.38
   1  -3 -15   13.05    1.94
  -1  -3  15   16.63    2.21
  -1   3  14    3.45    1.67
   1   3 -14   -0.26    1.11
  -1   3  14    4.17    1.94
  -1  -3  14    0.83    1.38
   1   3 -14   -0.31    1.23
   1  -3 -14    0.80    1.60
   1   3 -14    0.93    1.34
   1   3 -14    0.55    1.28
   1  -3 -14   -0.47    1.07
   1  -3 -14   -0.79    1.31
   1   3 -14   -0.36    1.60
  -1   3  13    7.10    1.61
  -1   3  13    3.21    1.65
   1   3 -13    3.37    1.39
   1  -3 -13    6.27    1.86
   1   3 -13    5.11    1.48
   1   3 -13    2.36    1.17
  -1  -3  13    6.37    1.55
   1  -3 -13    3.71    1.33
   1  -3 -13    4.07    1.30
   1   3 -13    3.48    1.44
   1   3 -13    5.80    1.66
  -1   3  12   94.97    5.87
   1   3 -12   98.18    5.42
  -1   3  12  100.61    5.70
   1  -3 -12   99.08    5.22
   1   3 -12   96.91    5.53
   1   3 -12   91.75    5.10
   1   3 -12   93.94    5.39
   1   3 -12   96.47    5.75
  -1  -3  12   90.77    5.19
   1  -3 -12   90.16    5.75
   1  -3 -12   85.12    5.04
   1   3 -11   29.23    2.49
   1  -3 -11   28.58    2.29
   1   3 -11   32.67    2.37
  -1  -3  11   28.47    1.44
   1   3 -11   31.29    2.65
  -1   3  11   28.53    2.85
  -1  -3  11   34.33    2.58
   1  -3 -11   35.92    3.03
  -1   3  11   28.51    2.69
   1   3 -11   28.57    2.53
   1  -3 -10  308.06   13.05
  -1   3  10  294.72   13.57
   1   3 -10  294.90   13.25
  -1  -3  10  285.77   13.12
  -1   3  10  294.52   13.77
   1   3 -10  313.82   13.08
  -1   3  10  295.14   12.83
   1   3 -10  308.81   13.48
   1  -3 -10  288.99   13.71
   1   3  -9   28.67    2.20
   1  -3  -9   26.49    2.49
  -1  -3   9   30.39    2.24
  -1   3   9   23.06    2.41
  -1   3   9   32.53    2.59
  -1   3   9   34.11    2.08
   1   3  -9   32.32    2.11
   1   3  -9   30.12    2.40
   1  -3  -9   27.59    2.01
  -1  -3   8  180.89    8.38
   1  -3  -8  179.82    8.88
  -1   3   8  178.38    8.09
  -1   3   8  181.12    8.97
   1   3  -8  186.10    8.65
  -1  -3   8  192.30    8.93
   1   3  -8  189.89    8.24
   1  -3  -8  189.97    8.25
   1   3  -8  193.36    8.49
  -1   3   7  477.08   19.42
  -1  -3   7  466.68   19.68
   1   3  -7  467.30   19.51
   1   3  -7  472.48   19.97
  -1  -3   7  478.04   20.35
   1   3  -7  471.40   19.72
   1  -3  -7  499.52   20.32
   1  -3  -7  484.48   19.54
  -1   3   7  463.86   20.40
   1   3  -6   88.06    4.04
  -1  -3   6   82.75    4.57
   1  -3  -6   80.77    3.82
  -1   3   6   84.44    4.43
  -1  -3   6   78.62    3.97
   1   3  -6   87.05    4.29
   1   3  -6   82.74    3.85
  -1   3   6   85.48    4.68
  -1   3   6   77.71    3.72
   1  -3  -6   86.07    4.47
   1   3  -6   86.36    4.57
   1   3  -5   31.88    1.89
  -1  -3   5   38.30    1.99
   1   3  -5   38.05    1.84
   1  -3  -5   37.82    2.36
   1   3  -5   31.22    2.39
  -1  -3   5   32.43    2.41
   1  -3  -5   34.30    1.76
   1   3  -5   33.24    2.12
  -1   3   5   30.49    2.41
  -1   3   5   32.51    2.27
   1  -3  -4 2823.04  114.64
   1   3  -4 2933.56  114.44
  -1   3   4 2926.47  115.08
  -1   3   4 2841.84  114.61
   1   3  -4 2854.04  114.12
  -1  -3   4 2923.30  115.08
   1   3  -3   11.07    0.74
  -1  -3   3   13.83    0.72
   1  -3  -3   10.90    1.04
   1   3  -3   11.65    0.98
  -1  -3   3   12.29    1.35
  -1   3   3   10.64    1.01
   1  -3  -2   23.13    1.84
   1   3  -2   20.69    1.82
  -1   3   2   22.28    1.44
   1   3  -2   20.92    1.06
  -1  -3   2   22.08    1.12
  -1  -3   2   21.43    1.79
   1  -3  -2   20.19    1.39
   1  -3  -1    0.07    0.29
  -1  -3   1    0.70    0.65
  -1  -3   1    0.10    0.21
   1  -3  -1    0.67    0.61
  -1  -3   0    0.17    0.59
   1  -3   0    0.16    0.51
  -1  -3   0    0.84    0.23
  -1   3   0    1.26    0.27
   1   3   0    0.29    0.26
   1   3   1   41.44    2.06
  -1   3  -1   39.26    2.03
   1  -3   1   45.14    2.61
   1  -3   1   39.76    1.91
  -1  -3  -1   39.91    2.60
   1  -3   2 2427.30   94.50
  -1  -3  -2 2158.07   95.15
   1  -3   2 2438.76   94.81
   1  -3   2 2494.21   95.04
  -1   3  -2 2245.41   94.89
   1  -3   2 2394.94   94.82
   1   3   2 2416.94   94.55
  -1   3  -2 2472.86   94.55
  -1  -3  -2 2188.96   94.91
   1   3   3   31.31    1.83
   1   3   3   31.10    1.90
  -1   3  -3   29.23    2.01
   1  -3   3   31.74    2.01
   1  -3   3   34.55    1.94
   1   3   3   31.92    2.08
  -1   3  -3   29.93    1.86
   1  -3   3   32.12    2.08
  -1  -3  -3   29.95    2.14
   1  -3   3   29.67    1.93
   1  -3   3   31.43    2.15
   1  -3   4   28.32    1.84
   1   3   4   24.44    1.66
  -1  -3  -4   23.91    1.98
   1   3   4   29.26    1.91
  -1   3  -4   30.85    1.95
  -1   3  -4   24.91    1.81
   1  -3   4   27.19    1.95
   1  -3   4   27.50    1.79
   1  -3   4   26.80    1.57
  -1   3  -4   31.83    1.93
   1   3   4   27.09    2.00
   1  -3   4   24.73    1.91
   1  -3   4   32.48    1.92
   1   3   5   35.24    2.08
   1  -3   5   35.27    2.29
   1   3   5   33.13    2.26
  -1  -3  -5   34.00    2.41
   1  -3   5   33.17    2.20
   1  -3   5   30.96    1.94
   1   3   5   38.00    2.46
  -1   3  -5   39.30    2.33
  -1   3  -5   33.15    2.17
   1  -3   5   30.59    2.08
   1  -3   5   33.82    2.33
  -1   3  -5   33.83    2.24
   1  -3   5   37.46    2.08
  -1   3  -6   45.11    2.65
   1  -3   6   44.89    2.41
   1  -3   6   42.79    2.49
   1  -3   6   43.05    2.72
   1  -3   6   42.56    2.73
   1   3   6   41.50    2.52
   1   3   6   48.67    3.01
  -1  -3  -6   44.24    2.95
  -1   3  -6   47.56    2.89
   1  -3   6   47.11    2.39
  -1   3  -6   44.69    2.72
   1   3   7   26.60    2.25
   1  -3   7   26.03    2.03
  -1   3  -7   26.43    2.08
  -1   3  -7   30.34    1.80
   1  -3   7   28.67    1.65
   1  -3   7   24.26    1.88
   1  -3   7   29.48    2.18
   1   3   7   33.58    2.06
  -1   3  -7   29.11    2.00
  -1  -3  -7   29.71    2.29
  -1  -3  -7   31.34    2.15
  -1   3  -8  192.74    8.08
   1  -3   8  177.30    7.77
  -1  -3  -8  191.63    8.63
  -1   3  -8  189.93    8.65
   1   3   8  172.88    8.79
  -1   3  -8  176.84    8.34
   1   3   8  190.38    8.85
  -1  -3  -8  197.02    8.88
   1  -3   8  187.50    8.68
   1  -3   8  187.98    8.53
   1   3   8  180.70    8.34
   1  -3   8  187.15    8.43
  -1   3  -9    4.76    1.08
  -1   3  -9    4.68    1.00
   1   3   9    3.16    1.15
  -1  -3  -9    6.71    1.32
   1  -3   9    5.96    1.12
   1  -3   9    5.57    1.24
   1  -3   9    6.41    1.19
  -1   3  -9    5.28    0.78
  -1  -3  -9    5.27    1.17
   1   3   9    5.56    1.45
   1  -3  10   41.27    2.85
  -1  -3 -10   45.90    3.07
   1  -3  10   38.50    2.92
   1   3  10   38.82    3.06
  -1   3 -10   37.36    2.84
  -1   3 -10   39.48    2.31
  -1   3 -10   39.82    2.62
   1   3  10   37.84    3.11
  -1   3 -11   19.24    1.49
  -1  -3 -11   19.75    2.09
   1   3  11   19.50    1.92
   1   3  11   20.26    2.32
   1  -3  11   21.14    2.16
  -1   3 -11   20.36    1.84
   1  -3  11   15.42    1.96
   1   3  11   17.63    2.25
  -1   3 -11   12.89    1.81
   1  -3  12    8.08    1.65
  -1  -3 -12   12.09    1.81
  -1   3 -12   15.40    1.89
   1   3  12    8.83    1.40
   1  -3  12   10.89    1.69
   1   3  12   11.42    1.92
  -1   3 -12    8.70    1.05
  -1   3 -12   11.39    1.49
   1   3  12   11.32    2.02
   1   3  13  144.82    7.87
   1  -3  13  143.58    7.62
  -1   3 -13  150.40    7.74
   1  -3  13  140.00    7.47
   1   3  13  144.76    7.32
   1   3  13  161.22    8.24
  -1  -3 -13  153.01    7.76
  -1   3 -13  139.35    6.67
  -1   3 -14  110.96    6.32
  -1   3 -14  104.78    5.21
   1   3  14  109.07    6.70
   1   3  14  101.71    5.84
  -1  -3 -14  110.96    6.41
   1  -3  14  114.21    6.22
  -1   3 -15   76.95    4.04
   1  -3  15   79.65    5.08
  -1  -3 -15   76.24    5.07
  -1   3 -15   83.78    5.60
  -1   3 -15   74.69    5.07
   1   3  15   75.66    4.76
  -1   3 -16    1.02    0.89
   1  -3  16   -0.33    1.59
  -1  -3 -16    1.81    1.78
   1   3  16    1.40    1.53
  -1   3 -16    0.72    1.59
  -1   3 -16   -0.43    1.89
  -1   3 -17   42.47    4.17
  -1  -3 -17   50.60    4.12
  -1  -3 -17   43.03    3.12
  -1   3 -17   38.46    2.91
  -1   3 -17   34.46    2.48
  -1   3 -17   38.23    3.65
  -1  -3 -17   44.27    3.54
  -1  -3 -18   37.67    3.64
  -1   3 -18   28.95    2.15
  -1  -3 -18   30.25    2.62
  -1   3 -18   34.82    4.02
  -1   3 -18   32.33    3.46
  -1  -3 -18   28.75    3.08
  -1   3 -18   30.02    2.60
  -1   3 -19    6.76    2.62
  -1   3 -19    7.23    2.24
  -1   3 -19    5.36    1.11
  -1  -3 -19    3.57    1.81
  -1  -3 -19    6.17    2.43
  -1  -3 -20   54.57    4.73
  -1   3 -20   48.14    4.85
  -1  -3 -20   39.13    3.71
  -1   3 -20   43.66    4.37
  -1  -3 -21   -0.33    1.78
  -1  -3 -21    1.95    2.57
  -1   3 -21    0.46    2.14
  -1  -3 -22   20.16    3.64
  -1   3 -22   19.26    3.37
   1  -4 -23   18.28    3.32
   1   4 -22    0.80    2.21
   1   4 -21   64.88    5.02
   1   4 -20   -0.55    2.49
   1  -4 -20    1.58    2.21
   1   4 -20   -0.74    1.85
   1  -4 -19   43.30    3.89
   1   4 -19   41.79    4.45
   1   4 -19   34.40    3.52
   1  -4 -18   -0.69    1.88
   1  -4 -18    1.07    2.36
   1  -4 -18    0.58    1.51
   1   4 -18    2.99    1.72
   1   4 -18    0.32    1.55
   1   4 -17  250.59   12.54
   1  -4 -17  269.56   12.56
   1  -4 -17  267.11   13.87
   1   4 -17  254.47   12.62
   1  -4 -17  288.59   12.86
   1   4 -16    4.09    1.83
  -1  -4  16    2.37    1.69
   1   4 -16    1.74    1.54
   1  -4 -16    3.29    1.62
   1  -4 -16    4.04    1.65
   1  -4 -16    5.17    2.38
  -1  -4  15  222.82   10.64
   1   4 -15  215.35   10.52
   1  -4 -15  221.23   10.69
   1  -4 -15  232.09   11.74
   1  -4 -15  217.35   10.57
   1   4 -15  218.95   10.80
   1   4 -14    2.93    1.54
   1  -4 -14    4.09    2.03
   1  -4 -14    4.28    1.45
  -1  -4  14    1.02    1.26
   1  -4 -14    2.56    1.40
   1   4 -14    6.91    1.74
   1   4 -14    1.73    1.26
   1   4 -13  277.45   12.69
   1   4 -13  259.15   12.71
   1  -4 -13  274.78   12.60
   1   4 -13  253.58   12.10
   1  -4 -13  274.82   13.29
  -1  -4  13  272.51   12.26
  -1   4  13  269.32   12.88
   1  -4 -13  260.81   12.23
  -1   4  13  284.55   13.32
   1   4 -12    1.62    0.92
   1   4 -12    3.12    1.52
  -1   4  12    2.19    1.53
   1  -4 -12    2.05    1.20
   1  -4 -12    2.11    1.53
   1   4 -12    0.57    1.31
  -1  -4  12    0.64    1.04
   1   4 -12    0.48    1.22
  -1   4  12   -0.70    1.66
   1  -4 -11  909.00   35.89
   1  -4 -11  882.02   36.85
   1   4 -11  881.34   36.45
   1   4 -11  871.46   36.47
  -1  -4  11  835.30   35.85
  -1   4  11  877.48   36.93
   1   4 -11  862.84   36.04
   1   4 -11  858.36   35.81
  -1   4  11  897.34   36.66
  -1   4  10   27.69    2.52
   1   4 -10   22.06    2.38
   1   4 -10   29.20    2.64
  -1   4  10   25.73    2.71
   1   4 -10   25.32    1.97
  -1  -4  10   24.57    2.62
   1   4 -10   28.16    2.47
   1  -4 -10   23.62    2.47
  -1  -4  10   26.28    2.08
   1   4 -10   23.25    2.09
   1  -4 -10   31.07    2.11
   1   4  -9  196.37    8.64
   1  -4  -9  191.72    9.32
   1   4  -9  192.78    8.46
  -1   4   9  181.57    9.11
   1  -4  -9  193.60    8.48
   1   4  -9  190.79    9.02
  -1   4   9  188.73    9.45
  -1  -4   9  171.35    9.26
  -1  -4   9  188.11    8.56
   1   4  -9  191.67    9.19
   1   4  -9  179.76    9.12
  -1   4   8   19.56    2.21
   1   4  -8   15.84    1.44
   1   4  -8   13.66    1.68
  -1  -4   8   18.85    1.54
   1  -4  -8   19.02    1.40
   1   4  -8   17.95    2.03
   1   4  -8   19.23    1.44
   1  -4  -8   17.65    1.92
   1   4  -8   16.82    1.82
  -1   4   8   18.56    1.94
  -1  -4   8   18.65    2.17
   1   4  -7  164.17    7.82
  -1  -4   7  174.16    7.45
   1   4  -7  172.03    8.11
   1   4  -7  168.14    8.17
   1  -4  -7  161.58    7.23
  -1  -4   7  176.28    8.45
   1   4  -7  161.57    7.38
   1   4  -7  165.30    7.31
  -1   4   7  172.04    8.42
   1  -4  -7  167.52    8.09
   1  -4  -6  192.54    8.72
  -1  -4   6  181.32    8.99
   1   4  -6  190.11    8.52
   1   4  -6  195.20    8.76
  -1  -4   6  191.83    8.04
  -1   4   6  193.28    9.11
  -1  -4   6  181.96    7.73
   1   4  -6  177.46    7.98
  -1   4   5  669.86   27.65
   1   4  -5  673.54   27.54
   1   4  -5  668.22   26.93
  -1   4   5  686.36   28.20
   1  -4  -5  666.06   27.67
   1   4  -5  675.27   27.76
  -1  -4   5  651.81   28.21
   1  -4  -4   23.87    1.74
   1   4  -4   22.20    1.17
  -1  -4   4   20.75    2.08
   1  -4  -4   28.09    2.39
  -1  -4   4   23.23    1.25
  -1   4   4   24.55    1.75
  -1  -4   3   69.00    4.15
   1  -4  -3   67.54    3.46
  -1   4   3   66.79    3.48
   1  -4  -3   72.65    4.25
  -1  -4   3   67.22    3.06
   1  -4  -2    1.36    0.89
   1  -4  -2    2.50    0.56
  -1  -4   2    1.17    0.93
  -1   4   2    3.27    0.61
  -1  -4   1  458.38   19.06
  -1  -4   1  504.21   20.33
   1  -4  -1  465.31   19.09
   1  -4  -1  480.30   20.17
  -1   4   1  472.07   18.81
  -1   4   0   17.00    1.02
   1   4   0   16.00    0.98
   1  -4   0   19.95    1.87
   1  -4   0   16.12    0.98
  -1  -4   0   17.07    1.05
  -1  -4   0   14.99    1.77
   1  -4   1   55.69    3.35
  -1  -4  -1   49.50    3.06
   1  -4   1   49.20    2.15
  -1   4  -1   44.87    2.41
   1   4   1   47.89    2.41
  -1  -4  -1   49.47    3.31
  -1  -4  -2    5.78    1.20
  -1  -4  -2    5.63    1.04
   1  -4   2    6.39    1.12
   1   4   2    5.99    0.75
  -1   4  -2    4.57    0.70
   1  -4   2    5.68    0.89
   1  -4   3  394.50   16.79
  -1   4  -3  379.90   16.63
   1  -4   3  375.81   15.56
   1  -4   3  393.44   16.50
   1   4   3  390.65   16.03
   1  -4   3  386.25   16.41
   1   4   3  395.84   16.16
   1  -4   3  384.72   16.30
  -1   4  -3  412.01   16.22
   1  -4   4    1.05    0.63
  -1   4  -4    1.43    0.69
   1   4   4    1.82    0.68
   1  -4   4    1.41    0.39
   1   4   4    1.70    0.57
   1  -4   4    1.23    0.80
   1  -4   4    1.11    0.64
   1  -4   4    1.19    0.59
  -1   4  -4    3.46    0.99
  -1   4  -5 1473.14   58.62
   1  -4   5 1408.49   58.40
   1   4   5 1409.04   58.57
   1  -4   5 1479.97   58.80
  -1   4  -5 1433.86   58.71
   1  -4   5 1460.25   58.91
   1   4   5 1479.66   58.22
   1  -4   5 1421.97   57.95
   1   4   5 1537.28   59.01
   1  -4   5 1478.57   58.45
  -1   4  -6    1.10    0.95
  -1   4  -6   -0.19    0.74
   1   4   6    0.12    0.59
   1  -4   6    0.29    0.52
   1  -4   6    0.20    0.77
   1  -4   6    1.03    0.75
  -1  -4  -6   -0.50    0.96
   1   4   6    0.45    0.91
   1  -4   6    1.26    0.70
   1  -4   6    0.42    0.85
   1   4   7  128.85    6.17
   1  -4   7  133.06    6.10
  -1   4  -7  138.66    6.72
   1   4   7  122.86    6.80
   1  -4   7  133.81    6.10
  -1   4  -7  133.46    6.53
   1  -4   7  139.70    6.08
  -1  -4  -7  127.51    6.91
   1  -4   7  134.37    6.71
   1   4   8    2.75    1.17
  -1   4  -8    0.70    0.87
   1   4   8    1.14    0.77
  -1   4  -8    1.00    0.85
   1  -4   8    1.53    0.76
   1   4   8   -0.26    1.15
  -1  -4  -8    1.85    1.17
   1  -4   8    2.06    0.66
   1  -4   8    1.52    1.13
   1   4   9    1.37    1.26
   1  -4   9    2.02    1.14
  -1  -4  -9    1.37    1.20
  -1   4  -9    0.21    0.91
  -1   4  -9    2.58    1.17
   1   4   9   -0.25    1.13
  -1   4  -9   -0.26    1.10
   1  -4   9    0.66    0.56
   1   4  10    0.29    1.27
  -1  -4 -10    2.57    1.32
  -1   4 -10   -1.10    1.24
  -1   4 -10   -0.56    1.08
   1   4  10    1.37    1.29
   1  -4  10    1.09    1.04
  -1  -4 -10    1.10    0.99
   1  -4  10    0.15    0.50
   1  -4  10    0.92    1.05
  -1   4 -10    0.23    0.99
  -1   4 -11  509.64   21.46
   1   4  11  485.81   21.28
  -1   4 -11  475.31   20.93
   1  -4  11  477.70   20.63
  -1  -4 -11  487.59   21.28
  -1   4 -11  485.56   21.35
   1   4  11  494.28   21.49
  -1  -4 -11  479.55   20.91
   1   4  11  484.67   20.55
   1  -4  12   42.45    2.96
  -1   4 -12   36.26    2.99
  -1  -4 -12   37.59    3.22
   1   4  12   37.92    2.79
   1   4  12   36.16    3.27
   1   4  12   41.64    3.49
  -1   4 -12   33.55    3.21
  -1   4 -12   40.55    3.38
  -1  -4 -12   35.03    2.96
  -1   4 -13   36.02    3.40
   1   4  13   37.60    2.84
  -1   4 -13   35.03    3.13
  -1   4 -13   41.29    2.88
   1   4  13   41.86    3.70
   1  -4  13   39.39    3.05
   1   4  13   38.98    3.49
  -1  -4 -13   42.92    3.29
  -1  -4 -13   33.72    3.19
  -1   4 -13   39.25    3.60
  -1   4 -14    2.53    1.42
   1  -4  14    0.53    1.35
  -1   4 -14    1.29    1.10
   1   4  14    0.70    1.16
  -1  -4 -14    0.33    1.41
  -1  -4 -14   -0.31    1.39
  -1   4 -14   -0.39    1.68
   1  -4  15  153.16    8.08
  -1  -4 -15  162.27    8.52
  -1  -4 -15  158.83    8.42
  -1   4 -15  166.24    8.54
   1   4  15  156.75    7.94
  -1   4 -15  151.63    7.68
  -1   4 -16   51.76    4.27
  -1  -4 -16   58.98    4.38
  -1  -4 -16   58.46    4.41
   1  -4  16   50.70    4.08
   1   4  16   56.71    3.97
  -1   4 -16   59.30    3.73
  -1   4 -17   10.27    1.68
  -1  -4 -17   14.55    2.40
  -1   4 -17    8.69    2.20
  -1  -4 -17    7.07    2.06
  -1  -4 -18    1.64    1.46
  -1   4 -18    3.18    1.95
  -1  -4 -18   -0.79    2.02
  -1  -4 -18    1.08    1.74
  -1  -4 -19   17.41    2.64
  -1  -4 -19   22.46    3.20
  -1   4 -19   18.83    2.85
  -1  -4 -20    3.06    2.38
  -1   4 -20   -0.44    2.04
  -1  -4 -20    0.37    2.02
  -1  -4 -21   61.32    5.17
  -1   4 -21   67.72    5.34
  -1   4 -22   -0.47    2.25
   1  -5 -22   16.40    3.66
   1  -5 -21   11.75    3.18
   1  -5 -20   23.10    3.67
   1   5 -20   27.80    3.16
   1  -5 -19    9.46    2.73
   1   5 -19    6.63    1.84
   1   5 -19    7.98    2.99
   1   5 -18    9.40    2.19
   1   5 -18    6.03    2.67
   1  -5 -18    6.49    2.54
   1  -5 -18    7.15    1.99
   1   5 -17    1.18    1.36
   1   5 -17   -0.47    2.01
   1  -5 -17    0.61    1.54
   1   5 -16    0.45    2.01
   1  -5 -16    0.48    2.16
   1   5 -16   -0.67    1.74
   1  -5 -16    0.28    1.59
   1   5 -16   -0.27    1.37
   1   5 -15   23.58    3.03
   1  -5 -15   21.47    2.42
   1  -5 -15   21.61    3.05
   1   5 -15   23.00    2.84
  -1  -5  15   21.39    2.40
   1   5 -15   17.19    2.16
   1  -5 -14   -0.67    1.54
   1   5 -14    0.23    1.15
   1  -5 -14   -0.42    1.83
  -1  -5  14    1.68    1.40
   1  -5 -14    0.94    1.25
   1   5 -14   -0.65    1.56
   1   5 -14    1.99    1.66
   1   5 -13   10.08    2.11
   1   5 -13   13.50    1.72
  -1  -5  13   11.00    1.63
   1  -5 -13   10.45    1.59
   1  -5 -13   10.87    2.27
   1   5 -13   10.75    2.09
   1   5 -13   11.18    2.27
  -1  -5  13   10.40    0.91
  -1   5  12    3.58    1.76
   1   5 -12    2.11    1.10
   1   5 -12    3.88    1.54
   1   5 -12    4.19    1.74
   1   5 -12    3.70    1.57
   1  -5 -12    3.80    1.14
   1  -5 -12    1.80    1.75
  -1  -5  12    3.20    1.21
   1   5 -11    3.63    1.48
   1   5 -11    3.60    1.04
  -1   5  11    3.95    1.58
   1  -5 -11    6.31    1.83
   1  -5 -11    3.14    1.05
  -1   5  11    6.78    1.91
  -1  -5  11    3.79    1.66
   1   5 -11    4.56    1.59
  -1  -5  11    4.55    1.21
   1   5 -11    4.22    1.47
  -1   5  10  189.47    9.01
  -1   5  10  172.73    9.19
  -1  -5  10  173.59    8.03
   1   5 -10  176.44    8.89
  -1  -5  10  168.77    9.12
   1   5 -10  176.98    8.02
   1   5 -10  160.45    8.81
   1  -5 -10  175.40    8.99
   1   5 -10  184.94    8.81
  -1  -5   9    9.53    1.15
   1   5  -9    9.74    1.85
  -1   5   9   10.33    2.06
  -1   5   9   13.76    1.80
   1   5  -9   13.81    1.77
   1  -5  -9   11.05    1.98
  -1  -5   9    9.13    1.93
   1   5  -9    7.80    1.54
   1  -5  -9    9.41    1.69
   1   5  -8  170.53    8.21
  -1  -5   8  155.38    8.29
  -1   5   8  157.92    8.29
   1   5  -8  150.62    7.86
   1  -5  -8  162.68    7.99
  -1   5   8  160.63    7.83
  -1  -5   8  154.43    6.99
   1   5  -8  153.03    7.66
   1   5  -7    1.87    1.06
   1   5  -7    2.96    1.21
  -1   5   7    1.93    1.11
  -1  -5   7    1.73    0.49
  -1   5   7    2.91    1.31
   1  -5  -7    2.23    1.14
  -1  -5   7    1.82    1.20
  -1  -5   6    2.43    1.31
   1   5  -6    3.42    1.22
  -1  -5   6    2.25    0.58
   1  -5  -6    2.28    1.36
   1  -5  -6    3.75    1.12
   1   5  -6    2.35    1.07
  -1  -5   5    4.16    1.41
   1  -5  -5    1.55    0.84
   1   5  -5    0.58    0.83
   1  -5  -5    3.46    1.39
  -1   5   5    1.52    0.77
   1   5  -5    2.09    1.39
  -1  -5   4 1299.33   51.59
   1   5  -4 1259.30   50.67
   1  -5  -4 1269.13   50.46
   1  -5  -4 1360.49   51.69
  -1  -5   4 1204.57   49.82
   1   5  -4 1224.07   51.17
  -1   5   4 1266.61   50.49
   1  -5  -3   11.88    1.19
  -1  -5   3   10.89    1.77
   1  -5  -3    9.84    1.69
  -1   5   3    9.52    1.13
  -1  -5   3   10.88    0.91
  -1  -5   2    9.10    1.63
   1  -5  -2    9.57    1.61
   1  -5  -2   10.27    0.98
  -1   5   1    1.10    0.32
   1   5  -1    1.26    0.92
   1  -5  -1    1.69    0.48
  -1  -5   1    0.29    1.04
  -1  -5   1    0.51    0.40
   1  -5  -1    1.95    1.08
  -1   5   0    1.18    0.41
  -1  -5   0    0.08    0.40
   1   5   0    1.20    0.33
   1  -5   0    1.10    1.07
  -1  -5   0   -0.29    0.97
   1  -5   0    2.20    0.40
  -1  -5  -1    5.53    1.32
   1   5   1    5.52    0.68
  -1   5  -1    4.43    0.68
   1  -5   1    4.27    1.26
  -1  -5  -2 2165.50   85.22
   1   5   2 2089.07   83.80
   1  -5   2 2082.14   84.40
   1  -5   2 2082.11   84.32
   1  -5   2 2151.63   85.06
  -1   5  -2 2098.40   83.90
   1  -5   3   12.43    1.50
   1  -5   3   15.69    1.62
   1   5   3   13.79    1.29
   1  -5   3   18.33    2.11
   1  -5   3   15.53    1.51
   1   5   3   13.09    1.20
  -1   5  -3   18.76    1.93
  -1   5  -3   16.69    1.41
   1   5   4  229.04    9.64
   1  -5   4  208.09    9.79
   1  -5   4  213.01    9.65
  -1   5  -4  225.27   10.22
  -1   5  -4  215.94    9.65
   1  -5   4  227.66    9.97
   1  -5   4  207.07   10.30
  -1  -5  -4  196.71   10.27
   1   5   4  215.61    9.33
   1  -5   5  115.42    5.96
   1  -5   5  120.47    5.89
   1  -5   5  120.79    5.15
  -1   5  -5  136.58    6.51
   1   5   5  126.57    6.04
   1  -5   5  125.00    6.62
   1  -5   5  120.19    6.24
   1   5   5  127.78    5.65
  -1  -5  -5  112.79    6.55
  -1   5  -5  121.18    6.05
   1  -5   6   25.25    2.32
   1  -5   6   30.87    2.13
   1  -5   6   28.72    1.62
  -1  -5  -6   30.10    2.74
   1  -5   6   30.62    2.67
  -1   5  -6   30.11    2.32
  -1   5  -6   26.25    2.32
   1   5   6   28.12    1.88
   1  -5   6   29.74    2.09
  -1  -5  -6   25.17    2.62
   1  -5   7    9.54    1.69
   1  -5   7   12.17    1.04
  -1  -5  -7    9.05    1.71
   1   5   7    8.17    1.57
  -1  -5  -7    9.91    1.80
   1   5   7    9.37    1.09
  -1   5  -7    9.30    1.50
   1   5   7   11.24    1.53
  -1   5  -7    7.85    1.42
   1  -5   7    9.22    1.16
   1  -5   8  133.23    6.00
   1   5   8  137.48    6.83
   1   5   8  127.94    6.09
   1  -5   8  133.70    6.00
   1  -5   8  113.74    6.79
  -1   5  -8  136.42    6.75
  -1   5  -8  139.01    6.90
   1  -5   8  128.76    6.17
   1   5   8  128.57    7.01
  -1  -5  -8  119.91    7.06
  -1   5  -9    1.13    1.04
   1  -5   9    1.25    0.86
   1   5   9    2.04    0.87
  -1   5  -9    1.16    1.08
   1   5   9    1.81    1.37
   1  -5   9    0.27    1.23
  -1  -5  -9    0.65    1.35
  -1   5  -9    0.27    1.17
   1   5   9    1.30    1.32
   1  -5   9    1.37    0.69
  -1   5 -10  102.51    6.22
  -1   5 -10  122.76    6.16
   1   5  10  120.63    6.68
   1  -5  10  113.21    6.28
  -1   5 -10  118.28    6.06
  -1  -5 -10  103.34    6.45
   1   5  10  113.75    6.32
   1  -5  10  110.88    5.56
   1  -5  10  110.87    5.28
  -1  -5 -11   12.32    2.13
   1   5  11    8.19    2.05
   1  -5  11   12.75    1.98
   1  -5  11   11.63    1.55
  -1   5 -11   11.77    1.84
   1   5  11   10.15    1.49
   1  -5  11   14.88    1.20
  -1   5 -11   12.11    1.74
   1   5  11   12.77    2.11
  -1   5 -11   12.28    2.02
   1   5  12    2.93    1.55
   1  -5  12    3.04    1.27
  -1   5 -12    4.90    1.86
  -1  -5 -12    2.81    1.56
  -1   5 -12    4.11    1.47
   1   5  12    1.80    1.58
   1   5  12    2.45    1.08
  -1   5 -12    6.73    1.49
   1   5  13    1.01    1.06
  -1   5 -13   -2.65    1.74
  -1   5 -13    0.88    1.38
   1  -5  13    0.89    1.19
  -1  -5 -13   -0.36    1.57
  -1   5 -13    0.49    1.29
   1  -5  14  149.75    7.43
   1   5  14  125.22    7.06
  -1  -5 -14  149.44    8.26
  -1   5 -14  151.59    7.87
  -1   5 -14  154.53    7.50
  -1   5 -14  155.33    8.51
  -1  -5 -15    2.64    1.79
   1   5  15    2.08    1.34
  -1   5 -15    2.64    1.70
  -1   5 -15    1.23    1.26
  -1   5 -15    2.61    1.84
   1  -5  15    1.32    1.53
   1   5  16    7.15    1.76
  -1   5 -16    3.67    1.50
  -1   5 -16    5.58    1.85
  -1  -5 -16    4.63    2.05
  -1   5 -16    6.93    2.43
  -1   5 -17    1.47    2.32
  -1  -5 -17    2.36    1.86
  -1   5 -17    1.83    1.67
  -1  -5 -18   41.48    3.92
  -1   5 -18   39.24    3.87
  -1   5 -18   42.55    4.54
  -1  -5 -18   40.37    3.86
  -1  -5 -19   12.40    2.73
  -1  -5 -19   12.91    2.56
  -1   5 -19   14.06    2.82
  -1   5 -19   14.77    3.36
  -1  -5 -20   33.72    3.89
  -1   5 -20   38.39    3.97
  -1  -5 -21    0.82    2.57
  -1   5 -21    3.45    2.44
   1  -6 -20    0.52    2.67
   1  -6 -19    2.60    2.55
   1   6 -18   19.92    2.44
   1  -6 -18   18.99    3.33
   1   6 -18   21.75    3.49
   1   6 -17   27.44    2.84
   1   6 -17   32.93    3.93
   1  -6 -17   33.36    4.12
   1  -6 -16   -2.48    2.29
   1   6 -16   -1.39    2.11
   1   6 -16   -0.74    1.32
   1   6 -15    3.93    2.12
   1  -6 -15    5.35    2.44
   1   6 -15    1.36    1.24
   1  -6 -14    2.57    2.14
   1   6 -14    0.83    1.14
   1   6 -14   -0.41    1.73
   1  -6 -14    0.95    1.97
   1  -6 -13  465.48   21.19
   1  -6 -13  469.21   20.80
  -1  -6  13  438.67   19.23
   1   6 -13  454.98   20.61
   1   6 -13  454.38   20.32
   1   6 -12    0.67    1.47
   1  -6 -12    0.74    1.58
   1  -6 -12    0.90    1.82
  -1  -6  12    0.79    1.83
  -1   6  12    1.99    1.68
   1   6 -12    2.56    1.64
  -1  -6  12    0.85    1.04
   1  -6 -11    5.43    1.71
   1   6 -11    7.61    1.89
   1   6 -11   12.67    2.18
  -1   6  11    6.20    1.71
   1  -6 -11    8.35    2.22
  -1  -6  11    6.22    1.95
   1  -6 -10   25.20    3.14
   1   6 -10   22.39    2.58
   1  -6 -10   19.88    2.53
   1  -6 -10   23.52    3.10
   1   6 -10   17.32    2.52
  -1   6  10   28.74    2.68
  -1  -6  10   25.28    2.88
   1  -6  -9   16.03    2.58
  -1   6   9   17.71    2.21
  -1  -6   9   21.08    2.83
   1  -6  -9   25.20    2.99
   1   6  -9   21.30    2.51
   1  -6  -9   18.37    2.18
   1   6  -9   16.92    2.26
   1   6  -8    1.27    1.48
  -1  -6   8    0.37    1.48
   1  -6  -8   -0.26    1.32
  -1   6   8   -0.24    1.23
  -1  -6   8   -0.06    0.48
   1   6  -8    0.27    1.26
   1  -6  -8    0.84    1.50
  -1  -6   7 1043.67   41.13
   1   6  -7 1003.76   40.66
  -1   6   7 1002.99   40.01
  -1  -6   7  936.53   39.09
   1   6  -7  968.87   40.17
   1  -6  -7  976.29   40.06
   1  -6  -7  921.37   41.09
  -1  -6   6    2.16    0.81
   1  -6  -6    4.11    1.59
   1   6  -6    5.53    1.58
   1  -6  -6    4.65    1.28
   1   6  -6    2.99    1.10
  -1  -6   6    4.67    1.66
   1  -6  -6    5.39    1.73
   1  -6  -5   58.74    3.50
  -1  -6   5   57.52    4.39
   1   6  -5   66.37    4.29
   1   6  -5   59.61    3.71
   1  -6  -5   57.83    4.40
   1   6  -4    0.60    1.32
  -1   6   4    0.63    0.79
  -1  -6   4   -0.71    1.35
   1  -6  -4    1.77    1.48
  -1  -6   4   -0.32    0.51
   1  -6  -4   -0.60    0.84
   1   6  -4   -0.19    0.88
  -1  -6   3  206.00    9.08
  -1  -6   3  230.99   10.99
   1   6  -3  224.34    9.73
   1  -6  -3  217.91   10.78
   1   6  -3  216.38   10.46
  -1   6   3  210.44    9.40
   1  -6  -3  211.13    9.32
   1  -6  -2    8.09    0.92
  -1  -6   2    8.85    1.87
   1  -6  -2   11.69    1.95
  -1  -6   1   25.83    2.84
   1  -6  -1   28.21    2.87
  -1  -6   1   29.90    1.76
  -1   6   1   26.01    1.36
  -1   6   0    1.17    0.49
   1  -6   0    0.99    1.31
  -1  -6   0    0.28    1.02
  -1  -6   0    0.35    1.23
   1   6   0    2.77    1.34
  -1  -6   0    1.00    0.54
  -1  -6  -1    3.16    1.62
  -1  -6  -1    0.29    1.09
  -1   6  -1    1.28    0.58
  -1  -6  -1    1.61    0.57
   1  -6   1    1.32    1.41
   1   6   1    1.54    1.30
   1   6   1    1.11    0.45
  -1  -6  -2   13.39    1.90
   1   6   2   12.27    1.13
   1  -6   2   11.88    1.53
  -1  -6  -2   11.64    1.96
   1  -6   2   12.43    1.99
  -1   6  -2   13.40    1.26
   1  -6   2   11.89    1.51
   1  -6   3  328.54   14.71
   1  -6   3  375.46   15.96
  -1  -6  -3  350.52   15.96
   1   6   3  340.17   14.27
   1   6   3  346.70   14.38
  -1  -6  -3  321.06   15.49
   1  -6   3  346.49   14.93
  -1   6  -3  345.00   14.50
   1  -6   3  317.38   14.88
   1  -6   4  107.44    5.75
  -1   6  -4  125.64    5.89
   1  -6   4  117.46    6.11
   1  -6   4  124.87    6.90
   1   6   4  116.56    5.72
   1   6   4  115.31    5.42
  -1   6  -4  131.45    6.64
  -1  -6  -4  123.90    6.82
   1  -6   4  112.28    6.03
  -1   6  -5  309.27   13.09
   1  -6   5  298.46   12.88
   1  -6   5  300.51   13.97
  -1   6  -5  304.96   13.65
  -1  -6  -5  280.16   13.88
   1  -6   5  300.84   13.14
   1   6   5  290.82   12.44
   1  -6   5  279.29   13.19
  -1   6  -6    5.56    1.43
  -1  -6  -6    1.43    1.37
   1  -6   6    1.87    0.87
   1   6   6    2.59    0.72
   1  -6   6    3.58    1.19
  -1   6  -6    1.07    0.98
   1  -6   6    2.87    1.04
   1  -6   6    1.61    1.53
  -1   6  -7  119.80    6.34
  -1  -6  -7  118.50    7.08
   1   6   7  115.88    5.51
  -1  -6  -7  108.66    6.83
   1   6   7  122.88    6.26
  -1   6  -7  117.63    6.47
   1  -6   7  117.54    5.89
   1  -6   7  124.24    6.89
   1  -6   7  129.45    5.97
   1  -6   7  120.26    5.06
   1   6   8    0.49    1.22
  -1  -6  -8   -1.13    1.57
  -1   6  -8    1.05    1.13
  -1  -6  -8    0.77    1.34
   1   6   8    0.12    0.67
   1  -6   8   -0.58    0.84
   1  -6   8    0.97    1.61
   1  -6   8    0.31    0.57
  -1   6  -8    1.36    1.20
  -1   6  -9  523.71   22.23
   1   6   9  516.67   22.54
   1  -6   9  509.07   21.38
  -1  -6  -9  530.03   22.96
   1   6   9  519.38   21.11
   1   6   9  513.20   22.07
   1  -6   9  515.74   20.91
   1  -6   9  475.65   20.93
  -1   6  -9  507.04   22.06
   1  -6   9  533.46   22.51
   1  -6  10    1.62    0.98
  -1   6 -10    0.31    1.59
   1   6  10    1.74    1.46
  -1   6 -10    1.09    1.22
   1  -6  10   -0.26    0.80
   1   6  10    2.02    1.80
   1  -6  10   -0.66    1.56
  -1  -6 -10    1.96    1.63
   1   6  11  473.30   20.45
   1  -6  11  453.06   19.29
  -1   6 -11  471.23   20.64
   1  -6  11  447.88   20.50
  -1  -6 -11  486.22   21.12
   1  -6  11  453.19   19.21
  -1   6 -11  462.32   20.15
  -1  -6 -12    0.41    1.77
  -1   6 -12    2.75    1.58
   1  -6  12    2.35    1.74
  -1   6 -12    1.83    1.69
   1  -6  12    1.34    0.85
   1  -6  12   -0.53    1.04
   1   6  12    1.51    1.12
  -1   6 -13  311.21   14.25
   1   6  13  303.49   13.63
  -1   6 -13  330.19   15.17
  -1  -6 -13  314.90   15.20
   1   6  14   -0.19    1.12
  -1  -6 -14    1.26    1.89
  -1   6 -14    1.65    1.42
  -1   6 -14   -1.69    1.89
  -1   6 -14   -0.61    1.48
  -1   6 -15   41.60    3.41
   1   6  15   49.48    3.24
  -1   6 -15   38.30    3.46
  -1   6 -15   43.55    4.22
  -1  -6 -15   34.68    3.81
  -1   6 -16    0.34    1.70
  -1  -6 -16   -0.87    1.98
  -1   6 -16   -1.90    2.01
  -1   6 -17   80.65    6.09
  -1  -6 -17   81.46    5.87
  -1   6 -17   72.62    5.30
  -1   6 -18   -0.53    2.35
  -1   6 -18    2.59    1.77
  -1  -6 -18    0.45    2.34
  -1   6 -19   50.03    4.31
  -1  -6 -19   50.63    4.82
  -1  -6 -20    1.82    2.40
   1  -7 -18    1.09    2.58
   1  -7 -17   10.77    3.16
   1   7 -17    5.04    2.57
   1  -7 -16   12.23    3.28
   1   7 -16    9.58    2.71
   1   7 -15   -2.26    2.49
   1  -7 -15    0.52    2.41
   1  -7 -14    0.51    2.24
   1   7 -14    2.56    1.94
   1  -7 -13   15.64    3.02
  -1  -7  13   15.72    2.83
   1   7 -13   19.42    2.80
   1   7 -12   54.90    4.49
   1  -7 -12   53.78    4.96
  -1  -7  12   64.56    5.00
   1   7 -11    3.93    1.91
   1  -7 -11    5.31    2.11
  -1  -7  11    1.76    1.77
  -1   7  11    2.21    1.64
   1  -7 -10  111.46    7.28
   1   7 -10  107.67    6.54
   1  -7 -10   97.95    7.04
  -1   7  10  124.24    6.51
  -1  -7  10  110.14    7.12
   1   7  -9    1.87    1.60
  -1  -7   9   -0.43    1.82
  -1   7   9    1.64    1.29
   1  -7  -9    0.95    1.71
   1   7  -8    6.96    1.89
   1   7  -8    9.59    2.14
   1  -7  -8   14.02    2.50
  -1   7   8   10.08    1.69
  -1  -7   8    7.92    1.00
  -1  -7   8   11.19    2.39
   1   7  -7   27.92    3.12
   1   7  -7   36.33    2.90
  -1  -7   7   35.55    3.60
  -1   7   7   32.76    2.71
  -1  -7   7   27.65    2.12
   1  -7  -7   33.46    3.61
   1   7  -6   89.34    5.59
   1  -7  -6   92.14    6.06
   1   7  -6   88.92    4.99
   1  -7  -6   78.07    5.74
  -1  -7   6   79.94    4.47
  -1  -7   6   92.96    6.02
   1  -7  -5   -0.43    1.72
   1   7  -5    0.34    1.54
   1   7  -5    1.57    1.17
   1  -7  -5   -0.42    1.57
  -1  -7   5    0.41    1.55
   1  -7  -4  812.43   33.18
   1  -7  -4  764.96   32.89
   1   7  -4  758.74   31.49
   1   7  -4  781.46   32.53
  -1  -7   4  824.68   33.23
  -1  -7   4  731.47   30.63
   1  -7  -3    6.40    1.93
   1  -7  -3    2.06    1.73
  -1  -7   3    4.71    0.90
   1   7  -3    6.67    1.31
  -1  -7   3    3.32    1.97
   1   7  -3    7.64    1.86
   1  -7  -2    1.22    1.69
  -1  -7   2    0.42    1.64
   1   7  -2    1.01    0.84
  -1  -7   2    0.26    0.68
   1  -7  -2   -1.17    1.54
   1   7  -1    0.15    0.72
  -1   7   1    0.32    0.28
   1  -7  -1    0.75    1.43
   1  -7  -1   -0.40    1.60
  -1  -7   1    1.24    1.44
   1  -7   0   17.82    2.53
   1  -7   0   23.28    2.81
  -1   7   0   15.07    1.13
  -1  -7   0   16.32    1.30
  -1  -7   0   18.52    2.65
  -1  -7   0   12.16    2.09
  -1  -7  -1   38.87    3.69
  -1   7  -1   31.05    1.95
  -1  -7  -1   31.75    1.90
  -1  -7  -1   30.42    2.97
   1  -7   1   31.30    2.52
   1  -7   1   34.95    3.52
  -1  -7  -2  811.22   35.61
   1  -7   2  820.20   34.61
   1   7   2  853.03   33.74
  -1  -7  -2  855.71   36.12
  -1  -7  -2  830.80   33.78
  -1   7  -2  841.19   34.03
   1  -7   2  893.54   36.05
   1  -7   2  804.48   34.59
  -1   7  -3    1.38    0.91
   1  -7   3    1.16    1.53
  -1  -7  -3   -0.84    1.85
   1  -7   3    0.80    0.99
  -1  -7  -3    1.10    1.23
   1  -7   3    1.75    1.12
   1   7   3    0.47    0.76
   1   7   3    1.98    0.74
   1  -7   3    0.22    1.16
   1  -7   4   19.38    1.93
   1  -7   4   20.78    2.13
   1  -7   4   26.77    3.04
   1   7   4   19.99    1.47
  -1  -7  -4   21.91    2.65
   1  -7   4   16.23    1.94
   1   7   4   18.50    1.72
  -1   7  -4   26.50    2.01
  -1   7  -5    4.65    1.23
   1  -7   5    6.49    1.33
   1  -7   5    6.29    1.50
   1  -7   5    3.47    1.74
   1   7   5    4.60    0.79
   1  -7   5    1.42    1.08
  -1  -7  -5    1.95    1.53
   1  -7   6    1.14    1.51
   1   7   6   -0.09    0.58
   1   7   6    1.40    1.01
   1  -7   6    0.18    0.87
  -1   7  -6    2.24    1.47
   1  -7   6   -0.22    1.12
  -1   7  -6    2.71    1.21
  -1  -7  -6   -0.81    1.36
   1   7   7    1.63    0.68
  -1   7  -7    1.28    1.53
   1  -7   7    2.11    1.04
  -1  -7  -7    1.30    1.77
   1  -7   7    1.42    1.11
  -1  -7  -7    0.84    1.72
   1  -7   7    1.90    1.84
  -1   7  -7   -0.75    1.31
   1   7   7    0.67    1.25
   1  -7   8   52.97    4.19
   1  -7   8   48.42    3.04
   1   7   8   48.13    2.55
  -1   7  -8   45.50    3.45
   1   7   8   40.16    3.29
  -1  -7  -8   55.97    4.50
  -1  -7  -8   41.43    4.00
  -1   7  -8   48.58    3.87
   1  -7   9   -0.63    1.09
   1   7   9   -0.27    1.36
  -1   7  -9   -0.32    1.60
  -1  -7  -9    0.44    1.59
   1  -7   9   -0.74    1.83
  -1   7  -9    0.30    1.50
   1  -7   9    0.55    0.90
   1   7   9   -0.11    0.72
  -1  -7  -9   -0.44    1.73
   1  -7  10    0.79    1.01
  -1   7 -10    0.64    1.56
   1  -7  10    2.30    1.86
   1   7  10    0.29    1.45
  -1  -7 -10    0.45    1.81
   1   7  10    1.39    0.82
  -1   7 -10    0.66    1.53
  -1   7 -11   -0.64    1.64
  -1  -7 -11    0.46    1.90
   1  -7  11   -0.77    1.79
   1   7  11    2.84    1.70
  -1   7 -11    0.35    1.69
   1  -7  12    0.77    1.82
  -1   7 -12   -1.14    2.06
  -1   7 -12   -0.32    1.69
  -1  -7 -12    0.46    2.02
  -1  -7 -13   18.83    3.18
   1  -7  13   22.73    3.03
  -1   7 -13   18.88    2.66
   1   7  13   23.75    1.95
  -1   7 -13   18.76    2.98
  -1   7 -14    2.17    2.30
  -1  -7 -14    1.91    2.11
  -1   7 -14    3.13    1.81
  -1   7 -15    1.84    2.13
  -1  -7 -15    3.38    2.61
  -1  -7 -16    0.49    2.31
  -1   7 -16    0.98    2.31
  -1  -7 -17    7.40    2.60
  -1   7 -17    7.72    3.02
  -1  -7 -18   14.89    3.20
  -1  -7 -19    9.96    2.96
   1   8 -16   -0.49    2.40
   1   8 -15   69.63    5.71
   1  -8 -15   82.27    6.53
   1   8 -14    4.83    2.36
   1  -8 -14    8.46    3.08
  -1  -8  13   73.32    5.97
   1  -8 -13   80.29    6.40
   1   8 -13   83.17    5.72
  -1  -8  12    3.43    2.43
   1   8 -12    1.17    2.11
   1  -8 -12    2.20    2.29
   1  -8 -11  241.06   12.82
  -1  -8  11  215.76   12.23
   1   8 -11  237.11   11.66
   1  -8 -10    5.32    2.51
   1   8 -10   10.38    2.21
   1  -8 -10    8.58    2.37
  -1   8  10    8.62    2.09
  -1  -8  10   12.64    2.72
   1   8  -9   13.92    2.26
  -1  -8   9    7.71    2.56
  -1   8   9   10.25    2.01
   1  -8  -9   12.98    2.67
  -1  -8   8    1.40    2.09
   1  -8  -8    1.55    2.00
   1   8  -8    0.60    1.46
  -1   8   8    1.00    1.44
   1  -8  -7   13.18    2.75
   1  -8  -7   12.52    2.56
   1   8  -7   16.76    2.15
  -1   8   7   10.59    1.70
  -1  -8   7   13.83    2.69
   1  -8  -6   14.01    2.72
  -1  -8   6   14.27    2.92
   1  -8  -6   14.96    2.92
   1   8  -6   11.61    1.83
  -1  -8   6    8.68    1.52
   1  -8  -5   45.80    4.45
   1   8  -5   49.07    3.38
  -1  -8   5   46.41    4.35
   1  -8  -5   43.79    4.28
   1   8  -4    0.64    1.12
   1  -8  -4    0.97    1.84
  -1  -8   4    0.45    0.65
  -1  -8   4    1.42    1.94
   1  -8  -4   -0.92    1.75
  -1  -8   3   16.77    1.46
  -1  -8   3   23.26    3.24
   1  -8  -3   21.73    3.23
   1  -8  -3   22.18    3.01
   1   8  -3   20.31    1.94
   1  -8  -2   19.11    2.99
   1  -8  -2   18.79    2.74
  -1  -8   2   14.38    2.79
   1   8  -2   16.30    1.72
  -1  -8   2   12.32    1.42
   1  -8  -1  164.72    9.57
  -1  -8   1  182.88    9.86
  -1  -8   1  161.02    9.01
   1  -8  -1  172.60    9.44
   1   8  -1  159.25    7.56
   1  -8   0   24.60    2.29
   1   8   0   26.12    1.89
  -1   8   0   23.62    1.39
  -1  -8   0   20.40    3.12
   1  -8   0   25.29    3.40
   1  -8   0   27.03    3.16
  -1  -8   0   27.33    3.07
   1  -8   1   17.56    2.61
  -1   8  -1   13.45    1.24
  -1  -8  -1   15.60    1.27
   1  -8   1   15.82    1.95
   1  -8   1   14.19    1.84
   1  -8   1   16.44    2.84
  -1  -8  -1   17.88    2.66
  -1  -8  -1    9.99    2.48
   1   8   1   17.24    1.45
   1  -8   2    2.90    1.34
   1   8   2    0.91    0.71
  -1   8  -2    1.70    0.85
   1  -8   2    2.99    1.23
   1   8   2    1.39    0.78
  -1  -8  -2    0.48    1.96
   1  -8   2    3.61    1.94
  -1  -8  -2   -0.42    1.62
  -1  -8  -2    1.26    0.66
   1   8   3  125.75    5.87
   1   8   3  142.78    6.03
   1  -8   3  128.35    8.06
   1  -8   3  130.30    7.14
  -1  -8  -3  144.10    8.44
   1   8   3  131.00    5.96
   1  -8   3  139.35    6.78
   1  -8   3  132.44    6.83
  -1  -8  -3  146.29    8.08
  -1  -8  -3  131.63    5.96
  -1   8  -3  140.66    6.44
   1  -8   4    0.55    1.22
   1   8   4    0.75    0.65
  -1  -8  -4    1.93    2.07
  -1   8  -4   -0.37    1.11
   1   8   4    1.23    0.95
   1  -8   4    0.90    1.78
   1  -8   4    0.20    1.14
   1  -8   4    3.14    1.34
  -1  -8  -4   -0.43    1.79
  -1   8  -5  311.24   13.24
   1  -8   5  310.77   13.07
  -1  -8  -5  297.93   14.61
   1   8   5  277.28   12.07
   1  -8   5  314.11   13.62
  -1  -8  -6    0.46    1.83
   1   8   6    0.77    1.12
   1  -8   6   -1.32    2.06
   1  -8   6   -0.18    1.06
  -1   8  -6   -0.71    1.30
   1  -8   6   -0.75    1.29
   1   8   6    0.05    0.55
  -1  -8  -7   54.39    4.84
   1  -8   7   61.69    4.81
   1   8   7   47.51    3.39
   1   8   7   45.27    2.26
  -1  -8  -7   54.61    4.55
  -1   8  -7   59.65    3.76
   1   8   8   12.39    0.97
  -1   8  -8   17.28    2.22
  -1  -8  -8   16.81    2.94
   1  -8   8   19.16    2.22
  -1  -8  -8   16.95    2.87
   1   8   8   14.87    1.98
   1  -8   8   16.66    3.04
  -1  -8  -9    0.49    1.92
   1  -8   9    0.43    2.01
   1   8   9    0.79    0.57
  -1  -8  -9    0.50    2.04
  -1   8  -9    0.31    1.47
   1   8   9    1.37    1.62
  -1   8 -10   -0.68    1.94
   1   8  10   -0.30    1.57
  -1  -8 -10   -2.03    2.28
   1   8  10    0.54    0.66
   1  -8  10   -0.87    2.01
  -1  -8 -11  166.79    9.58
  -1   8 -11  140.69    8.41
   1  -8  11  161.67    9.01
  -1   8 -12    2.35    2.03
   1  -8  12    0.43    1.98
  -1  -8 -12    1.04    2.31
  -1   8 -13    2.51    2.03
   1  -8  13    0.86    2.04
  -1  -8 -13    2.11    2.46
  -1   8 -14    0.89    2.28
  -1  -8 -14   -1.07    2.49
  -1  -8 -15   14.51    3.33
  -1   8 -15   13.18    2.99
  -1  -8 -16    1.62    2.59
  -1   8 -16    2.97    2.70
   1   9 -14    4.46    2.59
  -1  -9  14    3.76    2.76
   1   9 -13    4.23    2.28
  -1  -9  13    3.75    2.72
  -1  -9  12    3.75    2.70
   1   9 -12   11.55    2.65
   1  -9 -12    6.69    3.13
  -1  -9  11    9.70    2.89
   1  -9 -11    8.41    3.06
   1   9 -11    5.23    2.17
   1  -9 -10   24.96    3.97
  -1  -9  10   23.13    3.79
   1   9 -10   24.49    2.95
   1   9  -9   -1.32    1.91
  -1  -9   9    0.54    2.44
   1  -9  -9    0.56    2.14
  -1  -9   8   -0.52    2.30
   1   9  -8    1.23    1.49
  -1  -9   7    1.60    2.25
   1   9  -7    2.85    1.72
   1  -9  -7   -1.09    2.17
   1  -9  -7    2.28    2.37
   1  -9  -6    6.71    2.61
   1   9  -6    1.57    1.51
   1  -9  -6    4.26    2.18
  -1  -9   6    1.07    2.19
   1   9  -5    2.16    1.42
   1  -9  -5    1.57    2.03
   1  -9  -5   -1.65    2.36
  -1  -9   5   -0.53    2.36
   1  -9  -4  305.79   15.85
  -1  -9   4  321.38   16.07
   1  -9  -4  327.53   15.83
   1   9  -4  303.66   13.81
   1  -9  -3    1.62    2.14
  -1  -9   3    6.43    2.47
   1   9  -3    3.72    1.26
   1  -9  -3    2.53    1.90
   1   9  -2    6.59    1.47
  -1  -9   2    4.02    1.99
   1  -9  -2    3.75    2.41
   1  -9  -2    5.58    2.47
   1  -9  -2    5.47    1.46
  -1  -9   2    7.53    2.61
   1   9  -1   -0.15    0.93
   1  -9  -1    0.65    1.22
  -1  -9   1    1.08    2.03
   1  -9  -1   -2.49    2.14
   1  -9  -1   -1.06    2.13
  -1  -9   1    0.45    1.99
  -1  -9   0    0.54    2.26
   1   9   0    1.28    0.88
   1  -9   0    2.82    1.39
   1  -9   0    0.52    2.07
  -1  -9   0   -0.46    1.91
   1  -9   0   -0.99    2.16
   1  -9   1    0.48    1.92
  -1  -9  -1    1.86    1.96
   1  -9   1    2.00    1.32
   1   9   1    2.27    0.86
  -1  -9  -1    2.16    2.25
  -1   9  -1    3.67    0.78
   1  -9   1    1.56    2.19
   1   9   2  337.84   14.96
  -1   9  -2  367.20   15.23
   1   9   2  344.03   14.90
   1  -9   2  398.10   16.14
   1  -9   2  370.18   16.65
   1  -9   2  402.03   17.91
   1  -9   2  419.93   18.34
  -1  -9  -2  450.13   18.76
  -1  -9  -2  421.65   17.93
   1   9   3    1.24    0.50
   1  -9   3    1.55    2.25
   1  -9   3    0.94    1.35
  -1  -9  -3    3.30    2.02
  -1   9  -3    1.21    0.98
   1   9   3    1.69    0.50
  -1  -9  -3    3.80    2.23
   1  -9   3    1.66    1.40
  -1  -9  -4   65.06    5.61
  -1  -9  -4   56.97    4.98
   1  -9   4   62.88    5.41
  -1   9  -4   59.94    3.67
   1   9   5    6.73    1.27
   1  -9   5   13.62    3.01
  -1  -9  -5   12.20    2.74
  -1   9  -5    5.28    1.42
  -1   9  -6    3.10    1.41
  -1  -9  -6    5.51    2.25
   1  -9   6    2.00    2.28
  -1   9  -7    3.46    1.51
  -1  -9  -7    4.60    2.10
  -1  -9  -7    4.46    2.61
   1  -9   7    2.48    2.23
  -1   9  -8   25.50    2.76
  -1  -9  -8   21.49    3.28
   1  -9   8   31.19    4.01
  -1  -9  -8   24.13    3.74
  -1  -9  -9    5.63    2.77
  -1   9  -9    5.43    1.90
   1  -9   9    4.31    2.38
  -1  -9  -9    2.62    2.16
  -1  -9 -10   94.76    6.91
   1  -9  10   84.48    6.42
  -1   9 -10   85.45    5.62
   1  -9  11   -0.97    2.27
  -1  -9 -11   -0.57    2.69
  -1   9 -11    0.74    2.06
  -1   9 -12    1.99    2.06
  -1  -9 -12   -0.57    2.60
   1  -9  12    3.38    2.75
  -1   9 -13    1.69    2.17
  -1   9 -14   12.12    2.83
   1  10 -13   67.44    5.48
   1  10 -12   -0.40    2.14
   1  10 -11   -0.38    2.08
  -1 -10  11   -0.59    3.00
  -1 -10  10   -1.76    2.81
   1  10 -10   -1.41    2.01
   1  10  -9    0.33    1.75
  -1 -10   9   -0.59    2.75
   1 -10  -9    1.20    2.58
   1 -10  -8    0.60    2.42
   1  10  -8   -0.31    1.69
  -1 -10   8   -1.16    2.60
  -1 -10   7  154.30    9.58
   1 -10  -7  142.67    9.25
   1  10  -7  129.25    7.47
   1 -10  -6   13.44    3.24
  -1 -10   6   17.77    3.67
   1 -10  -6   18.65    3.74
   1  10  -6   13.88    2.16
   1 -10  -5   32.58    4.17
   1 -10  -5   29.67    4.36
   1  10  -5   29.07    2.78
  -1 -10   5   41.35    4.98
  -1 -10   4    2.96    2.73
   1 -10  -4   -1.13    2.57
   1 -10  -4    4.28    2.78
   1  10  -4    1.45    1.41
  -1 -10   3   23.53    3.51
   1 -10  -3   25.38    4.07
  -1 -10   3   27.35    4.01
   1  10  -3   18.05    2.01
   1 -10  -3   21.84    3.70
   1  10  -2    3.27    1.19
   1 -10  -2    1.11    2.46
  -1 -10   2    3.02    2.38
  -1 -10   2    1.79    2.68
   1 -10  -2    2.40    2.65
  -1 -10   1   48.61    5.01
  -1 -10   1   37.79    4.28
   1  10  -1   31.97    2.30
   1 -10  -1   40.24    4.58
   1 -10  -1   40.30    4.77
  -1 -10   0    3.08    2.30
  -1 -10   0   -0.61    2.48
   1 -10   0    2.93    2.70
   1 -10   0    1.10    2.37
  -1 -10  -1   -0.51    2.11
   1 -10   1   -0.58    2.62
   1 -10   1    0.55    2.40
  -1 -10  -1   -3.03    2.80
   1 -10   2    0.54    2.06
   1 -10   2    0.58    2.30
  -1 -10  -2    1.21    2.57
  -1 -10  -2   -0.51    2.40
   1 -10   3   41.18    4.68
  -1 -10  -3   53.89    5.42
  -1 -10  -3   48.46    4.78
   1 -10   3   49.10    5.18
  -1 -10  -4   16.99    3.49
   1 -10   4   11.37    3.13
  -1  10  -4   11.85    1.65
  -1 -10  -4   13.16    3.04
  -1  10  -5   47.97    3.26
   1 -10   5   56.79    5.60
  -1  10  -6    0.46    1.40
   1 -10   6   -1.11    2.53
  -1 -10  -6    0.54    2.63
  -1 -10  -7   34.00    4.41
  -1  10  -7   42.58    3.39
  -1 -10  -7   39.57    4.84
   1 -10   7   51.41    5.12
  -1 -10  -8    3.30    2.53
  -1  10  -8   -0.29    1.66
   1 -10   8    1.09    2.86
  -1  10  -9   33.05    3.41
   1 -10   9   43.92    4.76
  -1 -10  -9   44.27    4.90
  -1  10 -10   -0.34    1.95
   1 -10  10    6.47    3.35
   1 -10  11  137.85    8.88
  -1  10 -11  129.82    7.78
  -1  10 -12    3.15    2.46
  -1  10 -13   40.59    4.28
  -1 -11   3    2.23    2.73
  -1 -11   2    0.56    2.65
  -1 -11   1    1.69    2.49
  -1 -11   0   -1.68    2.65
  -1 -11  -1   -2.79    2.67
  -1 -11  -2   76.92    6.32
  -1 -11  -3   -0.56    2.42
  -1 -11  -4    1.71    2.59
  -1 -11  -5    0.58    2.66
   2   0 -22   -1.57    2.59
   2   0 -22    1.81    2.74
   2   0 -21   -0.50    2.19
   2   0 -21   -2.29    2.74
   2   0 -20   50.94    4.51
   2   0 -20   42.68    4.75
   2   0 -19   -0.51    1.94
   2   0 -19    0.44    1.82
   2   0 -18   10.17    2.24
   2   0 -18   11.54    2.61
   2   0 -18    5.98    1.89
   2   0 -17    4.51    1.99
   2   0 -17   -0.76    1.58
   2   0 -16   -0.35    1.47
   2   0 -16    0.84    1.78
  -2   0  15    6.14    1.62
   2   0 -15    2.30    1.62
   2   0 -14   29.03    2.76
  -2   0  14   27.49    2.85
   2   0 -13    1.13    1.21
  -2   0  13    2.09    1.34
   2   0 -12  212.81   10.25
  -2   0  12  215.74   10.37
  -2   0  11    0.77    1.18
   2   0 -11   -0.47    0.90
   2   0 -10   21.45    2.00
  -2   0  10   23.13    2.15
   2   0  -9    0.76    0.78
   2   0  -8  263.90   11.56
  -2   0   8  260.71   11.17
  -2   0   7    0.22    0.38
   2   0  -7   -0.15    0.48
   2   0  -7   -0.38    0.70
   2   0  -6   97.50    4.95
  -2   0   6   97.15    4.57
   2   0  -5    0.44    0.53
  -2   0   5    0.31    0.33
   2   0  -4  383.21   16.16
  -2   0   4  387.88   15.99
  -2   0   3    0.09    0.28
   2   0  -3   -0.24    0.42
  -2   0   2 1516.18   60.59
   2   0  -1    0.55    0.20
  -2   0   1   -0.09    0.29
   2   0  -1    0.36    0.31
  -2   0   0  579.40   22.61
   2   0   0  533.38   22.58
  -2   0   0  559.52   22.68
  -2   0  -1    0.10    0.25
  -2   0  -1    0.34    0.26
   2   0   1    0.10    0.23
  -2   0  -2  723.51   29.67
  -2   0  -2  754.79   29.76
  -2   0  -2  741.17   29.74
   2   0   2  727.61   29.21
  -2   0  -3   -0.11    0.36
  -2   0  -3   -0.46    0.39
  -2   0  -3   -0.24    0.42
  -2   0  -4 1802.19   73.97
  -2   0  -4 1863.99   73.87
  -2   0  -4 1880.58   74.06
  -2   0  -5    0.15    0.44
  -2   0  -5    0.76    0.57
  -2   0  -5    0.64    0.57
  -2   0  -6 3628.88  143.57
  -2   0  -6 3593.02  142.78
  -2   0  -6 3640.39  143.78
  -2   0  -7   -0.19    0.70
  -2   0  -7   -0.33    0.64
  -2   0  -8   82.88    4.38
  -2   0  -8   75.10    4.43
   2   0   9    0.23    0.90
  -2   0  -9    0.24    0.81
  -2   0  -9   -0.41    0.85
  -2   0 -10  342.25   15.37
  -2   0 -10  353.84   15.19
   2   0  10  330.85   15.27
  -2   0 -11   -0.49    1.04
  -2   0 -11   -0.28    1.04
   2   0  11   -0.27    1.17
  -2   0 -12  415.91   18.80
   2   0  12  404.90   18.64
  -2   0 -12  441.55   18.64
  -2   0 -13   -0.33    1.28
  -2   0 -13   -0.29    1.30
  -2   0 -13   -0.13    0.75
   2   0  13   -0.55    1.37
   2   0  13   -1.26    1.56
  -2   0 -14   48.94    2.96
  -2   0 -14   59.88    4.30
   2   0  14   58.07    4.20
  -2   0 -14   49.50    2.33
   2   0  14   57.70    3.89
  -2   0 -14   56.11    3.96
  -2   0 -15    1.55    1.59
  -2   0 -15    1.50    1.00
  -2   0 -16    8.70    2.10
  -2   0 -16    8.18    1.29
  -2   0 -17   -0.16    0.97
  -2   0 -17    1.77    1.87
  -2   0 -18    0.92    1.91
  -2   0 -18    2.35    2.02
  -2   0 -19   -0.48    1.94
  -2   0 -19    1.03    1.72
  -2   0 -19    2.98    2.47
  -2   0 -20   93.84    4.87
  -2   0 -20   86.92    5.90
  -2   0 -20   98.64    6.81
  -2   0 -20  106.22    7.07
  -2   0 -21   -3.28    2.55
  -2   0 -21    2.89    2.21
  -2   0 -21   -1.61    2.60
  -2   0 -22    0.73    1.86
   2  -1 -23   -2.61    3.00
   2  -1 -22    3.98    2.50
   2   1 -22    1.09    2.51
   2  -1 -22    0.62    2.74
   2  -1 -21  149.71    8.90
   2   1 -21  139.34    9.14
   2   1 -21  151.19    9.15
   2   1 -20    3.66    2.47
   2  -1 -20    1.78    2.13
   2   1 -20   -0.49    2.19
   2   1 -19   69.87    5.56
   2  -1 -19   76.11    5.35
   2   1 -19   80.20    5.68
   2   1 -18   55.20    4.74
   2  -1 -18   53.45    4.33
   2   1 -18   53.89    4.22
   2   1 -18   50.88    4.43
   2   1 -17   80.35    5.65
   2   1 -17   74.49    5.28
   2  -1 -17   89.64    5.66
   2   1 -16   -0.38    1.51
   2  -1 -16   -0.33    1.41
   2   1 -16   -0.32    1.56
   2   1 -16    0.81    1.77
   2  -1 -15  327.43   14.88
   2  -1 -15  310.90   15.40
   2   1 -15  304.32   14.76
   2   1 -15  320.20   15.28
  -2  -1  15  330.02   15.03
  -2   1  15  321.15   15.14
   2   1 -15  338.20   15.23
   2   1 -14    1.05    1.38
   2   1 -14    0.33    1.22
  -2  -1  14    1.23    1.34
   2  -1 -14    0.38    1.52
  -2   1  14    2.32    1.47
   2   1 -14    0.30    1.24
   2  -1 -14   -0.56    1.32
   2  -1 -13   24.01    2.71
   2   1 -13   28.85    2.76
   2   1 -13   24.57    2.47
   2  -1 -13   25.19    2.40
  -2  -1  13   24.54    2.65
  -2   1  13   20.15    2.42
   2   1 -13   19.43    2.36
   2   1 -12   87.34    5.20
   2   1 -12   83.52    5.20
   2  -1 -12   90.34    5.56
  -2   1  12   93.46    5.38
  -2  -1  12   89.32    5.24
   2  -1 -12   89.40    5.06
   2   1 -12   91.18    5.40
   2  -1 -12   89.07    4.62
  -2  -1  11  877.75   37.10
   2   1 -11  870.36   37.17
   2  -1 -11  880.09   36.50
   2   1 -11  901.47   37.30
  -2   1  11  902.36   37.32
   2  -1 -11  911.59   36.95
   2  -1 -11  897.32   37.46
   2   1 -11  927.80   37.27
  -2  -1  10   -0.44    0.92
   2   1 -10   -0.49    0.93
   2  -1 -10    0.19    0.78
  -2  -1  10    0.68    0.46
   2  -1 -10    0.15    0.65
   2  -1 -10   -0.27    1.05
   2   1 -10    0.23    0.83
   2  -1  -9  118.11    5.74
   2  -1  -9  118.27    6.19
   2   1  -9  112.22    5.98
  -2   1   9  122.19    6.19
   2   1  -9  106.44    5.89
   2  -1  -9  117.51    5.57
  -2  -1   9  113.50    5.91
  -2  -1   9  117.01    5.28
  -2   1   8    0.21    0.81
   2  -1  -8    0.22    0.78
  -2  -1   8   -0.18    0.79
   2   1  -8    0.42    0.91
   2  -1  -8    0.56    0.61
  -2  -1   8    0.71    0.41
   2   1  -8   -0.38    0.64
   2  -1  -8    0.60    0.56
   2  -1  -7  123.58    6.07
   2  -1  -7  120.01    5.59
  -2   1   7  114.85    5.91
  -2  -1   7  113.73    5.81
   2   1  -7  118.08    5.85
   2  -1  -7  122.18    5.63
   2   1  -7  120.18    5.24
   2  -1  -6    0.11    0.39
  -2  -1   6   -0.15    0.60
   2  -1  -6    0.38    0.49
   2  -1  -6    0.18    0.65
   2   1  -6    0.07    0.29
  -2   1   6   -0.16    0.57
  -2   1   5   70.61    3.53
  -2   1   5   65.24    3.63
   2  -1  -5   67.78    3.70
   2   1  -5   67.75    3.14
  -2  -1   5   70.82    3.60
   2   1  -4  192.90    8.22
   2  -1  -4  186.67    8.66
  -2   1   4  192.73    8.60
   2  -1  -4  205.20    8.79
  -2  -1   4  204.14    8.27
  -2  -1   4  198.89    8.63
   2  -1  -3   84.11    4.60
  -2   1   3  101.76    4.69
   2   1  -3  100.18    4.35
   2  -1  -3   98.13    4.68
  -2  -1   3   98.80    4.38
  -2   1   3   98.08    4.74
   2  -1  -3  111.79    4.85
   2  -1  -2    0.22    0.37
  -2  -1   2    0.22    0.23
  -2  -1   2    0.35    0.44
   2  -1  -2    0.40    0.32
  -2   1   2   -0.11    0.33
  -2  -1   1  217.50    9.40
  -2   1   1  219.69    9.38
  -2  -1   1  219.19    9.23
  -2   1   1  221.97    9.48
   2  -1  -1  218.45    9.28
   2   1   0   88.18    4.03
  -2  -1   0   86.25    3.80
   2  -1   0   80.22    3.87
  -2   1   0   85.79    4.15
  -2   1   0   88.42    4.05
  -2   1  -1 1710.99   66.55
  -2  -1  -1 1670.52   66.26
   2   1   1 1593.13   66.31
  -2   1  -1 1660.07   66.56
   2  -1   1 1695.14   66.34
   2  -1   2    6.53    0.80
   2   1   2    5.11    0.61
   2  -1   2    6.38    0.72
  -2   1  -2    6.13    0.76
   2   1   2    6.17    0.51
  -2  -1  -2    5.64    0.65
   2   1   2    2.96    0.66
  -2   1  -3    1.74    0.51
  -2  -1  -3    0.59    0.33
   2  -1   3    0.55    0.42
  -2   1  -3    1.23    0.36
   2   1   3    1.08    0.35
   2  -1   3    0.57    0.38
  -2  -1  -3    0.70    0.34
   2  -1   3    0.56    0.21
  -2   1  -4  125.34    6.03
  -2   1  -4  133.80    5.69
   2  -1   4  135.32    6.05
  -2   1  -4  131.59    6.08
   2  -1   4  125.73    5.98
   2  -1   4  128.12    5.95
  -2  -1  -4  128.44    5.66
  -2  -1  -4  132.10    5.79
  -2  -1  -4  127.81    6.09
  -2   1  -5    9.54    1.11
  -2   1  -5   10.93    1.16
  -2  -1  -5    8.42    0.81
  -2   1  -5    9.47    1.05
  -2  -1  -5    8.41    0.90
  -2  -1  -5   10.76    1.15
  -2   1  -5    9.63    0.79
  -2   1  -6   51.26    2.93
  -2   1  -6   49.29    3.01
  -2  -1  -6   49.74    3.06
  -2  -1  -6   50.48    2.58
  -2   1  -6   46.65    3.01
   2  -1   6   53.84    3.09
  -2  -1  -6   49.77    2.84
  -2   1  -6   52.07    2.47
   2  -1   7 2444.56  101.67
  -2   1  -7 2557.07  100.66
  -2  -1  -7 2537.63  101.07
  -2  -1  -7 2605.69  101.82
  -2   1  -7 2601.33  101.54
  -2   1  -7 2542.56  101.69
  -2   1  -7 2555.06  101.82
  -2   1  -7 2494.44  100.79
  -2  -1  -7 2555.63  101.47
   2  -1   8   86.87    4.61
  -2   1  -8   82.46    4.63
  -2  -1  -8   84.18    4.00
  -2   1  -8   84.03    3.59
  -2   1  -8   74.76    3.59
  -2   1  -8   86.88    4.56
  -2  -1  -8   83.98    4.61
  -2  -1  -8   79.42    4.33
  -2   1  -8   84.56    4.36
  -2  -1  -9    2.56    0.87
  -2   1  -9    2.43    0.98
   2  -1   9    1.56    0.94
  -2   1  -9    2.92    0.87
  -2  -1  -9    3.23    0.96
  -2   1  -9    0.65    0.85
  -2   1  -9    1.62    0.46
   2   1   9    1.00    0.78
  -2   1  -9    1.51    0.30
  -2  -1 -10   84.85    4.99
   2   1  10   88.17    5.05
   2   1  10   84.93    4.76
  -2  -1 -10   82.30    4.72
   2  -1  10   90.65    5.02
  -2   1 -10   80.19    4.80
  -2   1 -10   83.08    4.61
   2  -1  10   83.00    4.79
  -2   1 -10   84.36    3.93
  -2   1 -10   93.27    5.15
   2   1  11  204.66    9.70
   2  -1  11  186.68    9.35
  -2   1 -11  185.47    8.39
  -2   1 -11  198.19    9.64
   2  -1  11  202.95    9.60
  -2   1 -11  202.38    9.76
  -2   1 -11  200.74    9.56
  -2   1 -11  205.93    9.26
   2   1  11  198.69    9.37
  -2  -1 -11  192.68    9.60
  -2  -1 -11  199.76    9.39
   2  -1  12   15.05    1.97
  -2  -1 -12   18.32    2.09
  -2   1 -12   19.28    1.92
  -2   1 -12   17.20    1.36
   2   1  12   15.65    1.92
   2  -1  12   16.01    2.13
   2   1  12   15.93    2.19
  -2   1 -12   21.17    2.35
  -2  -1 -12   17.86    2.12
  -2   1 -12   15.81    2.07
  -2   1 -12   16.12    2.15
  -2   1 -13  379.39   17.33
  -2   1 -13  395.62   17.69
  -2  -1 -13  401.75   17.27
  -2  -1 -13  387.47   17.57
   2  -1  13  389.87   17.42
  -2   1 -13  427.98   17.75
  -2   1 -13  383.09   16.94
  -2   1 -13  366.12   16.04
   2   1  13  390.85   17.51
   2   1  13  381.63   17.14
  -2   1 -14    2.10    0.86
  -2   1 -14    2.50    1.20
  -2   1 -14    1.84    1.43
   2   1  14    2.09    1.56
  -2  -1 -14    2.81    1.69
  -2  -1 -14    2.93    1.47
   2   1  14    3.15    1.53
  -2   1 -14    3.16    1.58
   2  -1  14    5.23    1.62
  -2   1 -14    1.91    1.47
   2   1  15  247.47   12.14
  -2   1 -15  254.10   11.89
  -2  -1 -15  258.70   12.30
  -2   1 -15  253.89   12.63
   2  -1  15  252.95   12.47
  -2   1 -15  245.13   12.67
  -2   1 -15  261.99   11.02
  -2  -1 -15  254.49   12.66
  -2   1 -16   27.86    1.97
  -2   1 -16   27.15    2.56
  -2   1 -16   26.54    3.12
  -2  -1 -16   23.12    1.72
  -2  -1 -16   31.36    3.32
  -2   1 -16   29.72    3.25
  -2   1 -17   23.18    3.12
  -2  -1 -17   25.62    3.20
  -2   1 -17   24.63    1.89
  -2  -1 -17   20.88    1.50
  -2   1 -17   24.40    3.22
  -2   1 -17   18.25    2.35
  -2   1 -18   21.22    1.77
  -2   1 -18   16.24    2.27
  -2   1 -18   21.26    3.03
  -2  -1 -18   18.03    1.90
  -2   1 -18   20.26    3.28
  -2  -1 -18   16.65    1.19
  -2  -1 -18   17.18    2.80
  -2  -1 -19    3.84    2.48
  -2  -1 -19    0.20    1.24
  -2   1 -19    0.61    1.50
  -2   1 -19   -1.02    2.39
  -2   1 -19   -1.43    2.42
  -2  -1 -20   11.20    1.77
  -2   1 -20   11.53    2.79
  -2  -1 -20   11.16    2.89
  -2   1 -20    9.64    2.19
  -2   1 -20   12.42    3.21
  -2  -1 -21   25.68    3.93
  -2   1 -21   24.40    3.98
  -2   1 -21   20.37    2.65
  -2   1 -21   24.67    3.76
  -2  -1 -21   18.75    3.48
  -2  -1 -23   -0.85    2.17
   2   2 -23    3.61    2.57
   2  -2 -23    4.98    2.56
   2  -2 -22   53.65    4.95
   2   2 -21    0.54    2.41
   2  -2 -21    4.23    2.93
   2  -2 -21   -0.89    2.45
   2   2 -20   45.98    4.78
   2  -2 -20   50.80    5.20
   2   2 -20   52.91    4.90
   2  -2 -20   55.62    4.66
   2  -2 -19    2.70    2.25
   2   2 -19    2.85    1.97
   2  -2 -19    2.37    1.89
   2   2 -19    0.36    0.79
   2   2 -19   -0.48    2.11
   2   2 -19    1.00    0.78
   2   2 -18  163.65    8.65
   2   2 -18  177.35    9.46
   2   2 -18  184.48    9.49
   2   2 -18  142.21    6.91
   2  -2 -18  180.28    9.83
   2  -2 -18  188.28    9.05
   2   2 -18  159.57    6.96
   2   2 -17    1.25    1.90
   2  -2 -17    1.92    1.56
   2  -2 -17    0.69    1.58
   2   2 -17    1.60    0.73
   2   2 -17    0.29    0.66
   2   2 -17   -0.34    1.77
   2   2 -17    0.42    1.73
   2   2 -16  116.56    7.11
   2   2 -16  103.62    6.56
   2  -2 -16  125.14    6.81
   2   2 -16  133.00    7.42
   2  -2 -16  116.53    6.09
  -2  -2  16  119.47    6.87
   2   2 -16  116.74    5.28
   2  -2 -16  116.06    7.34
   2  -2 -15    1.26    1.69
   2   2 -15    0.72    1.35
   2   2 -15    1.49    1.45
   2  -2 -15    0.29    1.31
   2   2 -15    0.35    0.62
   2   2 -15    1.27    1.46
  -2  -2  15    0.93    1.47
   2  -2 -15    1.05    0.99
   2  -2 -14  218.92   11.03
   2  -2 -14  204.18    9.71
  -2   2  14  213.11   10.63
  -2   2  14  227.14   10.89
   2   2 -14  218.82   10.61
   2   2 -14  202.06   10.27
   2   2 -14  217.89   10.69
   2  -2 -14  209.65   10.13
   2   2 -14  204.07    8.85
  -2  -2  14  213.43   10.29
  -2   2  13    4.50    1.56
   2  -2 -13    0.36    1.35
   2  -2 -13    2.63    1.15
   2   2 -13    2.60    1.35
   2   2 -13    0.31    1.25
  -2   2  13    1.34    1.49
  -2  -2  13    1.08    1.36
   2   2 -13    0.29    1.30
   2   2 -13    1.01    0.49
   2   2 -12   13.05    0.89
   2  -2 -12    9.91    1.50
   2  -2 -12    9.30    1.79
   2   2 -12   10.13    1.79
   2   2 -12    7.24    1.56
   2   2 -12    9.29    1.66
  -2  -2  12   12.99    1.76
  -2   2  12   11.31    1.94
  -2  -2  12    9.99    0.88
  -2  -2  11   24.15    1.58
   2  -2 -11   26.51    2.15
  -2   2  11   32.29    2.75
   2   2 -11   26.70    2.46
  -2  -2  11   26.62    2.33
   2   2 -11   25.41    2.39
   2   2 -11   24.97    1.35
   2   2 -11   20.10    2.26
   2  -2 -11   25.58    2.52
   2  -2 -10  128.95    6.88
   2  -2 -10  135.83    6.27
   2   2 -10  121.79    6.60
  -2   2  10  137.95    6.95
  -2  -2  10  124.53    6.47
   2   2 -10  127.16    5.33
  -2  -2  10  121.51    5.71
   2   2 -10  131.40    6.60
  -2   2   9    1.50    1.09
  -2  -2   9    1.52    0.84
   2  -2  -9    1.95    0.71
   2  -2  -9    1.29    0.96
   2   2  -9    1.65    0.94
   2   2  -9    1.86    0.94
   2  -2  -8 3967.28  158.71
   2   2  -8 3885.55  158.99
   2   2  -8 3977.67  158.77
  -2  -2   8 3958.45  158.72
   2  -2  -8 3991.87  158.39
   2  -2  -8 4031.59  159.15
  -2   2   8 4099.86  159.20
  -2   2   7   24.51    2.13
   2  -2  -7   26.79    1.72
   2   2  -7   24.54    2.18
  -2  -2   7   26.49    1.99
   2  -2  -7   29.30    2.04
   2  -2  -7   31.08    2.31
   2   2  -7   24.12    1.94
   2  -2  -6   88.36    4.27
  -2   2   6   89.08    4.91
  -2  -2   6  101.10    4.69
   2  -2  -6   91.01    4.71
   2  -2  -6   95.15    4.94
   2   2  -6   98.43    4.68
  -2  -2   5   29.23    2.25
   2   2  -5   33.29    2.04
   2  -2  -5   29.72    2.13
  -2  -2   5   30.19    1.99
  -2  -2   5   31.73    1.51
  -2   2   5   28.19    2.16
   2  -2  -5   31.96    1.70
  -2  -2   4 1009.07   40.14
   2   2  -4  912.89   40.04
  -2   2   4  979.46   40.04
   2   2  -4  981.91   39.62
   2  -2  -4  994.55   39.91
  -2  -2   4  993.99   39.21
  -2  -2   3  136.02    6.66
  -2   2   3  135.83    6.58
   2   2  -3  147.19    6.33
  -2  -2   3  135.86    6.00
   2  -2  -3  151.69    6.51
  -2  -2   2 9999.00  372.12
   2  -2  -2 8924.24  371.86
  -2  -2   1  129.41    5.70
  -2  -2   1  116.11    4.92
   2  -2  -1  116.82    5.40
   2  -2  -1  118.20    5.03
   2   2   0  131.39    6.32
  -2  -2   0  144.17    6.42
  -2  -2   0  138.07    5.83
   2  -2   0  137.06    5.88
   2  -2   0  137.65    6.42
   2  -2   0  139.24    6.30
  -2   2  -1    2.11    0.46
  -2  -2  -1    1.52    0.37
   2  -2   1    1.81    0.58
   2  -2   1    1.89    0.58
   2  -2   1    1.46    0.51
   2   2   1    1.61    0.54
   2  -2   1    1.58    0.41
  -2  -2  -2  382.78   16.21
   2  -2   2  401.28   16.40
   2   2   2  428.30   16.22
   2  -2   2  402.03   16.30
   2  -2   2  343.39   16.22
   2  -2   2  396.40   16.62
   2  -2   2  416.40   16.63
   2   2   2  406.38   16.54
   2  -2   3    2.55    0.71
   2  -2   3    3.16    0.73
   2  -2   3    1.60    0.52
  -2  -2  -3    2.02    0.39
   2  -2   3    1.51    0.48
   2  -2   3    1.37    0.45
   2   2   3    1.73    0.49
  -2   2  -3    1.90    0.57
   2   2   3    1.85    0.60
   2  -2   4 1782.14   71.41
  -2  -2  -4 1827.22   70.93
  -2  -2  -4 1784.78   71.32
   2  -2   4 1742.52   71.24
   2  -2   4 1723.88   70.95
   2  -2   4 1773.02   71.07
   2   2   4 1784.47   71.20
  -2   2  -4 1777.55   71.35
   2  -2   4 1805.19   71.34
   2   2   4 1810.21   71.35
   2  -2   5    5.23    0.63
   2   2   5    4.08    0.78
   2  -2   5    4.72    0.81
   2   2   5    2.93    0.78
  -2  -2  -5    4.41    0.66
   2  -2   5    4.41    0.87
  -2  -2  -5    4.98    0.87
  -2   2  -5    5.75    0.62
   2  -2   5    5.16    0.82
  -2   2  -5    7.39    0.92
   2  -2   6   31.80    2.25
  -2  -2  -6   35.87    2.42
   2  -2   6   34.71    2.34
   2  -2   6   36.23    1.92
  -2   2  -6   34.01    2.26
   2   2   6   36.68    2.32
  -2   2  -6   32.91    1.83
   2   2   6   33.66    2.29
  -2  -2  -6   35.18    2.24
  -2   2  -7    4.89    0.96
   2   2   7    4.11    1.01
   2  -2   7    2.58    0.93
  -2   2  -7    2.94    0.74
  -2   2  -7    1.01    0.77
  -2  -2  -7    2.72    0.76
   2  -2   7    3.79    0.88
  -2   2  -7    3.37    0.54
  -2  -2  -7    3.62    0.80
   2  -2   8  196.51    9.35
  -2   2  -8  205.46    9.55
   2   2   8  203.89    9.46
  -2   2  -8  219.73    9.60
   2  -2   8  216.35    9.47
  -2  -2  -8  203.92    9.51
  -2  -2  -8  205.91    9.11
  -2   2  -8  189.87    8.54
  -2   2  -8  206.57    9.19
  -2  -2  -9   -0.24    0.80
   2   2   9   -0.23    0.96
  -2  -2  -9   -0.16    0.69
  -2   2  -9    0.26    0.47
  -2   2  -9    0.47    0.88
  -2   2  -9    0.35    0.68
   2  -2   9    0.22    0.99
  -2   2  -9   -0.48    0.91
   2  -2   9    1.27    0.95
   2   2   9    0.20    0.96
  -2   2 -10  226.76   10.50
   2  -2  10  224.58   10.81
   2  -2  10  237.20   10.88
  -2   2 -10  229.91    9.90
  -2  -2 -10  227.58   10.44
  -2   2 -10  230.76   11.07
   2   2  10  230.27   10.68
  -2  -2 -10  249.26   11.12
  -2   2 -10  249.89   11.11
   2   2  10  246.63   11.08
  -2   2 -10  232.65   10.99
  -2   2 -11    2.42    1.30
  -2  -2 -11    2.78    1.27
  -2  -2 -11    4.01    1.05
   2   2  11    4.57    1.34
  -2  -2 -11    3.05    1.09
  -2   2 -11    5.05    1.30
  -2   2 -11    3.44    0.77
  -2   2 -11    4.69    1.18
   2   2  11    4.41    1.54
   2  -2  11    1.77    1.06
   2  -2  11    1.99    1.31
  -2   2 -11    5.23    1.43
  -2   2 -12   26.79    2.72
   2  -2  12   29.21    2.70
   2   2  12   27.74    2.56
  -2  -2 -12   34.84    2.72
  -2   2 -12   26.42    2.72
  -2   2 -12   24.46    1.78
  -2   2 -12   30.82    2.93
   2  -2  12   29.63    2.75
   2   2  12   25.81    2.73
  -2  -2 -12   31.76    2.81
  -2  -2 -12   33.99    2.39
  -2   2 -12   32.56    2.43
  -2   2 -13   -0.71    1.35
   2   2  13    0.65    1.45
  -2   2 -13    0.31    1.35
   2  -2  13    0.87    1.35
   2  -2  13   -0.58    1.33
   2   2  13    0.67    1.56
  -2   2 -13   -0.33    1.29
  -2   2 -13   -0.22    0.92
  -2  -2 -13   -0.80    1.05
  -2  -2 -13   -0.26    1.23
  -2   2 -13   -0.92    0.73
   2   2  13   -0.26    1.11
  -2  -2 -13    0.65    1.26
  -2  -2 -14   43.35    3.03
  -2   2 -14   43.77    3.12
   2   2  14   48.33    3.52
   2  -2  14   48.13    3.75
  -2   2 -14   42.07    3.74
  -2   2 -14   40.27    3.75
   2   2  14   45.22    3.76
  -2   2 -14   42.78    2.53
  -2  -2 -14   41.04    3.44
  -2  -2 -14   50.42    3.89
  -2  -2 -15    6.28    1.90
  -2   2 -15    4.87    1.82
  -2  -2 -15    4.53    1.92
  -2  -2 -15    6.77    1.40
  -2   2 -15    6.92    2.02
   2  -2  15   10.99    2.09
   2   2  15   10.91    1.92
  -2   2 -15    7.68    1.12
   2   2  15    8.16    2.17
  -2   2 -15    7.32    1.55
  -2  -2 -16  364.05   16.18
  -2   2 -16  377.33   17.65
  -2   2 -16  360.35   16.28
  -2   2 -16  369.36   15.49
  -2   2 -16  368.40   17.31
  -2  -2 -16  382.29   17.44
  -2   2 -17    2.51    1.37
  -2   2 -17    2.44    1.01
  -2   2 -17    5.10    2.09
  -2  -2 -17    2.95    2.05
  -2   2 -17    6.75    2.05
  -2  -2 -17    3.27    1.31
  -2   2 -18    3.96    2.57
  -2  -2 -18    0.71    1.45
  -2  -2 -18    4.04    2.23
  -2   2 -18    3.11    2.13
  -2   2 -18    4.10    1.50
  -2   2 -18    5.64    1.16
  -2   2 -19   15.51    2.26
  -2  -2 -19   20.45    3.20
  -2   2 -19   20.98    3.43
  -2   2 -19   19.59    3.16
  -2  -2 -19   17.96    2.13
  -2   2 -20   79.37    6.00
  -2   2 -20   81.10    6.26
  -2  -2 -20   82.04    6.18
  -2   2 -20   64.79    4.45
  -2  -2 -20   66.86    4.38
  -2   2 -21    4.06    2.67
  -2  -2 -21    9.53    2.73
  -2   2 -22   31.60    4.20
   2   3 -24    0.44    2.30
   2   3 -23    1.27    2.29
   2   3 -22    3.66    2.22
   2  -3 -22    3.58    2.42
   2  -3 -21   72.85    5.60
   2   3 -21   67.48    5.38
   2   3 -21   98.11    6.91
   2  -3 -21   88.27    6.92
   2  -3 -20   -0.40    1.79
   2   3 -20    1.05    2.18
   2  -3 -20    2.34    2.66
   2   3 -20   -1.10    1.74
   2   3 -19   52.09    4.18
   2  -3 -19   53.72    4.45
   2   3 -19   66.49    5.27
   2  -3 -19   60.17    5.41
   2   3 -19   46.77    4.65
   2  -3 -19   46.18    3.61
   2  -3 -18   49.04    3.91
   2  -3 -18   51.80    4.75
   2   3 -18   47.23    4.43
   2   3 -18   42.92    4.10
   2   3 -18   40.44    3.65
   2  -3 -18   37.77    3.21
   2   3 -18   39.17    3.76
   2  -3 -17   77.87    4.95
   2   3 -17   68.64    4.96
   2   3 -17   71.19    5.20
   2   3 -17   69.46    4.72
   2  -3 -17   66.26    4.47
   2  -3 -17   89.23    6.07
   2   3 -17   80.46    5.62
   2  -3 -16    7.86    2.14
   2  -3 -16    7.09    1.62
   2   3 -16    2.10    1.67
   2   3 -16    7.39    1.97
  -2  -3  16    8.61    2.06
   2   3 -16    4.36    1.72
   2  -3 -16    4.78    1.61
   2  -3 -15  246.99   11.79
   2   3 -15  235.43   12.12
   2   3 -15  261.63   12.69
   2  -3 -15  257.82   12.87
  -2  -3  15  267.63   12.07
   2  -3 -15  240.68   11.63
   2   3 -15  255.81   12.21
  -2   3  14    0.38    1.67
   2  -3 -14    0.25    1.07
   2   3 -14    3.70    1.77
   2  -3 -14    3.64    1.84
   2   3 -14    1.27    1.43
   2   3 -14    1.58    1.56
  -2  -3  14   -0.28    1.37
   2  -3 -14   -0.50    1.20
  -2   3  14    0.70    1.58
   2  -3 -13  137.83    7.61
   2   3 -13  123.88    6.89
   2   3 -13  123.15    7.01
  -2   3  13  130.72    7.44
  -2   3  13  126.67    7.15
  -2  -3  13  130.50    6.81
   2   3 -13  124.97    7.25
   2  -3 -13  139.43    6.70
   2  -3 -13  134.22    6.71
  -2  -3  13  124.14    5.44
   2   3 -12   58.39    3.87
   2  -3 -12   54.94    3.51
   2  -3 -12   55.28    4.20
  -2   3  12   55.68    4.05
  -2  -3  12   56.65    3.74
   2   3 -12   57.80    4.13
   2   3 -12   58.84    4.03
  -2  -3  12   55.30    2.86
   2  -3 -12   63.17    3.87
  -2   3  12   62.97    4.41
   2   3 -11  620.79   25.81
   2   3 -11  592.10   26.02
  -2   3  11  607.62   26.11
  -2  -3  11  589.42   25.59
  -2   3  11  621.00   26.38
   2  -3 -11  601.81   25.33
   2  -3 -11  608.44   26.30
   2   3 -11  589.81   26.08
   2  -3 -11  650.23   25.83
   2  -3 -10   13.85    1.42
  -2   3  10   12.85    1.97
  -2  -3  10   14.73    1.68
   2   3 -10   12.46    1.60
   2  -3 -10   19.72    2.12
   2   3 -10   13.93    1.81
   2  -3 -10   14.81    1.70
  -2   3  10   15.21    1.97
   2   3 -10   11.63    1.76
   2   3  -9   75.78    4.06
   2  -3  -9   67.68    4.36
  -2   3   9   75.37    4.51
  -2   3   9   69.58    4.26
   2   3  -9   64.80    4.21
   2  -3  -9   70.30    3.64
  -2  -3   9   66.47    3.92
   2  -3  -9   65.73    4.05
   2  -3  -8   86.30    4.20
   2   3  -8   79.83    4.52
   2  -3  -8   87.68    5.01
  -2  -3   8   90.38    4.65
  -2  -3   8   95.58    5.22
  -2   3   8   92.04    4.94
  -2   3   8   85.50    5.07
   2   3  -7   89.51    4.18
   2  -3  -7   96.51    4.29
  -2  -3   7   85.15    4.58
  -2  -3   7   91.25    5.21
   2   3  -7   95.63    4.67
  -2   3   7   95.09    5.23
   2  -3  -7   96.58    5.12
   2   3  -6   20.26    1.17
   2  -3  -6   22.24    1.90
  -2  -3   6   24.50    2.14
  -2   3   6   19.17    1.92
   2   3  -6   20.43    1.57
   2  -3  -6   20.88    1.24
   2  -3  -5   60.59    2.76
  -2  -3   5   62.91    2.78
   2  -3  -5   62.87    3.56
   2   3  -5   61.03    3.16
  -2  -3   5   61.14    3.80
  -2   3   5   63.18    3.55
  -2   3   5   62.52    3.78
  -2  -3   4   78.97    4.55
  -2   3   4   84.86    4.26
   2  -3  -4   85.98    4.25
   2   3  -4   79.58    3.86
  -2   3   4   74.23    4.39
  -2  -3   3  202.37    9.32
  -2   3   3  213.81    8.95
   2   3  -3  201.38    8.61
   2   3  -3  194.62    8.43
   2  -3  -3  197.73    8.90
   2   3  -2    0.35    0.26
  -2  -3   2    0.58    0.68
   2  -3  -2    1.65    0.52
  -2  -3   1   17.72    1.65
   2  -3  -1   16.06    0.91
   2  -3   0   17.60    1.61
   2  -3   0   16.96    1.06
   2  -3   0   20.64    1.67
  -2  -3   0   17.56    1.71
   2  -3   0   19.04    1.57
  -2   3   0   18.41    1.13
   2  -3   0   18.21    1.33
   2   3   1  806.95   33.04
   2  -3   1  806.73   32.99
   2  -3   1  827.67   32.31
  -2  -3  -1  750.13   32.61
   2  -3   1  820.36   32.90
   2  -3   1  822.45   32.87
  -2   3  -1  793.07   32.39
  -2  -3  -2    2.19    0.59
   2  -3   2    1.75    0.63
   2   3   2    1.88    0.73
   2  -3   2    1.25    0.60
  -2   3  -2    1.48    0.48
   2  -3   2    1.27    0.60
   2  -3   2    1.30    0.45
   2  -3   2    0.99    0.62
   2   3   3    8.30    1.01
   2   3   3   10.85    1.27
   2  -3   3    9.73    0.99
   2  -3   3    9.50    1.20
  -2   3  -3   10.10    1.05
   2  -3   3    9.45    1.14
   2  -3   3    9.01    1.07
   2  -3   3   13.38    1.17
   2   3   3   11.70    1.11
  -2  -3  -3    8.95    1.09
  -2  -3  -3   10.10    0.69
   2   3   3   11.76    1.19
   2  -3   3    9.72    1.16
   2   3   4   31.68    2.34
   2  -3   4   36.68    2.33
   2  -3   4   27.79    2.27
  -2   3  -4   36.05    2.31
  -2   3  -4   38.25    2.47
   2   3   4   35.00    2.28
   2  -3   4   32.50    2.15
   2  -3   4   35.98    2.33
   2   3   4   35.82    2.26
  -2  -3  -4   36.32    2.48
   2   3   4   30.49    2.16
   2  -3   4   33.52    2.12
   2  -3   4   34.02    2.18
  -2  -3  -4   36.69    2.32
  -2   3  -4   33.52    2.22
  -2   3  -5   61.52    3.51
   2   3   5   55.48    3.20
  -2  -3  -5   56.72    3.47
  -2   3  -5   53.19    3.07
   2  -3   5   56.57    3.26
   2  -3   5   55.15    3.23
   2  -3   5   60.14    3.38
   2  -3   5   61.16    3.22
   2  -3   5   54.76    3.44
  -2   3  -5   60.73    3.39
   2   3   5   60.03    3.40
  -2   3  -5   61.68    3.31
   2   3   5   64.57    3.43
   2  -3   5   55.88    3.06
  -2   3  -6   19.76    1.86
   2  -3   6   23.96    1.89
   2  -3   6   22.12    1.85
   2   3   6   24.34    1.99
  -2  -3  -6   20.99    1.92
   2  -3   6   23.64    1.70
   2  -3   6   19.94    1.69
   2  -3   6   23.22    1.58
  -2   3  -6   20.74    1.72
  -2   3  -6   25.60    2.05
   2  -3   6   22.51    2.03
   2  -3   6   24.11    1.77
  -2   3  -6   22.54    1.63
   2   3   6   21.94    1.80
   2  -3   7 1516.26   60.85
   2   3   7 1512.45   61.12
   2  -3   7 1517.78   60.64
  -2   3  -7 1558.88   61.24
  -2  -3  -7 1530.42   61.13
   2  -3   7 1509.81   60.68
  -2   3  -7 1474.30   60.51
  -2   3  -7 1548.71   61.27
  -2   3  -7 1468.65   60.79
   2  -3   7 1496.40   61.29
   2  -3   7 1508.69   61.02
  -2  -3  -8  136.29    6.95
   2   3   8  146.17    7.13
   2  -3   8  133.92    6.71
  -2  -3  -8  137.54    6.86
   2  -3   8  149.57    7.00
  -2   3  -8  144.41    7.05
  -2   3  -8  137.00    6.35
   2  -3   8  144.38    6.53
  -2   3  -8  138.39    6.62
   2   3   8  140.71    7.03
  -2   3  -8  124.99    6.94
  -2   3  -9  126.18    6.08
   2   3   9  126.13    6.83
   2  -3   9  130.98    6.59
   2  -3   9  134.74    6.76
  -2  -3  -9  132.86    6.66
   2   3   9  143.77    7.01
  -2   3  -9  138.11    6.43
  -2   3  -9  129.86    6.86
  -2  -3  -9  135.99    6.86
  -2   3 -10   37.61    2.54
  -2   3 -10   33.70    2.22
   2  -3  10   41.08    2.99
   2   3  10   39.07    3.04
   2  -3  10   42.04    2.93
  -2   3 -10   35.53    2.93
  -2  -3 -10   33.22    2.81
   2   3  10   38.44    2.72
   2   3  10   34.47    3.00
  -2  -3 -10   39.58    2.83
   2   3  11  132.27    6.86
   2  -3  11  142.60    7.23
  -2   3 -11  137.66    6.65
  -2   3 -11  142.18    7.38
   2   3  11  130.73    7.31
   2   3  11  142.90    7.43
   2  -3  11  138.67    7.09
  -2  -3 -11  141.57    7.31
  -2   3 -11  134.14    6.35
  -2  -3 -11  135.95    6.95
   2  -3  12    5.33    1.60
   2  -3  12    1.03    1.26
   2   3  12    0.71    1.11
   2   3  12    3.83    1.69
  -2   3 -12    1.19    0.85
  -2   3 -12    2.12    1.32
  -2   3 -12    2.79    1.00
  -2  -3 -12    1.18    1.17
  -2  -3 -12    2.60    1.25
   2   3  12    2.23    1.61
   2   3  13  244.16   12.06
   2   3  13  246.05   11.51
  -2  -3 -13  253.10   11.52
   2  -3  13  239.92   11.75
  -2   3 -13  237.69   11.91
   2  -3  13  246.99   11.67
  -2   3 -13  239.72   10.69
   2   3  13  257.39   12.21
  -2   3 -13  243.78   11.10
  -2  -3 -13  270.89   12.10
  -2  -3 -14   60.63    4.37
   2   3  14   63.45    4.14
   2   3  14   58.00    4.58
  -2   3 -14   57.09    4.33
   2  -3  14   50.81    4.02
  -2   3 -14   56.76    3.18
  -2  -3 -14   59.55    3.90
  -2   3 -14   53.46    3.54
  -2  -3 -14   60.52    4.05
  -2   3 -15  179.15    8.25
   2  -3  15  192.74    9.54
   2   3  15  170.33    9.14
  -2   3 -15  181.34    8.70
  -2   3 -15  186.29    9.76
  -2  -3 -15  186.13    9.35
  -2  -3 -15  201.87    9.91
  -2  -3 -15  195.18    9.17
  -2   3 -16    2.07    0.93
  -2   3 -16    0.82    1.17
  -2   3 -16    0.78    1.70
  -2  -3 -16    0.53    1.44
  -2  -3 -16    4.65    1.92
  -2   3 -17   10.48    2.60
  -2  -3 -17   15.20    2.60
  -2   3 -17   11.13    2.38
  -2   3 -17   11.13    1.42
  -2   3 -17    9.88    1.59
  -2  -3 -17    8.44    1.85
  -2   3 -18   16.65    3.00
  -2   3 -18    9.95    1.66
  -2  -3 -18    7.46    1.84
  -2   3 -18   13.46    2.81
  -2  -3 -18   14.29    2.65
  -2  -3 -19    3.64    2.26
  -2  -3 -19    3.06    1.73
  -2   3 -19    5.00    2.32
  -2   3 -19    9.12    3.03
  -2   3 -19    8.09    1.45
  -2   3 -20    4.26    2.60
  -2   3 -20    1.70    2.39
  -2  -3 -20    5.24    2.74
  -2  -3 -20    0.56    1.76
  -2  -3 -21   19.44    3.45
  -2   3 -21   17.82    3.29
  -2  -3 -22   18.18    3.63
   2   4 -22    1.87    1.96
   2   4 -21    0.36    1.95
   2  -4 -20    4.85    2.02
   2  -4 -20    4.18    2.83
   2   4 -20    2.17    2.38
   2   4 -20    7.51    1.99
   2  -4 -19    0.35    1.84
   2  -4 -19    0.56    2.57
   2   4 -19    2.06    2.37
   2   4 -19    1.94    1.69
   2  -4 -18   24.72    2.88
   2   4 -18   19.46    3.23
   2   4 -18   16.74    2.44
   2  -4 -18   19.19    3.38
   2  -4 -18   22.25    2.67
   2  -4 -17    0.50    2.35
   2   4 -17    3.00    1.86
   2   4 -17    3.26    2.09
   2   4 -17    0.85    1.40
   2  -4 -17    2.14    1.54
   2  -4 -17    0.60    1.61
   2  -4 -16   29.48    2.92
   2   4 -16   28.20    3.16
   2  -4 -16   25.06    2.69
   2   4 -16   27.67    2.67
   2   4 -16   31.96    3.23
   2  -4 -16   33.63    3.79
  -2  -4  16   24.97    2.94
   2   4 -15    7.99    1.93
   2  -4 -15   11.84    1.85
   2   4 -15    6.90    2.08
   2   4 -15    7.50    1.55
   2  -4 -15    7.99    2.37
  -2  -4  15    8.40    1.77
   2  -4 -15    9.89    2.03
   2  -4 -14    2.11    1.15
   2   4 -14    3.53    1.56
   2  -4 -14    4.72    1.58
   2   4 -14    1.35    1.49
   2   4 -14    1.98    1.24
  -2  -4  14    2.70    1.46
   2  -4 -14    2.90    1.86
   2   4 -14    2.52    1.67
  -2  -4  14    2.55    0.40
   2   4 -13    2.16    1.06
   2   4 -13    3.60    1.61
   2  -4 -13    3.86    1.71
   2   4 -13    2.35    1.54
  -2  -4  13    3.79    1.42
  -2   4  13    5.09    1.87
   2  -4 -13    3.57    1.14
   2   4 -13    6.45    1.58
   2  -4 -13    4.35    1.41
   2  -4 -12  271.59   11.84
   2   4 -12  251.48   12.10
   2   4 -12  272.16   11.76
   2   4 -12  249.85   12.54
  -2   4  12  268.62   12.67
  -2   4  12  263.44   12.95
  -2  -4  12  265.23   12.10
   2   4 -12  257.09   12.35
   2  -4 -12  276.72   12.53
   2  -4 -12  277.45   13.03
   2   4 -11    0.22    1.05
   2   4 -11    0.61    1.26
   2  -4 -11    1.64    1.47
   2   4 -11    0.25    1.19
   2   4 -11    0.15    0.78
  -2  -4  11   -3.14    1.20
   2  -4 -11   -0.16    0.78
  -2   4  11    0.34    1.42
  -2   4  11   -0.30    1.52
   2  -4 -11    0.28    1.20
   2   4 -10    1.15    1.02
   2   4 -10    0.58    0.95
   2  -4 -10   -0.30    1.15
  -2  -4  10    1.32    1.00
   2   4 -10    2.28    0.70
  -2   4  10    0.32    1.31
   2  -4 -10    1.95    0.77
  -2   4  10    0.82    1.25
   2  -4 -10    2.45    1.29
  -2   4   9    4.58    1.52
  -2   4   9    4.83    1.32
  -2  -4   9    3.38    1.02
  -2  -4   9    2.16    1.25
   2   4  -9    1.73    1.22
   2  -4  -9    3.82    1.33
   2   4  -9    3.15    0.71
   2   4  -9    2.50    1.23
   2  -4  -9    4.23    1.35
   2  -4  -9    4.06    0.75
   2   4  -9    2.89    1.00
   2   4  -8  102.60    4.60
   2   4  -8  103.07    5.05
   2  -4  -8   93.19    5.99
  -2  -4   8   99.64    5.93
   2  -4  -8  107.12    4.71
   2   4  -8   89.05    5.50
  -2  -4   8   99.59    5.08
   2   4  -8  110.41    5.41
  -2   4   8  103.06    5.57
   2   4  -8  100.89    5.77
  -2   4   8  100.72    5.84
   2  -4  -8  105.71    5.69
   2  -4  -8  100.33    5.64
   2  -4  -7  113.51    6.55
   2   4  -7  123.44    6.39
  -2  -4   7  103.13    6.28
   2  -4  -7  124.19    6.18
  -2   4   7  110.77    6.30
   2   4  -7  111.08    5.70
   2  -4  -7  116.47    5.05
   2   4  -7  118.43    5.47
   2   4  -7  116.98    6.13
   2  -4  -6   70.86    3.26
   2  -4  -6   83.66    4.43
   2   4  -6   80.86    4.06
  -2  -4   6   79.28    4.84
  -2   4   6   89.51    4.85
   2   4  -6   75.67    3.75
   2   4  -6   75.38    4.52
  -2  -4   6   79.51    3.37
   2   4  -5   32.68    1.95
  -2  -4   5   33.76    2.79
  -2   4   5   42.82    2.63
   2  -4  -5   33.99    2.41
   2   4  -5   34.71    2.17
  -2   4   5   36.68    2.83
   2  -4  -4  188.79    8.38
  -2  -4   4  182.67    9.00
   2   4  -4  179.84    7.79
   2   4  -4  185.72    8.01
  -2   4   4  182.37    8.39
   2  -4  -3   21.86    1.64
   2   4  -3   20.73    1.29
  -2  -4   3   17.18    1.97
   2  -4  -2 1038.11   42.21
   2  -4  -2 1019.60   41.35
  -2  -4   2 1020.28   42.26
   2  -4  -1    9.14    1.42
  -2  -4   1   12.41    1.64
   2  -4  -1    9.45    0.97
   2  -4   0  253.04   11.48
   2  -4   0  249.22   10.65
  -2   4   0  259.77   10.48
  -2  -4   0  236.44   11.57
   2  -4   1    6.03    1.08
   2  -4   1    6.87    0.72
  -2  -4  -1    7.76    1.44
   2  -4   1    7.14    0.75
  -2  -4  -1    7.08    1.05
   2  -4   1    6.59    1.15
  -2   4  -1    5.69    0.72
  -2   4  -2  119.95    5.43
  -2  -4  -2  117.37    5.89
   2  -4   2  121.04    6.00
   2  -4   2  118.86    5.34
   2   4   2  114.81    5.45
   2   4   2  110.37    6.02
   2  -4   2  114.68    5.80
   2  -4   2  117.41    5.89
   2  -4   2  118.73    5.96
   2  -4   3   21.65    1.87
  -2   4  -3   22.21    1.63
   2   4   3   18.90    1.94
   2  -4   3   20.44    1.52
   2  -4   3   18.91    1.74
  -2  -4  -3   18.70    1.77
   2  -4   3   18.22    1.77
   2   4   3   19.30    1.59
   2  -4   3   18.04    1.64
   2  -4   3   22.96    1.92
   2  -4   4  687.96   28.00
   2  -4   4  713.36   28.28
  -2   4  -4  708.01   28.00
   2  -4   4  680.10   28.13
   2  -4   4  664.28   28.16
   2   4   4  692.81   27.99
   2  -4   4  668.04   28.32
  -2  -4  -4  678.55   28.58
   2   4   4  669.40   27.87
  -2  -4  -4  619.13   28.23
   2  -4   4  676.06   27.84
   2  -4   5    1.10    0.93
  -2   4  -5    0.54    0.74
   2  -4   5    0.77    0.56
   2  -4   5    2.04    0.80
   2  -4   5    0.61    0.72
   2  -4   5    0.54    0.82
   2  -4   5    0.71    0.83
   2  -4   5    0.58    0.75
  -2   4  -5    0.34    0.77
  -2  -4  -5    1.23    0.98
   2   4   5    0.77    0.78
   2   4   5    0.38    0.84
  -2  -4  -6 1076.08   43.59
   2  -4   6 1037.08   42.64
   2  -4   6 1048.08   43.11
  -2   4  -6 1127.62   43.29
   2   4   6 1071.23   43.29
   2   4   6 1018.64   42.86
   2  -4   6 1071.49   43.03
   2  -4   6 1024.52   43.07
   2  -4   6 1085.56   42.80
  -2   4  -6 1075.97   42.98
   2  -4   6 1015.58   42.92
   2  -4   6 1042.33   43.43
   2  -4   7   40.16    2.59
   2   4   7   49.33    3.17
   2  -4   7   48.00    3.03
  -2  -4  -7   39.54    3.16
   2  -4   7   45.62    2.93
   2   4   7   45.79    3.15
  -2   4  -7   45.89    3.09
   2  -4   7   44.68    3.19
   2  -4   7   41.44    2.67
   2  -4   7   36.12    2.77
  -2   4  -7   45.85    2.82
   2  -4   7   41.62    2.55
  -2   4  -7   43.28    3.10
  -2   4  -8    2.51    1.11
  -2   4  -8    2.47    0.87
   2  -4   8    1.45    0.80
   2   4   8    1.47    0.99
  -2   4  -8    1.91    0.95
  -2  -4  -8    0.52    1.07
   2  -4   8    1.33    0.73
   2  -4   8    2.14    1.08
   2  -4   8    3.79    1.04
   2   4   8    0.72    1.07
   2  -4   8    0.13    0.66
  -2   4  -9    0.16    0.81
  -2   4  -9    0.26    1.01
  -2   4  -9    1.38    1.13
   2  -4   9    1.87    1.10
   2   4   9   -0.26    1.18
   2  -4   9    0.79    1.02
  -2  -4  -9    1.06    1.23
   2  -4   9    1.07    0.95
   2   4   9    0.79    1.20
   2  -4  10   80.49    4.65
   2   4  10   71.41    4.17
   2  -4  10   66.81    4.17
   2   4  10   78.44    4.76
  -2   4 -10   74.48    4.62
  -2  -4 -10   84.44    4.79
  -2   4 -10   74.54    4.03
  -2   4 -10   71.00    3.93
   2  -4  10   69.03    4.17
   2   4  10   74.00    4.67
  -2   4 -10   74.04    4.75
   2   4  11   -0.31    1.44
  -2   4 -11    1.96    1.55
   2   4  11    1.49    1.07
  -2   4 -11    0.16    0.81
  -2  -4 -11   -0.56    1.23
   2  -4  11    0.66    1.10
   2   4  11    0.31    1.48
  -2   4 -11    0.29    1.16
  -2   4 -11    0.33    0.97
   2  -4  11    0.81    1.45
  -2   4 -12  362.62   16.77
   2   4  12  409.73   18.06
   2  -4  12  399.30   17.46
  -2   4 -12  410.04   17.97
  -2   4 -12  397.67   16.93
   2   4  12  414.04   18.18
  -2   4 -12  416.14   18.31
  -2  -4 -12  388.94   17.70
   2  -4  12  409.63   17.85
   2   4  12  381.67   17.30
  -2  -4 -12  445.90   18.06
  -2  -4 -13    2.53    1.63
   2   4  13    2.83    1.73
   2   4  13    0.49    1.17
  -2  -4 -13    1.76    1.37
  -2   4 -13    1.31    1.49
   2  -4  13    2.60    1.38
  -2   4 -13    2.63    1.00
  -2   4 -13    1.52    1.63
  -2   4 -14   38.79    2.51
  -2   4 -14   41.25    3.53
  -2   4 -14   33.40    3.59
   2  -4  14   40.37    3.28
  -2  -4 -14   36.92    3.26
   2   4  14   39.54    3.15
  -2  -4 -14   40.97    3.53
  -2   4 -15   32.60    3.57
   2   4  15   30.61    2.83
  -2  -4 -15   23.95    2.67
  -2  -4 -15   24.60    2.72
  -2   4 -15   25.26    3.12
   2  -4  15   19.22    2.58
  -2   4 -15   29.05    2.08
  -2  -4 -15   30.62    3.09
  -2   4 -16    4.62    2.24
  -2  -4 -16   -0.38    1.76
  -2  -4 -16    6.58    1.77
  -2   4 -16    1.96    1.88
  -2   4 -16    2.10    1.00
  -2  -4 -17    2.02    1.91
  -2   4 -17    4.54    2.05
  -2  -4 -17    1.91    1.75
  -2   4 -17    2.17    0.93
  -2   4 -18    4.76    2.21
  -2  -4 -18    5.50    1.93
  -2  -4 -18    9.35    2.49
  -2  -4 -19    5.35    2.33
  -2  -4 -19    4.25    1.90
  -2   4 -19    0.45    2.14
  -2  -4 -20   75.82    5.24
  -2   4 -20   80.26    6.10
  -2  -4 -20   85.60    6.19
  -2  -4 -21    4.35    2.78
  -2   4 -21    2.43    2.46
   2   5 -20    0.94    1.74
   2  -5 -19   14.93    3.62
   2   5 -19   16.30    2.43
   2   5 -18   23.09    2.57
   2  -5 -18   28.18    3.96
   2  -5 -17  233.72   12.86
   2  -5 -17  263.27   11.74
   2   5 -17  230.62   11.31
   2   5 -16    2.14    1.35
   2  -5 -16    2.89    1.50
   2  -5 -16    1.93    2.01
   2   5 -16    4.13    2.17
   2   5 -15  152.21    8.34
   2   5 -15  147.13    7.36
  -2  -5  15  144.46    7.62
   2  -5 -15  151.74    8.78
   2   5 -15  148.40    8.56
   2  -5 -15  147.48    7.48
   2   5 -14    4.05    1.42
   2   5 -14    8.71    1.45
   2  -5 -14   11.48    1.65
   2  -5 -14    6.77    2.39
   2   5 -14    6.81    2.12
   2   5 -14   11.48    2.36
   2  -5 -14    9.95    2.08
  -2  -5  14    9.65    1.81
  -2  -5  13   78.32    4.53
   2  -5 -13   84.29    4.44
   2   5 -13   78.40    4.21
   2  -5 -13   70.96    5.34
   2  -5 -13   77.75    5.15
   2   5 -13   73.52    4.57
   2   5 -13   76.00    5.00
   2   5 -13   77.03    5.23
   2   5 -13   76.41    5.38
   2   5 -12   18.12    2.25
  -2   5  12   12.76    2.21
   2   5 -12   10.67    1.69
   2   5 -12   13.34    2.34
   2  -5 -12   13.97    2.35
   2   5 -12   12.08    1.39
  -2  -5  12   11.89    1.74
   2  -5 -12   14.59    1.58
   2   5 -12   10.94    2.15
   2  -5 -12   13.19    2.35
  -2  -5  11  442.10   20.12
  -2   5  11  447.92   19.69
   2  -5 -11  450.65   19.93
   2  -5 -11  457.06   18.51
   2   5 -11  429.46   18.38
   2   5 -11  446.04   18.88
   2   5 -11  421.33   19.74
   2   5 -11  425.01   19.34
  -2  -5  11  424.31   18.80
  -2   5  11  437.18   20.07
   2  -5 -11  471.13   19.91
   2   5 -11  481.35   20.02
   2  -5 -10   -0.22    0.67
   2   5 -10   -0.51    0.61
   2  -5 -10   -0.31    1.39
  -2  -5  10   -1.08    1.60
  -2   5  10    2.00    1.48
   2   5 -10   -0.72    1.20
   2   5 -10   -0.31    1.17
   2   5 -10    0.65    1.48
   2  -5 -10    0.32    1.38
  -2   5  10   -0.35    1.38
   2   5 -10   -0.17    0.92
   2   5  -9  138.55    7.58
   2   5  -9  137.29    6.55
   2   5  -9  142.09    7.50
  -2  -5   9  139.57    7.81
   2   5  -9  143.98    7.05
  -2   5   9  147.21    7.40
   2  -5  -9  141.94    7.45
  -2   5   9  130.66    7.62
   2   5  -8    6.46    1.00
  -2   5   8   10.38    1.89
   2  -5  -8    7.69    1.61
   2   5  -8    7.57    1.33
  -2  -5   8    6.18    1.65
  -2   5   8    5.46    1.46
   2   5  -8   11.71    1.71
   2   5  -8    9.52    1.93
   2   5  -7   51.21    2.76
  -2  -5   7   57.22    4.12
  -2  -5   7   55.69    2.43
   2   5  -7   51.55    3.75
   2  -5  -7   45.60    3.38
   2  -5  -7   50.93    4.05
   2   5  -7   57.44    3.35
  -2  -5   7   51.70    2.45
  -2   5   7   51.41    3.51
   2   5  -7   54.30    3.64
  -2   5   7   55.28    4.00
   2   5  -6    1.85    0.53
   2   5  -6    2.04    1.15
   2  -5  -6    0.82    0.95
   2   5  -6    1.75    0.93
  -2  -5   6    2.87    1.24
   2  -5  -6    3.15    1.44
   2  -5  -5   23.58    2.01
   2  -5  -5   20.28    2.38
   2  -5  -5   17.51    2.39
   2   5  -5   27.37    1.42
  -2  -5   5   29.65    2.79
  -2  -5   4  123.51    7.05
   2  -5  -4  121.74    6.99
  -2   5   4  126.71    6.25
   2  -5  -4  132.32    7.12
   2  -5  -4  131.18    6.18
   2   5  -4  127.67    5.36
  -2  -5   3    0.62    1.09
   2   5  -3    1.77    0.35
   2  -5  -3    1.52    1.09
   2  -5  -3    0.61    1.05
   2  -5  -3    3.62    0.80
   2   5  -2   -0.27    0.96
  -2  -5   2   -0.31    1.08
   2  -5  -2    0.58    1.11
   2   5  -2    0.16    0.35
   2  -5  -2    0.29    1.06
   2  -5  -2   -0.36    0.55
  -2  -5   1   79.86    4.92
   2  -5  -1   75.15    3.59
   2  -5  -1   75.62    4.68
   2   5  -1   69.66    3.32
   2  -5  -1   74.77    4.60
  -2   5   0   18.50    1.17
   2   5   0   17.67    1.24
   2  -5   0   18.84    1.28
   2   5   0   16.92    2.02
  -2  -5   0   20.02    2.28
   2  -5   0   17.92    2.07
  -2   5  -1  368.72   14.56
  -2  -5  -1  337.46   15.86
   2  -5   1  336.12   15.65
   2  -5   1  354.15   14.36
   2   5   1  339.43   14.54
   2   5   1  353.21   15.69
   2  -5   1  338.33   15.40
  -2   5  -2    0.12    0.55
   2   5   2   -0.27    1.04
   2   5   2    0.97    0.65
   2  -5   2    0.26    0.89
   2  -5   2    0.42    0.96
   2  -5   2    0.22    0.82
   2  -5   2    0.63    0.44
  -2   5  -3   50.98    2.85
   2  -5   3   47.73    3.15
   2   5   3   43.44    2.73
   2  -5   3   44.60    3.19
   2   5   3   49.48    3.53
   2  -5   3   46.77    3.38
   2  -5   3   50.19    3.29
  -2   5  -4   78.23    4.04
   2  -5   4   70.51    3.37
   2  -5   4   65.99    4.35
   2  -5   4   65.87    4.26
   2  -5   4   75.12    4.25
   2  -5   4   74.84    4.13
   2  -5   4   72.88    4.17
   2   5   4   75.38    3.96
   2   5   4   70.47    3.85
  -2  -5  -5  216.42   10.81
  -2   5  -5  248.49   10.26
   2  -5   5  248.31   10.69
   2  -5   5  213.21    9.39
  -2  -5  -5  215.29   10.60
   2  -5   5  203.91   10.15
   2  -5   5  224.27   10.17
   2  -5   5  232.59   10.17
   2  -5   5  218.96   10.43
   2   5   5  216.27    9.87
   2  -5   6    8.48    1.44
   2  -5   6    6.73    1.47
  -2  -5  -6    8.77    1.59
  -2   5  -6   10.71    1.53
   2  -5   6    7.60    1.31
  -2  -5  -6    8.61    1.59
   2  -5   6   10.79    1.44
   2   5   6    7.75    1.33
   2   5   6    6.66    1.13
   2  -5   6    8.63    0.99
   2  -5   6    7.38    1.28
   2  -5   7  961.93   39.54
   2  -5   7  944.39   39.29
   2  -5   7  949.98   38.93
   2   5   7  955.42   39.67
   2  -5   7  982.22   39.90
  -2  -5  -7  978.68   40.35
   2  -5   7  951.88   39.98
   2  -5   7  990.52   39.40
   2   5   7 1011.71   39.95
  -2  -5  -7  875.05   40.02
  -2   5  -7 1001.80   39.87
  -2   5  -8    0.26    1.11
   2  -5   8    0.84    0.87
   2  -5   8   -0.14    0.74
   2   5   8    1.99    1.24
  -2  -5  -8    0.96    1.45
   2   5   8    1.34    1.28
   2  -5   8   -0.74    1.20
   2  -5   8   -0.16    0.79
  -2   5  -9   70.66    4.41
   2  -5   9   68.13    3.65
   2  -5   9   57.77    3.42
   2   5   9   68.09    4.27
  -2  -5  -9   62.61    4.44
   2   5   9   66.13    4.39
   2  -5   9   59.66    3.96
   2  -5   9   61.84    3.48
   2  -5  10   19.32    2.09
  -2   5 -10   17.91    2.29
  -2   5 -10   19.41    2.01
   2  -5  10   19.59    1.89
  -2   5 -10   18.91    2.25
   2   5  10   17.72    2.18
   2  -5  10   19.23    1.61
  -2  -5 -10   18.41    2.45
   2   5  10   19.28    1.84
   2   5  10   16.04    2.33
   2   5  11   62.45    3.76
  -2   5 -11   61.58    4.42
   2  -5  11   65.26    4.06
   2   5  11   61.58    4.29
   2   5  11   59.85    4.39
   2  -5  11   53.03    3.59
  -2   5 -11   61.41    3.72
  -2   5 -11   62.06    4.25
  -2  -5 -11   57.72    4.32
   2   5  12   10.91    1.58
  -2   5 -12    7.55    1.90
   2   5  12   11.34    2.11
   2  -5  12    8.96    1.66
  -2  -5 -12   10.59    2.02
  -2   5 -12   10.68    1.57
  -2   5 -12   13.18    2.18
   2   5  12   16.14    2.54
   2  -5  13  388.59   16.88
  -2   5 -13  368.74   16.55
  -2   5 -13  367.64   17.38
  -2  -5 -13  381.09   17.59
   2   5  13  389.78   16.84
  -2   5 -13  419.87   18.12
  -2   5 -14    2.10    1.93
   2   5  14   -0.25    1.31
  -2   5 -14    3.01    1.25
  -2   5 -14    2.48    1.54
   2  -5  14    2.59    1.60
  -2  -5 -14    4.96    1.88
  -2   5 -15   74.72    5.48
   2   5  15   67.21    4.49
  -2  -5 -15   69.52    4.62
  -2   5 -15   65.66    5.04
  -2   5 -15   72.70    4.20
  -2  -5 -15   79.80    5.19
   2  -5  15   72.72    4.68
  -2   5 -16   23.87    3.09
  -2   5 -16   26.57    3.49
  -2  -5 -16   23.46    2.87
  -2   5 -16   21.31    2.19
  -2  -5 -17   21.56    2.93
  -2   5 -17   29.59    3.69
  -2   5 -17   25.34    3.32
  -2   5 -18   12.19    3.05
  -2   5 -18   19.14    2.99
  -2  -5 -18   13.87    2.56
  -2  -5 -19    0.38    1.97
  -2   5 -19    0.88    2.19
  -2   5 -20   14.62    2.91
  -2  -5 -20    8.64    2.47
  -2   5 -21   19.28    3.40
   2  -6 -19   15.90    3.63
   2  -6 -18   21.38    4.07
   2  -6 -18   35.05    4.38
   2   6 -18   25.09    3.71
   2   6 -17    4.50    2.31
   2   6 -17    4.05    1.39
   2  -6 -17    2.65    2.60
   2  -6 -17    3.63    2.36
   2  -6 -16    1.46    2.39
   2   6 -16    3.69    1.31
   2  -6 -16    6.22    2.52
   2   6 -16    1.43    2.02
   2   6 -15   14.90    2.81
   2   6 -15   13.83    1.60
   2  -6 -15   11.87    2.73
   2  -6 -15    7.61    2.42
   2  -6 -14   22.68    3.25
   2   6 -14   21.36    3.00
   2  -6 -13    1.60    1.99
   2   6 -13   -1.21    1.71
   2   6 -13   -1.29    1.77
   2   6 -12    0.76    1.63
   2   6 -12    1.20    1.53
   2  -6 -12    0.47    1.83
   2  -6 -12    2.97    1.84
  -2  -6  12    2.57    2.02
  -2   6  12   -0.34    1.63
   2  -6 -11    0.91    1.68
   2   6 -11    5.12    1.92
   2   6 -11    4.26    1.73
  -2  -6  11    4.58    1.82
   2  -6 -11    6.53    1.84
  -2   6  11    3.85    1.70
   2   6 -11    5.58    1.72
   2   6 -10   30.54    2.77
   2   6 -10   33.82    3.13
   2   6 -10   27.46    2.96
  -2  -6  10   30.29    3.37
  -2   6  10   32.09    3.00
   2  -6 -10   34.80    3.11
   2   6  -9    1.04    1.58
   2  -6  -9    1.16    1.42
  -2  -6   9    0.40    1.70
  -2   6   9   -1.41    1.45
   2   6  -9   -0.62    1.25
   2  -6  -8 1263.77   53.17
   2   6  -8 1313.08   53.77
  -2  -6   8 1299.07   54.13
   2   6  -8 1297.01   53.37
  -2   6   8 1318.80   53.23
   2   6  -7    2.97    1.40
   2  -6  -7    5.44    1.47
  -2  -6   7    5.73    1.82
  -2   6   7    3.56    1.35
  -2  -6   7    7.43    0.89
   2   6  -7    8.00    1.93
   2  -6  -7    5.32    1.88
   2   6  -6   37.82    2.85
   2  -6  -6   27.62    2.48
  -2  -6   6   31.19    3.23
   2   6  -6   34.25    3.17
   2  -6  -6   32.55    3.32
   2  -6  -5    0.38    1.31
   2  -6  -5    4.08    1.19
  -2  -6   5    0.75    1.49
   2   6  -5    2.59    1.50
   2  -6  -4  340.41   15.02
   2  -6  -4  303.46   13.46
  -2  -6   4  305.25   14.82
   2  -6  -3   36.22    2.36
  -2  -6   3   35.66    1.68
  -2  -6   3   40.49    3.59
   2  -6  -3   37.88    3.43
  -2  -6   2 2735.92  103.06
   2   6  -2 2392.88  102.33
   2  -6  -2 2692.14  102.84
   2  -6  -2 2594.58  101.00
   2  -6  -2 2228.28  102.45
   2  -6  -1   31.41    1.84
   2   6  -1   31.02    1.46
   2  -6  -1   34.86    3.12
  -2  -6   1   35.68    3.36
   2  -6  -1   33.80    3.15
   2   6  -1   31.03    2.94
   2   6  -1   29.12    1.49
   2   6   0   34.04    3.05
  -2   6   0   35.80    1.81
   2  -6   0   32.47    1.77
   2   6   0   31.52    1.77
   2  -6   0   31.87    3.03
  -2  -6   0   28.43    2.69
  -2  -6   0   38.68    3.45
  -2   6  -1    1.89    0.64
   2  -6   1    2.64    0.43
  -2  -6  -1    2.80    1.30
  -2  -6  -1    4.70    1.65
   2   6   1    2.54    0.69
   2   6   1    3.52    1.53
   2  -6   1    1.95    1.40
   2  -6   1    4.62    1.25
   2  -6   2  408.82   17.72
   2   6   2  414.11   17.72
   2   6   2  389.65   16.26
  -2  -6  -2  372.58   17.35
   2  -6   2  372.38   16.99
   2  -6   2  379.70   17.14
  -2   6  -2  394.79   16.31
   2  -6   3   44.85    3.16
   2   6   3   48.27    2.81
   2  -6   3   45.02    3.34
  -2   6  -3   42.83    2.76
   2  -6   3   55.04    3.87
  -2  -6  -3   44.51    3.46
   2  -6   3   44.50    3.26
   2  -6   4  355.27   15.97
   2   6   4  358.05   15.66
   2   6   4  358.25   15.60
   2  -6   4  351.46   16.19
   2  -6   4  378.47   16.25
  -2  -6  -4  388.20   16.75
   2  -6   4  385.33   16.79
   2  -6   4  364.52   16.12
  -2   6  -4  374.76   15.76
   2  -6   5    5.80    1.43
  -2  -6  -5    8.78    1.97
  -2  -6  -5    7.50    1.70
  -2   6  -5    4.82    1.21
   2  -6   5    6.06    1.31
   2   6   5    4.24    1.05
   2  -6   5    7.21    1.32
   2  -6   5    5.78    0.56
   2  -6   5    6.20    1.57
   2  -6   5    6.92    1.42
  -2   6  -6   42.81    3.04
   2  -6   6   49.98    3.64
   2  -6   6   40.90    2.98
   2  -6   6   39.03    2.10
   2  -6   6   42.71    2.96
   2  -6   6   48.43    3.12
   2  -6   6   39.80    3.18
  -2  -6  -6   34.59    3.26
   2   6   6   45.26    3.03
  -2  -6  -6   42.76    3.71
   2   6   6   42.35    2.68
   2  -6   7    1.71    1.09
  -2  -6  -7   -0.35    1.24
   2  -6   7    0.61    1.16
  -2   6  -7    1.25    1.14
   2  -6   7   -0.29    1.14
   2  -6   7    0.34    0.58
   2  -6   7   -0.63    0.98
   2  -6   7    0.21    1.01
   2   6   7    0.47    1.23
  -2  -6  -7    1.48    1.53
  -2  -6  -8   17.23    2.46
  -2   6  -8    7.16    1.73
  -2   6  -8   16.66    2.02
   2   6   8   10.21    1.87
   2  -6   8   11.66    1.56
   2  -6   8   13.27    1.25
   2  -6   8   15.57    1.69
   2  -6   8   15.74    2.21
  -2   6  -9    0.30    1.27
   2  -6   9    0.33    0.94
  -2   6  -9    1.27    1.29
   2  -6   9    1.18    1.50
   2   6   9    1.38    1.45
  -2  -6  -9    1.91    1.69
   2  -6   9    1.31    1.03
   2  -6   9    0.90    0.79
   2   6  10  192.69    9.77
   2  -6  10  196.69    8.95
   2   6  10  215.22   10.15
  -2  -6 -10  207.52   10.44
   2   6  10  195.85    9.01
  -2   6 -10  199.24    9.52
   2  -6  10  192.07    9.79
   2  -6  10  193.09    8.79
  -2   6 -10  180.28    9.80
  -2   6 -11    0.35    1.51
   2  -6  11    1.83    1.64
   2   6  11    2.10    1.11
   2   6  11   -0.64    1.62
  -2   6 -11    1.77    1.47
  -2  -6 -11    1.97    1.97
   2  -6  11   -0.51    1.02
   2  -6  11    0.79    1.13
   2   6  11    2.06    1.83
  -2   6 -12    1.00    1.32
  -2   6 -12    1.14    1.70
   2  -6  12    1.82    1.55
  -2  -6 -12    1.99    1.95
   2  -6  12    0.38    1.14
   2   6  12    0.41    1.16
  -2   6 -13    3.46    1.55
   2   6  13    0.86    1.18
  -2  -6 -13    0.40    1.96
  -2   6 -13    0.81    1.89
   2   6  14   15.55    2.02
  -2  -6 -14   16.36    2.73
  -2   6 -14   12.61    2.25
  -2   6 -14   15.78    2.21
  -2   6 -14   14.73    2.81
  -2   6 -15    2.30    2.09
  -2   6 -15    1.10    1.76
   2   6  15    1.89    1.34
  -2  -6 -15    4.15    2.08
  -2   6 -16  171.10    9.52
  -2   6 -16  147.28    8.66
  -2  -6 -16  160.40    9.04
  -2   6 -17    0.51    2.33
  -2   6 -17   -1.20    1.91
  -2  -6 -17    0.42    1.97
  -2  -6 -18   13.20    2.82
  -2   6 -18   15.72    2.84
  -2  -6 -19    7.67    2.53
  -2   6 -19   10.69    2.60
   2   7 -17   59.70    5.26
   2  -7 -17   57.54    5.61
   2  -7 -16    0.57    2.50
   2   7 -16    5.87    2.59
   2  -7 -15   92.91    7.06
   2   7 -15  100.65    6.68
   2  -7 -15   83.57    6.32
   2  -7 -14    3.89    2.18
   2   7 -14    7.07    2.39
   2  -7 -14    4.42    2.68
   2  -7 -13  147.73    9.20
   2  -7 -13  146.42    8.32
   2   7 -13  143.56    8.40
  -2  -7  13  140.99    8.65
   2  -7 -12   24.61    3.05
   2   7 -12   27.36    3.16
   2  -7 -12   31.71    3.91
  -2  -7  12   23.55    3.39
   2  -7 -11  163.64    8.68
  -2   7  11  156.56    8.58
  -2  -7  11  168.15    9.43
   2   7 -11  158.14    8.75
   2  -7 -11  160.39    9.59
   2  -7 -10   -1.52    2.04
   2  -7 -10    0.32    1.59
   2   7 -10   -1.04    1.52
  -2  -7  10    1.84    1.92
  -2   7  10    0.31    1.53
   2   7  -9    4.23    1.80
  -2  -7   9    2.27    1.96
   2  -7  -9    8.15    1.92
  -2   7   9    7.67    1.78
   2   7  -8    0.30    1.35
   2  -7  -8    1.88    1.86
  -2  -7   8    1.34    1.89
   2  -7  -8    2.90    1.46
  -2  -7   8    1.72    0.60
  -2   7   8    0.78    1.30
   2  -7  -7   45.68    3.17
   2   7  -7   41.43    3.31
   2  -7  -7   42.46    4.07
  -2  -7   7   41.32    2.49
  -2  -7   7   37.02    3.82
  -2   7   7   36.86    3.05
   2   7  -6    1.11    1.54
   2  -7  -6    0.63    1.09
   2   7  -6    0.53    1.24
   2  -7  -6    0.44    1.70
  -2  -7   6   -0.44    1.76
   2  -7  -5   62.66    3.69
   2   7  -5   61.44    4.02
  -2  -7   5   61.61    4.93
   2   7  -5   58.66    4.58
   2  -7  -5   73.26    5.19
   2   7  -4    0.46    1.10
  -2  -7   4    1.29    1.64
   2  -7  -4    1.70    1.65
   2   7  -4    1.08    1.63
   2  -7  -4   -0.31    0.82
   2  -7  -3   55.36    2.88
   2  -7  -3   52.08    4.35
  -2  -7   3   53.57    4.34
  -2  -7   3   45.17    2.18
  -2  -7   2    0.43    1.50
  -2  -7   2   -0.08    0.58
   2  -7  -2    0.10    0.62
   2  -7  -2    0.41    1.56
  -2  -7   1   -1.29    1.85
   2  -7  -1    0.07    0.50
   2  -7  -1    3.62    1.78
   2   7  -1    0.36    1.43
  -2   7   0    3.56    0.54
  -2  -7   0    3.23    1.45
  -2  -7   0    0.43    1.67
   2  -7   0    2.74    1.69
   2   7   0    1.83    1.69
   2  -7   1  147.04    8.32
  -2  -7  -1  140.89    8.48
   2  -7   1  146.42    7.62
   2   7   1  151.79    6.40
  -2   7  -1  148.11    6.54
  -2  -7  -1  148.35    8.04
   2   7   1  161.13    8.35
   2  -7   1  134.19    7.61
   2  -7   2   12.28    1.79
   2  -7   2   15.71    2.38
   2  -7   2   11.92    1.81
   2   7   2    9.81    1.11
  -2   7  -2    9.23    1.14
   2  -7   2    7.14    1.62
  -2  -7  -2   10.58    2.29
  -2  -7  -2    8.58    1.75
  -2   7  -3   14.12    1.47
   2   7   3   12.16    1.45
   2  -7   3   11.92    1.72
   2   7   3   15.38    1.42
  -2  -7  -3   15.02    2.21
   2  -7   3   10.42    1.82
   2  -7   3   10.84    1.87
   2  -7   3    9.84    2.18
  -2   7  -4    5.28    1.16
   2  -7   4    2.70    1.29
   2  -7   4    5.38    1.39
   2  -7   4    4.71    1.39
  -2  -7  -4    5.04    1.76
   2  -7   4    7.45    2.02
   2  -7   4    9.15    1.62
   2   7   4    4.89    1.11
  -2   7  -5   63.71    4.02
   2  -7   5   71.37    4.20
  -2  -7  -5   74.40    4.97
   2   7   5   65.80    3.72
   2  -7   5   74.61    5.09
  -2  -7  -5   67.54    5.15
   2  -7   5   67.85    4.44
   2  -7   5   64.29    4.32
   2  -7   5   72.25    4.40
   2   7   6   20.02    1.77
  -2  -7  -6   18.99    2.71
  -2   7  -6   24.56    2.28
  -2  -7  -6   19.41    2.88
   2  -7   6   21.34    2.75
   2   7   6   19.79    2.06
   2  -7   6   21.33    2.17
   2  -7   6   21.22    2.28
   2  -7   6   22.78    2.49
   2  -7   6   22.34    2.34
  -2   7  -7  320.45   14.04
   2  -7   7  290.97   13.64
   2   7   7  317.99   13.87
   2  -7   7  310.12   13.80
   2  -7   7  295.98   13.78
   2  -7   7  327.54   14.80
   2  -7   7  316.03   14.29
  -2  -7  -7  319.44   15.23
  -2  -7  -7  280.16   14.55
   2  -7   8   59.22    4.35
   2  -7   8   54.28    3.59
   2   7   8   48.96    3.66
  -2   7  -8   61.93    3.97
   2  -7   8   45.87    3.34
  -2  -7  -8   46.87    4.13
  -2  -7  -8   56.41    4.64
  -2  -7  -9  190.35   10.63
   2  -7   9  190.50   10.14
   2  -7   9  203.03    8.34
   2  -7   9  190.09    9.32
  -2   7  -9  212.52   10.08
   2   7   9  194.30    9.77
   2  -7   9  196.66    9.14
   2   7  10   25.83    2.12
   2   7  10   23.70    2.75
  -2   7 -10   27.32    2.94
  -2  -7 -10   30.39    3.45
   2  -7  10   24.23    3.00
   2  -7  10   25.22    2.31
  -2  -7 -11   36.51    4.03
  -2   7 -11   39.64    3.67
   2  -7  11   40.29    3.65
   2   7  11   45.49    2.89
   2  -7  12    4.61    2.01
   2   7  12    9.38    1.50
  -2  -7 -12    6.77    2.50
  -2   7 -12    7.81    2.28
   2  -7  13   58.29    4.37
   2   7  13   53.45    3.47
  -2  -7 -13   47.99    4.61
  -2   7 -13   60.39    4.77
  -2   7 -14    9.31    2.70
  -2  -7 -14    0.46    2.08
  -2   7 -15   63.86    5.51
  -2  -7 -15   75.85    5.74
  -2   7 -16    8.41    2.75
  -2  -7 -16    2.81    2.46
  -2  -7 -17   16.89    3.23
  -2  -7 -18   -1.41    2.69
  -2  -7 -19    2.81    2.37
   2  -8 -15   11.97    3.31
   2   8 -15    9.50    2.85
   2  -8 -14   10.63    3.06
   2   8 -14   14.04    2.89
   2  -8 -13   -0.58    2.60
  -2  -8  13    1.05    2.38
   2   8 -13   -2.58    2.08
  -2  -8  12  106.50    7.34
   2   8 -12   96.41    6.64
   2  -8 -11   15.69    3.25
   2  -8 -11   16.39    3.23
   2   8 -11   15.02    2.64
  -2  -8  11   19.09    3.34
  -2   8  10   -1.22    1.77
   2   8 -10    5.44    1.74
  -2  -8  10   -0.51    2.39
   2  -8  -9    1.07    2.11
   2  -8  -9    0.29    1.50
  -2  -8   9   -1.52    2.11
   2   8  -9   -1.02    1.69
  -2   8   9   -0.28    1.57
   2  -8  -8   31.12    4.02
  -2  -8   8   35.12    4.06
   2   8  -8   35.53    3.32
   2  -8  -8   38.59    3.10
   2  -8  -8   36.30    4.23
   2  -8  -7    0.46    1.24
   2  -8  -7    1.04    2.09
   2  -8  -7    4.12    2.00
  -2  -8   7    4.84    2.29
   2   8  -7    2.96    1.61
  -2  -8   6  108.96    7.22
   2   8  -6  103.67    5.91
   2  -8  -6  101.36    6.96
   2  -8  -6  105.64    7.17
   2   8  -5    2.05    1.44
  -2  -8   5    4.94    2.51
   2  -8  -5   -0.50    1.75
   2  -8  -5    1.94    1.67
   2  -8  -4   34.14    3.84
   2  -8  -4   34.71    3.97
   2   8  -4   34.43    2.87
  -2  -8   4   45.06    4.23
  -2  -8   3   16.15    2.92
   2  -8  -3   12.03    2.43
   2   8  -3   14.43    1.87
  -2  -8   2  163.27    9.11
   2   8  -2  153.89    7.18
  -2  -8   2  136.57    6.29
   2  -8  -2  158.52    8.88
   2  -8  -1   10.57    2.49
  -2  -8   1   10.28    2.62
  -2  -8   1   11.22    2.39
  -2  -8   0   52.90    4.23
  -2  -8   0   50.16    4.71
   2  -8   0   58.31    4.74
  -2   8  -1    0.87    0.62
   2  -8   1   -0.45    1.75
   2  -8   1    0.57    1.34
   2  -8   1    0.96    1.41
   2  -8   1   -0.81    1.38
  -2  -8  -1   -1.95    1.70
  -2  -8  -1   -0.49    1.72
  -2  -8  -2   36.92    4.01
   2  -8   2   37.10    3.23
   2  -8   2   41.92    3.55
   2  -8   2   45.46    4.24
  -2   8  -2   41.35    2.50
   2   8   2   47.50    2.29
   2  -8   2   45.04    3.36
  -2  -8  -2   40.13    3.73
   2   8   3    0.31    0.95
  -2   8  -3    0.61    0.99
   2  -8   3    0.26    1.30
   2  -8   3    0.44    1.71
   2  -8   3    0.28    1.34
   2  -8   3   -0.62    1.46
  -2  -8  -3    3.60    1.67
   2   8   3    1.40    0.81
  -2   8  -4  149.10    7.19
   2  -8   4  146.67    7.99
   2  -8   4  147.71    7.59
   2  -8   4  158.93    8.89
   2  -8   4  147.63    7.86
   2   8   4  154.89    7.00
   2  -8   4  137.87    7.83
  -2  -8  -4  136.59    8.37
   2   8   4  161.02    7.10
   2  -8   5    2.06    1.48
  -2  -8  -5    2.95    1.67
   2   8   5   -0.41    0.86
  -2   8  -5    0.84    1.16
   2  -8   5    0.23    1.23
   2  -8   5   -0.87    2.00
   2  -8   5   -0.30    1.51
   2  -8   5    0.30    1.27
  -2  -8  -5   -1.47    2.38
  -2   8  -6  161.27    8.20
   2   8   6  161.85    7.49
   2  -8   6  166.48    8.19
   2   8   6  180.87    8.13
   2  -8   6  184.61    9.62
   2  -8   6  154.39    8.53
   2  -8   6  163.92    8.49
  -2  -8  -6  161.38    9.28
  -2  -8  -6  184.59    9.96
   2  -8   6  168.50    8.56
  -2   8  -7   39.21    3.08
   2   8   7   31.18    2.16
   2   8   7   30.90    2.73
   2  -8   7   32.39    2.74
   2  -8   7   35.03    3.69
  -2  -8  -7   31.63    3.75
   2  -8   7   31.93    2.96
  -2  -8  -7   30.88    3.63
  -2  -8  -8   14.45    3.03
  -2   8  -8   11.67    2.01
   2   8   8   11.92    1.33
   2   8   8    9.69    1.80
   2  -8   8    8.76    2.43
   2  -8   8   11.07    1.90
  -2  -8  -8    9.84    2.43
  -2   8  -9   -0.64    1.56
  -2  -8  -9   -0.50    2.12
   2   8   9   -1.11    1.54
   2  -8   9    0.41    1.98
  -2   8 -10    7.24    1.93
  -2  -8 -10    6.04    2.65
   2  -8  10    6.92    2.25
   2   8  10    4.52    1.79
  -2   8 -11    9.27    2.22
  -2  -8 -11    5.58    2.50
   2  -8  11    6.96    2.43
  -2   8 -12   91.00    6.14
   2  -8  12  105.85    6.47
  -2  -8 -12   84.08    6.60
  -2  -8 -13   -0.51    2.26
  -2   8 -13    2.12    2.07
  -2  -8 -14   22.65    3.66
  -2   8 -14   22.50    3.41
  -2  -8 -15    0.52    2.53
  -2   8 -15   -0.48    2.56
  -2  -8 -16    6.73    2.78
   2   9 -14    8.61    2.60
  -2  -9  14    7.40    3.31
   2   9 -13   10.44    2.70
  -2  -9  13   15.24    3.54
   2   9 -12    0.41    2.14
  -2  -9  12   -1.13    2.73
   2  -9 -12   -0.63    2.66
   2   9 -11  101.70    6.60
   2  -9 -11   98.03    7.69
   2  -9 -11   97.76    7.53
  -2  -9  11  116.87    7.92
   2   9 -10    0.37    1.91
   2  -9 -10    0.59    2.45
  -2  -9   9   11.79    3.21
   2   9  -9   10.44    2.31
   2  -9  -9   19.65    3.49
  -2  -9   8    0.56    2.70
   2   9  -8    1.31    1.69
   2  -9  -8    0.59    2.21
   2  -9  -8   -1.72    2.51
   2   9  -7   23.49    2.80
  -2  -9   7   18.38    3.44
   2  -9  -7   25.58    3.98
   2  -9  -7   18.08    3.38
   2  -9  -6   -1.09    2.09
   2   9  -6    0.85    1.47
  -2  -9   6   -0.55    2.26
   2  -9  -6   -0.57    2.46
   2   9  -5   33.33    2.96
   2  -9  -5   32.86    4.10
  -2  -9   5   33.25    4.32
   2  -9  -5   41.29    4.60
   2  -9  -4   -1.10    2.10
   2   9  -4    1.21    1.28
  -2  -9   4    4.39    2.53
   2  -9  -4    0.53    2.06
   2  -9  -3   14.55    3.17
  -2  -9   3   12.09    2.75
   2   9  -3    6.47    1.51
   2  -9  -3   13.63    2.82
   2  -9  -2    0.52    2.22
   2  -9  -2   -1.07    2.29
  -2  -9   2   -2.20    2.43
   2   9  -2    0.20    1.24
  -2  -9   2   -0.43    1.69
   2   9  -1   50.09    3.17
  -2  -9   1   51.15    5.01
   2  -9  -1   41.51    3.46
   2  -9  -1   39.30    4.40
  -2  -9   1   46.85    4.33
   2   9   0    1.70    1.07
  -2  -9   0   -1.66    2.41
   2  -9   0    1.25    1.57
  -2  -9   0    2.63    1.86
   2  -9   0    4.70    1.58
   2  -9   0    2.56    2.09
  -2  -9  -1  102.34    7.18
   2  -9   1  110.26    7.25
   2   9   1   95.61    4.92
   2  -9   1   99.41    5.72
  -2  -9  -1   99.31    6.58
   2  -9   1   92.17    6.71
  -2   9  -2    0.56    0.78
   2   9   2    0.69    0.92
   2  -9   2   -1.02    2.15
   2  -9   2    0.51    1.96
   2  -9   2    0.56    1.50
  -2  -9  -2    1.33    1.85
  -2  -9  -2    1.11    2.23
  -2  -9  -3   12.62    2.60
   2   9   3    4.82    1.11
  -2   9  -3    6.71    1.16
   2  -9   3    3.42    1.67
   2  -9   3   13.58    3.02
   2  -9   3    6.03    1.76
   2   9   4    5.89    1.07
   2  -9   4    4.01    2.32
  -2   9  -4    6.43    1.33
  -2  -9  -4    3.20    1.94
   2  -9   4    5.59    1.74
   2   9   4    5.10    1.08
   2   9   5   36.60    2.22
  -2   9  -5   41.06    2.90
   2  -9   5   29.91    3.09
   2  -9   5   43.94    4.37
  -2  -9  -5   41.42    4.10
  -2   9  -6    1.89    1.42
  -2  -9  -6   -0.48    1.85
   2  -9   6    2.43    2.12
  -2   9  -7  191.59    9.29
   2  -9   7  206.08   10.77
  -2  -9  -7  204.47   11.26
  -2  -9  -8    0.97    2.06
  -2   9  -8   -0.29    1.60
  -2  -9  -8   -1.12    2.29
   2  -9   8    1.43    2.39
  -2  -9  -9    7.85    2.82
  -2   9  -9    5.73    1.82
   2  -9   9    6.99    2.60
  -2   9 -10   -2.42    2.04
   2  -9  10    0.46    2.12
  -2  -9 -10   -0.56    2.56
  -2   9 -11   11.18    2.46
  -2  -9 -11   10.17    2.92
   2  -9  11   10.13    2.85
  -2  -9 -12    3.41    2.85
  -2   9 -12    2.80    2.03
  -2   9 -13   59.31    5.10
  -2   9 -14    1.36    2.35
   2  10 -12    0.41    2.14
   2  10 -11    2.33    2.23
   2  10 -10   19.18    3.16
  -2 -10  10   18.93    4.08
  -2 -10   9   -1.22    3.14
   2  10  -9   -0.69    1.96
  -2 -10   8  245.15   13.44
   2  10  -8  227.37   11.44
   2 -10  -8  231.49   13.14
  -2 -10   7   20.29    3.81
   2  10  -7   19.46    2.51
   2 -10  -7   19.84    3.69
   2 -10  -7   17.07    3.58
   2 -10  -6   14.45    3.44
   2  10  -6   18.66    2.51
   2 -10  -6   12.56    3.22
  -2 -10   6   14.44    3.54
   2 -10  -5    1.77    2.53
  -2 -10   5    1.83    2.81
   2  10  -5    1.83    1.52
   2 -10  -5    2.48    2.74
   2 -10  -4   89.02    6.92
  -2 -10   4   73.65    6.46
  -2 -10   4   75.00    5.96
   2 -10  -4   74.77    6.34
   2  10  -4   75.47    4.66
  -2 -10   3   -1.82    2.53
   2 -10  -3    0.61    2.61
   2  10  -3   -1.53    1.34
  -2 -10   3   -1.92    2.12
   2 -10  -3   -1.73    2.55
  -2 -10   2  217.78   12.00
  -2 -10   2  237.33   13.04
   2  10  -2  215.82   10.26
   2 -10  -2  229.01   12.65
   2 -10  -2  255.39   13.24
   2 -10  -1   -1.15    2.40
  -2 -10   1    1.22    2.41
   2  10  -1    0.52    1.13
   2 -10  -1   -0.59    2.50
  -2 -10   1    0.49    2.22
   2  10   0    3.80    1.20
  -2 -10   0    0.99    2.15
  -2 -10   0    4.27    2.66
   2 -10   0    1.14    2.27
   2 -10   0    6.42    2.76
   2  10   1   -1.55    1.06
   2 -10   1    0.58    2.51
  -2 -10  -1   -0.49    2.26
  -2 -10  -1   -1.22    2.63
   2 -10   1    2.85    2.59
  -2 -10  -2   50.27    4.76
  -2 -10  -2   47.48    5.20
   2 -10   2   54.92    5.35
   2 -10   2   47.68    4.98
  -2 -10  -3    5.96    2.31
  -2 -10  -3    6.77    2.89
   2 -10   3   14.78    3.36
   2 -10   3    6.74    2.64
   2 -10   4   62.26    5.57
  -2 -10  -4   48.19    4.75
  -2 -10  -5   -0.51    2.20
   2 -10   5   -0.55    2.47
  -2 -10  -6    1.22    2.59
  -2 -10  -6   -0.52    2.38
   2 -10   6    0.54    2.60
  -2 -10  -7    3.08    2.41
  -2 -10  -7    8.58    3.15
   2 -10   7    6.41    2.78
  -2  10  -8    5.94    1.99
   2 -10   8    8.50    2.95
  -2 -10  -8    3.14    2.29
  -2  10  -9    1.87    1.63
   2 -10   9    2.57    2.74
  -2  10 -10   17.67    2.85
   2 -10  10   25.12    3.74
  -2 -11   5   25.47    3.79
  -2 -11   4    0.53    2.44
  -2 -11   3    5.89    2.73
  -2 -11   2   -2.14    2.37
  -2 -11   1    4.85    2.91
  -2 -11   0    1.07    2.39
  -2 -11  -1   32.01    4.11
  -2 -11  -2    0.54    2.40
  -2 -11  -3    2.68    2.60
  -2 -11  -4   -1.09    2.51
  -2 -11  -5   -1.64    2.45
  -2 -11  -6   -1.09    2.45
   3   0 -22   -1.22    2.77
   3   0 -22    2.07    2.45
   3   0 -21   55.30    5.19
   3   0 -21   62.84    5.73
   3   0 -20    1.10    2.48
   3   0 -20   -0.46    2.17
   3   0 -19   96.86    6.44
   3   0 -19   92.98    6.76
   3   0 -18   -1.22    1.63
   3   0 -18   -0.99    1.99
   3   0 -17   66.75    5.27
   3   0 -17   64.42    4.83
   3   0 -16   -0.36    1.59
   3   0 -16    1.73    2.02
  -3   0  15 1260.36   53.16
   3   0 -15 1304.31   53.17
  -3   0  14    0.65    1.42
   3   0 -14   -0.31    1.33
   3   0 -13   11.29    1.87
  -3   0  13   13.21    1.99
   3   0 -12    0.80    0.93
  -3   0  12   -0.29    1.26
  -3   0  11 1274.51   51.99
   3   0 -11 1256.87   51.77
  -3   0  10   -0.25    1.06
  -3   0  10    0.16    0.62
   3   0 -10    0.22    0.92
   3   0  -9 1589.95   65.06
  -3   0   9 1623.06   64.74
   3   0  -8    1.35    0.65
  -3   0   8    0.16    0.56
   3   0  -7   -0.14    0.52
  -3   0   7    0.31    0.55
   3   0  -7    1.09    0.74
   3   0  -6    0.80    0.68
   3   0  -6    0.42    0.50
  -3   0   6   -0.15    0.49
   3   0  -5 2024.31   85.53
   3   0  -5 2161.28   85.22
  -3   0   5 2189.24   85.35
   3   0  -4    0.35    0.58
  -3   0   4    0.14    0.40
  -3   0   4    0.11    0.40
  -3   0   3  111.38    4.78
  -3   0   3   95.30    4.97
  -3   0   2    0.14    0.30
  -3   0   2   -0.41    0.43
  -3   0   1  139.81    6.07
   3   0  -1  128.43    5.44
   3   0  -1  115.17    5.94
  -3   0   0    0.14    0.40
   3   0   0   -0.04    0.20
   3   0   1 2922.89  115.14
  -3   0  -1 2870.60  115.57
  -3   0  -1 2885.36  115.45
   3   0   2    0.07    0.32
  -3   0  -2    0.13    0.40
   3   0   2    0.65    0.53
  -3   0  -2   -0.45    0.50
  -3   0  -3 3762.54  148.96
   3   0   3 3714.61  148.22
  -3   0  -3 3816.60  149.07
  -3   0  -4    0.48    0.54
  -3   0  -4   -0.17    0.53
  -3   0  -5  473.36   19.34
  -3   0  -5  436.12   19.17
  -3   0  -6    0.21    0.72
  -3   0  -6    0.20    0.74
  -3   0  -6    0.17    0.74
  -3   0  -7  684.51   27.62
  -3   0  -7  657.87   27.25
  -3   0  -7  634.69   27.44
  -3   0  -7  646.92   27.37
  -3   0  -8    0.49    0.89
  -3   0  -8    0.48    0.88
  -3   0  -8   -0.20    0.79
   3   0   9 1363.78   55.81
  -3   0  -9 1375.15   55.90
  -3   0  -9 1371.98   55.59
  -3   0  -9 1348.38   55.88
  -3   0 -10    0.87    0.99
  -3   0 -10    0.22    0.33
  -3   0 -10    0.48    1.03
  -3   0 -10   -0.04    0.35
  -3   0 -10    0.29    1.04
   3   0  10    0.55    1.14
  -3   0 -11 1025.87   40.66
  -3   0 -11  941.27   38.68
  -3   0 -11 1016.36   40.27
   3   0  11  975.45   40.44
  -3   0 -11  976.84   38.67
  -3   0 -12    1.34    1.41
   3   0  12    0.94    1.48
  -3   0 -12   -0.39    0.51
  -3   0 -12    0.55    1.26
  -3   0 -12    0.06    0.44
  -3   0 -13    3.95    1.68
  -3   0 -13    2.36    0.57
   3   0  13    3.99    1.67
  -3   0 -13    3.32    0.65
  -3   0 -13    3.86    1.59
   3   0  14    1.40    1.60
  -3   0 -14   -0.36    0.54
  -3   0 -14   -0.23    0.57
  -3   0 -14    2.22    1.44
  -3   0 -14    0.31    1.28
  -3   0 -14   -0.38    1.49
  -3   0 -15  246.01   10.22
  -3   0 -15  237.58   10.21
  -3   0 -15  257.32   12.00
  -3   0 -15  256.57   12.54
  -3   0 -16    0.44    1.87
  -3   0 -16    0.87    1.72
  -3   0 -16   -0.34    1.47
  -3   0 -16   -0.16    0.67
  -3   0 -16    0.08    0.69
  -3   0 -17  142.45    6.02
  -3   0 -17  135.32    5.99
  -3   0 -17  136.36    7.73
  -3   0 -17  136.70    8.36
  -3   0 -17  138.17    8.37
  -3   0 -18   -2.44    2.33
  -3   0 -18   -0.12    0.60
  -3   0 -18    0.18    0.59
  -3   0 -18   -1.47    1.67
  -3   0 -19   13.46    3.00
  -3   0 -19   13.34    3.02
  -3   0 -19   15.84    2.63
  -3   0 -20   -0.55    2.59
  -3   0 -20   -1.61    2.66
  -3   0 -20    0.39    1.85
  -3   0 -21   21.90    3.79
  -3   0 -21   32.16    4.23
  -3   0 -21   27.62    3.35
  -3   0 -22   -0.80    1.92
   3  -1 -23   23.71    3.81
   3  -1 -22   20.11    3.34
   3   1 -22   21.54    3.59
   3   1 -22   15.35    3.58
   3   1 -21    0.51    2.41
   3   1 -21    3.37    2.66
   3  -1 -21    5.59    2.74
   3   1 -20   20.77    3.36
   3   1 -20   22.97    3.56
   3  -1 -20   22.34    3.27
   3  -1 -19    0.82    1.81
   3   1 -19    0.46    1.92
   3   1 -19   -0.50    2.26
   3  -1 -18   -0.38    1.74
   3   1 -18    0.48    2.10
   3   1 -18   -0.87    1.86
   3  -1 -17    0.71    1.53
   3   1 -17    3.27    1.83
   3   1 -17    1.79    2.04
   3   1 -17    3.36    1.81
   3  -1 -16   14.29    2.30
   3   1 -16   12.96    2.45
   3   1 -16   11.19    2.18
   3   1 -16   14.99    2.50
   3   1 -16   11.41    1.45
   3   1 -15   53.41    4.14
   3  -1 -15   53.48    3.90
   3   1 -15   42.36    3.98
   3   1 -15   58.51    4.28
   3   1 -15   49.05    3.07
   3  -1 -15   56.74    4.51
  -3  -1  15   52.77    4.11
   3  -1 -14   84.87    5.67
   3   1 -14   81.67    5.32
   3   1 -14   86.47    5.55
   3   1 -14   81.66    5.29
   3   1 -14   76.76    4.24
   3  -1 -14   88.47    5.19
  -3   1  14   87.02    5.41
  -3  -1  14   81.08    5.21
  -3  -1  13    0.60    1.38
   3  -1 -13    1.86    1.21
   3   1 -13   -0.65    1.43
   3   1 -13    4.67    1.40
   3   1 -13    4.05    1.47
   3  -1 -13    2.55    1.55
  -3   1  13    0.63    1.38
   3   1 -13    2.34    0.83
   3   1 -12  284.94   13.88
   3   1 -12  302.77   12.87
   3  -1 -12  304.34   13.60
   3   1 -12  298.61   13.88
   3   1 -12  317.01   14.14
  -3  -1  12  291.32   12.86
   3  -1 -12  317.38   14.32
  -3   1  12  298.22   13.91
  -3  -1  12  299.90   13.83
  -3  -1  11   11.02    1.22
   3  -1 -11   14.17    1.92
   3   1 -11   12.65    1.87
   3  -1 -11   10.61    1.53
   3   1 -11    8.03    1.55
  -3  -1  11   11.72    1.76
   3   1 -11   13.33    1.87
   3   1 -11   12.76    1.22
  -3   1  11   12.55    1.82
   3  -1 -10  598.04   24.91
   3  -1 -10  607.50   25.63
   3   1 -10  570.20   25.37
  -3  -1  10  595.93   25.26
   3   1 -10  594.18   25.44
   3   1 -10  634.52   25.34
   3   1 -10  565.91   24.34
  -3  -1  10  609.41   24.59
   3  -1  -9   94.55    4.88
   3  -1  -9   91.96    5.35
   3   1  -9   85.10    5.13
   3   1  -9   92.63    5.13
   3   1  -9   98.74    4.52
   3   1  -9   89.31    5.29
  -3  -1   9   90.76    4.65
  -3  -1   9   92.05    5.13
   3  -1  -8   48.08    3.32
  -3  -1   8   53.53    3.21
  -3   1   8   43.62    2.85
   3  -1  -8   45.88    2.83
   3   1  -8   44.05    2.53
  -3  -1   7    0.76    0.79
  -3   1   7    0.52    0.58
   3   1  -7    1.74    0.54
   3  -1  -7    1.58    0.88
   3   1  -6 2642.91  103.04
   3  -1  -6 2555.05  103.78
  -3   1   6 2616.64  103.49
  -3  -1   6 2493.99  103.53
  -3  -1   5   57.06    3.02
  -3   1   5   58.25    3.32
   3  -1  -5   58.40    3.49
   3   1  -5   59.67    3.02
  -3  -1   4  109.83    5.07
   3  -1  -4  108.24    5.27
   3   1  -4  109.64    5.03
   3  -1  -4  111.68    5.53
  -3   1   4  103.19    5.28
   3  -1  -3    0.39    0.43
  -3  -1   3    0.82    0.44
   3  -1  -3    1.00    0.61
   3   1  -3    0.99    0.44
  -3   1   3    1.06    0.48
  -3   1   2  249.53   11.16
   3   1  -2  262.21   11.23
   3   1  -2  258.93   10.79
  -3  -1   2  254.13   10.97
  -3   1   2  275.83   11.35
   3  -1  -2  246.61   10.92
  -3   1   1  209.25    9.66
   3   1  -1  214.36    9.54
  -3  -1   1  222.30    9.47
   3  -1  -1  221.13    9.31
   3   1  -1  214.92    9.21
  -3   1   1  220.55    9.60
  -3  -1   0 2219.66   89.09
   3   1   0 2185.01   89.03
  -3  -1   0 2244.34   88.89
  -3   1   0 2224.89   89.18
  -3   1   0 2293.89   89.37
  -3  -1  -1    9.95    0.98
   3   1   1   12.73    1.10
   3  -1   1   11.49    1.09
  -3  -1  -1   12.60    1.18
  -3   1  -1   12.43    1.23
  -3  -1  -2  200.56    9.26
   3   1   2  217.66    9.28
  -3   1  -2  228.14    9.75
  -3  -1  -2  221.05    9.49
   3   1   2  222.62    9.32
   3  -1   2  216.43    9.55
   3  -1   2  233.06    9.81
  -3   1  -3   15.47    1.43
  -3  -1  -3   15.17    1.31
   3   1   3   12.98    1.38
   3   1   3   14.97    1.14
   3  -1   3   14.54    1.35
   3   1   3   14.42    1.11
   3  -1   3   14.60    1.42
  -3  -1  -3   14.19    1.09
  -3  -1  -4  178.30    8.15
  -3  -1  -4  182.01    7.67
  -3   1  -4  178.92    8.26
   3   1   4  183.59    7.67
   3  -1   4  184.42    8.21
   3   1   4  165.58    7.81
  -3  -1  -5   25.18    1.94
  -3  -1  -5   24.17    2.00
  -3  -1  -5   22.22    1.39
  -3  -1  -5   23.75    1.71
  -3   1  -5   21.28    1.84
  -3   1  -5   21.33    1.87
  -3   1  -5   19.04    1.79
  -3  -1  -6  138.79    6.79
  -3  -1  -6  134.72    5.93
  -3   1  -6  121.88    6.60
  -3  -1  -6  127.90    6.60
  -3  -1  -6  143.80    6.47
  -3   1  -6  142.48    6.73
  -3   1  -6  141.97    6.82
  -3  -1  -7   39.24    2.85
  -3   1  -7   39.11    2.85
  -3  -1  -7   41.66    2.62
  -3  -1  -7   37.04    2.08
  -3   1  -7   38.36    2.71
  -3  -1  -8   63.63    3.26
   3  -1   8   66.04    4.08
  -3   1  -8   63.80    4.01
  -3  -1  -8   67.61    3.85
  -3  -1  -8   70.98    4.23
  -3   1  -8   73.35    4.34
  -3   1  -8   70.11    4.05
  -3  -1  -9    6.71    1.25
  -3  -1  -9    4.61    1.17
  -3   1  -9    6.83    1.49
   3  -1   9    5.27    1.20
   3  -1   9    5.17    1.24
   3   1   9    9.73    1.66
  -3   1  -9    3.14    1.12
  -3  -1  -9    6.95    0.82
  -3   1  -9    5.00    1.18
  -3   1 -10   80.58    4.64
  -3   1 -10   84.35    4.82
  -3   1 -10   81.90    4.92
   3   1  10   77.62    4.80
   3  -1  10   74.36    4.55
  -3  -1 -10   79.17    3.79
   3  -1  10   86.78    4.88
  -3  -1 -10   74.89    4.49
  -3   1 -10   72.16    3.61
  -3  -1 -10   79.00    4.87
   3   1  10   75.62    4.54
  -3  -1 -11   56.15    3.97
   3   1  11   50.75    3.58
   3   1  11   51.15    3.81
   3  -1  11   53.37    3.67
  -3   1 -11   49.05    2.49
  -3  -1 -11   53.97    2.83
   3  -1  11   57.01    3.90
  -3   1 -11   58.67    4.04
  -3   1 -11   49.78    3.68
  -3  -1 -11   61.35    3.81
  -3   1 -11   45.31    3.43
   3   1  12  438.18   18.75
   3  -1  12  438.51   19.04
   3   1  12  446.42   19.17
  -3  -1 -12  466.80   19.36
  -3  -1 -12  433.70   18.72
  -3   1 -12  434.53   19.18
  -3  -1 -12  429.79   17.62
  -3   1 -12  440.95   18.74
  -3   1 -12  447.75   19.03
  -3   1 -12  398.90   17.06
  -3   1 -12  461.14   19.41
   3  -1  12  448.07   18.87
  -3   1 -13   63.76    4.74
   3   1  13   67.24    4.40
   3  -1  13   59.67    4.33
  -3  -1 -13   61.26    3.42
   3  -1  13   70.65    4.70
   3   1  13   59.66    4.52
  -3   1 -13   77.42    4.85
  -3  -1 -13   69.20    4.47
  -3   1 -13   75.18    4.48
  -3   1 -13   72.81    4.86
  -3  -1 -13   73.75    4.93
  -3  -1 -14   15.12    2.34
  -3  -1 -14   14.31    1.35
   3   1  14   11.37    2.13
  -3  -1 -14   20.27    2.61
   3  -1  14   20.43    2.69
  -3   1 -14    8.73    2.16
  -3   1 -14   16.92    2.13
  -3   1 -14   21.08    2.61
  -3   1 -15   31.85    3.34
  -3   1 -15   24.56    3.14
  -3  -1 -15   27.44    1.95
  -3   1 -15   25.53    2.65
  -3  -1 -15   25.26    3.12
  -3   1 -16   46.79    4.32
  -3  -1 -16   44.56    2.66
  -3   1 -16   41.99    4.02
  -3   1 -16   44.50    3.69
  -3  -1 -16   49.92    4.39
  -3  -1 -17   23.13    1.84
  -3  -1 -17   20.08    1.55
  -3   1 -17   23.29    3.25
  -3  -1 -17   31.23    3.47
  -3  -1 -17   19.26    1.79
  -3   1 -17   26.79    2.74
  -3   1 -17   22.39    3.28
  -3  -1 -18   69.70    3.74
  -3   1 -18   86.07    5.98
  -3  -1 -18   76.17    3.79
  -3  -1 -18   83.33    5.92
  -3   1 -18   80.55    5.10
  -3   1 -18   80.81    5.97
  -3  -1 -18   65.10    3.31
  -3   1 -19    6.33    2.82
  -3   1 -19    8.07    2.54
  -3  -1 -19    4.56    1.15
  -3   1 -19    7.53    2.01
  -3  -1 -19    3.63    2.43
  -3  -1 -20   83.16    6.27
  -3   1 -20   67.41    5.82
  -3  -1 -20   75.60    5.99
  -3   1 -20   73.85    6.05
  -3  -1 -20   55.49    4.95
  -3   1 -20   60.17    4.73
  -3  -1 -21   11.80    2.62
  -3   1 -21    5.47    2.72
  -3   1 -21    2.46    1.75
  -3  -1 -21    6.20    3.02
  -3  -1 -22   38.81    4.31
  -3  -1 -23    1.35    2.26
   3  -2 -23   44.04    4.68
   3  -2 -22    0.92    2.29
   3   2 -22   -2.28    2.82
   3  -2 -21   15.78    2.98
   3  -2 -21    4.89    2.92
   3   2 -21    8.63    3.09
   3   2 -21   11.19    3.01
   3  -2 -20    1.65    1.96
   3   2 -20    8.60    2.91
   3   2 -20    2.56    2.57
   3  -2 -20    3.49    2.68
   3  -2 -19  341.62   13.58
   3  -2 -19  354.79   12.34
   3   2 -19  316.01   12.75
   3   2 -19  339.21   13.00
   3  -2 -18   -0.52    2.21
   3  -2 -18    0.36    1.69
   3   2 -18    3.66    1.88
   3   2 -18   -0.91    2.24
   3   2 -18    1.71    0.63
   3   2 -18    0.15    0.66
   3   2 -17   60.16    3.00
   3  -2 -17   62.26    4.50
   3   2 -17   65.24    4.98
   3   2 -17   68.41    5.08
   3   2 -17   57.24    4.71
   3  -2 -17   70.90    5.38
   3  -2 -16    1.85    1.32
   3   2 -16    2.45    1.76
   3  -2 -16   -0.92    1.79
   3   2 -16   -1.47    1.64
   3   2 -16   -0.41    0.62
   3  -2 -15   78.43    4.77
   3   2 -15   69.43    5.01
   3   2 -15   76.04    5.14
   3  -2 -15   79.33    5.53
   3   2 -15   70.30    5.09
  -3  -2  15   72.28    4.98
   3   2 -15   69.60    3.41
   3  -2 -14    2.81    1.28
  -3   2  14    5.53    1.99
   3   2 -14    3.44    1.65
   3  -2 -14    3.39    1.37
   3   2 -14    5.37    1.63
   3   2 -14    2.06    1.48
   3  -2 -14    3.61    1.80
   3   2 -14    2.74    0.66
  -3   2  14    3.13    1.79
  -3  -2  14    4.94    1.73
   3  -2 -13  499.98   21.15
   3   2 -13  516.44   21.78
   3  -2 -13  506.92   22.10
   3   2 -13  515.86   21.83
  -3  -2  13  475.08   20.29
  -3   2  13  500.80   21.76
  -3  -2  13  514.38   21.55
   3   2 -13  463.29   21.62
   3   2 -13  475.86   19.93
   3  -2 -13  507.04   21.07
   3  -2 -12    0.22    0.94
  -3  -2  12    1.65    1.27
   3   2 -12    0.31    1.19
   3   2 -12    0.30    1.34
   3  -2 -12    2.82    1.44
   3   2 -12   -0.32    1.37
   3   2 -12    1.32    0.55
  -3  -2  12    0.14    0.60
   3  -2 -12    0.67    0.91
   3   2 -11  119.04    6.39
   3  -2 -11  109.04    5.61
   3   2 -11  108.15    6.17
   3   2 -11  124.39    6.25
  -3  -2  11  109.64    5.31
   3  -2 -11  112.18    6.37
   3  -2 -11  105.46    5.68
  -3  -2  11  107.91    5.96
   3   2 -11  103.20    4.77
   3   2 -10    2.72    1.09
   3  -2 -10    3.54    0.94
   3  -2 -10    3.02    1.28
   3   2 -10    7.31    1.35
   3   2 -10    2.61    1.20
   3   2 -10    3.50    0.54
  -3  -2  10    3.96    1.24
   3   2  -9   43.81    3.23
   3  -2  -9   42.08    2.65
   3  -2  -9   38.44    3.12
   3   2  -9   46.11    3.10
   3   2  -9   41.96    2.12
  -3  -2   9   41.43    2.96
  -3  -2   8   -0.40    0.84
   3  -2  -8    0.26    1.00
   3  -2  -8   -0.14    0.61
   3   2  -8    0.42    0.88
   3   2  -8    0.13    0.36
  -3  -2   7   11.65    1.49
   3   2  -7   14.46    1.03
   3   2  -7   16.76    1.67
   3  -2  -7   15.58    1.29
   3  -2  -7   14.98    1.69
   3  -2  -6    6.04    1.22
   3   2  -6    7.17    1.08
  -3  -2   6    5.97    0.68
  -3  -2   5   98.90    5.49
   3  -2  -5  103.69    5.41
   3   2  -5  106.84    5.26
  -3  -2   5  104.61    4.73
   3  -2  -5  101.21    5.40
  -3   2   4   85.28    4.53
   3  -2  -4   83.83    4.60
   3   2  -4   92.77    4.48
   3  -2  -4   92.85    4.65
  -3  -2   4   78.70    4.04
  -3  -2   4   83.81    4.78
   3  -2  -3   59.67    3.46
  -3  -2   3   56.70    3.53
   3  -2  -3   67.03    3.56
  -3  -2   3   62.46    3.11
   3   2  -3   57.55    2.73
  -3   2   3   61.81    3.49
  -3  -2   2  102.75    5.31
   3  -2  -2  102.19    5.16
   3   2  -2  105.29    4.49
   3  -2  -2  103.31    5.18
  -3  -2   2  100.60    4.86
  -3   2   2  107.88    5.24
  -3  -2   1 1256.13   49.31
  -3   2   1 1233.37   49.97
   3   2  -1 1208.64   49.99
   3  -2  -1 1244.93   49.85
   3  -2  -1 1215.86   49.45
   3  -2   0   41.73    2.24
  -3   2   0   33.29    2.50
  -3  -2   0   36.08    2.07
   3  -2   0   38.37    2.44
  -3  -2   0   39.98    1.89
   3   2   0   43.69    2.59
   3  -2   0   40.75    2.63
   3  -2   1  113.61    5.14
   3  -2   1  108.32    5.54
  -3  -2  -1  114.55    5.06
   3   2   1  103.53    5.28
  -3  -2  -1  104.96    4.70
   3   2   1  114.52    4.72
   3  -2   1  107.21    5.34
   3   2   2   25.24    1.41
   3   2   2   29.98    1.97
   3  -2   2   25.46    1.77
  -3  -2  -2   29.38    1.80
   3   2   2   25.75    1.43
  -3  -2  -2   26.86    1.87
  -3   2  -2   24.06    1.79
   3  -2   2   24.94    1.99
  -3   2  -2   25.07    1.78
   3  -2   3  939.79   38.43
   3   2   3  954.84   37.72
  -3  -2  -3  964.80   38.16
  -3   2  -3  955.06   38.10
   3  -2   3  915.99   37.74
   3  -2   3  926.09   38.10
  -3   2  -3  947.63   38.24
   3  -2   3  925.22   38.40
   3   2   3  922.65   38.08
   3   2   4    1.06    0.62
   3   2   4   -0.10    0.48
   3  -2   4   -0.15    0.61
  -3  -2  -4    0.14    0.51
   3  -2   4   -0.18    0.70
   3  -2   4   -0.08    0.37
  -3   2  -4   -0.13    0.43
  -3   2  -4   -0.37    0.64
   3  -2   4   -0.18    0.71
   3  -2   5  480.00   21.04
   3  -2   5  496.85   21.18
   3  -2   5  503.91   20.27
  -3  -2  -5  507.96   20.67
   3  -2   5  490.93   21.00
   3   2   5  494.85   20.77
  -3   2  -5  495.41   20.65
  -3  -2  -5  499.77   20.80
   3   2   5  522.16   20.78
  -3   2  -5  510.64   21.20
   3  -2   6   12.06    1.40
   3  -2   6   12.32    0.86
   3  -2   6   12.92    1.40
   3  -2   6   13.84    1.55
  -3  -2  -6   15.89    1.35
  -3   2  -6   13.43    1.15
  -3   2  -6   10.64    1.40
   3   2   6   15.01    1.38
  -3  -2  -6   13.27    1.33
  -3  -2  -7   61.71    3.43
  -3  -2  -7   69.79    4.04
   3  -2   7   56.78    3.64
   3   2   7   66.53    3.67
  -3  -2  -7   62.99    3.48
  -3   2  -7   61.61    3.16
  -3   2  -7   65.40    3.79
   3   2   8    1.08    0.84
  -3  -2  -8    0.75    0.92
  -3  -2  -8    1.02    0.63
   3  -2   8    0.44    0.94
   3  -2   8    0.43    0.88
   3   2   8    0.59    0.89
  -3   2  -8    2.01    0.94
   3  -2   8    0.74    0.88
  -3  -2  -8    0.68    0.74
  -3   2  -8    1.49    0.46
  -3   2  -8    1.06    0.87
  -3  -2  -9  228.37   10.81
  -3   2  -9  220.57   10.47
  -3  -2  -9  231.23   10.04
   3  -2   9  228.12   10.62
  -3   2  -9  213.19   10.72
   3   2   9  219.57   10.49
  -3  -2  -9  229.88   10.31
   3  -2   9  219.66   10.53
   3   2   9  245.47   10.64
  -3  -2 -10    0.57    0.98
   3   2  10    0.96    1.02
  -3  -2 -10    1.26    0.98
   3  -2  10    1.78    1.20
  -3   2 -10    1.38    1.39
  -3   2 -10    2.02    1.22
   3  -2  10    1.27    1.12
   3   2  10    0.49    1.16
  -3   2 -10    3.01    1.05
  -3  -2 -10    0.31    0.75
   3   2  11  279.57   13.26
   3  -2  11  292.00   13.50
  -3  -2 -11  303.35   13.78
   3  -2  11  274.56   13.36
  -3  -2 -11  288.71   12.72
  -3   2 -11  299.77   13.80
  -3   2 -11  305.91   13.74
  -3  -2 -11  292.48   13.25
   3   2  11  309.79   13.56
  -3   2 -11  294.10   13.28
  -3  -2 -12    1.34    0.89
  -3  -2 -12    0.50    1.23
  -3   2 -12    3.18    1.50
   3   2  12    2.66    1.38
   3  -2  12    0.29    1.29
   3   2  12    2.37    1.42
  -3   2 -12    2.99    1.38
   3  -2  12    2.02    1.28
  -3   2 -12    0.63    1.46
  -3  -2 -12    0.66    1.32
  -3   2 -12    0.76    1.04
   3   2  13  371.02   16.58
  -3  -2 -13  378.70   17.09
  -3   2 -13  367.32   17.19
   3  -2  13  367.39   16.74
   3   2  13  383.25   17.04
   3  -2  13  340.23   16.52
  -3  -2 -13  368.37   15.79
  -3   2 -13  364.06   17.01
  -3   2 -13  378.58   16.96
  -3  -2 -13  362.98   16.49
  -3   2 -13  341.71   16.28
   3   2  13  410.60   17.03
  -3  -2 -14    1.78    1.00
  -3   2 -14    4.06    1.85
   3   2  14    0.60    1.51
   3  -2  14    1.64    1.66
   3   2  14    0.34    1.73
  -3   2 -14   -1.14    1.50
  -3  -2 -14    0.58    1.43
  -3   2 -14   -0.27    1.27
  -3  -2 -14   -0.38    1.59
  -3  -2 -15    6.91    1.39
  -3  -2 -15    5.21    1.88
  -3   2 -15    7.37    2.09
  -3   2 -15    5.24    1.94
  -3   2 -15    3.94    1.56
   3   2  15    5.14    2.12
  -3  -2 -16    3.15    1.24
  -3   2 -16    3.84    1.86
  -3   2 -16    4.05    1.67
  -3   2 -16    1.38    1.89
  -3  -2 -16    5.08    2.13
  -3   2 -17  148.44    8.70
  -3  -2 -17  141.80    6.82
  -3   2 -17  148.62    8.46
  -3   2 -17  118.21    7.24
  -3  -2 -17  150.26    8.49
  -3  -2 -18   16.92    3.13
  -3   2 -18   11.89    3.04
  -3   2 -18   13.67    2.82
  -3  -2 -18   12.75    1.71
  -3   2 -18   13.18    2.19
  -3  -2 -19  129.59    6.46
  -3   2 -19  131.67    8.20
  -3  -2 -19  131.26    8.27
  -3   2 -19  125.36    7.15
  -3   2 -19  138.72    8.61
  -3  -2 -20    5.15    2.53
  -3   2 -20    4.62    2.40
  -3   2 -20    2.12    1.52
  -3   2 -20   -0.57    2.52
  -3   2 -21   29.37    4.00
  -3  -2 -21   37.15    4.52
   3   3 -23    0.40    2.12
   3  -3 -22    9.06    2.65
   3   3 -22    5.73    2.00
   3  -3 -21   -0.82    2.18
   3   3 -21   -3.33    2.59
   3   3 -21   -0.52    2.47
   3  -3 -21   -1.87    2.67
   3   3 -21   -1.09    1.76
   3  -3 -20    7.32    2.35
   3   3 -20   13.12    2.97
   3   3 -20   15.31    3.19
   3  -3 -20   17.23    3.61
   3   3 -20   10.99    2.23
   3  -3 -19    3.99    1.90
   3   3 -19    4.56    2.43
   3  -3 -19    3.95    2.70
   3   3 -19    1.84    2.23
   3   3 -18    1.93    2.16
   3  -3 -18    0.68    1.73
   3  -3 -18   -3.74    2.49
   3   3 -18    3.04    2.32
   3  -3 -17    0.28    1.34
   3   3 -17    0.46    1.70
   3  -3 -17   -0.94    1.59
   3   3 -17    2.03    1.92
   3  -3 -17    1.01    2.13
   3  -3 -16   16.48    2.23
   3   3 -16   15.58    2.77
   3  -3 -16   15.65    2.88
   3  -3 -16   13.53    2.07
   3   3 -16   15.62    2.46
  -3  -3  16   10.49    2.28
   3   3 -16   20.65    2.80
   3  -3 -15   19.79    2.24
   3   3 -15   17.08    2.71
   3  -3 -15   15.54    2.70
   3   3 -15   19.47    2.59
   3   3 -15   15.69    2.35
   3  -3 -15   18.47    2.34
  -3  -3  15   16.59    2.38
   3  -3 -14    0.48    1.17
   3   3 -14   -0.98    1.49
   3  -3 -14    0.41    1.58
   3   3 -14    1.14    1.56
   3  -3 -14    0.53    1.25
  -3  -3  14    0.89    0.67
   3   3 -14    1.41    1.75
  -3  -3  14    0.60    1.43
   3   3 -13    9.24    2.09
   3  -3 -13    9.88    1.50
  -3  -3  13    9.02    1.16
   3   3 -13    9.28    1.97
   3   3 -13    9.32    1.83
   3  -3 -13   13.08    2.26
  -3  -3  13    8.86    1.85
  -3   3  13    6.13    1.80
  -3   3  13    4.70    1.77
   3  -3 -13   12.08    1.76
   3  -3 -12  233.32   10.97
   3   3 -12  248.99   11.61
   3  -3 -12  241.53   12.08
   3   3 -12  246.16   11.95
  -3  -3  12  249.91   11.49
   3   3 -12  233.86   11.87
  -3   3  12  253.13   11.90
  -3   3  12  247.20   12.04
   3  -3 -12  252.03   11.49
   3  -3 -11    4.78    1.04
   3   3 -11   11.00    1.91
   3  -3 -11    5.05    1.55
   3   3 -11    5.92    1.50
  -3   3  11    3.51    1.57
   3  -3 -11    8.82    1.60
  -3   3  11    7.26    1.68
   3   3 -11    9.53    1.80
  -3  -3  11    6.18    1.51
   3  -3 -10  293.56   12.94
   3   3 -10  305.99   13.98
   3  -3 -10  330.23   14.17
   3   3 -10  286.46   13.47
   3   3 -10  285.61   13.87
  -3   3  10  307.78   13.87
  -3  -3  10  299.64   13.45
  -3   3  10  303.98   13.98
   3  -3 -10  301.57   13.56
   3   3  -9   59.00    3.59
   3  -3  -9   53.07    3.03
   3  -3  -9   54.91    3.86
  -3   3   9   61.57    3.90
  -3  -3   9   53.46    3.47
   3  -3  -9   54.59    3.61
   3   3  -9   54.53    3.86
  -3   3   9   54.58    3.86
  -3   3   8   20.70    2.16
   3  -3  -8   14.69    1.29
  -3   3   8   15.56    1.92
   3  -3  -8   18.79    2.01
   3  -3  -8   17.71    1.86
   3   3  -8   17.26    1.71
   3   3  -8   16.50    2.09
   3  -3  -7   11.07    1.54
  -3   3   7    7.61    1.42
   3   3  -7    8.19    1.20
  -3  -3   7    5.51    1.36
   3  -3  -7   10.22    1.51
   3  -3  -7    8.39    0.85
   3  -3  -6 1995.21   82.20
   3  -3  -6 2070.54   83.26
   3   3  -6 2115.20   82.90
  -3  -3   6 2082.83   83.58
  -3  -3   6 2107.99   82.18
  -3  -3   5   57.29    3.67
   3  -3  -5   52.05    3.33
   3   3  -5   54.79    3.15
  -3  -3   5   52.97    2.72
  -3  -3   4   99.49    5.49
  -3  -3   4   98.50    4.65
   3  -3  -4  102.46    5.22
   3   3  -4  101.87    4.99
  -3  -3   3    1.13    0.86
   3  -3  -3    0.87    0.70
   3  -3  -2  255.56   10.71
  -3  -3   2  258.01   11.73
   3  -3  -2  268.14   11.45
   3  -3  -1   81.45    3.67
  -3  -3   1   69.87    4.39
  -3  -3   1   77.59    3.55
   3  -3  -1   85.28    4.44
   3  -3  -1   83.30    4.21
   3   3   0 1744.89   69.95
   3  -3   0 1776.19   69.17
  -3  -3   0 1708.99   69.11
  -3  -3   0 1689.14   69.24
   3  -3   0 1790.79   69.86
   3  -3   0 1717.98   70.06
  -3   3  -1   39.71    2.27
   3  -3   1   37.91    2.72
   3  -3   1   35.64    2.16
   3  -3   1   34.37    2.60
  -3  -3  -1   42.88    2.24
   3   3   1   37.33    2.66
  -3  -3  -1   40.03    2.22
   3  -3   1   40.15    2.59
  -3   3  -2  291.78   11.80
   3  -3   2  271.48   12.18
   3   3   2  266.47   12.07
  -3  -3  -2  268.27   11.59
   3  -3   2  274.95   11.86
  -3  -3  -2  268.01   12.14
   3  -3   2  268.78   12.23
   3  -3   2  271.82   11.62
   3  -3   2  269.91   11.94
  -3   3  -3  176.44    7.53
   3  -3   3  153.13    7.28
   3  -3   3  165.80    7.76
   3  -3   3  159.26    7.33
   3   3   3  167.47    7.69
  -3  -3  -3  165.50    7.75
  -3   3  -3  166.70    7.76
  -3  -3  -3  145.99    7.13
   3  -3   3  168.50    7.52
   3  -3   3  153.92    7.69
   3  -3   4  123.10    5.74
   3  -3   4  117.78    5.82
   3   3   4  126.71    6.15
   3  -3   4  114.81    6.11
  -3   3  -4  125.20    6.02
  -3   3  -4  121.90    6.14
   3  -3   4  118.58    6.13
   3   3   4  128.80    5.78
   3  -3   4  116.80    5.85
   3   3   4  124.59    6.07
  -3  -3  -4  120.52    6.12
  -3   3  -5   41.47    2.82
   3  -3   5   48.93    2.99
   3  -3   5   41.69    2.73
   3   3   5   41.93    2.83
  -3   3  -5   41.43    2.94
   3  -3   5   44.33    2.52
   3  -3   5   41.29    2.86
  -3   3  -5   36.67    2.75
  -3  -3  -5   40.71    2.33
  -3  -3  -5   37.16    2.74
   3   3   5   49.17    2.71
  -3   3  -6   89.23    4.91
   3   3   6   83.99    4.83
  -3   3  -6   83.46    4.91
   3  -3   6   89.80    4.78
   3  -3   6   82.88    4.79
   3  -3   6   87.81    4.30
   3  -3   6   86.95    4.72
  -3  -3  -6   89.26    4.29
   3  -3   6   86.40    5.02
  -3  -3  -6   87.57    4.77
   3   3   6   95.74    4.70
  -3   3  -6   93.03    4.85
  -3  -3  -7   42.27    2.82
   3   3   7   45.10    3.08
   3  -3   7   36.02    2.76
   3  -3   7   42.01    2.36
  -3   3  -7   38.15    2.92
  -3   3  -7   37.63    2.96
   3  -3   7   37.89    3.00
   3  -3   7   46.52    2.99
   3   3   7   41.41    2.79
  -3  -3  -7   38.39    2.47
  -3   3  -7   31.51    2.61
   3  -3   7   43.32    2.78
  -3   3  -8  331.81   14.69
   3  -3   8  317.10   13.55
   3   3   8  329.10   14.56
   3  -3   8  307.62   14.18
  -3   3  -8  310.00   14.54
   3  -3   8  319.36   14.64
  -3  -3  -8  339.20   14.27
  -3  -3  -8  318.74   13.91
   3  -3   8  325.65   14.37
  -3   3  -8  332.49   14.33
   3   3   8  339.26   14.37
   3   3   8  315.54   14.25
  -3  -3  -9    3.38    1.06
   3  -3   9    4.34    1.20
  -3   3  -9    3.74    1.32
   3   3   9    2.52    1.13
   3  -3   9    4.03    1.35
   3   3   9    4.95    1.42
  -3   3  -9    3.35    1.29
  -3   3  -9    2.86    1.00
  -3  -3  -9    3.31    1.09
   3   3   9    5.74    1.36
  -3  -3 -10   73.55    4.79
   3   3  10   75.74    4.53
   3  -3  10   77.54    4.55
   3   3  10   78.39    4.84
  -3  -3 -10   71.41    4.35
   3  -3  10   65.57    4.49
  -3   3 -10   72.52    4.80
   3   3  10   85.69    4.88
  -3   3 -10   82.54    4.54
  -3  -3 -10   81.21    4.35
  -3   3 -10   70.28    4.81
   3   3  11    1.75    1.24
   3  -3  11    1.93    1.34
   3   3  11    0.94    1.35
   3  -3  11    2.08    1.28
  -3  -3 -11    2.17    1.43
  -3  -3 -11    2.18    1.28
  -3   3 -11    2.24    1.47
  -3   3 -11    1.40    1.08
   3   3  11    1.43    1.42
  -3  -3 -11    2.17    1.05
   3   3  12  280.06   13.20
   3  -3  12  286.83   13.39
   3   3  12  276.60   13.62
   3  -3  12  298.32   13.53
  -3  -3 -12  289.57   12.99
  -3   3 -12  282.12   13.74
  -3   3 -12  284.19   13.10
  -3  -3 -12  283.50   13.05
   3   3  12  305.40   13.74
  -3  -3 -12  312.59   13.89
  -3  -3 -13   72.63    4.92
   3   3  13   69.55    4.43
   3   3  13   63.28    4.69
   3  -3  13   64.47    4.45
  -3   3 -13   70.68    4.83
  -3  -3 -13   58.45    3.94
  -3  -3 -13   61.34    4.20
  -3   3 -13   68.83    4.19
  -3  -3 -14    3.36    1.82
   3   3  14    7.63    1.80
  -3   3 -14    6.92    2.14
   3  -3  14    5.04    1.88
  -3  -3 -14    3.07    1.56
  -3   3 -14    5.05    1.39
  -3  -3 -14    5.55    1.47
  -3   3 -15   14.60    2.46
  -3  -3 -15   19.73    2.53
  -3  -3 -15   14.82    1.87
  -3   3 -15   15.69    2.08
  -3  -3 -15   11.87    2.46
  -3  -3 -16   76.94    4.59
  -3  -3 -16   70.63    5.38
  -3   3 -16   80.04    5.67
  -3   3 -16   79.20    4.76
  -3  -3 -17    2.40    1.47
  -3   3 -17    3.38    1.47
  -3   3 -17    3.60    2.23
  -3  -3 -17    1.32    2.03
  -3  -3 -18  126.32    6.44
  -3   3 -18  117.78    7.61
  -3   3 -18  112.58    6.36
  -3  -3 -18  115.64    7.51
  -3   3 -19   16.13    3.22
  -3   3 -19   14.26    2.99
  -3  -3 -19    9.95    1.95
  -3   3 -19    9.13    1.86
  -3  -3 -19   10.67    2.95
  -3  -3 -20   62.28    5.43
  -3   3 -20   52.23    4.98
  -3  -3 -21    5.27    2.98
  -3   3 -21    4.24    2.64
   3   4 -21   53.49    4.25
   3   4 -20    9.19    2.84
   3   4 -20   12.06    3.06
   3  -4 -20    9.03    3.01
   3   4 -20    9.16    2.12
   3   4 -19   56.62    4.20
   3  -4 -19   61.95    4.54
   3   4 -19   54.86    4.81
   3   4 -19   62.91    5.33
   3  -4 -19   49.32    5.30
   3   4 -18    0.81    1.87
   3   4 -18    4.53    2.35
   3  -4 -18    2.18    2.54
   3  -4 -18    1.25    1.62
   3   4 -18    0.28    1.41
   3   4 -17  101.49    6.38
   3  -4 -17  105.29    7.24
   3   4 -17  107.23    7.01
   3  -4 -17  103.44    5.91
   3   4 -17   94.94    5.61
   3  -4 -17   98.72    6.06
  -3  -4  16    0.32    1.70
   3  -4 -16   -0.26    1.31
   3   4 -16   -0.46    1.74
   3   4 -16    1.07    1.72
   3   4 -16    0.24    1.19
   3  -4 -16    0.49    2.02
   3  -4 -16    1.90    1.69
   3  -4 -15  600.40   23.63
   3  -4 -15  592.52   25.16
   3   4 -15  528.84   24.65
   3   4 -15  545.23   24.43
   3   4 -15  556.93   24.12
  -3  -4  15  543.00   22.40
  -3  -4  15  539.11   23.82
   3  -4 -15  581.36   24.12
   3   4 -15  508.27   23.23
   3   4 -14    1.12    1.57
   3  -4 -14   -0.88    1.19
   3   4 -14    1.84    1.41
  -3  -4  14    0.52    0.84
   3  -4 -14   -0.43    1.91
   3   4 -14    1.55    1.04
  -3  -4  14   -0.84    1.43
   3   4 -14    0.30    1.42
   3  -4 -14   -0.31    1.43
  -3  -4  13    7.56    1.62
   3   4 -13    8.33    2.13
   3  -4 -13    9.98    1.51
   3   4 -13    6.18    1.65
   3  -4 -13    9.10    2.28
   3   4 -13   12.42    1.95
   3   4 -13    9.22    1.39
  -3   4  13    9.93    2.10
   3  -4 -13    6.41    1.65
   3  -4 -12   20.16    1.83
   3   4 -12   22.16    2.77
   3   4 -12   19.68    2.14
   3  -4 -12   28.67    3.02
  -3  -4  12   18.24    2.12
   3   4 -12   19.33    1.69
  -3   4  12   20.38    2.60
   3  -4 -12   21.99    2.50
  -3   4  12   27.94    2.84
   3   4 -11  396.23   16.81
   3  -4 -11  398.79   17.00
   3   4 -11  378.33   17.51
   3  -4 -11  424.13   18.45
   3  -4 -11  429.15   18.07
   3   4 -11  395.10   18.25
  -3   4  11  426.83   18.49
  -3   4  11  421.72   18.22
  -3  -4  11  390.15   17.49
   3  -4 -10    1.27    0.70
   3   4 -10    2.97    1.60
   3   4 -10    1.07    1.06
   3  -4 -10   -0.32    1.38
   3   4 -10    1.37    0.58
   3  -4 -10    2.30    1.36
  -3   4  10   -0.33    1.53
  -3   4  10    2.09    1.43
  -3  -4   9  819.15   33.69
   3   4  -9  758.46   32.51
   3   4  -9  764.39   31.66
   3   4  -9  821.61   33.50
  -3   4   9  783.75   33.41
  -3   4   9  839.20   33.31
   3  -4  -9  866.83   33.46
   3  -4  -9  786.74   31.92
   3  -4  -9  842.45   33.29
   3  -4  -9  707.21   33.54
   3  -4  -8   30.47    1.73
  -3   4   8   30.22    2.80
   3  -4  -8   31.50    2.72
   3   4  -8   30.12    2.24
   3   4  -8   29.23    1.43
   3   4  -8   34.95    2.99
  -3  -4   8   24.95    2.73
  -3   4   8   25.72    2.58
   3  -4  -8   31.28    2.68
   3  -4  -8   27.03    2.85
  -3   4   7   14.25    1.86
   3  -4  -7   16.01    2.15
   3  -4  -7   19.48    1.15
   3   4  -7   20.20    1.70
  -3  -4   7   17.85    2.27
   3  -4  -7   15.69    1.93
  -3  -4   7   18.94    1.05
  -3   4   7   14.46    1.90
   3  -4  -6   11.45    1.75
  -3  -4   6   12.09    1.87
   3  -4  -6   11.86    0.72
   3  -4  -6   11.18    1.59
   3   4  -6   10.51    1.23
  -3  -4   6   10.35    0.92
  -3   4   6    8.42    1.57
  -3  -4   5  997.04   42.54
   3  -4  -5 1035.18   42.04
   3  -4  -5  991.31   42.58
   3   4  -5 1037.37   41.50
   3  -4  -5 1085.19   42.44
   3   4  -5 1032.60   41.33
  -3  -4   5 1002.91   41.22
  -3  -4   4    4.44    1.32
   3   4  -4    6.79    0.93
   3   4  -4    5.90    0.73
   3  -4  -4    5.86    1.09
   3  -4  -3   17.89    1.70
  -3  -4   3   17.15    2.06
   3   4  -3   23.35    1.30
   3  -4  -2   12.02    0.74
   3  -4  -2   14.41    1.63
   3  -4  -2   15.95    1.42
  -3  -4   2   13.65    1.85
   3  -4  -1   65.44    3.83
   3  -4  -1   56.61    2.76
  -3  -4   1   58.50    3.92
  -3  -4   1   61.49    2.80
   3  -4  -1   63.72    3.43
   3  -4  -1   64.21    3.90
   3  -4   0   37.83    2.86
   3  -4   0   41.43    2.12
   3  -4   0   36.71    2.43
  -3  -4   0   39.12    2.51
   3  -4   0   43.07    2.89
   3  -4   0   44.68    3.05
  -3   4  -1 1328.06   51.52
  -3  -4  -1 1265.84   51.83
   3   4   1 1263.45   52.36
   3  -4   1 1191.93   52.26
   3  -4   1 1255.48   51.37
   3  -4   1 1368.90   52.31
   3  -4   1 1314.30   52.22
   3  -4   1 1270.66   52.40
   3  -4   2  160.19    7.26
  -3   4  -2  164.80    7.42
   3  -4   2  166.90    7.81
   3  -4   2  165.96    7.99
   3   4   2  160.46    8.01
   3  -4   2  167.99    7.84
   3  -4   2  168.86    8.10
  -3  -4  -2  152.95    7.55
  -3  -4  -3 2081.81   80.49
  -3   4  -3 2065.05   79.76
   3  -4   3 1978.34   79.56
   3  -4   3 2049.35   80.04
   3   4   3 1952.12   80.21
   3  -4   3 2043.35   80.21
   3  -4   3 1975.06   79.95
  -3  -4  -3 1832.07   79.76
   3  -4   3 1954.37   80.22
  -3   4  -4    0.36    0.77
   3  -4   4    0.77    0.75
  -3  -4  -4   -0.25    0.94
   3  -4   4   -0.19    0.82
   3  -4   4   -0.89    0.84
   3  -4   4    0.91    0.89
  -3  -4  -4    0.73    0.74
   3  -4   4   -0.25    0.92
   3   4   4    0.24    0.92
   3  -4   4   -0.18    0.81
   3   4   5  510.89   21.24
  -3   4  -5  525.09   21.46
   3  -4   5  496.12   21.19
   3  -4   5  486.77   21.22
   3  -4   5  499.44   21.17
   3  -4   5  493.92   21.50
  -3  -4  -5  523.72   20.54
   3  -4   5  470.18   21.67
  -3  -4  -5  516.89   21.81
   3  -4   5  496.05   21.49
  -3   4  -6    4.30    1.15
  -3  -4  -6    2.05    1.17
   3   4   6    0.44    0.98
   3  -4   6    2.09    0.99
   3  -4   6    0.89    0.81
   3  -4   6    2.72    1.07
  -3  -4  -6    3.14    0.67
   3  -4   6    2.93    1.06
   3   4   6    3.10    1.07
   3  -4   6    2.35    1.00
   3  -4   6    1.20    0.86
  -3   4  -7  156.70    7.74
   3  -4   7  147.74    7.23
   3   4   7  151.95    7.64
   3  -4   7  153.63    7.62
   3   4   7  161.03    7.52
   3  -4   7  145.33    7.19
  -3   4  -7  154.11    7.85
   3  -4   7  149.95    7.86
  -3  -4  -7  149.97    6.90
   3  -4   7  154.95    7.50
   3  -4   7  156.22    7.45
   3   4   7  162.81    7.62
  -3  -4  -7  149.25    7.76
  -3   4  -7  146.92    7.47
   3   4   8    4.12    1.19
   3  -4   8    4.03    1.13
   3   4   8    1.83    1.22
  -3   4  -8    4.35    1.38
  -3  -4  -8    1.80    1.16
   3  -4   8    1.76    1.10
  -3   4  -8    2.25    1.31
   3  -4   8    1.16    0.85
  -3  -4  -8    1.44    0.78
   3  -4   8    4.70    1.18
  -3   4  -8    0.85    1.03
   3   4   8    3.26    1.21
   3  -4   8    2.04    1.17
  -3   4  -9 1258.97   52.51
  -3   4  -9 1362.14   53.22
   3  -4   9 1245.46   52.44
   3  -4   9 1300.72   52.18
   3   4   9 1229.53   52.90
  -3   4  -9 1314.30   53.17
   3  -4   9 1305.12   52.78
  -3  -4  -9 1308.48   52.17
   3   4   9 1238.40   52.54
   3   4   9 1327.33   52.86
  -3  -4  -9 1316.75   52.89
   3   4  10    4.13    1.49
  -3   4 -10    4.77    1.24
  -3   4 -10    5.14    1.65
   3  -4  10    3.12    1.06
   3   4  10    1.66    1.17
   3  -4  10    5.01    1.50
   3  -4  10    2.26    1.14
   3   4  10    3.58    1.42
  -3  -4 -10    3.14    1.21
  -3   4 -10    2.82    1.33
  -3  -4 -10    4.81    1.39
  -3   4 -11  353.30   16.02
   3   4  11  367.55   15.80
   3   4  11  339.39   15.24
  -3   4 -11  331.69   15.03
  -3  -4 -11  331.14   15.37
   3  -4  11  341.20   15.27
   3   4  11  343.25   15.73
   3  -4  11  344.01   15.53
  -3   4 -11  335.41   15.80
  -3  -4 -11  342.63   15.01
   3   4  12    3.22    1.75
   3   4  12    0.77    1.30
  -3   4 -12    1.55    1.09
   3  -4  12    0.30    1.41
   3  -4  12    3.62    1.41
   3   4  12    1.35    1.70
  -3   4 -12    2.77    1.51
  -3  -4 -12    2.03    1.23
  -3   4 -12   -0.37    1.65
  -3  -4 -12    0.56    1.32
  -3  -4 -13    4.92    1.45
   3   4  13    5.14    1.57
   3  -4  13    3.34    1.53
  -3   4 -13    4.01    1.76
  -3  -4 -13    8.22    1.77
  -3   4 -13    4.66    1.32
   3   4  13    6.55    2.04
  -3   4 -13    4.79    1.85
   3   4  14    5.51    2.10
  -3   4 -14    3.42    1.84
   3   4  14    3.42    1.60
   3  -4  14    1.49    1.53
  -3   4 -14    5.53    1.41
  -3   4 -14    7.70    2.02
  -3  -4 -14    6.02    1.80
  -3  -4 -14    5.05    1.73
  -3   4 -15   78.79    5.70
   3  -4  15   77.59    5.08
  -3   4 -15   82.29    5.53
  -3  -4 -15   70.86    4.74
  -3  -4 -15   72.64    4.84
  -3   4 -15   74.69    4.41
  -3   4 -16   -1.45    2.26
  -3   4 -16   -0.43    1.74
  -3   4 -16    0.21    1.16
  -3  -4 -16   -0.29    1.51
  -3  -4 -17  115.50    6.37
  -3   4 -17  115.00    7.19
  -3   4 -17  100.04    5.63
  -3   4 -17  109.85    7.43
  -3   4 -18    0.39    1.17
  -3   4 -18    0.54    2.42
  -3   4 -18    3.26    2.17
  -3  -4 -18    2.93    1.95
  -3   4 -19    7.38    3.03
  -3   4 -19    2.42    2.40
  -3  -4 -19    1.44    1.66
  -3   4 -20   -2.00    2.48
  -3   4 -21    6.70    2.63
   3  -5 -19    4.05    2.80
   3   5 -19    1.56    1.45
   3   5 -18   27.40    3.38
   3   5 -18   22.64    2.45
   3  -5 -18   18.73    3.44
   3  -5 -17    4.69    2.61
   3   5 -17    3.33    1.45
   3   5 -17    1.40    1.78
   3  -5 -16   12.60    1.90
   3   5 -16    7.79    2.00
   3   5 -16   12.27    1.69
   3  -5 -16   10.83    2.84
  -3  -5  15   16.33    2.31
   3   5 -15   12.66    2.15
   3  -5 -15   17.62    2.93
   3   5 -15   17.36    1.81
   3  -5 -15   18.33    2.12
   3  -5 -14    4.04    1.24
   3   5 -14    4.44    1.61
   3   5 -14    3.40    1.86
   3  -5 -14    1.74    1.98
   3   5 -14    3.26    1.04
   3   5 -13    5.20    1.90
   3   5 -13    4.83    1.56
   3  -5 -13    6.09    2.13
   3   5 -13    4.45    1.65
   3   5 -13    3.10    0.90
   3   5 -13    4.29    1.85
   3  -5 -13    4.38    1.14
   3  -5 -12  190.52    8.54
   3   5 -12  180.98    9.04
   3  -5 -12  196.33   10.12
   3   5 -12  209.24   10.18
   3   5 -12  184.69    8.23
   3   5 -12  178.62    9.91
  -3   5  12  208.62   10.03
   3   5 -12  182.23    9.33
   3  -5 -12  205.62    9.95
   3   5 -11   -0.21    1.01
   3   5 -11    0.36    1.46
   3  -5 -11    0.12    0.68
   3  -5 -11    0.35    1.52
   3   5 -11    0.43    0.54
   3   5 -11   -0.37    1.54
   3  -5 -11    1.01    1.43
  -3   5  11   -1.00    1.73
   3   5 -11    0.25    1.27
   3   5 -10   54.86    3.41
   3  -5 -10   51.72    4.09
   3   5 -10   56.87    4.18
  -3  -5  10   52.04    4.31
   3  -5 -10   57.41    2.85
   3   5 -10   43.58    3.92
   3   5 -10   55.64    3.65
  -3   5  10   63.18    4.21
  -3   5  10   54.49    4.24
   3  -5 -10   56.88    4.62
   3  -5 -10   66.81    4.36
   3  -5  -9   73.42    3.32
   3  -5  -9   72.56    4.80
   3   5  -9   71.61    4.00
   3   5  -9   75.46    4.91
  -3   5   9   76.14    5.05
   3   5  -9   73.54    4.27
   3   5  -9   74.35    5.08
   3  -5  -9   75.48    4.89
   3  -5  -9   62.78    5.05
  -3  -5   9   81.42    5.34
  -3   5   9   81.47    4.85
  -3   5   8   97.99    6.18
   3   5  -8  120.18    6.51
  -3  -5   8  105.80    6.51
   3   5  -8  104.87    5.21
   3  -5  -8  103.07    5.95
   3  -5  -8   88.76    6.28
   3   5  -8  108.89    5.47
  -3   5   8  112.97    6.02
   3  -5  -8  113.07    6.27
   3  -5  -7   -0.25    1.07
   3  -5  -7    0.76    1.24
  -3  -5   7    0.72    1.42
   3   5  -7    1.96    1.47
  -3   5   7    0.99    1.11
   3   5  -7    0.33    0.82
   3   5  -7    1.45    0.84
  -3  -5   7    0.95    0.49
  -3  -5   6 1340.99   53.41
   3   5  -6 1252.45   51.60
   3   5  -6 1332.49   51.82
  -3   5   6 1285.22   52.47
   3  -5  -6 1288.58   52.46
  -3  -5   6 1279.00   51.49
   3  -5  -6 1224.24   53.27
   3  -5  -5   36.19    2.94
   3  -5  -5   29.99    2.91
  -3  -5   5   27.23    2.90
   3   5  -5   33.54    2.01
   3  -5  -5   27.25    2.37
   3   5  -5   32.34    2.03
  -3  -5   4   39.17    3.34
   3   5  -4   39.89    2.22
   3  -5  -4   35.95    2.60
   3  -5  -4   35.96    3.12
   3  -5  -4   35.65    3.02
   3   5  -4   35.77    3.07
   3   5  -3    0.46    0.60
   3   5  -3    0.58    1.13
   3  -5  -3    1.26    1.02
  -3  -5   3   -0.33    1.30
   3  -5  -3    0.34    0.90
   3  -5  -3    1.90    1.04
   3  -5  -3    0.64    0.99
   3  -5  -2   50.68    3.72
   3   5  -2   46.20    3.52
  -3  -5   2   40.37    3.56
   3  -5  -2   46.49    2.90
   3  -5  -2   55.60    3.84
   3  -5  -2   59.87    3.67
   3   5  -1  150.41    7.56
  -3  -5   1  135.93    7.62
   3  -5  -1  149.92    6.65
   3  -5  -1  136.88    7.29
   3  -5  -1  141.59    7.30
   3  -5  -1  137.08    7.44
   3  -5  -1  132.57    7.40
   3   5   0  755.60   32.03
   3  -5   0  775.76   30.99
   3  -5   0  718.87   31.81
   3  -5   0  754.62   31.99
   3  -5   0  775.67   31.83
   3  -5   1    3.49    0.81
  -3   5  -1    2.83    0.67
   3  -5   1    2.36    1.13
   3  -5   1    2.63    0.61
   3   5   1    4.99    1.43
   3  -5   1    2.12    1.22
   3  -5   1    2.05    1.07
   3  -5   1    1.67    0.93
   3   5   2   36.14    2.32
   3  -5   2   32.55    2.06
  -3   5  -2   32.59    2.18
   3  -5   2   29.76    2.70
   3  -5   2   32.97    2.68
   3  -5   2   37.43    2.85
   3   5   2   29.45    2.74
   3  -5   2   32.96    2.61
  -3   5  -3    0.49    0.71
   3   5   3   -0.17    0.77
   3  -5   3    1.91    0.81
   3   5   3    0.57    1.08
   3  -5   3    1.46    1.12
   3  -5   3    0.50    1.03
  -3  -5  -3    0.31    1.21
   3  -5   3    0.78    1.02
   3  -5   3   -0.22    0.97
  -3   5  -4    0.94    0.80
   3  -5   4    1.71    1.08
   3  -5   4    0.16    0.69
   3  -5   4    0.22    0.86
   3  -5   4   -0.55    1.05
  -3  -5  -4    0.94    1.26
   3  -5   4    1.69    1.15
   3   5   4   -0.57    1.16
   3  -5   4    2.80    1.11
  -3   5  -5   18.50    1.89
   3   5   5   24.32    2.14
   3  -5   5   18.86    1.80
   3  -5   5   22.84    2.21
   3  -5   5   21.00    2.26
  -3  -5  -5   20.50    1.27
   3  -5   5   21.50    1.99
   3  -5   5   26.02    2.29
   3  -5   5   24.89    2.24
  -3  -5  -5   25.11    2.53
  -3  -5  -6   22.35    1.49
   3  -5   6   21.67    1.79
   3  -5   6   24.88    2.11
  -3   5  -6   24.10    2.23
   3   5   6   20.11    2.13
   3  -5   6   26.32    2.37
  -3  -5  -6   24.86    2.39
   3  -5   6   23.17    2.28
   3  -5   6   24.04    2.44
   3  -5   6   24.76    2.16
  -3  -5  -6   27.67    2.75
   3  -5   6   26.01    2.30
   3   5   7   -0.70    1.23
   3   5   7   -0.42    1.06
  -3   5  -7    0.26    1.05
  -3  -5  -7    0.32    1.32
   3  -5   7    0.23    1.09
   3  -5   7   -0.47    0.84
   3  -5   7   -0.65    0.98
   3   5   7    0.24    1.16
   3  -5   7    0.24    1.14
  -3  -5  -7   -0.32    0.67
   3  -5   7    0.30    1.12
   3  -5   7   -0.19    0.88
   3  -5   7   -0.68    1.21
   3  -5   8  135.49    7.85
   3  -5   8  151.59    7.17
   3   5   8  146.67    7.67
   3  -5   8  147.17    7.55
   3  -5   8  147.98    7.46
   3  -5   8  146.15    7.55
   3   5   8  162.11    7.77
  -3  -5  -8  143.57    6.83
   3  -5   8  154.05    7.43
  -3   5  -8  165.74    7.99
  -3  -5  -8  148.17    8.00
   3  -5   8  163.33    7.32
   3   5   8  147.14    7.40
   3   5   9   23.25    2.29
   3  -5   9   26.28    2.22
  -3   5  -9   30.59    2.82
   3  -5   9   27.18    2.21
   3   5   9   28.79    2.75
   3  -5   9   25.54    2.28
   3  -5   9   23.38    2.53
  -3  -5  -9   29.15    2.08
  -3  -5  -9   22.72    2.69
   3   5   9   26.01    2.63
  -3  -5 -10   29.02    2.86
  -3   5 -10   30.16    2.98
   3   5  10   29.70    2.48
   3  -5  10   23.93    2.30
   3  -5  10   30.03    2.44
   3  -5  10   29.51    2.79
   3   5  10   26.91    2.73
  -3   5 -10   20.79    2.58
  -3  -5 -10   27.21    2.16
   3   5  10   25.94    2.77
  -3   5 -11   62.12    4.58
   3  -5  11   64.73    3.91
   3   5  11   51.38    3.83
  -3  -5 -11   63.61    4.51
   3  -5  11   64.12    3.91
   3   5  11   65.83    4.52
   3  -5  11   62.63    4.35
  -3   5 -11   60.17    4.40
  -3  -5 -11   65.17    3.75
   3   5  11   68.18    4.57
  -3   5 -12   15.35    2.44
   3   5  12   15.38    1.99
  -3  -5 -12   14.53    2.26
  -3   5 -12   13.92    2.31
   3  -5  12   13.46    1.90
  -3  -5 -12   16.94    1.94
   3   5  12   13.25    2.47
  -3   5 -13   42.35    3.89
  -3   5 -13   41.45    3.76
  -3  -5 -13   38.87    3.55
   3   5  13   39.91    3.22
   3  -5  13   44.16    3.33
  -3  -5 -13   38.76    3.10
   3   5  13   45.27    3.88
  -3  -5 -14    0.50    1.51
  -3   5 -14    0.44    1.83
   3   5  14   -1.09    1.66
  -3   5 -14    0.39    1.75
  -3  -5 -14   -0.34    1.64
   3  -5  14    0.55    1.51
  -3   5 -15   19.14    3.08
  -3   5 -15   20.53    3.00
  -3  -5 -15   18.80    2.64
  -3   5 -16   42.54    4.27
  -3  -5 -16   30.59    3.31
  -3   5 -16   37.01    3.83
  -3   5 -17   12.52    3.06
  -3  -5 -17   11.69    2.38
  -3   5 -17   13.46    2.77
  -3  -5 -18   52.53    4.35
  -3   5 -18   58.69    5.11
  -3   5 -18   61.55    5.52
  -3   5 -19    1.44    2.39
  -3  -5 -19    2.05    2.09
  -3   5 -20   16.86    3.60
   3  -6 -18   -0.55    2.54
   3   6 -18    5.41    2.62
   3  -6 -17   84.45    6.51
   3   6 -17   85.87    6.44
   3   6 -16    2.47    2.18
   3  -6 -16    0.50    2.37
   3   6 -15   -2.35    2.33
   3  -6 -15    3.74    2.37
   3   6 -14    0.73    1.37
   3   6 -14    1.34    1.94
   3  -6 -14    0.44    2.20
   3   6 -13  321.88   15.30
   3   6 -13  313.02   13.90
   3  -6 -13  308.30   15.09
   3   6 -13  307.41   14.46
   3  -6 -12    3.84    1.95
   3   6 -12    1.75    1.02
   3   6 -12    3.41    1.45
   3   6 -12    1.98    1.65
   3   6 -11   -0.53    1.39
   3   6 -11    1.38    0.98
  -3  -6  11   -0.45    1.94
   3  -6 -11   -0.71    1.62
  -3   6  11    1.33    1.76
   3   6 -11   -0.37    1.48
   3   6 -10    6.03    1.84
   3  -6 -10    5.22    2.06
  -3  -6  10    9.14    2.43
   3  -6 -10    8.20    1.98
  -3   6  10    5.62    1.71
   3   6 -10    7.71    1.53
   3   6 -10    8.14    1.22
   3   6  -9    1.94    0.81
  -3   6   9    1.17    1.37
   3   6  -9    1.90    1.56
   3   6  -9    3.50    1.32
   3   6  -9    2.01    1.58
   3  -6  -9    3.61    1.58
  -3  -6   9    1.71    1.70
   3  -6  -9   -0.45    1.59
   3  -6  -8   31.26    3.50
  -3  -6   8   36.07    3.73
   3   6  -8   37.69    2.23
   3   6  -8   38.81    3.32
   3  -6  -8   33.87    3.04
   3   6  -8   42.75    3.72
   3   6  -8   44.05    2.88
  -3   6   8   35.94    3.14
   3  -6  -7    6.82    1.58
   3   6  -7   12.27    2.06
   3   6  -7    8.18    0.94
   3  -6  -7   12.47    2.33
  -3  -6   7    8.24    2.01
   3  -6  -7    8.92    2.19
  -3  -6   7   13.75    1.08
   3   6  -6   -1.05    1.55
   3   6  -6    0.30    0.55
   3  -6  -6    0.46    1.09
  -3  -6   6   -0.40    1.47
   3  -6  -6    0.41    1.50
   3  -6  -6    1.22    1.56
   3  -6  -6    2.37    1.46
   3  -6  -5   47.88    3.98
  -3  -6   5   43.29    3.81
   3  -6  -5   41.54    2.97
   3   6  -5   38.06    2.07
   3  -6  -5   49.38    3.91
   3  -6  -5   47.53    3.62
   3  -6  -4   19.22    1.88
   3   6  -4   17.18    1.13
  -3  -6   4   17.64    2.55
   3  -6  -4   12.03    2.20
   3  -6  -4   18.25    2.30
   3  -6  -4   21.76    2.64
   3   6  -3   82.85    5.14
   3  -6  -3   75.91    4.11
  -3  -6   3   85.90    5.50
   3  -6  -3   85.79    5.07
   3   6  -3   73.12    3.48
   3  -6  -3   74.44    5.19
   3   6  -2   25.84    2.69
   3  -6  -2   22.67    1.86
   3  -6  -2   30.19    2.78
  -3  -6   2   21.79    2.80
   3   6  -2   22.82    1.59
   3  -6  -2   25.13    2.76
   3  -6  -2   29.55    2.97
   3  -6  -1  382.11   16.33
  -3  -6   1  400.80   18.11
   3   6  -1  409.38   17.76
   3  -6  -1  386.19   17.44
   3  -6  -1  395.88   17.82
   3  -6  -1  374.00   17.76
   3  -6  -1  416.59   17.60
   3   6  -1  382.87   16.06
   3  -6   0    1.99    1.21
   3   6   0    2.53    0.74
  -3  -6   0    5.67    1.84
   3   6   0    3.24    1.48
   3  -6   0    3.78    1.40
   3  -6   0    2.67    1.46
   3  -6   0    3.68    0.79
  -3  -6   0    2.53    1.22
   3  -6   1   38.31    3.17
  -3   6  -1   44.35    2.36
   3   6   1   37.85    2.40
   3  -6   1   42.34    3.45
   3  -6   1   38.02    3.13
   3  -6   1   39.01    2.28
   3   6   1   42.17    3.41
   3  -6   1   46.02    3.32
  -3  -6  -1   32.18    2.96
   3  -6   2    7.74    1.47
   3  -6   2    4.94    1.47
   3   6   2    6.08    1.12
   3   6   2    7.93    1.78
   3  -6   2    4.92    1.46
  -3   6  -2    6.51    1.02
   3  -6   2    5.41    1.58
   3  -6   2    5.11    0.83
  -3  -6  -2    5.14    1.36
   3  -6   3  358.56   15.46
  -3   6  -3  335.42   14.32
   3   6   3  332.62   15.47
   3  -6   3  329.89   14.96
   3  -6   3  326.65   15.15
  -3  -6  -3  326.86   15.72
   3  -6   3  336.77   15.14
   3  -6   3  331.51   13.86
  -3  -6  -3  313.70   14.97
   3  -6   3  333.45   14.93
  -3  -6  -4    0.87    1.15
   3  -6   4    1.52    1.33
  -3   6  -4    2.87    1.07
   3  -6   4    1.69    1.19
   3  -6   4    0.78    1.12
   3  -6   4    3.49    1.28
  -3  -6  -4    0.37    1.50
   3  -6   4    3.85    1.45
  -3   6  -5   80.36    4.44
   3  -6   5   70.31    4.56
   3  -6   5   74.42    4.89
   3  -6   5   77.81    3.71
   3   6   5   74.15    4.30
   3  -6   5   78.07    4.60
   3  -6   5   73.89    4.78
  -3  -6  -5   73.48    5.19
  -3  -6  -5   62.23    4.55
   3  -6   5   76.81    4.55
  -3  -6  -6    1.22    1.25
   3   6   6    0.20    0.96
  -3   6  -6   -2.42    1.17
   3  -6   6   -0.45    0.68
   3   6   6   -0.23    1.16
   3  -6   6   -0.30    1.43
   3  -6   6   -0.26    1.04
   3  -6   6    0.76    1.12
   3  -6   6    1.25    1.36
  -3  -6  -6    0.11    0.47
   3  -6   6    0.70    1.02
  -3  -6  -6    1.12    1.66
  -3  -6  -7    2.63    1.69
   3   6   7    0.62    1.00
  -3   6  -7    1.87    1.41
   3  -6   7    2.31    1.31
   3   6   7    0.99    1.18
   3  -6   7    1.79    1.24
   3  -6   7    2.16    0.85
   3  -6   7    2.00    1.27
   3  -6   7    1.30    1.37
  -3  -6  -7    1.10    0.65
   3  -6   7    3.83    1.27
   3  -6   8   -0.43    1.10
   3  -6   8   -0.70    1.15
  -3  -6  -8    0.66    0.77
  -3  -6  -8    2.65    1.79
  -3   6  -8    0.58    1.27
   3   6   8   -0.21    1.15
   3  -6   8    1.41    1.28
   3  -6   8    0.56    0.86
   3   6   8    0.27    1.27
   3  -6   8    1.54    1.38
   3  -6   8    0.34    1.33
   3   6   9  225.80   10.40
   3  -6   9  217.66    9.96
   3   6   9  222.22   10.83
   3  -6   9  224.07   10.77
  -3  -6  -9  212.25   11.32
  -3   6  -9  222.01   10.96
  -3  -6  -9  225.65    9.81
   3  -6   9  235.83   10.37
   3  -6   9  227.81   10.37
  -3   6 -10   20.14    2.61
   3   6  10   18.24    2.00
  -3  -6 -10   17.65    2.83
   3  -6  10   15.54    1.77
   3   6  10   16.21    2.41
   3   6  10   15.40    2.27
   3  -6  10   11.63    1.96
  -3  -6 -10   14.65    1.64
  -3   6 -11   17.27    2.55
   3   6  11   12.50    1.77
  -3  -6 -11   19.67    2.73
   3  -6  11   12.05    1.96
   3  -6  11   14.33    1.82
  -3  -6 -11   14.71    1.73
   3   6  11   16.63    2.48
  -3   6 -12    1.97    1.96
   3   6  12    3.29    1.52
  -3  -6 -12   -1.55    1.79
   3  -6  12   -0.54    1.30
  -3   6 -13   77.75    5.60
   3   6  13   76.11    4.71
  -3  -6 -13   80.70    5.48
   3   6  14   15.21    2.26
  -3  -6 -14   19.26    2.98
  -3   6 -15    4.30    2.53
  -3  -6 -15    4.74    2.13
  -3   6 -15    0.82    1.87
  -3   6 -16   -2.02    2.35
  -3  -6 -16    1.19    1.88
  -3   6 -16    0.43    1.96
  -3   6 -17   78.75    6.06
  -3  -6 -17   81.86    5.91
  -3  -6 -18   12.74    2.88
  -3   6 -18    7.27    2.59
  -3   6 -19   52.74    4.95
  -3   6 -20   -0.96    2.34
   3  -7 -18    4.42    2.78
   3  -7 -17    1.05    2.44
   3   7 -17   -0.53    2.66
   3  -7 -17    7.92    3.22
   3  -7 -16    7.90    2.69
   3   7 -16   10.15    2.91
   3  -7 -16   10.79    3.37
   3  -7 -15   14.12    3.23
   3  -7 -15    9.80    2.69
   3   7 -15    9.70    2.84
   3  -7 -14   43.27    4.72
   3   7 -14   35.56    4.06
   3  -7 -14   40.46    4.23
   3  -7 -13    6.79    2.96
   3  -7 -13    4.93    2.50
   3   7 -13    3.06    2.10
  -3  -7  12  101.76    6.77
   3  -7 -12   88.64    5.93
   3  -7 -12   86.76    6.65
   3   7 -12   80.50    5.88
  -3   7  11   13.19    2.46
   3   7 -11   21.06    2.88
   3  -7 -11   13.55    2.43
  -3  -7  11   21.13    3.31
   3   7 -10   37.18    3.45
  -3   7  10   30.56    3.14
   3  -7 -10   30.71    3.12
  -3  -7  10   33.55    3.84
   3   7  -9    1.74    1.59
   3  -7  -9    2.58    1.97
   3  -7  -9    0.61    1.45
  -3  -7   9    1.44    1.97
  -3   7   9   -0.90    1.49
  -3  -7   8    4.21    0.72
   3   7  -8    3.63    1.57
   3  -7  -8    3.88    1.56
  -3  -7   8    4.26    2.13
   3  -7  -8    5.52    2.19
  -3  -7   8    3.80    0.71
   3   7  -7    2.50    1.55
   3  -7  -7    2.92    2.06
  -3  -7   7    0.93    1.94
   3  -7  -7    1.51    1.20
   3  -7  -6  531.23   22.47
  -3  -7   6  534.17   24.01
   3  -7  -6  484.47   23.78
   3  -7  -6  563.32   24.32
   3  -7  -5    0.89    1.80
   3  -7  -5    1.60    1.05
  -3  -7   5   -1.35    1.62
   3  -7  -5    1.35    1.75
   3  -7  -4   13.74    1.58
   3  -7  -4   11.32    2.41
  -3  -7   4   17.17    2.67
   3  -7  -4   12.64    2.32
  -3  -7   3    0.44    1.70
   3  -7  -3    0.46    0.84
   3  -7  -3   -1.05    1.50
   3  -7  -3    2.96    1.87
   3  -7  -3    1.73    1.55
   3  -7  -2   44.95    2.66
  -3  -7   2   45.17    4.29
   3  -7  -2   43.93    4.00
   3  -7  -2   42.62    3.95
   3  -7  -2   47.94    3.81
   3  -7  -1   -1.62    1.71
   3   7  -1    0.14    0.54
  -3  -7   1   -1.32    1.89
   3  -7  -1    0.44    0.68
   3   7  -1   -1.06    0.52
   3   7  -1    0.74    1.68
   3  -7  -1   -1.31    1.48
   3  -7  -1    0.41    1.44
  -3  -7   1    1.51    1.28
   3  -7  -1    0.66    1.50
   3  -7   0  651.86   27.66
   3   7   0  641.44   25.96
   3  -7   0  626.66   25.94
   3  -7   0  706.11   28.40
  -3  -7   0  663.34   28.55
  -3  -7   0  640.93   27.54
   3  -7   0  632.40   28.14
   3  -7   0  604.43   27.49
   3   7   0  668.04   28.05
   3  -7   1    0.61    1.35
   3   7   1    0.91    0.70
   3   7   1    0.38    1.55
   3  -7   1    0.86    0.56
   3  -7   1   -0.39    1.68
  -3   7  -1    0.29    0.66
   3  -7   1    1.91    1.39
   3  -7   1   -0.62    1.47
  -3  -7  -1    0.32    1.21
   3  -7   2  154.05    7.79
   3   7   2  127.63    7.35
   3   7   2  135.47    5.97
   3  -7   2  117.90    5.24
   3  -7   2  129.73    6.90
  -3   7  -2  125.84    5.86
  -3  -7  -2  119.97    6.91
   3  -7   2  136.86    7.10
   3  -7   2  109.64    6.83
  -3  -7  -3    2.63    1.43
   3  -7   3    1.86    1.72
   3  -7   3    0.97    0.34
  -3   7  -3   -0.33    0.87
   3  -7   3    0.57    1.24
   3  -7   3    1.01    0.33
   3  -7   3    0.62    1.40
   3  -7   3    1.57    1.24
   3   7   3   -0.85    1.10
   3  -7   3   -0.29    1.38
  -3   7  -4   39.84    2.64
   3  -7   4   31.26    3.04
   3  -7   4   30.51    2.86
   3  -7   4   29.48    3.01
  -3  -7  -4   34.13    3.15
   3   7   4   37.47    2.70
  -3  -7  -4   36.38    3.66
   3  -7   4   34.38    3.44
   3  -7   4   28.87    2.83
   3   7   5   -0.41    1.00
  -3   7  -5    0.44    1.04
  -3  -7  -5    1.30    1.92
  -3  -7  -5    1.39    1.35
   3  -7   5    0.97    0.39
   3   7   5    1.04    1.17
   3  -7   5   -0.27    1.27
   3  -7   5    0.57    0.39
   3  -7   5    2.15    1.58
   3  -7   5   -0.64    1.47
   3  -7   5    0.82    1.31
   3  -7   5    0.60    1.26
   3  -7   6   21.73    2.76
  -3   7  -6   17.70    2.11
   3  -7   6   18.56    1.16
   3   7   6   19.27    2.09
   3  -7   6   18.83    2.29
   3  -7   6   18.19    1.19
   3  -7   6   14.64    2.29
   3   7   6   17.44    1.87
   3  -7   6   17.68    2.24
  -3  -7  -6   13.06    2.61
  -3  -7  -6   14.74    2.26
   3  -7   6   13.60    2.01
   3  -7   7   15.62    2.14
  -3   7  -7   11.70    2.03
  -3  -7  -7   14.11    2.31
   3   7   7   12.77    1.95
   3  -7   7   12.98    1.11
   3  -7   7   16.23    2.17
   3  -7   7   13.55    2.37
   3   7   7   15.63    1.83
   3  -7   7   13.69    2.39
  -3  -7  -7   16.18    2.81
   3  -7   7   14.38    2.00
   3   7   8  297.62   13.37
   3  -7   8  309.48   14.33
   3  -7   8  291.05   13.71
  -3   7  -8  325.67   14.14
   3  -7   8  301.34   13.69
   3  -7   8  299.37   12.59
   3   7   8  317.23   13.92
  -3  -7  -8  297.25   12.48
   3  -7   8  295.87   14.29
   3  -7   8  301.95   13.66
  -3  -7  -8  310.88   15.00
  -3  -7  -9    1.32    1.89
  -3   7  -9    2.27    1.63
   3   7   9    2.24    1.16
   3   7   9    4.99    1.72
   3  -7   9    1.01    1.63
   3  -7   9    3.56    1.46
   3  -7   9    2.08    1.32
  -3  -7 -10   20.38    3.25
  -3   7 -10   20.02    2.68
   3   7  10   17.89    1.98
   3   7  10   15.72    2.39
   3  -7  10   16.98    2.49
  -3  -7 -11    3.12    2.11
  -3   7 -11    5.67    2.17
   3   7  11    0.84    1.21
   3  -7  11    4.26    1.85
  -3   7 -12   43.66    4.02
   3  -7  12   50.45    3.95
   3   7  12   38.42    3.10
  -3  -7 -12   56.58    4.65
  -3   7 -13    1.73    2.21
  -3  -7 -13   -1.35    2.19
  -3   7 -14    1.38    2.22
  -3  -7 -14    1.81    2.20
  -3   7 -15    5.33    2.64
  -3  -7 -15    0.45    2.10
  -3   7 -16   38.28    4.27
  -3  -7 -16   32.73    3.94
  -3  -7 -17    0.45    2.39
  -3  -7 -18   56.69    5.35
   3  -8 -16    0.98    2.52
   3  -8 -15  130.60    8.16
   3   8 -15  125.85    8.22
   3  -8 -14   -0.62    3.03
   3   8 -14    3.30    2.31
   3  -8 -14    0.43    2.23
   3  -8 -13   12.90    3.40
   3  -8 -13   11.78    2.60
  -3  -8  13   10.53    3.10
   3   8 -13   10.80    2.67
   3   8 -12   22.60    3.19
  -3  -8  12   23.45    3.81
   3  -8 -12   18.92    2.94
  -3  -8  11   65.91    5.58
   3  -8 -11   64.40    4.65
   3   8 -11   57.59    4.75
   3  -8 -10   -0.65    1.75
   3   8 -10   -0.38    1.84
  -3  -8  10    2.15    2.51
   3  -8 -10    1.72    2.65
   3  -8  -9  211.07   10.52
  -3  -8   9  220.97   12.02
   3   8  -9  215.27   10.91
   3  -8  -9  216.88   12.13
   3  -8  -8    1.63    1.71
   3   8  -8   -0.34    1.57
  -3  -8   8   -0.53    2.34
   3  -8  -8   -0.55    1.96
   3  -8  -7    0.24    1.26
   3   8  -7    0.32    1.60
   3  -8  -7   -2.13    2.22
  -3  -8   7   -1.56    2.17
   3  -8  -6    0.22    1.25
   3   8  -6   -0.61    1.38
   3  -8  -6   -1.56    2.20
  -3  -8   6   -0.50    1.99
   3  -8  -5  232.84   10.98
  -3  -8   5  255.29   13.20
   3   8  -5  250.08   11.66
   3  -8  -5  261.06   13.21
   3  -8  -4   20.41    3.14
   3  -8  -4   24.02    2.00
  -3  -8   4   15.86    3.11
   3  -8  -3   14.97    1.51
   3  -8  -3   16.60    2.87
  -3  -8   3   14.65    2.91
   3  -8  -2   15.13    1.34
  -3  -8   2   13.59    2.88
   3  -8  -2   18.60    3.01
  -3  -8   2   18.12    2.53
   3  -8  -1   16.48    1.13
  -3  -8   1   13.05    2.66
   3  -8  -1    9.05    2.48
   3  -8  -1   10.79    2.66
  -3  -8   1   13.19    2.13
  -3  -8   0   -1.00    1.94
   3  -8   0   -0.33    1.56
   3  -8   0   -1.81    1.89
   3  -8   0   -0.47    1.64
   3  -8   0    1.06    1.49
  -3  -8   0   -1.09    1.42
   3  -8   1  111.58    7.08
   3  -8   1  112.39    6.44
   3   8   1  109.15    4.79
  -3  -8  -1  101.97    6.46
   3  -8   1  110.64    7.05
   3  -8   1   93.21    6.23
  -3  -8  -2   10.01    2.00
   3  -8   2   15.03    2.63
   3  -8   2   11.34    2.20
   3  -8   2    6.61    1.79
   3   8   2    9.22    1.22
   3  -8   2   11.82    2.21
  -3   8  -2   10.19    1.18
  -3   8  -3  409.51   17.12
   3   8   3  405.45   17.08
   3  -8   3  392.78   18.06
   3  -8   3  389.82   18.24
   3   8   3  415.06   17.54
   3  -8   3  403.54   18.36
  -3  -8  -3  387.96   18.48
   3  -8   3  431.61   19.16
   3   8   4    0.40    1.20
  -3   8  -4   -0.94    1.16
   3  -8   4    0.33    1.57
   3  -8   4   -2.63    1.63
  -3  -8  -4    2.00    2.24
   3  -8   4    1.68    1.70
  -3  -8  -4    3.47    1.63
   3  -8   4   -0.43    1.83
  -3   8  -5  140.48    6.77
   3   8   5  135.14    6.67
  -3  -8  -5  131.83    7.68
  -3  -8  -5  144.19    8.47
   3  -8   5  139.23    8.09
   3  -8   5  123.95    7.34
   3  -8   5  132.27    7.29
   3   8   5  129.62    6.56
   3  -8   5  123.35    7.27
   3  -8   5  128.79    7.08
   3  -8   6   14.19    2.77
  -3   8  -6   15.91    2.08
  -3  -8  -6   16.62    2.65
   3   8   6   14.86    1.75
   3   8   6   19.95    2.21
   3  -8   6   19.20    2.29
   3  -8   6   23.61    2.59
  -3  -8  -6   16.33    3.01
   3  -8   6   17.37    2.60
   3  -8   6   14.02    2.23
  -3  -8  -7   11.36    2.36
  -3   8  -7   12.85    2.11
   3   8   7   12.24    1.62
   3  -8   7   14.24    2.66
  -3  -8  -7   13.44    2.85
   3  -8   7   13.89    2.08
   3   8   7   11.42    1.91
   3  -8   7   15.53    2.18
   3  -8   7    8.91    2.09
   3  -8   8    1.20    2.04
  -3   8  -8    0.30    1.48
   3   8   8   -0.73    1.15
   3   8   8    1.35    1.45
  -3  -8  -8    0.50    2.23
  -3   8  -9  445.76   19.86
   3   8   9  438.91   18.82
   3  -8   9  459.40   20.39
   3   8   9  440.40   19.61
  -3  -8  -9  436.11   20.91
  -3   8 -10    3.90    1.88
  -3  -8 -10   -0.50    2.29
   3  -8  10    6.06    2.34
   3  -8  11   88.49    5.89
  -3   8 -11   73.39    5.39
  -3  -8 -11   83.62    6.39
  -3   8 -12    0.41    2.07
  -3  -8 -12    0.50    2.17
  -3   8 -13    0.44    2.38
  -3  -8 -13    2.02    2.48
  -3  -8 -14   -0.51    2.37
  -3   8 -14    4.16    2.63
  -3   8 -15   15.15    3.16
  -3  -8 -15   21.77    3.62
  -3  -8 -16    5.04    2.73
   3   9 -14    4.27    2.61
  -3  -9  13    6.53    3.17
   3   9 -13    2.27    2.38
  -3  -9  12   51.31    5.30
   3   9 -12   37.66    4.16
   3  -9 -11    2.46    2.80
   3   9 -11    0.41    2.07
  -3  -9  11    2.35    2.98
   3  -9 -10   16.21    3.51
   3   9 -10   12.47    2.61
   3  -9 -10    6.90    3.11
  -3  -9  10   10.59    3.11
   3  -9  -9   16.61    3.32
   3  -9  -9   13.64    3.31
   3   9  -9   10.29    2.33
  -3  -9   9   10.53    3.36
   3  -9  -8   39.48    4.62
   3   9  -8   37.43    3.54
  -3  -9   8   31.46    4.37
   3  -9  -8   34.61    4.33
   3  -9  -7    0.58    2.63
   3   9  -7    1.63    1.80
  -3  -9   7    2.31    2.40
   3  -9  -7    3.58    2.36
  -3  -9   6  235.00   12.20
   3   9  -6  201.76   10.30
   3  -9  -6  201.47   11.98
   3   9  -5    4.37    1.77
  -3  -9   5   -0.57    2.32
   3  -9  -5    4.59    2.57
   3   9  -4   -0.27    1.49
   3  -9  -4    1.13    2.31
  -3  -9   4   -1.14    2.52
   3   9  -3    1.54    1.49
  -3  -9   3    3.27    1.93
   3  -9  -3   -1.11    2.19
  -3  -9   3    2.26    2.28
   3   9  -2    1.68    1.38
  -3  -9   2    0.56    2.19
   3  -9  -2   -0.54    2.34
  -3  -9   2    3.26    1.72
  -3  -9   1   -1.12    2.34
   3  -9  -1   -1.05    2.22
  -3  -9   1    2.90    2.01
   3  -9   0  218.01   11.70
   3  -9   0  193.68   10.51
  -3  -9   0  229.50   12.11
   3  -9   0  211.21   10.45
  -3  -9   0  196.36   10.81
  -3  -9  -1    3.36    2.38
   3  -9   1    3.38    1.88
  -3  -9  -1    5.42    2.10
   3  -9   1    5.64    2.57
   3  -9   1    2.32    1.70
  -3  -9  -2    6.31    2.06
   3  -9   2   17.66    3.40
   3  -9   2   10.55    2.25
   3   9   2   13.77    1.84
  -3  -9  -3    0.42    1.88
   3   9   3    0.59    1.27
  -3   9  -3    1.01    0.92
   3  -9   3    3.47    2.59
   3  -9   3    1.66    1.67
   3   9   3    0.30    0.75
  -3  -9  -4   -0.87    1.97
  -3   9  -4    0.34    1.05
  -3  -9  -4    1.12    2.52
   3  -9   4   -1.47    2.40
   3  -9   4    2.05    1.81
   3   9   4    1.83    1.16
   3   9   4    1.28    1.02
  -3  -9  -5   10.98    2.46
  -3   9  -5   14.25    1.89
  -3  -9  -5   18.00    3.62
   3  -9   5   16.37    2.51
   3  -9   5   21.35    3.42
  -3  -9  -6    6.12    2.32
   3  -9   6    5.21    2.43
  -3  -9  -6    3.35    2.47
   3  -9   6    2.85    1.75
  -3   9  -6    3.28    1.36
  -3   9  -7    2.37    1.57
   3  -9   7    1.39    2.50
  -3  -9  -7   -0.45    1.94
  -3  -9  -7    2.78    2.50
   3  -9   8   23.67    3.48
  -3   9  -8   18.49    2.56
  -3  -9  -8   19.45    3.54
  -3   9  -9   16.17    2.50
   3  -9   9   20.16    3.17
  -3  -9  -9   19.49    3.63
  -3  -9 -10    2.23    2.64
  -3   9 -10   -0.35    1.86
   3  -9  10    2.59    2.32
  -3   9 -11    6.84    2.32
  -3  -9 -11    5.04    2.91
  -3   9 -12    3.26    2.26
  -3  -9 -12    3.91    2.71
  -3   9 -13    5.64    2.41
  -3   9 -14    0.46    2.33
   3  10 -12    0.43    2.29
   3  10 -11   -1.23    2.25
   3  10 -10    0.78    2.14
   3  10  -9    0.37    2.12
   3  10  -8    9.08    2.29
  -3 -10   8   11.41    3.31
   3  10  -7   -0.66    1.87
  -3 -10   7    3.78    2.83
   3 -10  -6   -0.61    2.79
   3  10  -6    1.23    1.59
  -3 -10   6    2.48    2.70
   3 -10  -6    1.30    2.87
   3 -10  -5    3.64    2.77
   3  10  -5    6.61    1.93
   3 -10  -5    9.48    3.22
  -3 -10   5   13.56    3.30
   3  10  -4   -2.95    1.86
   3 -10  -4   -0.62    2.81
  -3 -10   4    1.87    2.84
  -3 -10   4    0.46    1.97
   3 -10  -4    0.60    2.38
   3 -10  -3   70.46    6.24
   3  10  -3   56.28    4.00
   3 -10  -3   63.60    5.82
  -3 -10   3   56.81    4.97
  -3 -10   3   61.95    5.89
  -3 -10   2    1.24    2.74
   3 -10  -2   -0.60    2.55
   3  10  -2   -0.93    1.41
  -3 -10   2    0.93    1.96
   3 -10  -2    1.19    2.67
   3 -10  -1   86.64    6.80
   3  10  -1   74.02    4.61
  -3 -10   1   83.59    6.98
  -3 -10   1   78.25    5.95
   3 -10  -1   85.96    5.42
   3 -10  -1   76.97    6.57
  -3 -10   0    1.24    2.78
   3  10   0   -0.40    1.31
   3 -10   0    0.58    2.69
  -3 -10   0    0.46    2.16
   3 -10   0    1.98    1.73
  -3 -10  -1   21.76    3.40
  -3 -10  -1   21.04    4.04
   3  10   1   23.26    2.21
   3 -10   1   24.50    3.00
   3 -10   2    8.94    2.17
  -3 -10  -2   11.63    2.66
   3 -10   2   15.20    3.26
  -3 -10  -3   38.82    4.17
   3 -10   3   50.17    5.07
   3 -10   3   43.96    3.87
   3 -10   4    3.77    2.11
  -3 -10  -4   -0.62    3.01
   3 -10   4   -1.10    2.98
  -3 -10  -4   -1.43    2.47
   3 -10   5   32.12    3.44
   3 -10   5   39.46    4.62
  -3 -10  -5   36.53    4.13
  -3 -10  -5   35.41    4.62
  -3 -10  -6   -2.37    2.58
   3 -10   6    1.59    2.50
  -3 -10  -6    1.86    2.62
   3 -10   7    3.63    2.67
  -3 -10  -7    6.24    2.52
   3 -10   8    0.51    2.59
  -3 -11   5    4.05    2.51
  -3 -11   4    0.51    2.46
  -3 -11   3   -2.04    2.52
  -3 -11   2    2.04    2.41
  -3 -11   1   -3.03    2.53
  -3 -11   0  123.48    8.12
  -3 -11  -1   -1.51    2.50
  -3 -11  -2   39.25    4.35
  -3 -11  -3   -1.02    2.69
  -3 -11  -4   13.23    3.02
  -3 -11  -5    0.51    2.31
  -3 -11  -6    5.04    2.59
   4   0 -22    1.53    2.29
   4   0 -21   -0.97    2.41
   4   0 -21    1.20    2.79
   4   0 -20   86.50    6.28
   4   0 -20   88.99    6.82
   4   0 -19   -1.32    2.10
   4   0 -19   -0.54    2.18
   4   0 -19   -0.25    1.37
   4   0 -18    9.99    2.45
   4   0 -18   11.23    3.02
   4   0 -18   13.56    1.96
   4   0 -17   -1.57    1.93
   4   0 -17   -0.48    2.03
   4   0 -17   -0.72    1.11
   4   0 -16  185.01   10.79
   4   0 -16  201.97    9.68
   4   0 -15    0.45    1.13
   4   0 -15    2.08    1.60
   4   0 -14  196.72   10.08
  -4   0  14  206.27   10.38
   4   0 -13   -0.30    1.19
  -4   0  13    0.33    1.44
   4   0 -12  101.32    5.77
  -4   0  12   93.79    5.79
  -4   0  12  101.38    5.31
  -4   0  11    0.29    1.17
   4   0 -11   -0.53    0.97
  -4   0  11    1.04    0.89
  -4   0  10 1772.61   72.58
  -4   0  10 1755.53   72.09
   4   0 -10 1823.73   72.01
  -4   0   9    0.26    1.02
  -4   0   9    0.20    0.76
   4   0  -9    0.19    0.80
  -4   0   8  397.13   16.81
   4   0  -8  386.44   16.65
  -4   0   8  381.82   16.75
  -4   0   7    1.06    0.81
  -4   0   7    0.40    0.65
   4   0  -7    0.90    0.69
   4   0  -7    0.51    0.80
   4   0  -6 1260.82   49.46
  -4   0   6 1207.02   48.78
   4   0  -6 1195.07   48.90
  -4   0   6 1172.26   49.06
  -4   0   5   -0.18    0.60
   4   0  -5    0.18    0.63
  -4   0   5    0.41    0.55
   4   0  -5    0.69    0.77
   4   0  -4 4462.27  176.42
  -4   0   4 4574.59  176.02
   4   0  -4 4245.02  176.65
  -4   0   4 4351.18  176.44
  -4   0   3   -0.10    0.44
  -4   0   3   -0.55    0.63
   4   0  -2  401.69   16.70
  -4   0   2  426.75   17.47
  -4   0   2  406.43   16.73
   4   0  -1   -0.07    0.29
  -4   0   1    0.56    0.54
   4   0   0  389.44   16.65
  -4   0   0  404.81   17.05
   4   0   0  397.66   16.11
   4   0   1   -0.12    0.50
  -4   0  -1    0.17    0.45
  -4   0  -1   -0.19    0.57
   4   0   2  150.94    6.98
  -4   0  -2  165.55    7.57
  -4   0  -2  171.42    7.73
   4   0   3    0.08    0.34
  -4   0  -3    1.24    0.67
  -4   0  -3    0.37    0.57
  -4   0  -4   93.49    5.07
   4   0   4   97.27    4.22
  -4   0  -5   -0.21    0.68
  -4   0  -5   -0.23    0.78
   4   0   5    0.07    0.24
  -4   0  -6    4.92    1.13
  -4   0  -6    2.53    0.98
  -4   0  -7   -0.26    0.86
  -4   0  -7   -0.25    0.81
  -4   0  -7    0.25    0.84
   4   0   8  978.26   42.01
  -4   0  -8 1030.85   42.31
  -4   0  -8 1034.29   42.30
  -4   0  -8 1046.05   42.39
  -4   0  -9    1.21    1.06
   4   0   9    0.28    1.13
   4   0   9   -0.26    0.98
  -4   0  -9   -0.29    1.03
  -4   0  -9    1.12    1.15
   4   0  10  169.85    8.94
   4   0  10  186.53    9.30
  -4   0 -10  198.94    9.50
  -4   0 -10  189.23    9.11
  -4   0 -10  172.57    9.13
  -4   0 -10  187.47    9.45
  -4   0 -11    1.05    1.23
   4   0  11    1.60    1.33
  -4   0 -11    0.62    1.23
  -4   0 -11    0.68    1.27
  -4   0 -11   -0.84    1.36
  -4   0 -12    9.93    1.95
  -4   0 -12   12.44    2.19
   4   0  12    8.78    2.16
  -4   0 -12   11.34    2.08
  -4   0 -12   14.30    2.12
  -4   0 -13   -0.96    1.53
  -4   0 -13    1.02    1.39
  -4   0 -13    0.80    1.59
   4   0  13   -0.71    1.64
  -4   0 -14  233.47   11.56
  -4   0 -14  204.94   10.83
  -4   0 -15   -0.45    1.88
  -4   0 -15    0.37    1.53
  -4   0 -16    5.72    1.94
  -4   0 -16    6.21    2.32
  -4   0 -16    4.46    0.69
  -4   0 -17    1.01    2.29
  -4   0 -17   -1.18    1.95
  -4   0 -18   70.02    5.80
  -4   0 -18   81.20    6.14
  -4   0 -18   68.57    5.15
  -4   0 -19    0.54    2.35
  -4   0 -19   -1.25    1.81
  -4   0 -19   -0.55    2.43
  -4   0 -20   33.25    4.56
  -4   0 -20   36.49    4.47
  -4   0 -20   37.79    3.92
  -4   0 -21    0.86    2.16
  -4   0 -22    0.87    2.20
   4  -1 -23   85.27    6.57
   4  -1 -22    3.39    2.38
   4   1 -22    2.69    2.76
   4   1 -22    3.04    2.65
   4  -1 -21   21.58    3.34
   4   1 -21   26.61    3.83
   4   1 -21   15.06    3.28
   4  -1 -20   11.25    2.79
   4   1 -20   11.28    2.86
   4  -1 -20   12.94    2.30
   4   1 -19   38.33    4.02
   4   1 -19   34.04    4.03
   4  -1 -19   38.34    3.79
   4  -1 -18    2.32    1.89
   4   1 -18    1.78    1.91
   4   1 -18    0.49    2.06
   4  -1 -17  178.77    9.58
   4   1 -17  180.50   10.16
   4   1 -17  188.08    9.99
   4  -1 -16   -1.03    1.71
   4   1 -16    0.79    1.62
   4   1 -16   -1.19    1.55
   4   1 -16    0.44    1.96
   4   1 -15  223.45   11.98
   4  -1 -15  263.96   11.91
   4   1 -15  258.64   12.50
   4  -1 -15  232.08   12.39
   4   1 -15  243.86   12.09
  -4  -1  15  248.70   12.05
   4   1 -15  232.13   10.74
  -4   1  14   21.64    2.69
   4  -1 -14   25.03    2.57
   4   1 -14   19.73    2.68
   4  -1 -14   25.42    3.07
   4   1 -14   21.42    2.82
   4   1 -14   26.50    2.77
  -4  -1  14   18.87    1.87
  -4   1  14   21.94    2.71
   4   1 -14   23.43    1.95
  -4  -1  14   22.19    2.75
   4   1 -13  235.18   12.08
   4  -1 -13  244.40   11.63
   4   1 -13  248.25   11.97
   4  -1 -13  257.78   12.46
   4   1 -13  260.26   12.30
  -4   1  13  239.98   12.00
   4   1 -13  245.40   10.90
  -4  -1  13  247.93   11.90
  -4  -1  13  235.98   11.02
  -4   1  13  256.61   12.08
   4   1 -12    5.85    1.68
   4   1 -12    4.94    1.49
  -4  -1  12    0.59    1.31
  -4   1  12    6.11    1.66
   4  -1 -12    5.60    1.29
   4  -1 -12    4.03    1.63
   4   1 -12    3.42    1.46
   4   1 -12    6.15    1.08
  -4   1  12    5.77    1.55
  -4  -1  12    4.68    1.11
  -4   1  11  153.81    8.28
   4   1 -11  158.81    8.45
   4  -1 -11  163.22    7.99
   4  -1 -11  172.87    8.72
   4   1 -11  158.25    8.40
   4   1 -11  162.00    8.28
  -4  -1  11  154.32    8.17
   4  -1 -11  174.31    8.06
   4   1 -11  157.56    7.40
  -4   1  11  166.42    8.29
  -4  -1  11  148.70    7.58
   4  -1 -10   16.06    2.17
   4   1 -10   14.10    1.43
  -4   1  10   21.77    2.27
  -4   1  10   19.28    2.05
   4   1 -10   18.84    2.33
   4  -1 -10   15.76    1.80
  -4  -1  10   14.28    1.99
   4   1 -10   12.28    1.88
  -4   1  10   12.61    1.66
  -4  -1  10   15.95    1.69
   4   1  -9  206.93    9.08
   4  -1  -9  207.58   10.09
   4   1  -9  191.70    9.86
  -4  -1   9  209.55    9.78
  -4   1   9  205.61    9.70
  -4   1   9  198.53    9.52
  -4  -1   9  196.02    9.34
  -4   1   8    9.51    1.39
  -4   1   8    8.86    1.34
   4   1  -8   10.27    1.18
   4  -1  -8    9.03    1.58
  -4   1   7   32.72    2.53
   4  -1  -7   35.99    2.84
   4   1  -7   42.07    2.40
  -4   1   7   31.00    2.49
   4  -1  -6   26.32    2.11
  -4   1   6   22.13    1.98
   4  -1  -6   21.75    2.12
  -4  -1   6   23.24    1.80
  -4   1   6   21.45    1.87
   4   1  -6   21.15    1.69
   4  -1  -5  395.76   16.54
  -4  -1   5  385.37   15.96
   4   1  -5  374.48   15.84
  -4   1   5  373.18   16.23
  -4   1   5  349.41   15.88
   4  -1  -4    3.25    0.78
   4  -1  -4    0.67    0.76
  -4   1   4    2.15    0.71
   4   1  -4    1.20    0.71
  -4  -1   4    1.28    0.68
  -4   1   4    1.58    0.66
  -4  -1   3  194.63    8.42
   4   1  -3  189.46    8.62
  -4   1   3  182.19    8.63
   4  -1  -3  177.59    8.17
  -4   1   3  180.20    8.18
  -4   1   3  182.97    8.55
   4   1  -3  174.48    8.23
   4   1  -2   48.08    2.90
   4   1  -2   51.24    3.12
   4   1  -2   50.76    2.80
  -4  -1   2   50.69    2.99
  -4   1   2   52.73    3.18
  -4   1   2   47.19    3.12
  -4  -1   2   48.51    2.31
   4  -1  -2   52.09    2.81
   4   1  -1 1213.98   48.57
   4   1  -1 1196.05   48.27
   4  -1  -1 1188.66   48.18
  -4   1   1 1191.93   48.82
  -4  -1   1 1208.80   48.58
  -4   1   1 1190.78   48.71
  -4  -1   0    2.65    0.76
  -4  -1   0    1.80    0.61
   4   1   0    3.03    0.72
   4   1   0    4.66    0.81
  -4   1   0    4.11    0.95
   4  -1   1   33.63    2.30
  -4  -1  -1   32.30    2.12
   4   1   1   34.18    2.15
  -4   1  -1   32.84    2.44
  -4  -1  -1   32.78    2.18
   4   1   1   35.57    2.20
  -4  -1  -1   32.55    2.35
   4  -1   2   46.36    2.85
  -4  -1  -2   42.67    2.52
  -4   1  -2   48.43    3.01
  -4  -1  -2   40.55    2.65
   4   1   2   43.86    2.52
   4   1   2   43.87    2.66
  -4  -1  -2   43.14    2.85
  -4   1  -2   42.94    2.95
   4  -1   3   18.00    1.66
  -4  -1  -3   18.18    1.38
  -4   1  -3   16.59    1.70
   4   1   3   14.80    1.40
   4   1   3   27.61    1.62
   4  -1   3   17.93    1.75
  -4  -1  -3   21.23    1.86
  -4  -1  -3   17.59    1.60
   4  -1   4   59.04    3.51
   4  -1   4   54.16    3.49
   4   1   4   57.41    2.95
  -4  -1  -4   60.37    3.01
  -4   1  -4   53.11    3.51
  -4  -1  -4   56.74    3.44
   4   1   4   52.62    3.14
  -4  -1  -4   66.15    3.77
   4  -1   4   59.51    2.65
  -4  -1  -5 1715.30   70.13
  -4   1  -5 1783.50   71.11
  -4  -1  -5 1771.71   70.95
  -4  -1  -5 1834.52   71.18
   4   1   5 1764.64   70.09
   4   1   5 1732.25   70.57
  -4  -1  -6   61.70    3.09
  -4   1  -6   63.84    4.01
  -4  -1  -6   59.34    3.83
  -4   1  -6   75.68    4.17
  -4  -1  -7  304.83   13.64
   4  -1   7  288.82   13.33
  -4  -1  -7  293.52   12.35
  -4   1  -7  301.78   13.60
  -4  -1  -7  318.46   13.59
  -4   1  -7  299.45   13.51
  -4   1  -7  289.74   13.61
  -4   1  -8  135.32    7.04
  -4  -1  -8  126.39    5.63
  -4   1  -8  121.74    6.86
  -4  -1  -8  125.76    6.82
   4  -1   8  132.95    6.72
  -4  -1  -8  139.68    7.07
  -4   1  -8  126.31    6.79
  -4  -1  -9   19.73    2.23
   4  -1   9   31.90    2.51
   4  -1   9   17.41    2.15
   4   1   9   20.36    2.37
  -4  -1  -9   19.37    1.30
  -4  -1  -9   22.95    2.35
  -4  -1  -9   28.16    2.36
  -4   1  -9   20.78    2.27
  -4   1  -9   17.32    2.23
  -4  -1 -10    0.32    1.16
   4   1  10    0.54    1.12
  -4   1 -10    1.65    1.16
  -4  -1 -10    2.19    0.58
   4  -1  10    1.75    1.27
   4  -1  10    1.08    1.01
   4   1  10    0.31    1.26
  -4  -1 -10    2.86    1.37
  -4  -1 -10    0.25    1.21
  -4   1 -10    1.43    1.11
  -4  -1 -11  594.97   25.07
  -4   1 -11  590.70   25.12
   4   1  11  574.29   24.57
   4  -1  11  586.99   24.84
   4  -1  11  575.69   24.59
  -4  -1 -11  583.05   25.01
  -4  -1 -11  554.46   23.07
  -4  -1 -11  598.28   24.56
  -4   1 -11  594.14   24.77
  -4   1 -11  547.16   23.40
   4   1  11  576.78   24.87
  -4   1 -12    0.94    1.26
  -4  -1 -12    0.36    1.33
  -4   1 -12   -0.75    1.48
   4   1  12    0.89    1.17
   4  -1  12    0.61    1.20
   4  -1  12    1.31    1.49
   4   1  12    0.34    1.46
  -4  -1 -12   -0.07    0.54
  -4  -1 -12   -0.37    1.31
  -4  -1 -12    0.57    1.35
  -4   1 -12    0.41    0.59
  -4   1 -13  354.10   15.42
   4   1  13  320.68   14.56
   4  -1  13  340.54   14.98
  -4   1 -13  288.78   12.92
  -4  -1 -13  341.93   15.26
  -4  -1 -13  305.34   12.87
  -4  -1 -13  335.18   15.22
  -4   1 -13  323.43   14.79
  -4  -1 -13  341.68   14.70
  -4   1 -13  329.56   14.74
  -4   1 -14    0.85    1.59
  -4  -1 -14    0.41    1.60
  -4  -1 -14    2.48    0.65
  -4   1 -14    0.82    1.66
  -4   1 -14    2.35    1.59
  -4  -1 -14    3.33    1.89
  -4  -1 -14    1.61    1.70
  -4   1 -14    2.84    0.43
  -4   1 -15    6.31    2.18
  -4  -1 -15    8.30    0.78
  -4  -1 -15    7.14    0.76
  -4   1 -15   14.36    2.58
  -4  -1 -15    9.31    2.29
  -4  -1 -15    8.24    2.20
  -4   1 -15    6.95    1.99
  -4   1 -16   34.72    3.36
  -4   1 -16   37.32    3.92
  -4   1 -16   31.22    3.56
  -4  -1 -16   32.37    3.84
  -4  -1 -16   33.44    3.73
  -4  -1 -16   29.81    3.43
  -4   1 -17   15.19    3.18
  -4   1 -17   16.92    3.07
  -4  -1 -17   21.22    3.34
  -4  -1 -17   13.95    2.70
  -4   1 -17   14.34    2.49
  -4  -1 -18   14.65    2.88
  -4   1 -18   12.81    2.91
  -4  -1 -18    5.67    2.47
  -4   1 -18    8.63    2.69
  -4   1 -18   11.67    2.52
  -4   1 -19   47.82    4.30
  -4  -1 -19   56.64    5.14
  -4   1 -19   65.82    5.64
  -4  -1 -19   54.47    4.77
  -4   1 -19   52.98    5.12
  -4  -1 -20   -0.55    2.62
  -4   1 -20   -1.10    2.60
  -4   1 -20    1.16    1.83
  -4  -1 -20    0.46    2.22
  -4   1 -21    1.55    1.88
  -4  -1 -21    1.88    2.43
  -4  -1 -22    4.77    2.45
   4  -2 -23    2.86    2.55
   4  -2 -22    8.65    2.80
   4   2 -22   23.92    3.89
   4  -2 -21    0.87    2.13
   4   2 -21    5.39    2.68
   4   2 -21    6.12    2.94
   4  -2 -21    5.01    2.69
   4  -2 -20   10.18    2.55
   4   2 -20   11.92    2.96
   4   2 -20   12.19    2.84
   4  -2 -20   11.37    3.22
   4  -2 -19    0.76    1.84
   4   2 -19   -1.98    2.22
   4   2 -19   -2.52    2.63
   4  -2 -19    0.57    2.44
   4   2 -18   13.58    1.13
   4  -2 -18   18.83    3.33
   4  -2 -18   24.23    2.96
   4   2 -18   22.17    3.27
   4   2 -18   19.48    3.12
   4  -2 -17   13.62    2.25
   4   2 -17   16.57    2.81
   4   2 -17   12.06    2.60
   4  -2 -17   11.65    2.81
   4   2 -17    9.19    1.00
   4  -2 -16    1.25    1.46
   4   2 -16   -1.69    1.86
   4   2 -16    0.42    1.74
   4  -2 -16    0.48    1.88
   4   2 -16    0.27    0.69
  -4  -2  15    1.37    1.65
   4  -2 -15    0.87    1.42
   4   2 -15   -1.99    1.73
   4   2 -15   -1.58    1.64
   4  -2 -15    1.35    1.75
   4   2 -15   -0.39    1.79
   4   2 -15   -0.10    0.68
  -4  -2  15    1.46    0.90
  -4  -2  14  139.00    7.31
   4   2 -14  133.90    7.61
   4  -2 -14  135.61    6.99
   4   2 -14  143.33    7.62
   4  -2 -14  133.65    7.83
   4   2 -14  131.64    7.51
   4   2 -14  113.62    5.69
  -4  -2  14  134.26    6.32
  -4  -2  13    2.44    1.55
   4   2 -13    2.52    0.69
   4  -2 -13    2.49    1.39
   4   2 -13    4.96    1.68
   4  -2 -13    4.80    1.85
   4   2 -13    4.17    1.61
   4   2 -13    2.21    1.61
  -4   2  13    3.90    1.82
  -4  -2  13    5.33    1.16
   4   2 -12  156.47    7.03
   4   2 -12  157.44    8.59
   4  -2 -12  165.14    7.92
   4   2 -12  168.56    8.61
   4  -2 -12  160.12    8.74
   4   2 -12  160.34    8.46
  -4  -2  12  159.20    8.26
  -4  -2  12  159.59    7.65
  -4  -2  11    1.36    1.20
   4  -2 -11    0.21    0.91
   4   2 -11    1.88    1.24
   4   2 -11    1.02    1.44
   4  -2 -11    1.77    1.32
   4   2 -11    1.22    1.35
   4   2 -11    2.17    0.62
   4  -2 -10  167.63    7.82
   4   2 -10  161.70    8.26
   4  -2 -10  150.03    7.32
   4  -2 -10  164.81    8.38
   4   2 -10  146.98    7.87
  -4  -2  10  148.31    7.76
  -4   2  10  147.10    7.91
   4   2 -10  149.98    6.79
   4  -2  -9    5.00    1.32
   4  -2  -9    6.28    1.03
   4  -2  -9    6.16    1.53
   4   2  -9    4.26    1.34
  -4   2   9    5.26    1.49
   4   2  -9    6.12    0.82
   4  -2  -8   64.81    4.39
   4   2  -8   73.99    4.38
   4   2  -8   68.33    3.50
  -4   2   8   77.92    4.42
   4  -2  -8   67.58    4.18
  -4   2   7    0.69    0.89
   4   2  -7    0.94    0.81
  -4  -2   7    0.25    0.51
   4  -2  -7    0.81    0.88
  -4   2   7    1.64    0.84
   4   2  -7    0.80    0.59
  -4   2   6   93.23    5.16
  -4   2   6   89.44    5.02
   4  -2  -6   94.72    5.28
   4   2  -6  100.81    5.25
  -4  -2   6   90.46    4.57
   4   2  -6   99.03    4.55
   4  -2  -6   83.64    5.05
  -4  -2   5   21.11    1.61
  -4   2   5   22.74    1.96
   4   2  -5   20.15    1.91
   4  -2  -5   21.10    1.94
  -4   2   5   18.96    1.88
   4  -2  -5   18.01    1.93
   4  -2  -4 1726.54   70.88
  -4   2   4 1813.22   70.86
  -4  -2   4 1783.47   70.28
   4   2  -4 1728.66   69.90
  -4   2   4 1754.28   70.63
   4  -2  -4 1720.89   70.68
  -4  -2   3   22.96    2.30
   4   2  -3   28.26    1.69
   4  -2  -3   30.54    2.33
  -4  -2   3   29.11    2.01
   4  -2  -3   29.53    2.21
  -4   2   3   27.74    2.24
   4   2  -2  974.33   39.61
   4  -2  -2  985.18   39.42
   4   2  -2  941.89   38.78
  -4  -2   2  976.53   39.29
  -4   2   2  967.94   39.64
   4  -2  -1   24.02    1.71
  -4  -2   1   20.13    1.77
  -4  -2   1   21.26    1.52
   4   2  -1   22.13    1.91
   4   2  -1   23.35    1.53
   4  -2  -1   24.21    1.82
  -4   2   1   24.32    2.12
  -4   2   1   21.37    1.93
  -4  -2   0   49.76    3.14
  -4  -2   0   49.61    2.82
   4  -2   0   51.90    2.97
   4   2   0   54.45    3.23
  -4  -2   0   55.44    3.20
  -4   2   0   53.39    3.45
   4  -2   1   30.54    2.12
  -4  -2  -1   30.62    2.23
  -4  -2  -1   31.48    2.07
   4   2   1   31.61    2.26
  -4  -2  -1   31.85    2.31
   4  -2   2 1597.17   64.16
  -4  -2  -2 1636.77   64.16
  -4  -2  -2 1622.95   64.07
   4   2   2 1612.23   63.65
   4   2   2 1527.30   64.11
  -4   2  -2 1575.91   64.28
   4  -2   2 1555.37   64.56
   4  -2   3    8.46    1.13
   4   2   3    6.65    1.03
  -4   2  -3    6.16    1.19
   4  -2   3    7.39    1.27
  -4  -2  -3    6.18    1.00
  -4   2  -3    6.62    1.09
   4   2   3    5.26    0.75
  -4  -2  -3    8.43    1.08
  -4   2  -3    8.61    1.14
   4   2   3    6.25    0.68
  -4   2  -4 2160.88   85.48
   4  -2   4 2044.02   85.24
   4   2   4 2054.51   84.97
  -4  -2  -4 2122.64   85.30
  -4  -2  -4 2183.92   85.04
  -4   2  -4 2106.19   85.17
   4  -2   4 2046.24   85.53
   4   2   4 2167.32   84.62
   4  -2   4 2145.86   84.52
  -4   2  -4 2144.09   85.65
   4   2   5   86.23    4.40
   4  -2   5   86.58    4.77
  -4  -2  -5   85.67    4.41
   4  -2   5   84.41    4.86
  -4  -2  -5   87.09    4.77
  -4   2  -5   86.92    4.94
   4  -2   5   87.58    4.88
  -4   2  -5   89.45    4.55
   4   2   5   85.68    4.26
   4  -2   5   87.98    3.87
   4   2   6  465.51   20.32
   4  -2   6  472.98   20.27
   4  -2   6  457.67   18.98
   4  -2   6  481.16   20.42
  -4  -2  -6  505.11   20.44
  -4  -2  -6  501.95   19.82
   4  -2   6  487.88   20.36
   4   2   6  493.14   19.81
  -4   2  -6  465.78   19.82
  -4   2  -6  484.66   20.56
   4   2   7    1.17    0.80
   4   2   7    1.21    0.99
   4  -2   7    1.58    1.01
   4  -2   7    1.59    0.97
  -4  -2  -7    1.44    0.69
  -4  -2  -7    1.99    0.95
  -4   2  -7    1.27    0.99
  -4   2  -7    2.32    0.74
   4   2   8  113.48    6.22
   4  -2   8  117.43    6.23
  -4  -2  -8  122.28    6.44
  -4  -2  -8  111.92    5.58
  -4  -2  -8  121.08    5.96
   4   2   8  126.28    6.07
  -4   2  -8  109.07    5.53
  -4   2  -8  127.15    6.44
   4  -2   8  116.39    6.41
   4   2   9    5.21    1.32
   4   2   9    5.22    1.42
   4  -2   9    6.14    1.46
   4  -2   9    3.07    1.19
   4  -2   9    3.77    1.30
  -4  -2  -9    4.13    1.42
  -4  -2  -9    4.82    0.97
  -4   2  -9    4.51    0.85
  -4  -2  -9    4.20    1.34
  -4   2  -9    5.14    1.35
  -4  -2 -10  444.51   19.22
  -4   2 -10  421.05   18.78
   4   2  10  402.07   18.65
   4  -2  10  401.75   18.64
  -4  -2 -10  428.41   17.89
   4  -2  10  444.41   18.90
  -4   2 -10  434.34   19.15
  -4  -2 -10  443.37   18.55
  -4   2 -10  399.52   17.55
   4   2  10  487.93   18.80
  -4  -2 -11    2.41    1.57
   4   2  11    1.99    1.31
   4  -2  11    3.50    1.38
   4  -2  11    4.49    1.83
   4   2  11    5.34    1.60
  -4   2 -11    2.09    1.36
  -4  -2 -11    0.43    0.79
  -4   2 -11    0.87    1.25
  -4  -2 -11    2.96    1.25
   4  -2  12  117.63    6.45
   4   2  12  104.82    6.09
   4  -2  12  101.81    6.16
  -4   2 -12  106.27    6.54
   4   2  12  107.49    6.18
  -4  -2 -12  105.04    5.97
  -4  -2 -12  106.10    5.25
  -4   2 -12  105.19    6.13
  -4  -2 -12  121.42    6.79
  -4  -2 -13   -0.39    1.81
   4   2  13    1.58    1.44
  -4   2 -13    1.21    1.63
  -4   2 -13    2.79    1.54
   4   2  13    3.07    1.47
   4  -2  13   -0.34    1.61
  -4   2 -13    2.34    1.60
  -4  -2 -13    2.36    1.72
  -4  -2 -13    2.28    1.58
  -4  -2 -13    2.03    0.91
   4   2  14    7.46    2.04
  -4  -2 -14    5.19    1.15
  -4   2 -14    5.15    1.96
  -4   2 -14    7.98    1.80
  -4  -2 -14    5.72    2.01
  -4   2 -14    4.12    1.81
  -4  -2 -14    5.87    1.94
  -4  -2 -14    4.58    1.77
   4   2  15    1.81    1.76
  -4   2 -15    1.37    1.81
  -4   2 -15    2.95    1.64
  -4   2 -15    3.05    1.93
  -4  -2 -15    1.33    1.82
  -4  -2 -15    0.43    1.88
  -4  -2 -15    0.99    1.02
  -4  -2 -16   44.04    4.32
  -4   2 -16   41.00    4.24
  -4   2 -16   45.43    4.38
  -4  -2 -16   52.22    4.50
  -4  -2 -16   50.56    2.90
  -4   2 -16   42.53    3.73
  -4  -2 -17    2.86    2.23
  -4   2 -17    2.04    2.19
  -4   2 -17   -0.48    2.13
  -4  -2 -17    2.49    2.04
  -4  -2 -17    2.44    1.01
  -4   2 -17    3.41    1.71
  -4   2 -18   67.85    5.72
  -4  -2 -18   66.51    5.49
  -4   2 -18   76.58    5.73
  -4  -2 -18   65.36    5.54
  -4  -2 -18   60.74    3.32
  -4   2 -18   56.83    4.50
  -4  -2 -19    2.61    2.50
  -4   2 -19    0.57    2.54
  -4   2 -19    0.53    2.33
  -4  -2 -19   -0.55    2.40
  -4   2 -19    3.46    2.05
  -4  -2 -20   27.24    3.98
  -4   2 -20   27.37    3.97
  -4   2 -20   22.03    2.98
  -4  -2 -20   29.81    3.83
  -4  -2 -21   -0.51    2.49
   4   3 -22    8.82    3.11
   4   3 -22   11.50    2.54
   4  -3 -21   22.39    3.20
   4   3 -21   24.85    3.76
   4  -3 -20   56.00    4.44
   4   3 -20   54.86    5.10
   4   3 -20   44.10    4.94
   4  -3 -20   56.53    5.55
   4  -3 -19   69.62    5.78
   4   3 -19   64.57    5.35
   4   3 -19   48.69    4.74
   4  -3 -19   52.13    4.34
   4  -3 -18   13.90    2.35
   4   3 -18   14.43    2.81
   4   3 -18   10.40    2.65
   4  -3 -18   18.69    3.38
   4  -3 -17  166.10    8.70
   4   3 -17  178.16    9.57
   4  -3 -17  159.87    9.85
   4   3 -17  178.15    9.82
   4  -3 -16   19.45    2.30
   4   3 -16   18.31    2.82
   4   3 -16   15.13    2.69
   4  -3 -16   24.41    3.44
  -4  -3  16   16.35    1.55
   4  -3 -15   96.65    5.49
   4   3 -15   91.73    5.95
   4  -3 -15  105.37    6.75
   4   3 -15   91.59    6.22
  -4  -3  15   92.19    4.79
   4  -3 -15   94.34    5.71
  -4  -3  15   95.11    5.88
   4  -3 -14    8.58    1.79
   4  -3 -14    9.51    1.62
   4   3 -14   11.18    2.16
   4   3 -14    8.09    2.03
   4   3 -14    7.36    1.99
   4  -3 -14    9.60    2.40
  -4  -3  14    9.64    1.99
  -4  -3  14   10.39    1.42
   4  -3 -13  233.06   10.61
   4  -3 -13  236.44   11.90
   4   3 -13  243.10   11.40
   4   3 -13  231.10   11.62
  -4   3  13  228.88   11.50
   4   3 -13  220.06   11.44
  -4  -3  13  212.93   10.98
   4  -3 -13  230.23   11.04
  -4  -3  12   10.36    1.85
   4  -3 -12   14.71    1.67
   4   3 -12   11.51    2.15
  -4   3  12    8.89    1.98
   4  -3 -12   15.01    2.33
   4   3 -12    8.62    1.84
   4   3 -12   10.41    2.14
   4  -3 -12   10.74    1.85
   4  -3 -11   82.69    4.43
   4   3 -11   72.47    5.21
   4  -3 -11   88.90    5.55
   4   3 -11   74.28    4.86
   4   3 -11   84.32    5.36
  -4   3  11   89.09    5.34
   4  -3 -11   79.03    4.94
  -4   3  10    0.30    1.22
   4  -3 -10    0.48    0.73
   4   3 -10    1.35    1.38
   4  -3 -10    0.68    1.26
   4   3 -10    0.27    1.16
   4  -3 -10   -0.54    1.26
   4  -3  -9  218.53   10.16
   4  -3  -9  212.10    9.37
   4   3  -9  201.88   10.44
   4  -3  -9  207.07   10.46
   4   3  -9  214.47   10.09
  -4   3   9  208.42   10.25
  -4   3   8    4.86    1.47
   4  -3  -8    7.82    1.47
   4  -3  -8    4.40    1.37
   4  -3  -8    5.52    0.87
   4   3  -8    3.81    1.20
   4  -3  -8    4.35    1.24
   4  -3  -7    2.06    1.17
   4  -3  -7    0.83    1.08
   4   3  -7    5.80    1.16
  -4  -3   7    3.57    0.68
   4  -3  -7    4.74    1.22
  -4  -3   6   16.90    2.10
   4   3  -6   18.97    1.16
   4   3  -6   19.54    1.89
   4  -3  -6   19.73    2.15
   4  -3  -6   20.17    2.08
  -4  -3   6   19.75    1.49
   4   3  -5   66.28    2.99
  -4  -3   5   64.16    4.31
   4  -3  -5   75.48    4.24
  -4  -3   5   67.86    3.55
   4  -3  -5   61.21    4.14
   4   3  -5   74.25    4.08
   4  -3  -4    0.49    0.81
  -4  -3   4    1.14    0.62
  -4  -3   4    1.06    0.91
   4   3  -4    0.90    0.29
   4  -3  -4    0.23    0.79
  -4  -3   3  257.27   11.91
   4  -3  -3  266.27   11.67
  -4  -3   3  252.05   11.18
   4  -3  -3  248.66   11.67
   4  -3  -2   42.44    2.39
   4  -3  -2   39.35    2.90
   4  -3  -2   39.74    2.84
  -4  -3   2   48.76    2.81
   4  -3  -1  992.63   40.54
  -4  -3   1 1010.06   40.37
   4  -3  -1 1022.94   41.22
   4   3  -1  987.47   41.32
   4  -3  -1 1009.61   41.27
   4   3   0    8.88    1.39
   4  -3   0    9.51    1.07
  -4  -3   0    8.24    0.94
   4  -3   0    9.69    1.36
   4  -3   0    9.28    1.42
  -4  -3   0    9.31    0.82
  -4  -3  -1   51.53    3.23
   4  -3   1   49.02    3.30
  -4  -3  -1   45.42    2.64
   4   3   1   46.66    2.15
   4  -3   1   46.58    2.74
   4   3   1   46.07    3.11
   4  -3   1   40.56    3.16
  -4  -3  -1   45.43    2.37
  -4   3  -1   42.56    2.97
   4  -3   1   52.95    3.23
   4   3   2  448.92   19.79
  -4   3  -2  485.70   19.63
  -4  -3  -2  466.97   19.88
   4  -3   2  463.79   20.07
   4  -3   2  457.64   19.46
  -4  -3  -2  472.59   19.45
   4  -3   2  446.61   20.08
  -4   3  -2  463.78   20.12
   4  -3   2  451.73   19.80
  -4   3  -2  482.57   19.81
  -4   3  -3   18.64    1.67
  -4  -3  -3   12.07    1.55
   4  -3   3   14.71    1.50
   4   3   3   14.88    1.70
   4  -3   3   13.16    1.66
  -4  -3  -3   13.02    1.44
  -4   3  -3   13.19    1.76
   4  -3   3   13.60    1.78
   4  -3   3   22.82    1.64
  -4   3  -3   18.05    1.71
   4  -3   4   -0.13    0.54
   4  -3   4   -0.18    0.78
  -4  -3  -4    0.21    0.75
   4   3   4    0.97    0.83
   4  -3   4   -0.24    0.95
  -4  -3  -4    0.19    0.75
  -4   3  -4   -0.25    0.90
  -4   3  -4   -0.62    0.85
   4  -3   4    1.22    1.16
   4   3   4    0.44    0.54
  -4   3  -4    0.54    0.79
   4  -3   5 1479.91   59.06
   4   3   5 1401.55   59.80
  -4   3  -5 1555.03   60.00
   4  -3   5 1491.73   60.00
   4   3   5 1457.65   59.63
   4  -3   5 1483.52   59.99
   4  -3   5 1434.55   59.59
  -4  -3  -5 1423.02   59.66
   4  -3   5 1489.03   60.16
  -4   3  -5 1516.07   60.10
   4   3   5 1486.41   59.21
   4   3   6    6.20    1.06
  -4   3  -6    4.26    1.23
   4   3   6    6.64    1.37
   4  -3   6    5.84    1.22
  -4   3  -6    7.22    1.40
  -4  -3  -6    7.75    1.27
   4  -3   6    7.46    0.88
   4  -3   6    4.78    1.35
   4  -3   6    7.36    1.39
   4  -3   6    6.36    1.39
  -4   3  -6    6.17    1.37
  -4   3  -7   50.92    3.70
   4   3   7   50.67    3.57
   4   3   7   53.44    3.72
   4  -3   7   55.80    3.59
   4  -3   7   56.52    2.82
  -4   3  -7   54.02    3.85
   4  -3   7   52.44    3.66
   4  -3   7   55.77    3.88
  -4  -3  -7   55.08    3.45
   4  -3   7   53.74    3.60
   4   3   7   58.83    3.37
  -4   3  -7   57.19    3.77
  -4   3  -8   36.25    2.93
  -4   3  -8   37.60    3.11
   4   3   8   35.37    2.84
   4  -3   8   31.01    2.90
   4  -3   8   34.52    1.97
   4  -3   8   39.23    2.91
   4   3   8   45.54    3.28
  -4   3  -8   37.90    3.16
  -4  -3  -8   35.68    2.58
  -4  -3  -8   40.53    2.76
   4   3   8   39.84    2.78
   4   3   9   11.44    1.63
  -4  -3  -9   10.94    1.48
  -4   3  -9    9.11    1.83
   4   3   9    6.30    1.51
   4  -3   9    9.44    1.67
   4   3   9    9.31    1.83
   4  -3   9    9.14    1.69
  -4   3  -9   13.07    1.95
  -4   3  -9    8.98    1.69
  -4  -3  -9   14.40    1.67
   4  -3   9   11.10    1.77
   4   3  10    2.02    1.27
  -4   3 -10    0.68    1.39
   4   3  10    0.82    1.32
   4  -3  10    0.54    1.23
   4  -3  10    1.12    1.30
   4   3  10   -1.27    1.39
  -4   3 -10    1.01    1.23
  -4  -3 -10    0.21    1.06
  -4   3 -10    0.56    1.16
  -4  -3 -10    0.61    1.04
   4   3  11  454.41   18.95
  -4   3 -11  433.89   19.49
   4   3  11  409.62   18.80
   4  -3  11  407.79   18.84
   4   3  11  416.39   19.20
   4  -3  11  431.35   18.99
  -4  -3 -11  417.23   18.32
  -4   3 -11  418.53   19.32
  -4  -3 -11  451.52   18.60
  -4   3 -11  428.82   18.89
   4   3  12    3.03    1.71
  -4  -3 -12    2.07    1.12
   4   3  12    1.76    1.45
   4  -3  12    2.13    1.59
  -4  -3 -12    0.25    1.27
  -4   3 -12    0.37    1.46
  -4   3 -12    1.75    1.33
  -4   3 -12   -0.39    1.57
   4   3  13  260.48   12.31
   4  -3  13  254.55   12.40
  -4   3 -13  253.85   12.84
  -4  -3 -13  254.99   12.10
  -4   3 -13  260.77   12.29
  -4  -3 -13  249.91   11.64
   4   3  13  280.71   12.65
   4   3  14   28.20    3.13
  -4  -3 -14   21.89    2.64
  -4   3 -14   26.39    3.32
  -4   3 -14   26.74    2.76
  -4  -3 -14   27.26    2.38
  -4  -3 -15    3.42    2.00
  -4  -3 -15    2.28    1.24
  -4   3 -15    2.46    1.57
  -4   3 -15    3.97    2.06
  -4  -3 -16   22.71    2.27
  -4  -3 -16   26.00    3.38
  -4   3 -16   25.03    3.42
  -4   3 -16   22.68    2.67
  -4  -3 -17    1.41    2.16
  -4   3 -17   -0.97    2.08
  -4   3 -17    0.31    1.51
  -4  -3 -17   -0.40    1.31
  -4  -3 -18   16.68    3.29
  -4   3 -18   26.30    3.74
  -4  -3 -18   16.94    3.33
  -4   3 -18   21.94    2.69
  -4  -3 -18   17.84    2.09
  -4   3 -19   73.60    5.78
  -4  -3 -19   65.93    5.69
  -4  -3 -19   56.71    5.20
  -4   3 -19   47.31    4.08
  -4   3 -20    5.44    2.94
  -4  -3 -20    4.78    2.84
   4   4 -22   -2.59    2.77
   4   4 -21    7.89    2.82
   4   4 -20   32.43    4.02
   4  -4 -20   33.25    4.57
   4   4 -20   31.03    3.03
   4  -4 -19    4.84    1.97
   4   4 -19   -0.55    2.23
   4   4 -19    2.23    2.24
   4   4 -19   -0.27    1.38
   4  -4 -19    5.87    2.63
   4  -4 -18   14.17    2.24
   4   4 -18   19.85    3.28
   4   4 -18   22.36    3.20
   4  -4 -18   15.11    3.41
   4   4 -18   14.69    2.10
   4  -4 -17   18.43    2.31
   4   4 -17   11.93    2.72
   4   4 -17   15.54    2.83
   4  -4 -17    9.52    2.86
   4   4 -17   17.44    2.06
   4  -4 -16  158.43    7.74
  -4  -4  16  145.17    8.12
   4   4 -16  140.34    8.27
   4  -4 -16  165.73    9.35
   4   4 -16  160.55    9.03
   4   4 -16  140.57    7.30
   4  -4 -15   -0.70    1.27
   4   4 -15    0.45    1.70
   4   4 -15   -1.39    1.80
   4  -4 -15   -0.94    2.16
   4   4 -15   -0.38    0.94
   4  -4 -15   -0.34    1.48
  -4  -4  15    0.33    0.94
   4  -4 -14   47.31    3.85
   4  -4 -14   44.53    3.13
   4   4 -14   48.18    3.79
   4  -4 -14   53.94    4.47
   4   4 -14   46.97    4.21
   4   4 -14   44.61    2.90
   4   4 -13    7.16    2.14
   4  -4 -13    6.01    1.34
   4   4 -13    4.86    1.59
   4  -4 -13    5.01    2.04
   4   4 -13    7.95    1.08
   4  -4 -13    5.18    1.80
   4  -4 -12  207.01   10.78
   4   4 -12  206.83   10.12
   4   4 -12  203.84   10.65
   4   4 -12  198.39    9.04
   4  -4 -12  214.77    9.39
   4  -4 -12  210.75   10.35
  -4   4  12  210.36   10.57
  -4   4  11    3.31    1.68
   4   4 -11    3.75    1.66
   4  -4 -11    1.45    0.85
   4  -4 -11    0.74    1.48
   4   4 -11    2.91    1.37
   4   4 -11    1.31    0.69
   4  -4 -11    5.95    1.64
   4  -4 -10 1299.92   52.12
   4  -4 -10 1352.73   53.82
   4   4 -10 1247.21   52.96
   4   4 -10 1338.32   53.89
   4   4 -10 1272.71   51.73
  -4   4  10 1296.88   53.45
   4  -4 -10 1352.18   53.48
  -4   4   9    1.48    1.31
   4  -4  -9    1.88    1.35
   4   4  -9    2.80    1.53
   4  -4  -9    2.93    0.76
   4  -4  -9    1.80    1.37
   4   4  -9    2.86    0.46
   4  -4  -9    4.19    1.67
   4   4  -9    2.54    1.15
  -4  -4   8  583.29   24.56
   4  -4  -8  542.88   22.50
   4  -4  -8  564.44   24.02
   4   4  -8  556.76   23.40
  -4  -4   8  561.38   22.34
   4  -4  -8  557.40   23.96
   4  -4  -8  487.85   24.08
  -4   4   8  559.24   23.87
   4  -4  -7   -0.35    1.34
   4  -4  -7    0.38    0.47
  -4  -4   7   -0.34    1.16
  -4  -4   7    1.31    0.58
   4  -4  -7    0.84    1.14
   4   4  -7    0.62    1.00
  -4  -4   6  767.99   31.69
   4  -4  -6  733.07   29.70
   4  -4  -6  751.89   31.19
   4   4  -6  715.11   31.40
   4   4  -6  788.53   30.75
  -4  -4   6  737.30   30.11
   4  -4  -6  689.60   31.44
   4  -4  -5    2.78    1.27
   4   4  -5    1.52    1.29
  -4  -4   5    1.27    1.28
   4  -4  -5    2.20    1.10
   4  -4  -5    1.45    1.19
  -4  -4   5    2.47    0.80
   4  -4  -5    5.14    1.30
   4   4  -5    2.18    1.03
   4  -4  -4 1527.48   65.18
  -4  -4   4 1705.68   67.00
   4  -4  -4 1711.62   66.42
   4   4  -4 1661.92   66.86
  -4  -4   4 1688.77   65.83
   4  -4  -4 1606.37   66.80
   4  -4  -4 1719.62   66.70
   4   4  -4 1743.00   66.18
   4  -4  -4 1633.20   66.75
   4  -4  -3   -0.07    0.45
   4  -4  -3    0.29    0.93
  -4  -4   3    1.49    1.18
   4  -4  -3    0.28    1.00
   4   4  -3    2.24    1.18
   4  -4  -3   -0.22    0.78
   4  -4  -3   -0.26    1.02
   4  -4  -2  181.16    7.74
   4  -4  -2  175.72    8.93
   4  -4  -2  188.96    8.65
   4   4  -2  178.88    8.99
   4   4  -2  178.73    7.41
   4  -4  -2  189.21    9.05
   4  -4  -2  183.81    8.86
   4  -4  -1   32.87    1.96
  -4  -4   1   32.67    1.86
   4   4  -1   37.45    2.92
   4  -4  -1   32.25    2.80
   4  -4  -1   34.78    2.51
   4  -4  -1   36.26    2.79
   4  -4  -1   34.05    2.70
   4   4   0  243.47   10.93
   4  -4   0  227.56    9.83
  -4  -4   0  222.61    9.78
   4  -4   0  223.36   10.91
  -4  -4   0  232.32   10.01
   4  -4   0  233.05   10.72
   4  -4   1  135.49    5.97
   4   4   1  123.60    6.69
   4  -4   1  147.53    6.75
  -4  -4  -1  124.91    5.93
  -4  -4  -1  121.58    6.80
   4  -4   1  124.23    6.78
   4  -4   1  133.56    6.68
  -4  -4  -1  119.76    5.95
   4  -4   1  125.52    6.84
   4  -4   2   83.67    4.36
   4   4   2   88.59    5.05
   4  -4   2   90.84    5.16
  -4  -4  -2   86.23    5.14
  -4  -4  -2   83.02    4.40
  -4   4  -2   91.16    4.58
  -4  -4  -2   86.85    4.38
   4  -4   2   87.15    5.17
   4  -4   2   85.70    4.78
   4  -4   2   85.16    4.86
   4  -4   3   23.83    1.88
   4  -4   3   25.83    2.38
  -4  -4  -3   24.14    1.97
  -4  -4  -3   25.51    2.42
   4   4   3   22.43    2.23
   4  -4   3   22.50    2.01
   4  -4   3   25.72    2.43
  -4   4  -3   27.14    2.13
  -4  -4  -3   20.52    1.73
   4  -4   3   27.64    2.30
   4   4   4   62.04    3.87
  -4   4  -4   67.62    3.83
   4  -4   4   57.75    3.49
   4  -4   4   62.83    3.64
   4  -4   4   57.86    3.97
   4  -4   4   55.53    3.92
  -4  -4  -4   61.11    4.10
   4  -4   4   62.17    4.14
   4   4   4   56.19    3.84
   4  -4   4   67.38    3.90
  -4   4  -5    8.63    1.46
   4   4   5    8.87    1.63
   4  -4   5    9.56    1.37
   4  -4   5   12.00    1.48
  -4  -4  -5    9.51    1.68
   4  -4   5   11.73    1.80
  -4   4  -5   17.52    1.99
   4  -4   5   14.81    1.84
   4  -4   5   12.47    1.79
   4   4   5   12.36    1.59
  -4   4  -6   15.89    1.97
   4   4   6   15.43    1.89
  -4   4  -6   14.42    1.87
   4   4   6   16.82    2.04
   4  -4   6   15.03    1.74
   4  -4   6   22.01    2.19
  -4  -4  -6   12.05    1.92
   4  -4   6   24.43    2.38
   4  -4   6   14.58    1.54
   4  -4   6   15.23    1.98
   4   4   6   17.27    1.66
  -4   4  -7    1.65    1.16
   4   4   7    2.49    1.21
   4  -4   7    2.48    0.91
   4   4   7    2.67    1.29
   4  -4   7    2.99    1.17
  -4   4  -7    2.49    1.25
   4  -4   7    3.26    1.32
  -4   4  -7    0.80    1.10
   4  -4   7    1.26    1.11
   4  -4   7    3.26    1.20
   4   4   7    2.36    1.04
  -4  -4  -7    2.61    1.37
   4  -4   8  388.48   17.90
   4   4   8  400.85   18.24
   4  -4   8  410.09   18.07
   4  -4   8  414.06   17.34
  -4   4  -8  418.37   18.24
  -4   4  -8  426.75   18.64
   4   4   8  440.90   17.97
   4   4   8  397.02   18.03
   4  -4   8  420.51   18.26
  -4  -4  -8  409.82   17.42
  -4   4  -8  430.31   18.49
   4  -4   8  390.05   18.50
  -4  -4  -8  414.55   18.14
  -4   4  -9    1.29    1.39
   4   4   9    0.26    1.19
   4  -4   9    0.48    1.17
   4  -4   9   -0.27    1.26
   4   4   9   -0.30    1.44
  -4   4  -9   -0.34    1.35
   4  -4   9    0.14    0.83
  -4  -4  -9   -0.35    1.00
   4  -4   9   -0.34    1.42
  -4  -4  -9   -0.26    1.18
  -4   4  -9    1.09    1.26
   4   4   9    0.24    1.24
   4   4  10   29.15    2.74
  -4   4 -10   29.95    3.07
   4  -4  10   35.44    2.85
   4  -4  10   30.24    2.84
   4   4  10   30.01    3.00
  -4   4 -10   31.94    3.17
  -4  -4 -10   29.75    2.45
  -4   4 -10   37.73    2.92
  -4  -4 -10   35.74    2.92
   4   4  10   35.43    2.98
   4   4  11    3.72    1.43
  -4  -4 -11    3.72    1.54
  -4   4 -11    5.23    1.96
   4   4  11    4.51    1.57
   4  -4  11    5.10    1.75
   4  -4  11    3.79    1.59
   4   4  11    2.73    1.64
  -4   4 -11    3.70    1.57
  -4   4 -11    5.29    1.52
  -4  -4 -11    4.89    1.29
   4   4  12    0.31    1.55
  -4  -4 -12   -0.27    1.40
  -4   4 -12    2.00    1.66
   4   4  12    2.89    1.53
   4  -4  12    0.57    1.53
  -4   4 -12   -0.39    1.48
  -4  -4 -12    0.93    1.16
  -4   4 -12    1.12    1.26
  -4  -4 -13   -0.27    1.39
  -4  -4 -13   -0.50    1.44
  -4   4 -13    0.43    1.94
   4   4  13    2.39    1.67
   4  -4  13    0.30    1.61
  -4   4 -13   -0.41    1.81
  -4   4 -13    0.28    1.31
   4   4  13   -0.33    1.53
   4  -4  14  299.85   14.26
  -4   4 -14  301.06   14.95
  -4  -4 -14  302.86   13.96
  -4   4 -14  290.43   13.95
   4   4  14  342.04   14.79
  -4  -4 -14  297.48   13.93
  -4   4 -14  318.63   15.26
  -4  -4 -15    0.29    1.79
  -4   4 -15    0.48    2.05
  -4  -4 -15   -1.07    1.46
  -4   4 -15    2.67    2.05
  -4   4 -15   -0.28    1.32
  -4  -4 -16   -0.27    1.53
  -4   4 -16   -1.51    2.38
  -4   4 -16   -0.46    2.02
  -4   4 -16    0.83    1.42
  -4   4 -17   13.74    3.18
  -4   4 -17    7.59    1.78
  -4   4 -17    6.76    2.47
  -4  -4 -17    9.96    2.05
  -4   4 -18    7.02    2.79
  -4   4 -18    6.81    1.83
  -4   4 -18    9.96    2.85
  -4  -4 -18    5.13    1.79
  -4   4 -19   -0.52    2.42
   4   5 -20   -1.73    2.09
   4   5 -19    4.88    2.19
   4  -5 -19    8.88    3.14
   4   5 -18   -1.54    2.04
   4  -5 -18    1.13    2.66
   4   5 -18    0.41    1.19
   4   5 -17  113.32    6.91
   4  -5 -17  127.62    8.19
   4   5 -17  118.81    5.97
   4  -5 -16   -0.22    1.28
   4   5 -16    0.68    1.67
   4  -5 -16    1.01    2.33
   4   5 -16    0.49    1.02
   4  -5 -15   77.64    4.30
   4   5 -15   73.73    4.83
   4  -5 -15   77.88    5.77
   4   5 -15   65.55    3.72
   4  -5 -14    3.04    1.16
   4   5 -14    0.89    1.44
   4  -5 -14    4.93    2.25
   4   5 -14    3.63    0.90
   4  -5 -13  130.32    5.97
   4   5 -13  113.52    6.50
   4  -5 -13  129.85    7.58
   4   5 -13  117.23    5.38
   4   5 -13  129.72    6.86
   4  -5 -12    5.70    1.05
   4   5 -12    5.26    1.85
   4   5 -12    5.30    1.58
   4   5 -12    4.81    0.52
   4  -5 -12    5.16    2.13
   4   5 -12    7.69    1.62
  -4   5  11    8.85    2.15
   4  -5 -11    6.45    0.93
   4   5 -11    0.77    1.45
   4   5 -11    4.85    1.92
   4   5 -11    3.30    1.30
   4  -5 -11    3.74    1.80
   4   5 -11    4.88    1.38
   4  -5 -11    4.97    1.71
  -4   5  10   21.62    2.65
   4  -5 -10   25.17    1.52
   4  -5 -10   24.61    3.14
   4   5 -10   22.37    2.10
  -4  -5  10   21.99    3.03
   4   5 -10   22.50    2.69
   4   5 -10   16.52    2.63
   4  -5 -10   20.87    2.63
   4   5 -10   22.23    2.17
  -4   5  10   21.65    2.78
   4  -5 -10   17.79    2.46
   4  -5  -9  194.80    9.83
   4   5  -9  183.63    8.95
   4   5  -9  200.75   10.20
   4  -5  -9  199.60    9.93
  -4  -5   9  209.29   10.50
  -4   5   9  187.02    9.91
  -4   5   9  183.99    9.60
   4  -5  -9  194.63    8.02
   4  -5  -9  172.83   10.10
   4   5  -9  194.66    9.02
   4  -5  -8   13.82    2.26
   4  -5  -8   12.01    2.13
  -4  -5   8   15.80    2.50
   4   5  -8   11.42    2.40
   4  -5  -8   17.28    2.15
   4   5  -8   16.26    1.70
  -4  -5   8   13.25    1.01
   4   5  -8   13.34    1.60
  -4  -5   7   37.84    3.62
   4  -5  -7   40.94    3.31
   4   5  -7   44.32    2.84
   4   5  -7   46.55    2.79
  -4  -5   7   45.25    2.45
   4  -5  -7   36.39    3.61
   4  -5  -6    3.35    1.58
  -4  -5   6    2.26    1.46
   4  -5  -6    4.19    1.36
   4  -5  -6    1.27    1.36
   4   5  -6    1.84    0.79
   4   5  -6    3.45    1.04
  -4  -5   6    1.98    0.77
  -4  -5   5  111.94    6.85
   4   5  -5  121.08    6.79
   4  -5  -5  126.09    6.33
   4   5  -5  119.58    5.81
   4   5  -5  118.08    5.35
  -4  -5   5  108.53    5.60
   4  -5  -5  101.95    6.62
   4  -5  -5  123.92    6.65
   4  -5  -4    0.23    0.98
  -4  -5   4   -0.36    1.44
   4  -5  -4    0.31    1.22
   4   5  -4    0.08    0.50
   4   5  -4    0.35    0.83
   4   5  -4   -0.33    1.27
   4  -5  -4    1.20    1.15
   4  -5  -4   -0.69    1.15
   4  -5  -3   66.73    4.33
   4  -5  -3   63.83    4.53
  -4  -5   3   70.54    4.65
   4  -5  -3   59.40    3.82
   4  -5  -3   67.89    4.48
   4   5  -3   66.31    4.52
   4  -5  -2   21.07    1.18
   4   5  -2   21.00    2.45
   4  -5  -2   21.45    1.98
   4  -5  -2   25.27    2.50
  -4  -5   2   19.19    2.50
   4  -5  -2   24.51    2.46
   4  -5  -2   22.54    2.43
   4  -5  -1  475.13   19.65
   4  -5  -1  512.75   21.39
  -4  -5   1  492.90   19.66
   4   5  -1  473.59   21.25
   4  -5  -1  498.19   20.58
   4  -5  -1  473.05   21.33
   4  -5  -1  479.08   21.13
   4  -5  -1  465.50   21.20
   4  -5   0    6.66    1.26
   4  -5   0   11.07    1.01
  -4  -5   0    9.23    0.97
   4  -5   0   10.20    1.71
   4   5   0    6.63    1.69
   4  -5   0    7.28    1.64
  -4  -5   0   11.19    1.39
   4  -5   0    8.60    1.62
   4   5   1   12.46    1.97
   4  -5   1   15.39    1.28
   4  -5   1   17.36    2.08
  -4  -5  -1   12.77    1.28
   4  -5   1   15.24    1.99
   4  -5   1   15.67    2.05
   4  -5   1   11.52    1.73
  -4  -5  -1   13.50    1.53
  -4  -5  -2    1.75    0.87
  -4  -5  -2   -0.33    1.38
   4  -5   2    0.81    0.68
   4  -5   2    1.82    1.24
   4  -5   2    1.74    1.19
  -4   5  -2    0.82    0.72
   4  -5   2    0.30    1.08
   4   5   2    0.87    1.17
   4  -5   2    2.30    1.19
   4  -5   3    2.48    0.86
  -4  -5  -3    2.28    1.34
  -4   5  -3    2.05    0.93
   4  -5   3    3.40    1.26
   4   5   3    2.32    1.31
   4  -5   3    0.60    1.16
   4  -5   3    1.51    1.21
   4  -5   3    1.99    1.15
   4   5   4   32.14    2.66
   4  -5   4   36.42    2.80
   4   5   4   28.40    2.53
   4  -5   4   36.92    2.50
   4  -5   4   27.17    2.61
   4  -5   4   35.88    2.94
  -4   5  -4   34.95    2.59
  -4  -5  -4   33.56    3.13
   4  -5   4   34.08    3.09
   4  -5   4   30.36    2.87
   4   5   4   39.14    3.17
   4   5   5  646.81   27.27
  -4   5  -5  672.54   27.32
   4   5   5  630.34   27.15
   4  -5   5  651.82   26.94
   4  -5   5  625.85   27.44
  -4  -5  -5  646.87   27.88
   4  -5   5  625.94   27.75
   4  -5   5  634.33   27.52
   4   5   5  632.17   27.59
   4  -5   5  666.88   27.28
   4  -5   5  659.54   27.26
   4   5   6   39.53    2.94
  -4   5  -6   39.05    3.04
   4   5   6   34.22    2.89
   4  -5   6   37.16    2.78
   4  -5   6   31.90    2.93
   4  -5   6   37.51    3.26
  -4  -5  -6   38.84    3.32
   4  -5   6   37.58    2.82
   4  -5   6   35.96    3.03
   4  -5   6   40.03    2.90
   4   5   7  119.93    6.40
   4   5   7  115.29    6.46
   4  -5   7  126.39    6.35
  -4   5  -7  124.80    6.66
   4  -5   7  112.35    6.52
   4  -5   7  123.11    6.54
   4  -5   7  124.53    6.30
  -4  -5  -7  114.99    6.77
   4  -5   7  115.20    6.82
  -4   5  -8   42.03    3.38
   4   5   8   40.66    3.18
   4  -5   8   40.69    2.94
   4   5   8   44.98    3.46
   4  -5   8   42.20    3.16
   4  -5   8   39.74    3.18
   4  -5   8   46.38    3.01
   4  -5   8   39.59    3.24
   4   5   8   39.08    3.02
   4  -5   8   48.33    3.75
  -4  -5  -8   41.49    3.57
   4   5   9   20.73    2.16
   4   5   9   15.42    2.07
   4  -5   9   16.33    1.90
   4  -5   9   15.83    2.11
   4   5   9   13.78    2.14
  -4  -5  -9   14.49    1.52
   4  -5   9   16.09    1.75
   4  -5   9   17.64    2.06
   4  -5   9   11.26    2.17
  -4   5  -9   18.19    2.41
  -4  -5  -9   11.61    2.15
  -4   5 -10    2.50    1.58
   4   5  10    2.16    1.39
   4  -5  10    4.60    1.49
   4  -5  10    2.59    1.25
   4   5  10    1.30    1.58
  -4  -5 -10    2.94    1.14
   4  -5  10    3.97    1.27
  -4  -5 -10    3.56    1.73
   4   5  10    3.05    1.35
   4  -5  11   37.25    2.53
   4  -5  11   33.56    2.83
   4   5  11   26.60    2.80
  -4   5 -11   29.81    3.23
  -4   5 -11   36.33    3.45
  -4  -5 -11   29.82    2.51
   4   5  11   37.42    3.23
  -4  -5 -11   38.02    3.31
  -4   5 -12    4.08    1.98
   4   5  12    3.68    1.55
   4  -5  12    4.50    1.65
  -4   5 -12    6.77    2.11
  -4  -5 -12    2.77    1.25
   4   5  12    3.56    1.92
  -4  -5 -12    2.93    1.76
  -4   5 -13  245.75   12.56
   4  -5  13  246.12   11.67
  -4   5 -13  249.77   12.51
  -4  -5 -13  236.23   11.28
   4   5  13  264.02   12.24
  -4  -5 -13  234.57   11.85
  -4  -5 -14    0.33    1.64
  -4   5 -14   -0.46    1.95
  -4   5 -14   -0.87    1.97
  -4   5 -15   13.64    2.90
  -4  -5 -15   10.78    2.27
  -4   5 -16    2.57    2.37
  -4   5 -16    3.27    2.26
  -4  -5 -16    1.63    1.79
  -4   5 -17    2.68    2.72
  -4   5 -17    0.48    2.40
  -4  -5 -17    0.32    1.78
  -4   5 -18    4.50    2.67
  -4  -5 -18    2.84    1.83
  -4   5 -19   39.65    4.55
   4   6 -18   15.42    2.59
   4  -6 -18   13.55    3.18
   4   6 -17    5.45    1.85
   4   6 -17    3.24    2.46
   4  -6 -17    3.76    2.76
   4   6 -16    2.69    1.75
   4   6 -16   -0.52    2.41
   4  -6 -16    5.61    2.56
   4   6 -15    2.51    1.73
   4   6 -15    1.96    2.10
   4  -6 -15    1.45    2.31
   4   6 -14   21.11    2.49
   4   6 -14   26.08    3.52
   4   6 -13   -0.89    2.04
   4   6 -13   -0.47    1.35
   4  -6 -13    1.70    1.99
   4   6 -13    0.88    1.59
   4   6 -12    6.29    1.52
   4  -6 -12    3.18    1.90
   4   6 -12    7.58    1.85
  -4   6  11    1.75    1.61
  -4  -6  11    1.43    1.82
   4   6 -11   -1.21    1.65
   4   6 -11    0.98    1.15
   4  -6 -11    2.60    1.82
   4   6 -11    1.49    1.25
  -4   6  10  126.37    7.00
   4   6 -10  109.28    5.82
   4  -6 -10  126.22    7.01
   4   6 -10  124.49    7.23
   4   6 -10  119.85    6.24
  -4  -6  10  129.34    7.70
   4  -6 -10  108.62    7.40
  -4  -6   9   43.48    4.17
   4   6  -9   46.92    2.95
   4  -6  -9   52.30    3.90
   4   6  -9   47.78    3.18
   4  -6  -9   47.75    4.33
   4  -6  -8   20.06    2.92
   4   6  -8   23.73    1.84
  -4  -6   8   21.41    2.94
   4  -6  -8   17.21    2.41
   4   6  -8   20.77    1.95
  -4  -6   8   22.44    1.41
   4  -6  -7    7.04    2.12
  -4  -6   7    3.49    1.74
   4  -6  -7    5.62    1.57
   4   6  -7    3.50    0.97
   4   6  -7    4.85    1.07
  -4  -6   7    5.85    0.97
   4  -6  -6   24.85    2.98
  -4  -6   6   33.44    3.38
   4  -6  -6   26.47    2.50
   4   6  -6   23.21    1.81
  -4  -6   6   24.43    1.91
   4  -6  -6   23.83    2.81
  -4  -6   5    1.26    1.75
   4  -6  -5    1.44    1.12
   4   6  -5    2.80    0.87
   4  -6  -5    1.23    1.37
   4  -6  -5    4.50    1.66
   4   6  -4  462.84   20.77
  -4  -6   4  458.65   21.06
   4  -6  -4  499.89   21.27
   4  -6  -4  457.29   19.80
   4   6  -4  465.83   19.25
   4  -6  -4  446.42   20.56
   4  -6  -4  435.45   20.85
   4  -6  -4  467.35   20.66
   4   6  -3    2.43    0.90
   4  -6  -3    3.37    1.54
  -4  -6   3    0.81    1.51
   4  -6  -3    3.89    1.62
   4   6  -3    6.05    1.77
   4  -6  -3    5.68    1.29
   4  -6  -3    4.93    1.58
   4  -6  -3    2.36    1.47
   4   6  -2  371.70   16.35
  -4  -6   2  374.56   16.72
   4  -6  -2  333.75   15.09
   4  -6  -2  319.25   16.24
   4  -6  -2  328.25   15.97
   4  -6  -2  358.72   16.09
   4  -6  -2  379.93   16.59
   4  -6  -1    1.77    1.54
   4  -6  -1    0.37    1.42
  -4  -6   1   -0.25    0.46
   4  -6  -1    0.33    1.28
   4  -6  -1    0.18    0.89
   4   6  -1   -0.35    1.37
   4  -6  -1    0.62    1.28
   4   6   0   11.31    2.12
  -4  -6   0   17.01    1.30
   4  -6   0   15.15    2.31
   4  -6   0   15.67    1.62
   4  -6   0   17.97    2.49
   4  -6   0   13.17    2.05
   4  -6   0   14.88    2.11
   4  -6   1    2.30    1.55
   4  -6   1    5.11    1.67
   4  -6   1    3.93    1.54
   4   6   1    4.40    1.69
  -4  -6  -1    6.21    1.00
   4  -6   1    4.85    1.12
   4  -6   1    6.81    1.62
  -4   6  -2  616.04   24.91
   4  -6   2  593.35   24.68
   4  -6   2  631.96   26.13
   4  -6   2  576.27   25.90
  -4  -6  -2  613.79   26.53
   4  -6   2  589.00   26.01
   4  -6   2  577.42   24.86
   4  -6   2  606.01   25.82
   4   6   2  629.22   26.24
  -4   6  -3   -0.55    0.93
  -4  -6  -3    1.52    1.12
  -4  -6  -3   -0.39    1.47
   4  -6   3   -0.61    0.82
   4   6   3   -0.34    1.33
   4  -6   3   -0.31    1.39
   4  -6   3   -0.31    1.37
   4  -6   3    0.32    1.30
   4  -6   3   -0.28    1.14
  -4   6  -4  664.48   26.34
   4   6   4  624.19   26.27
   4   6   4  635.10   27.17
   4  -6   4  642.68   26.01
   4  -6   4  596.76   26.79
  -4  -6  -4  645.86   27.60
   4  -6   4  581.96   27.00
   4  -6   4  658.30   27.09
   4   6   4  612.01   26.51
  -4  -6  -4  586.98   26.47
   4  -6   4  631.91   26.68
   4  -6   4  618.93   26.86
   4   6   5   27.93    2.55
  -4   6  -5   31.57    2.61
   4   6   5   30.14    2.60
   4  -6   5   28.23    2.30
  -4  -6  -5   29.71    3.19
   4  -6   5   27.04    2.69
   4  -6   5   27.21    2.94
   4  -6   5   28.67    2.79
   4  -6   5   28.28    2.80
  -4  -6  -5   25.08    2.48
   4  -6   5   27.73    2.58
   4   6   6  169.54    8.58
  -4   6  -6  178.49    8.71
   4   6   6  174.58    8.62
   4  -6   6  174.32    8.41
   4  -6   6  153.13    8.67
  -4  -6  -6  192.38    9.60
   4  -6   6  163.99    9.10
   4  -6   6  184.53    9.06
   4  -6   6  181.59    8.71
   4  -6   6  183.08    8.90
   4  -6   7    0.76    1.18
  -4   6  -7   -0.28    1.26
   4   6   7   -0.25    1.22
   4  -6   7    1.53    0.97
   4  -6   7    1.65    1.31
   4  -6   7    0.83    1.35
   4   6   7    2.43    1.50
   4  -6   7    1.78    1.46
  -4  -6  -7    5.72    2.05
   4  -6   7   -0.36    1.58
   4  -6   7   -0.58    1.33
  -4   6  -8   92.74    5.42
   4   6   8   85.94    5.05
   4  -6   8   89.64    5.80
   4  -6   8   84.37    4.59
   4   6   8   78.74    5.08
   4  -6   8   78.94    4.96
   4  -6   8   81.05    5.01
   4  -6   8   88.92    5.33
  -4  -6  -8   94.41    5.83
   4  -6   8   86.65    5.17
  -4   6  -9    3.36    1.78
   4   6   9   -0.26    1.39
   4  -6   9    2.48    1.56
   4  -6   9    0.58    1.16
   4   6   9    2.45    1.60
   4  -6   9    0.77    1.68
   4  -6   9    1.57    1.44
   4  -6   9    2.06    1.40
  -4  -6  -9    3.06    1.90
  -4   6 -10   54.06    4.35
   4   6  10   53.20    3.80
   4  -6  10   54.65    3.54
   4  -6  10   54.35    3.81
  -4  -6 -10   56.38    3.19
   4  -6  10   50.69    3.63
  -4  -6 -10   57.88    4.49
  -4   6 -11    2.33    1.84
   4   6  11   -0.27    1.41
   4  -6  11    0.48    1.37
   4   6  11   -0.92    1.57
  -4  -6 -11    0.38    1.88
  -4  -6 -12  111.55    7.16
   4   6  12  118.29    6.66
   4  -6  12  127.53    6.47
   4   6  12  116.21    6.98
  -4   6 -13   18.57    3.03
  -4  -6 -13   18.88    2.83
  -4  -6 -14   40.05    3.92
  -4   6 -14   57.61    4.86
  -4   6 -15   -2.47    2.22
  -4  -6 -15   -1.54    2.03
  -4   6 -16   33.18    4.30
  -4  -6 -16   32.78    3.62
  -4   6 -17    1.45    2.39
  -4  -6 -17    0.38    2.01
  -4   6 -18   13.36    3.07
  -4   6 -19   -0.51    2.45
   4  -7 -17   65.20    5.93
   4   7 -16    2.13    2.54
   4  -7 -16   -0.51    2.46
   4   7 -15   24.83    3.65
   4  -7 -15   26.39    3.81
   4   7 -14    3.37    2.13
   4  -7 -14    3.62    2.30
   4   7 -13   82.71    4.76
   4  -7 -13   93.92    6.26
   4   7 -13   94.51    6.43
   4   7 -13   92.00    5.58
   4   7 -12    0.33    1.08
  -4  -7  12   -1.60    2.45
   4   7 -12   -2.18    2.04
   4  -7 -12   -1.20    2.15
   4   7 -12   -0.28    1.63
   4  -7 -11    1.09    2.23
   4   7 -11    2.01    1.04
  -4  -7  11    2.08    2.02
   4   7 -11    3.75    1.92
   4  -7 -11    5.59    1.97
   4   7 -11    2.28    1.40
   4   7 -10    5.58    1.07
   4   7 -10    4.38    2.08
  -4  -7  10    8.18    2.68
   4  -7 -10    5.88    2.00
   4  -7 -10    4.96    2.64
   4  -7 -10    5.78    2.40
  -4  -7   9  114.14    7.26
   4   7  -9   94.63    4.70
   4  -7  -9  117.08    6.30
   4   7  -9   99.52    6.33
   4  -7  -9   92.59    6.96
   4  -7  -9  111.96    7.13
   4  -7  -8    4.02    1.99
   4   7  -8    0.81    0.70
   4  -7  -8    3.26    1.57
   4  -7  -8    6.76    2.37
  -4  -7   8    1.50    1.83
  -4  -7   8    1.59    0.73
   4  -7  -7    7.83    2.44
  -4  -7   7    8.86    1.23
   4   7  -7    5.64    0.84
   4  -7  -7    7.97    1.76
  -4  -7   7    5.89    2.37
   4  -7  -7    7.60    2.47
   4  -7  -6   43.02    4.27
   4   7  -6   34.85    1.96
   4  -7  -6   41.27    3.12
  -4  -7   6   40.71    4.04
  -4  -7   6   42.06    2.67
   4  -7  -6   40.62    4.03
   4  -7  -5   -1.39    1.86
  -4  -7   5   -0.94    1.99
   4  -7  -5    2.30    1.26
   4  -7  -5   -0.48    1.92
   4   7  -5   -0.28    0.57
   4  -7  -4    0.91    1.67
  -4  -7   4   -0.46    1.79
   4  -7  -4   -0.42    1.08
   4   7  -4    0.23    0.62
   4  -7  -4   -0.45    1.58
   4   7  -3   89.02    4.09
   4  -7  -3   92.85    4.85
  -4  -7   3   80.46    6.05
   4  -7  -3   87.15    5.72
   4   7  -3   87.50    4.15
   4  -7  -3   90.03    6.17
   4  -7  -3   85.93    6.06
   4   7  -2    0.74    0.73
   4   7  -2    0.50    0.66
   4  -7  -2    0.42    1.61
   4  -7  -2    0.17    1.01
   4  -7  -2    1.81    1.50
   4  -7  -2    1.32    1.61
  -4  -7   2    2.31    1.76
   4   7  -1  227.35    9.59
  -4  -7   1  226.34   11.80
   4  -7  -1  230.80    9.90
  -4  -7   1  210.20    9.06
   4  -7  -1  252.39   11.80
  -4  -7   1  219.18   10.65
   4  -7  -1  237.80   11.25
   4  -7  -1  212.34   11.49
   4  -7  -1  232.95   11.24
   4  -7   0    4.41    1.85
   4   7   0    1.88    0.83
   4  -7   0    1.74    1.65
  -4  -7   0    0.58    1.25
  -4  -7   0    0.20    0.65
   4  -7   0    2.50    1.60
   4  -7   0    1.83    0.95
   4  -7   0    2.98    1.62
   4  -7   0   -0.34    1.38
   4   7   1   40.74    2.61
   4  -7   1   37.81    3.67
   4  -7   1   34.88    3.39
  -4  -7  -1   44.02    2.51
   4  -7   1   40.04    2.47
   4  -7   1   40.80    3.45
  -4  -7  -1   38.88    3.23
   4  -7   1   38.59    3.57
  -4  -7  -2   26.89    3.32
   4  -7   2   25.58    2.85
   4  -7   2   29.07    1.97
   4  -7   2   29.83    3.20
   4  -7   2   35.83    3.28
  -4  -7  -2   29.03    2.77
   4  -7   2   30.79    2.98
  -4   7  -3   24.32    2.12
  -4  -7  -3   34.46    3.59
   4  -7   3   29.00    3.09
   4  -7   3   29.56    2.94
  -4  -7  -3   25.33    2.68
   4  -7   3   27.15    1.88
   4  -7   3   23.27    2.83
   4  -7   3   22.63    2.79
   4  -7   3   23.30    2.72
   4  -7   4    8.30    2.06
  -4  -7  -4    7.08    1.70
   4   7   4    5.86    1.53
  -4   7  -4    5.53    1.32
   4  -7   4    8.28    2.14
   4   7   4    6.96    1.43
  -4  -7  -4    5.39    1.98
   4  -7   4    4.48    1.86
   4  -7   4    7.23    1.82
   4  -7   4    8.94    1.17
   4  -7   4   12.11    1.97
   4   7   5  425.78   18.33
   4  -7   5  410.13   17.31
   4  -7   5  422.07   18.85
   4   7   5  433.85   18.20
   4  -7   5  401.40   18.62
  -4   7  -5  459.59   18.35
   4  -7   5  406.64   17.41
  -4  -7  -5  431.68   19.69
   4  -7   5  388.78   18.93
   4  -7   5  463.63   19.25
  -4  -7  -5  377.65   18.45
   4  -7   5  421.59   18.58
   4  -7   6   -0.37    1.49
  -4  -7  -6    0.32    1.36
   4   7   6   -0.25    1.29
   4   7   6    0.74    1.29
  -4  -7  -6   -1.79    1.92
   4  -7   6    0.69    1.54
   4  -7   6    1.54    1.51
   4  -7   6    0.84    0.90
   4  -7   6   -0.33    1.44
  -4   7  -6    2.63    1.54
   4  -7   6    1.14    1.33
   4  -7   7    1.25    1.48
  -4   7  -7    0.86    1.39
   4   7   7    1.74    1.25
   4  -7   7    2.34    1.66
   4   7   7    1.61    1.30
   4  -7   7    4.31    1.63
  -4  -7  -7    2.22    2.02
   4  -7   7    1.15    1.59
   4  -7   7    1.11    1.37
  -4   7  -8   40.59    3.36
   4   7   8   30.87    2.85
   4  -7   8   35.44    3.05
   4   7   8   36.17    3.21
   4  -7   8   34.98    3.27
   4  -7   8   32.59    3.11
  -4  -7  -8   37.94    3.95
   4  -7   8   41.83    3.79
   4  -7   8   36.98    3.26
  -4   7  -9    2.37    1.64
   4   7   9    0.99    1.27
   4   7   9    0.31    1.62
  -4  -7  -9    0.88    2.03
   4  -7   9    0.40    1.80
   4  -7   9    0.32    1.60
  -4   7 -10    2.55    1.77
   4   7  10    5.02    1.59
  -4  -7 -10    3.53    2.22
   4  -7  10    5.68    1.85
  -4   7 -11   84.85    5.70
   4   7  11   78.62    5.01
  -4  -7 -11   75.10    5.88
  -4   7 -12   21.75    3.03
   4   7  12   22.02    2.47
  -4  -7 -12   22.57    3.42
  -4   7 -13  104.02    6.70
  -4  -7 -13   87.59    6.37
  -4   7 -14    9.86    2.72
  -4  -7 -14    8.39    2.49
  -4   7 -15   24.25    3.60
  -4  -7 -15   23.71    3.37
  -4  -7 -16   12.19    2.86
  -4  -7 -17    4.30    2.63
   4  -8 -16   31.28    4.17
   4  -8 -15   -3.30    2.39
   4   8 -15    0.52    2.51
   4  -8 -14   12.94    3.09
   4   8 -14   11.36    2.92
   4  -8 -13   16.36    3.18
   4   8 -13   18.33    3.12
  -4  -8  12   94.33    7.10
   4  -8 -12   80.22    5.78
   4   8 -12   93.57    6.37
   4   8 -11    0.43    2.12
   4  -8 -11    0.73    1.90
  -4  -8  11   -0.57    2.44
   4  -8 -11   -0.63    2.25
  -4  -8  10  343.91   16.96
   4  -8 -10  324.91   15.43
   4   8 -10  335.32   15.93
   4  -8 -10  301.54   16.55
   4  -8 -10  359.32   17.40
   4  -8  -9    0.56    2.30
   4   8  -9   -0.39    1.84
   4  -8  -9   -0.32    1.64
   4  -8  -9    1.77    2.54
  -4  -8   9    1.68    2.36
  -4  -8   8  178.88   10.66
   4  -8  -8  181.74    9.17
   4   8  -8  184.47    9.68
   4  -8  -8  173.24   10.52
   4  -8  -8  193.70   11.03
   4  -8  -7   -2.16    2.25
   4  -8  -7   -1.11    2.52
   4   8  -7    0.35    1.72
   4  -8  -7   -0.26    1.35
  -4  -8   7    0.55    2.24
   4  -8  -6  190.29   11.23
   4  -8  -6  196.25    9.70
  -4  -8   6  207.68   11.66
   4  -8  -5   20.66    3.14
   4  -8  -5   20.12    2.13
   4  -8  -5   20.92    3.34
  -4  -8   5   15.79    3.24
   4  -8  -4  288.39   13.32
  -4  -8   4  326.95   15.76
   4  -8  -4  315.92   15.56
   4  -8  -4  320.75   15.61
   4  -8  -3   18.88    3.17
   4  -8  -3   19.50    1.88
   4  -8  -3   16.64    2.97
  -4  -8   3   19.94    3.41
   4  -8  -2   48.00    2.79
  -4  -8   2   39.15    4.46
   4  -8  -2   52.03    4.68
  -4  -8   2   45.07    3.67
  -4  -8   1    3.10    2.18
   4  -8  -1    0.12    0.83
   4   8  -1    0.31    0.57
   4  -8  -1    0.95    2.09
  -4  -8   1    1.70    1.48
   4  -8  -1    0.50    1.93
   4   8  -1    0.37    0.63
   4  -8   0  169.91    9.03
   4  -8   0  138.87    6.44
   4   8   0  147.35    6.48
   4  -8   0  142.20    8.14
  -4  -8   0  146.66    6.38
  -4  -8   0  148.83    8.02
   4  -8   0  150.41    8.79
   4  -8   1    2.42    1.70
   4  -8   1    2.23    1.89
   4  -8   1    2.78    0.73
   4  -8   1    2.89    1.79
   4   8   1    2.54    0.93
  -4  -8  -1    1.39    0.92
  -4  -8  -1   -0.34    1.57
  -4  -8  -2    3.79    1.70
  -4  -8  -2    2.04    2.16
   4  -8   2    5.26    2.08
   4  -8   2    4.52    1.88
   4  -8   2    9.20    2.01
   4  -8   2    5.97    1.84
  -4  -8  -3    1.05    1.79
   4  -8   3    2.58    1.93
  -4  -8  -3    4.07    2.31
   4  -8   3    1.37    1.49
   4  -8   3    3.00    1.64
   4   8   3    0.52    1.36
   4  -8   3    0.75    1.53
  -4  -8  -4   -0.35    1.74
  -4   8  -4    0.77    1.07
   4   8   4    1.50    1.41
   4  -8   4    0.37    1.65
  -4  -8  -4    0.51    2.04
   4   8   4    0.20    1.18
   4  -8   4   -0.67    1.77
   4  -8   4   -0.37    1.63
   4  -8   4   -0.42    1.86
  -4   8  -5   21.88    2.17
  -4  -8  -5   18.70    2.61
   4   8   5   19.96    2.22
  -4  -8  -5   17.83    3.13
   4   8   5   21.62    2.27
   4  -8   5   24.93    2.84
   4  -8   5   20.93    3.02
   4  -8   5   18.97    2.69
   4  -8   5   15.88    2.53
  -4   8  -6   -0.51    1.45
  -4  -8  -6   -0.36    1.59
   4   8   6   -0.24    1.22
  -4  -8  -6    2.54    2.43
   4  -8   6    0.41    2.03
   4  -8   6    0.69    1.68
   4   8   6    1.22    1.44
   4  -8   6    1.27    1.56
   4  -8   6    3.90    1.98
  -4   8  -7   -0.58    1.54
   4   8   7    3.06    1.45
   4  -8   7    0.39    1.81
  -4  -8  -7   -0.51    2.36
   4   8   7   -0.27    1.54
   4  -8   7   -1.20    1.86
  -4   8  -8  107.35    6.06
   4   8   8   84.09    5.35
   4   8   8   91.12    5.77
   4  -8   8  109.58    6.52
  -4  -8  -8  101.24    7.12
   4  -8   8  119.46    6.76
  -4   8  -9   11.14    2.33
  -4  -8  -9   15.56    3.03
   4  -8   9    6.34    2.09
  -4   8 -10    8.75    2.18
  -4  -8 -10    7.01    2.79
   4  -8  10    7.74    2.27
  -4   8 -11   -0.39    1.96
  -4  -8 -11   -0.50    2.27
  -4   8 -12    0.42    2.04
  -4  -8 -12   -0.50    2.35
  -4  -8 -13   -1.98    2.46
  -4   8 -13   -0.89    2.41
  -4   8 -14  118.66    7.65
  -4  -8 -14  111.53    7.66
  -4  -8 -15    1.96    2.62
  -4  -8 -16    0.49    2.52
   4   9 -13   30.02    3.90
   4   9 -12    1.36    2.33
  -4  -9  12    4.33    3.33
   4   9 -11    0.86    2.17
  -4  -9  11   -0.61    2.59
   4   9 -10    1.23    2.20
  -4  -9  10    1.83    2.70
   4  -9 -10   -1.96    2.84
   4   9  -9   41.90    4.04
  -4  -9   9   40.88    4.88
   4  -9  -9   45.93    5.28
   4   9  -8    5.23    2.24
   4  -9  -8    4.99    2.73
  -4  -9   8    4.24    2.83
   4  -9  -7   17.73    3.71
   4   9  -7   14.98    2.46
  -4  -9   7   13.85    3.59
   4  -9  -6    7.79    3.08
   4   9  -6    5.78    1.87
  -4  -9   6    6.57    2.80
   4  -9  -5   47.52    5.13
  -4  -9   5   50.68    5.19
   4   9  -5   46.34    3.89
   4  -9  -5   57.68    5.25
   4  -9  -4    1.69    2.02
  -4  -9   4    0.57    2.68
  -4  -9   4    2.34    1.91
   4  -9  -4    2.29    2.84
   4  -9  -3    2.80    2.29
  -4  -9   3   -0.58    2.14
  -4  -9   3    2.31    1.77
   4  -9  -3    2.24    2.37
   4  -9  -2    2.75    2.40
  -4  -9   2    7.80    2.17
  -4  -9   2    8.15    2.93
   4  -9  -2    0.56    2.19
  -4  -9   1   42.66    4.74
   4  -9  -1   47.87    4.61
   4  -9  -1   43.38    4.63
  -4  -9   1   31.20    3.52
   4  -9   0    2.07    2.23
   4  -9   0    0.55    2.15
  -4  -9   0    3.88    1.90
  -4  -9  -1    6.99    1.99
   4   9   1    6.10    0.72
   4  -9   1   12.27    2.45
   4  -9   1    8.18    2.62
  -4  -9  -2    2.73    1.98
   4  -9   2    6.52    2.68
  -4  -9  -2   -1.14    2.69
   4   9   2    2.63    1.45
   4  -9   2    8.06    2.33
   4  -9   2    2.17    2.40
  -4  -9  -3   15.81    2.55
   4   9   3   12.93    2.08
  -4  -9  -3   12.49    3.08
   4  -9   3   12.97    2.43
   4  -9   3   15.23    3.01
   4  -9   3   15.35    3.17
   4  -9   4   -0.48    2.12
  -4  -9  -4   -0.80    1.73
  -4  -9  -4    5.66    2.68
   4  -9   4    1.16    1.75
  -4   9  -5  102.26    5.58
  -4  -9  -5  117.01    7.83
   4  -9   5  123.64    7.52
   4  -9   5  104.53    6.73
  -4  -9  -5  100.03    6.53
  -4   9  -6    1.42    1.42
  -4  -9  -6    0.40    1.74
   4  -9   6    3.71    2.40
  -4  -9  -6    2.26    2.68
   4  -9   6   -1.60    1.90
  -4   9  -7   83.68    4.98
   4  -9   7   80.58    5.98
  -4  -9  -7   74.23    6.44
   4  -9   7   72.49    5.44
   4  -9   8    0.44    2.04
  -4   9  -8   -1.82    1.64
  -4  -9  -8   -0.56    2.49
  -4   9  -9    3.36    1.84
  -4  -9  -9    4.50    2.73
  -4   9 -10    0.72    2.02
  -4  -9 -10   -1.12    2.72
  -4   9 -11    8.51    2.49
  -4  -9 -11    7.27    3.00
  -4   9 -12   -2.89    2.49
  -4   9 -13   58.56    5.10
   4  10 -11    0.43    2.22
   4  10 -10   16.88    3.04
   4  10  -9    4.30    2.18
   4  10  -8   -0.37    2.06
   4  10  -7    0.71    1.90
   4  10  -6    1.67    1.81
   4  10  -5    1.28    1.80
   4 -10  -5   -1.95    2.78
  -4 -10   5    1.92    2.75
  -4 -10   5    3.06    2.29
   4 -10  -4  172.76   10.30
  -4 -10   4  172.12   10.29
   4  10  -4  145.81    8.10
  -4 -10   4  143.70    8.79
   4  10  -3    1.15    1.73
   4 -10  -3    0.61    2.68
  -4 -10   3   -2.54    2.89
  -4 -10   3    0.44    1.99
   4  10  -2   45.92    3.64
  -4 -10   2   47.96    4.47
  -4 -10   2   42.75    5.33
   4 -10  -1    3.56    2.66
   4 -10  -1    2.31    2.00
  -4 -10   1    3.03    2.03
  -4 -10   1    1.27    2.69
   4 -10   0   12.26    3.41
  -4 -10   0   11.61    2.48
   4 -10   0    8.50    2.40
  -4 -10  -1   13.77    2.83
   4 -10   1   22.30    3.91
   4 -10   1    9.99    2.54
   4 -10   1   20.14    3.75
   4 -10   2   91.95    6.08
   4 -10   2   91.90    6.91
  -4 -10  -2   87.87    6.28
   4 -10   2   91.58    7.15
   4 -10   3    1.10    2.59
  -4 -10  -3    0.87    2.23
  -4 -10  -3   -0.62    2.64
   4 -10   3    1.93    2.23
  -4 -10  -4   50.38    5.66
   4 -10   4   69.63    5.81
   4 -10   4   62.12    4.80
  -4 -10  -4   48.53    4.62
  -4 -10  -5    0.43    2.27
   4 -10   5   -0.53    2.70
   4 -10   5    0.79    1.99
  -4 -10  -6    9.10    2.50
   4 -10   6    7.23    3.03
   4 -10   6    4.43    2.31
   4 -10   7   -1.01    2.53
  -4 -11   6    1.92    2.30
  -4 -11   5    0.96    2.40
  -4 -11   4    0.48    2.21
  -4 -11   3    3.83    2.43
  -4 -11   2    2.37    2.27
  -4 -11   1   14.96    3.02
  -4 -11   0    0.47    2.37
  -4 -11  -1   10.24    2.79
  -4 -11  -2    1.40    2.42
  -4 -11  -3    7.00    2.60
  -4 -11  -4    1.38    2.54
  -4 -11  -5   58.15    5.17
   5   0 -22   -2.56    2.65
   5   0 -21  154.78    9.21
   5   0 -21  146.31    9.70
   5   0 -20   -1.41    2.26
   5   0 -20    1.18    2.54
   5   0 -19   13.94    2.93
   5   0 -19   12.32    2.91
   5   0 -19   12.03    2.01
   5   0 -18    0.43    1.79
   5   0 -18   -1.06    2.48
   5   0 -18   -0.52    1.43
   5   0 -17    5.69    2.10
   5   0 -17    9.13    2.39
   5   0 -17    7.71    1.74
   5   0 -16    1.91    1.85
   5   0 -16   -0.49    2.09
   5   0 -16    1.01    1.23
   5   0 -15  129.41    7.59
   5   0 -15  137.41    7.02
  -5   0  14   -1.09    1.89
  -5   0  14   -1.02    1.70
   5   0 -14   -0.68    1.49
   5   0 -14   -0.24    1.25
  -5   0  13   21.57    2.75
  -5   0  13   22.79    2.59
   5   0 -13   24.52    2.65
  -5   0  13   19.16    2.13
   5   0 -13   19.28    2.05
  -5   0  12    0.33    1.45
  -5   0  12    0.59    1.35
   5   0 -12   -0.30    1.24
  -5   0  12   -0.76    0.93
  -5   0  11   10.20    2.03
  -5   0  11   16.55    2.07
  -5   0  11   12.43    1.79
  -5   0  10   -0.50    1.10
  -5   0  10   -0.25    0.92
  -5   0   9  527.14   21.91
  -5   0   9  496.03   21.92
  -5   0   8    0.41    0.95
  -5   0   8    0.25    0.92
  -5   0   7    1.23    0.90
  -5   0   7    2.04    0.98
   5   0  -7    0.60    0.98
  -5   0   6    1.32    0.78
   5   0  -6    1.15    1.10
   5   0  -5  244.59   11.52
  -5   0   5  243.47   10.62
  -5   0   5  239.67   11.18
  -5   0   4   -0.13    0.53
  -5   0   4   -0.46    0.75
  -5   0   3 1427.03   57.26
  -5   0   3 1395.98   56.38
   5   0  -2   -0.40    0.73
  -5   0   2    0.23    0.64
   5   0  -1   58.85    3.57
   5   0  -1   59.11    3.54
  -5   0   1   65.94    3.87
   5   0  -1   58.27    2.88
   5   0   0    0.33    0.66
   5   0   0    1.07    0.35
  -5   0   0    0.47    0.70
   5   0   1  245.65   10.77
  -5   0  -1  243.25   11.12
  -5   0  -1  245.93   11.33
  -5   0  -2   -0.22    0.70
   5   0   2    0.52    0.61
  -5   0  -2    0.24    0.73
   5   0   3  152.30    6.72
  -5   0  -3  144.61    7.43
  -5   0  -3  151.71    7.61
   5   0   4    0.09    0.45
  -5   0  -4    0.53    0.94
  -5   0  -4   -0.95    0.87
  -5   0  -5   88.98    5.13
   5   0   5   88.77    3.95
   5   0   6    0.78    0.93
   5   0   6   -0.23    0.81
  -5   0  -6    0.27    0.90
  -5   0  -7  185.26    9.53
   5   0   7  178.69    9.27
  -5   0  -7  207.50    9.60
   5   0   7  195.94    9.25
  -5   0  -8    0.32    1.15
  -5   0  -8   -0.63    1.05
   5   0   8    2.23    1.20
  -5   0  -8   -0.30    1.04
   5   0   8    0.51    1.07
  -5   0  -9  619.64   27.12
   5   0   9  592.30   26.70
  -5   0  -9  646.43   27.09
  -5   0  -9  651.17   27.13
  -5   0 -10    0.72    1.37
   5   0  10   -1.21    1.36
   5   0  10   -0.33    1.38
  -5   0 -10    0.69    1.29
  -5   0 -10    0.34    1.35
  -5   0 -11  175.19    9.68
   5   0  11  174.11    9.27
   5   0  11  189.32    9.62
  -5   0 -11  190.48    9.78
  -5   0 -11  191.83    9.70
  -5   0 -12   -0.40    1.44
  -5   0 -12   -0.37    1.46
  -5   0 -12   -0.39    1.53
  -5   0 -13    0.42    1.68
  -5   0 -13    2.93    1.77
  -5   0 -13    5.38    1.97
  -5   0 -14    0.45    1.77
  -5   0 -14   -1.33    1.93
  -5   0 -14    0.40    1.71
  -5   0 -15  321.20   15.15
  -5   0 -15  299.45   15.39
  -5   0 -16   -0.11    0.79
  -5   0 -16    0.49    2.25
  -5   0 -16   -0.85    1.96
  -5   0 -17  180.60    9.99
  -5   0 -17  185.62    9.60
  -5   0 -17  158.81    6.94
  -5   0 -18    2.17    2.37
  -5   0 -18    2.68    2.22
  -5   0 -19   18.56    3.38
  -5   0 -19   11.37    2.67
  -5   0 -19   14.74    3.22
  -5   0 -20    0.46    2.24
  -5   0 -21   16.81    3.13
   5  -1 -22   10.56    2.94
   5  -1 -21    3.66    2.44
   5   1 -21   -0.52    2.42
   5   1 -21   -0.60    2.66
   5  -1 -20    6.51    2.52
   5   1 -20    0.50    2.19
   5   1 -20    3.44    2.61
   5  -1 -19    2.09    1.98
   5   1 -19    0.96    2.16
   5   1 -19    0.54    2.27
   5  -1 -19    6.36    1.91
   5  -1 -18   37.65    3.65
   5   1 -18   27.53    3.45
   5   1 -18   27.81    3.78
   5  -1 -18   33.84    3.20
   5  -1 -17   32.72    3.43
   5   1 -17   37.33    3.89
   5   1 -17   36.47    4.04
   5  -1 -17   39.96    3.38
   5  -1 -16    0.71    1.59
   5   1 -16    3.29    2.08
   5  -1 -16   -0.60    1.35
   5   1 -16    0.82    1.82
   5  -1 -15   28.85    2.99
   5   1 -15   32.67    3.27
   5  -1 -15   31.43    3.49
   5   1 -15   24.39    3.13
   5  -1 -15   24.64    2.70
  -5  -1  15   29.44    2.52
   5   1 -14  165.87    9.62
   5  -1 -14  193.08    9.37
   5   1 -14  182.18    9.61
   5  -1 -14  191.31   10.12
   5   1 -14  192.59    9.99
  -5   1  14  202.26    9.75
   5  -1 -14  187.98    9.11
  -5  -1  14  155.55    9.23
  -5  -1  14  168.32    8.66
  -5   1  13   20.01    2.70
  -5  -1  13   18.73    2.60
  -5   1  13   23.52    2.80
   5  -1 -13   22.30    2.44
   5   1 -13   20.40    2.59
   5   1 -13   23.62    2.93
   5  -1 -13   29.11    3.16
   5   1 -13   27.17    3.05
   5  -1 -13   22.59    2.39
  -5  -1  13   24.41    2.29
   5   1 -12  170.90    9.00
   5  -1 -12  155.73    8.28
   5  -1 -12  169.08    9.17
   5   1 -12  162.62    8.96
   5  -1 -12  155.74    8.23
  -5   1  12  163.18    8.71
   5   1 -12  162.77    7.80
  -5   1  12  182.54    8.80
  -5   1  12  150.93    8.17
  -5  -1  12  174.19    8.21
  -5   1  11   18.28    2.43
  -5   1  11   20.10    2.30
  -5   1  11   20.06    2.22
   5   1 -11   18.53    1.79
   5  -1 -11   18.82    2.54
   5   1 -11   20.97    2.58
   5  -1 -11   22.33    2.29
  -5  -1  11   19.94    2.03
   5  -1 -10  109.26    6.04
   5  -1 -10  113.03    6.62
   5   1 -10  111.43    6.54
  -5   1  10  116.87    6.22
   5   1 -10  107.10    5.63
  -5   1  10  107.04    6.04
  -5  -1  10  113.79    6.03
   5   1  -9    0.64    1.27
  -5   1   9    0.75    1.10
   5   1  -9    0.56    0.77
   5   1  -9    0.66    1.31
   5  -1  -9    0.51    1.05
   5  -1  -9    1.70    1.37
  -5   1   9    0.52    0.90
   5   1  -8 1814.37   71.70
   5  -1  -8 1825.98   71.73
   5   1  -8 1714.33   70.68
   5  -1  -8 1759.79   71.17
  -5   1   8 1792.49   71.04
  -5   1   8 1663.59   71.19
  -5   1   7    1.88    0.91
   5   1  -7    2.24    0.84
   5  -1  -7    0.61    1.04
  -5   1   7    3.04    1.09
  -5   1   6  154.90    7.84
   5  -1  -6  162.73    8.28
  -5  -1   6  155.44    7.56
   5   1  -6  154.88    7.49
  -5   1   6  158.09    7.52
   5  -1  -5   -0.28    0.83
  -5  -1   5    0.86    0.59
  -5   1   5    0.36    0.74
  -5  -1   5    0.41    0.86
   5   1  -5    1.34    0.84
  -5   1   5    0.98    0.90
   5   1  -4  840.18   34.69
  -5  -1   4  846.72   34.36
   5  -1  -4  861.52   34.81
  -5  -1   4  837.36   33.56
  -5   1   4  820.02   34.66
   5  -1  -4  792.05   33.99
   5   1  -4  838.52   34.27
  -5   1   4  882.19   34.69
  -5   1   4  791.51   34.01
  -5  -1   3   22.52    1.46
   5   1  -3   21.59    2.13
   5   1  -3   26.52    1.99
  -5   1   3   26.77    2.33
  -5  -1   3   30.52    2.28
   5   1  -3   28.23    2.19
   5  -1  -3   23.63    1.84
  -5   1   3   29.22    2.40
   5   1  -2  798.56   31.83
   5   1  -2  726.54   31.34
  -5   1   2  775.27   32.05
  -5  -1   2  751.57   30.57
  -5  -1   2  785.83   31.76
   5  -1  -2  776.16   31.22
  -5   1   2  801.81   32.02
   5   1  -2  754.77   31.63
  -5   1   1    0.94    0.82
   5   1  -1    0.17    0.62
   5   1  -1    0.99    0.95
  -5   1   1    2.26    0.90
  -5  -1   1    1.30    0.84
   5  -1  -1    1.43    0.57
   5   1   0  361.43   15.88
  -5  -1   0  355.17   15.86
   5   1   0  384.60   15.88
   5  -1   0  376.79   15.51
  -5  -1   0  375.21   16.23
  -5   1   0  363.72   16.37
   5  -1   1   -0.41    0.83
  -5  -1  -1    0.37    0.74
   5   1   1    0.36    0.71
  -5   1  -1    1.27    0.73
  -5  -1  -1   -0.23    0.87
   5   1   1   -0.17    0.73
   5  -1   2  448.03   19.67
  -5   1  -2  462.79   19.90
  -5  -1  -2  461.61   19.60
   5   1   2  461.54   19.27
  -5   1  -2  453.63   20.03
  -5  -1  -2  473.69   19.93
   5  -1   3    0.89    0.95
  -5   1  -3   -0.25    0.78
   5   1   3   -0.14    0.63
  -5  -1  -3   -0.63    0.70
  -5  -1  -3    1.01    1.01
   5   1   3    0.69    0.78
   5  -1   4   42.64    3.03
   5  -1   4   40.21    2.17
  -5  -1  -4   41.92    3.16
  -5   1  -4   37.63    3.00
  -5  -1  -4   39.96    2.94
   5   1   4   43.66    2.46
   5  -1   4   46.56    3.19
   5   1   5  212.37    9.86
   5  -1   5  194.92    9.62
   5   1   5  196.73    8.78
   5  -1   5  200.98    8.30
  -5   1  -5  208.08    9.89
  -5  -1  -5  210.11    9.75
  -5  -1  -5  206.26    8.83
  -5  -1  -5  208.41    9.89
   5  -1   6  365.14   16.24
  -5  -1  -6  361.16   15.19
  -5   1  -6  377.42   16.54
  -5  -1  -6  353.46   16.25
   5  -1   6  375.45   16.32
  -5   1  -6  378.14   16.54
   5   1   6  366.32   15.18
   5  -1   7    1.05    1.02
  -5  -1  -7    0.26    0.49
  -5   1  -7   -0.30    0.99
  -5  -1  -7    1.12    0.98
  -5   1  -7    1.19    1.16
  -5   1  -8  125.02    7.38
  -5  -1  -8  136.60    5.94
   5  -1   8  135.93    7.24
  -5   1  -8  142.19    7.52
  -5  -1  -8  140.91    7.41
  -5   1  -8  148.98    7.60
  -5   1  -9    1.70    1.30
   5  -1   9    1.44    1.12
  -5  -1  -9    1.85    0.44
  -5   1  -9   -0.34    1.23
  -5  -1  -9    1.62    1.23
   5  -1   9    2.07    1.27
  -5   1  -9    1.29    1.18
  -5  -1  -9    3.37    1.47
  -5  -1 -10  213.65   10.64
  -5  -1 -10  197.49   10.55
   5  -1  10  208.13   10.43
   5   1  10  209.20   10.49
   5  -1  10  204.63   10.21
  -5  -1 -10  209.95   10.58
  -5   1 -10  217.40   10.59
  -5   1 -10  206.93   10.63
  -5  -1 -11   82.05    5.51
  -5   1 -11  100.56    5.86
   5   1  11   81.83    5.20
   5  -1  11   85.87    5.40
   5   1  11   82.96    5.40
   5  -1  11   69.44    4.92
  -5  -1 -11   81.13    5.45
  -5  -1 -11   85.74    5.54
  -5   1 -11   77.23    5.24
  -5   1 -11   77.74    4.29
  -5  -1 -12    4.01    1.85
  -5   1 -12    3.25    1.80
   5  -1  12    2.84    1.70
  -5  -1 -12   -1.59    1.54
  -5   1 -12    2.41    0.88
  -5   1 -12    2.15    1.68
  -5  -1 -12    1.54    1.58
  -5  -1 -13    7.20    2.23
  -5   1 -13    7.34    2.11
  -5  -1 -13   10.12    2.13
  -5   1 -13    9.64    2.04
  -5  -1 -13    8.06    2.06
  -5   1 -13    6.53    1.04
  -5  -1 -14  116.82    7.36
  -5   1 -14  120.75    7.42
  -5  -1 -14  125.52    7.24
  -5  -1 -14  117.95    7.30
  -5   1 -14  103.95    5.14
  -5   1 -14  121.15    6.97
  -5  -1 -15   -0.47    1.95
  -5   1 -15    0.96    1.94
  -5  -1 -15   -0.87    2.00
  -5   1 -15   -0.93    1.84
  -5  -1 -15   -1.42    2.15
  -5   1 -15    1.57    1.79
  -5   1 -15   -0.13    0.57
  -5  -1 -16  168.06    9.56
  -5   1 -16  155.73    9.45
  -5   1 -16  145.84    9.19
  -5  -1 -16  160.28    9.44
  -5   1 -16  158.51    8.93
  -5  -1 -16  172.05    9.34
  -5  -1 -17   10.80    2.92
  -5   1 -17    9.56    2.86
  -5   1 -17   11.79    2.78
  -5  -1 -17    5.23    2.34
  -5   1 -17    6.16    2.28
  -5  -1 -17   12.42    2.66
  -5  -1 -18  132.78    8.90
  -5   1 -18  161.06    9.48
  -5   1 -18  157.26    9.30
  -5  -1 -18  141.07    9.14
  -5   1 -18  135.40    8.39
  -5  -1 -18  155.76    8.93
  -5  -1 -19    1.12    2.72
  -5   1 -19    4.63    2.73
  -5  -1 -19    0.97    2.43
  -5   1 -19    2.12    2.12
  -5   1 -19    2.24    2.62
  -5   1 -20    9.79    2.79
  -5  -1 -20    5.45    2.74
  -5   1 -21    5.54    2.43
  -5  -1 -21    4.54    2.62
   5  -2 -23   31.62    4.18
   5  -2 -22   -1.35    2.45
   5  -2 -21   72.30    5.43
   5   2 -21   72.55    6.12
   5   2 -21   56.73    5.78
   5  -2 -20    0.81    1.91
   5   2 -20    3.19    2.36
   5   2 -20    4.98    2.71
   5  -2 -20    3.70    2.69
   5  -2 -19  172.30    9.23
   5   2 -19  160.26    9.98
   5  -2 -19  151.26   10.13
   5  -2 -18   14.11    2.38
   5   2 -18   12.18    2.80
   5   2 -18   11.42    2.86
   5  -2 -18   10.56    3.08
   5   2 -18    9.13    1.04
   5  -2 -17  381.22   16.80
   5   2 -17  412.45   17.91
   5  -2 -17  371.70   17.96
   5   2 -17  391.82   17.68
   5  -2 -17  381.90   16.94
   5   2 -17  335.66   14.99
   5  -2 -16   -1.29    1.63
   5   2 -16   -1.32    1.74
   5   2 -16   -0.45    1.91
   5  -2 -16    0.51    1.93
   5   2 -16    0.23    0.80
   5  -2 -16    1.04    1.68
  -5  -2  16    0.21    1.06
   5  -2 -15   42.36    3.57
   5   2 -15   56.79    4.48
   5  -2 -15   46.52    4.47
   5   2 -15   48.24    4.16
   5   2 -15   46.69    2.69
   5  -2 -15   42.28    3.82
  -5  -2  15   46.58    3.20
   5  -2 -14   29.52    2.74
   5   2 -14   29.92    3.15
   5  -2 -14   24.98    2.84
   5   2 -14   22.15    3.09
   5  -2 -14   34.20    3.56
   5   2 -14   29.22    3.14
   5   2 -14   23.26    1.81
  -5  -2  14   23.85    2.37
  -5   2  13  798.96   36.87
   5   2 -13  872.70   37.33
   5  -2 -13  886.10   36.38
   5   2 -13  910.37   37.32
   5  -2 -13  908.34   37.73
   5   2 -13  890.36   37.24
   5  -2 -13  870.11   36.76
   5   2 -13  831.94   35.39
  -5   2  13  928.80   37.14
  -5  -2  13  895.05   36.19
  -5   2  12    0.33    1.50
   5  -2 -12    0.49    1.12
   5   2 -12   -0.39    1.65
  -5  -2  12    0.73    1.09
   5  -2 -12   -0.41    1.56
   5   2 -12    1.80    0.80
   5  -2 -12   -0.31    1.39
   5   2 -12    1.46    1.54
   5   2 -11  128.96    7.29
   5  -2 -11  124.72    6.41
   5  -2 -11  127.89    7.34
   5   2 -11  122.94    7.04
   5   2 -11  110.12    5.72
   5  -2 -11  137.82    6.97
  -5   2  11  121.06    6.84
  -5   2  10    0.29    1.24
   5   2 -10    1.31    1.42
   5  -2 -10    0.88    1.10
   5   2 -10    0.15    0.76
   5  -2 -10    1.45    1.35
  -5   2   9    2.45    1.34
   5  -2  -9    4.31    1.27
   5  -2  -9    3.79    1.44
   5   2  -9    4.37    1.46
   5   2  -9    1.20    0.70
  -5   2   9    3.12    1.26
   5   2  -8    0.66    1.13
   5   2  -8    1.77    1.14
   5  -2  -8    1.41    1.21
   5  -2  -8    0.98    1.09
   5   2  -8    0.15    0.70
  -5   2   8    2.23    1.02
  -5   2   8    2.04    1.23
   5   2  -7 1034.26   43.56
   5  -2  -7 1075.10   43.56
   5   2  -7 1111.12   43.53
  -5  -2   7 1042.06   42.60
   5  -2  -7 1041.36   43.30
  -5   2   7 1024.97   43.06
  -5   2   7 1039.57   43.27
   5   2  -7 1024.72   42.46
   5   2  -6    4.39    1.30
   5  -2  -6    2.18    0.98
  -5   2   6    2.75    1.06
   5   2  -6    1.81    0.87
  -5  -2   6    2.37    0.86
   5  -2  -6    4.74    1.30
  -5   2   6    2.40    1.00
   5   2  -5  449.05   19.21
   5   2  -5  506.74   20.30
  -5   2   5  444.04   19.75
   5  -2  -5  467.02   20.29
  -5  -2   5  475.64   19.64
   5  -2  -5  460.47   19.89
  -5   2   5  449.16   20.10
   5  -2  -4    4.04    1.18
   5  -2  -4    3.02    0.95
   5   2  -4    3.79    0.80
  -5  -2   4    2.49    0.90
   5   2  -4    3.39    1.09
  -5   2   4    2.83    1.06
   5   2  -3   78.37    4.44
   5   2  -3   74.07    3.69
  -5  -2   3   67.26    4.03
   5  -2  -3   69.14    4.06
  -5   2   3   65.71    4.29
  -5  -2   2    1.30    0.30
   5   2  -2    1.56    0.64
  -5   2   2    2.21    1.01
  -5  -2   2    1.43    0.81
   5   2  -2    2.12    1.06
  -5   2   2    1.72    0.80
   5  -2  -2    0.75    0.73
  -5   2   1  443.39   19.35
  -5  -2   1  456.67   19.09
   5  -2  -1  425.55   18.65
   5   2  -1  428.92   18.98
   5   2  -1  452.07   18.44
  -5  -2   1  435.03   18.93
   5  -2  -1  442.32   18.70
  -5  -2   0    2.23    0.97
   5  -2   0    0.36    0.72
   5   2   0    1.04    0.94
  -5  -2   0    2.52    0.90
  -5  -2   0    0.48    0.61
   5   2   0    1.90    0.72
  -5   2   0    3.58    1.24
   5  -2   0    1.90    0.81
   5  -2   1 3182.61  128.83
  -5  -2  -1 3233.19  128.91
  -5  -2  -1 3294.61  128.67
   5   2   1 3158.37  128.84
  -5  -2  -1 3242.84  129.09
   5   2   2    8.85    1.34
   5  -2   2   12.29    1.48
   5  -2   2   14.80    1.80
  -5  -2  -2   13.58    1.55
  -5  -2  -2   12.83    1.40
  -5  -2  -2   13.23    1.67
   5   2   2   11.46    1.20
  -5   2  -2   12.36    1.53
   5  -2   3  120.64    6.36
  -5  -2  -3  124.42    6.22
  -5  -2  -3  121.58    6.31
   5   2   3  126.32    5.92
   5  -2   3  131.60    6.81
  -5  -2  -3  128.23    6.73
   5   2   3  130.60    5.33
  -5   2  -3  123.62    6.44
   5   2   3  119.42    6.17
   5  -2   4   79.76    4.61
   5   2   4   81.11    4.33
  -5  -2  -4   84.42    4.39
  -5   2  -4   79.97    4.95
  -5  -2  -4   74.90    4.51
   5  -2   4   91.51    4.99
   5   2   4   80.02    4.16
  -5   2  -4   84.08    5.01
   5  -2   4   80.37    4.86
  -5  -2  -4   83.87    4.93
   5   2   4   80.70    3.77
  -5   2  -4   81.42    4.59
  -5   2  -5   21.00    2.16
  -5   2  -5   22.04    2.29
   5  -2   5   20.72    2.12
  -5  -2  -5   20.67    1.79
  -5   2  -5   21.73    2.33
  -5  -2  -5   22.23    2.15
   5  -2   5   27.89    2.40
   5   2   5   21.01    1.78
   5  -2   5   21.90    1.31
   5   2   5   19.67    1.69
   5  -2   5   22.09    2.24
   5   2   5   20.45    1.50
   5  -2   5   18.36    2.11
  -5   2  -5   24.29    2.04
  -5   2  -6    4.80    1.31
   5   2   6    3.54    0.83
   5   2   6    2.44    1.08
   5  -2   6    3.20    1.14
  -5  -2  -6    4.38    1.21
   5  -2   6    2.20    1.19
   5   2   6    3.60    0.94
  -5  -2  -6    4.49    0.96
   5  -2   6    2.01    1.15
  -5   2  -6    1.50    1.13
   5  -2   6    2.93    1.30
  -5   2  -6    2.98    0.93
   5   2   7 1022.94   43.57
   5  -2   7 1018.59   43.44
  -5  -2  -7 1011.82   42.64
  -5  -2  -7 1089.65   43.72
   5  -2   7 1060.34   43.64
  -5   2  -7 1027.09   42.96
  -5   2  -7 1087.93   43.92
   5   2   7 1125.77   42.87
   5   2   8   37.27    3.04
   5  -2   8   27.26    2.69
  -5  -2  -8   30.41    2.15
  -5  -2  -8   32.68    2.90
  -5   2  -8   33.34    2.97
   5   2   8   33.48    2.42
  -5   2  -8   32.66    2.39
  -5   2  -9  256.09   12.35
   5   2   9  258.13   12.20
   5  -2   9  249.75   12.06
  -5  -2  -9  251.14   11.15
  -5  -2  -9  272.21   12.52
   5   2   9  283.63   11.78
  -5   2  -9  243.84   11.31
   5   2  10    1.17    1.17
   5   2  10    1.23    1.30
   5  -2  10    0.31    1.50
   5  -2  10    0.89    1.39
  -5  -2 -10    0.35    1.38
  -5   2 -10    2.30    1.32
  -5   2 -10    1.25    0.82
  -5  -2 -10    2.08    0.86
   5   2  11  178.01    8.88
   5  -2  11  174.23    8.98
   5  -2  11  172.66    8.80
  -5  -2 -11  160.14    7.57
  -5   2 -11  159.23    9.13
  -5  -2 -11  177.97    9.27
  -5   2 -11  173.81    8.99
  -5   2 -11  164.80    7.65
   5   2  11  188.09    8.63
  -5  -2 -12    0.58    0.82
   5   2  12   -0.57    1.47
   5  -2  12    0.34    1.67
  -5   2 -12   -1.22    1.74
  -5  -2 -12   -0.80    1.49
  -5   2 -12   -2.44    1.59
  -5   2 -12    0.59    0.65
   5   2  13    8.32    2.02
  -5   2 -13    4.29    1.95
  -5  -2 -13    8.49    2.20
  -5   2 -13    8.23    1.94
  -5  -2 -13    9.89    1.13
  -5  -2 -14    4.86    2.09
   5   2  14    5.97    2.12
  -5   2 -14    2.71    1.95
  -5  -2 -14    2.70    1.75
  -5   2 -14    3.67    1.67
  -5  -2 -14    3.63    0.84
  -5   2 -15   93.72    6.63
  -5  -2 -15   92.56    4.26
  -5   2 -15   87.44    6.37
  -5  -2 -15   94.62    6.58
  -5  -2 -15   90.79    6.44
  -5   2 -15  103.06    6.14
  -5  -2 -16    0.48    2.08
  -5   2 -16   -1.05    2.18
  -5   2 -16    1.50    2.14
  -5  -2 -16   -0.50    2.12
  -5  -2 -16    0.26    0.42
  -5  -2 -16   -0.47    1.94
  -5   2 -16   -0.38    1.73
  -5   2 -17    1.64    2.32
  -5  -2 -17    0.51    2.14
  -5   2 -17    2.30    1.68
  -5   2 -17   -0.52    2.27
  -5  -2 -17    8.41    2.75
  -5  -2 -17    3.91    2.48
  -5  -2 -18    2.64    2.73
  -5   2 -18    4.00    2.77
  -5   2 -18   -4.34    2.69
  -5  -2 -18    3.31    2.58
  -5   2 -18    0.77    1.78
  -5  -2 -18    3.52    2.35
  -5  -2 -19   41.70    4.96
  -5   2 -19   35.47    4.49
  -5   2 -19   44.32    4.05
  -5  -2 -19   47.18    4.79
  -5   2 -20    1.16    2.05
  -5  -2 -20    2.65    2.62
   5   3 -21    8.24    2.92
   5  -3 -20   -0.37    1.87
   5   3 -20   -1.12    2.37
   5   3 -20   -2.10    2.52
   5  -3 -20   -1.25    3.03
   5  -3 -19    4.19    1.97
   5   3 -19   -2.16    2.55
   5   3 -19    4.00    2.45
   5  -3 -19    1.19    2.64
   5  -3 -18   17.62    2.52
   5   3 -18   18.54    3.20
   5   3 -18   25.61    3.53
   5  -3 -18   22.07    3.63
   5  -3 -17    0.30    1.56
   5   3 -17    2.94    2.32
   5   3 -17    0.90    1.86
   5  -3 -17    1.07    2.27
   5  -3 -16   15.46    2.12
   5   3 -16    8.95    2.42
   5  -3 -16   13.35    3.14
  -5  -3  16   11.10    1.73
   5  -3 -15    1.60    1.40
   5   3 -15    0.45    1.76
   5   3 -15    2.04    1.73
   5  -3 -15    0.49    1.94
  -5  -3  15   -0.87    1.27
   5  -3 -14  144.76    7.46
   5  -3 -14  152.62    8.81
   5   3 -14  140.30    8.38
   5   3 -14  143.64    8.25
  -5  -3  14  149.57    7.38
   5  -3 -13    0.23    1.11
   5   3 -13   -0.41    1.75
   5  -3 -13   -1.32    1.74
   5   3 -13    1.09    1.54
   5   3 -13    0.81    1.68
   5  -3 -12  184.70    9.24
   5   3 -12  194.14   10.37
   5   3 -12  198.76   10.14
  -5   3  12  195.74   10.21
   5  -3 -12  222.86   10.41
  -5   3  12  202.12   10.23
   5  -3 -12  199.29   10.56
   5   3 -11   45.38    3.96
   5  -3 -11   49.65    3.18
   5  -3 -11   48.78    4.13
   5   3 -11   49.78    3.89
   5  -3 -11   53.19    4.03
  -5   3  11   48.45    3.94
  -5   3  11   50.96    3.94
   5  -3 -11   44.26    3.68
   5  -3 -10  104.61    5.25
   5  -3 -10   88.83    6.11
   5   3 -10   95.58    5.87
   5  -3 -10  103.25    5.95
   5  -3 -10  111.49    6.22
  -5   3  10   99.58    5.98
   5  -3  -9    0.30    1.39
   5  -3  -9    1.28    1.47
   5  -3  -9    1.39    1.49
   5   3  -9   -0.30    1.38
  -5   3   9    1.52    1.44
   5   3  -8  942.37   40.69
   5  -3  -8  984.23   40.75
   5   3  -8  996.77   40.43
   5  -3  -8  979.61   40.55
  -5  -3   8  960.60   39.34
  -5   3   8  983.95   40.44
   5  -3  -8  913.13   40.49
   5  -3  -8  996.04   40.43
   5   3  -7   15.82    1.25
  -5  -3   7   15.35    1.50
   5  -3  -7   16.70    2.04
   5  -3  -7   17.24    2.15
   5   3  -7   15.63    2.21
   5   3  -7   17.96    2.05
  -5   3   7   17.63    2.04
   5   3  -6   42.69    3.43
   5   3  -6   40.06    2.21
   5  -3  -6   35.13    3.16
   5   3  -6   46.01    3.29
  -5   3   6   41.01    3.17
   5  -3  -6   40.67    3.23
  -5  -3   6   47.87    2.79
   5  -3  -5    0.27    1.02
   5   3  -5    0.91    1.32
   5  -3  -5   -0.28    1.04
   5   3  -5    1.54    0.98
  -5  -3   5   -0.31    1.03
   5   3  -5    0.25    0.44
   5  -3  -5    1.15    1.23
  -5  -3   5    0.18    0.71
  -5   3   5    0.57    0.98
   5   3  -4  293.26   13.62
   5   3  -4  285.97   12.21
   5  -3  -4  299.62   13.65
  -5  -3   4  299.35   12.97
   5  -3  -4  306.89   13.62
  -5   3   4  295.78   13.57
   5  -3  -4  293.00   13.43
   5   3  -3   33.99    2.91
   5   3  -3   33.37    1.96
   5  -3  -3   39.29    2.97
  -5  -3   3   34.27    2.55
   5  -3  -3   38.07    2.84
  -5   3   3   30.78    2.76
   5  -3  -2  597.15   25.27
   5   3  -2  608.93   26.11
  -5  -3   2  622.73   25.70
   5  -3  -2  656.74   26.02
  -5   3   2  581.33   26.04
   5  -3  -1    3.36    0.86
   5   3  -1    1.02    1.01
  -5  -3   1    2.95    0.73
  -5  -3   1    1.82    1.01
   5  -3  -1    3.88    1.14
  -5  -3   1    2.61    1.00
  -5  -3   1    2.59    0.44
   5  -3   0  190.05    9.04
  -5  -3   0  210.80    9.70
  -5  -3   0  209.28    8.99
   5   3   0  192.90    9.55
   5  -3   0  212.24    9.99
  -5  -3   0  217.49    9.62
  -5  -3   0  196.38    8.17
  -5   3  -1   72.34    4.31
   5  -3   1   70.49    3.91
  -5  -3  -1   73.84    4.31
   5  -3   1   63.16    4.36
  -5  -3  -1   73.30    3.83
   5   3   1   68.55    3.31
   5  -3   1   66.10    4.43
  -5  -3  -1   67.80    4.22
   5   3   1   63.70    4.14
   5  -3   2  244.01   11.20
  -5  -3  -2  242.48   11.46
   5  -3   2  270.37   11.95
  -5  -3  -2  253.54   11.20
   5   3   2  248.62   10.52
   5  -3   2  241.66   11.84
   5   3   2  253.41   11.52
  -5   3  -2  258.95   11.62
   5   3   3   53.78    3.62
  -5  -3  -3   59.94    3.70
   5  -3   3   52.28    3.82
  -5  -3  -3   60.03    3.58
  -5   3  -3   64.75    4.17
   5  -3   3   62.57    4.13
  -5   3  -3   58.48    3.71
   5  -3   3   56.89    3.55
  -5   3  -4   20.60    2.05
   5   3   4   16.85    2.03
   5   3   4   19.39    1.90
   5  -3   4   17.13    1.53
   5  -3   4   19.69    2.13
  -5  -3  -4   15.50    1.77
   5  -3   4   22.81    1.94
  -5  -3  -4   15.36    1.79
  -5   3  -4   17.82    1.82
  -5   3  -4   15.97    2.06
   5  -3   4   12.75    1.96
  -5   3  -5    0.79    1.02
   5   3   5    0.82    1.28
   5  -3   5   -0.68    0.94
   5  -3   5    0.29    1.22
   5  -3   5    0.28    1.14
  -5  -3  -5    0.24    1.00
   5   3   5   -0.41    1.06
   5  -3   5    0.62    1.04
  -5   3  -5    1.52    1.09
   5  -3   5    0.94    0.72
   5   3   5    2.03    0.73
  -5   3  -5    1.28    0.80
  -5  -3  -5    0.86    0.99
  -5   3  -6  155.40    7.96
   5   3   6  157.57    7.95
   5   3   6  146.72    7.44
   5  -3   6  145.19    7.59
  -5  -3  -6  154.79    7.49
   5  -3   6  161.47    8.04
  -5  -3  -6  162.60    7.87
   5   3   6  157.73    7.03
   5  -3   6  144.13    8.04
   5  -3   6  145.76    7.83
   5  -3   6  147.06    6.72
  -5   3  -6  154.97    7.46
  -5   3  -6  159.69    8.15
  -5   3  -7   72.81    4.74
   5   3   7   69.73    4.59
   5  -3   7   72.67    4.49
   5  -3   7   73.47    3.38
  -5   3  -7   65.54    4.71
  -5  -3  -7   74.31    4.26
  -5  -3  -7   78.73    4.71
   5  -3   7   74.47    4.75
   5  -3   7   64.74    4.62
   5  -3   7   71.05    4.56
  -5   3  -7   69.05    4.70
   5   3   7   75.72    4.01
  -5   3  -7   76.71    4.18
  -5   3  -8   72.33    4.81
   5   3   8   70.01    4.54
   5   3   8   64.83    4.62
   5  -3   8   71.76    4.47
  -5   3  -8   72.45    4.87
  -5  -3  -8   64.90    4.03
  -5  -3  -8   73.96    4.68
   5  -3   8   76.93    4.72
   5  -3   8   62.01    4.57
  -5   3  -8   70.60    4.71
   5   3   8   75.24    4.10
  -5   3  -8   68.10    3.92
  -5   3  -9   33.85    3.18
   5  -3   9   30.16    2.68
   5   3   9   19.38    2.36
   5   3   9   21.74    2.69
  -5  -3  -9   25.81    2.19
  -5   3  -9   25.66    2.79
  -5  -3  -9   23.25    2.74
   5  -3   9   22.79    2.77
  -5   3  -9   24.94    2.68
   5   3   9   30.23    2.42
  -5   3 -10  124.52    7.40
   5   3  10  121.24    6.94
   5  -3  10  118.66    6.95
   5   3  10  131.83    7.28
   5  -3  10  122.42    6.93
  -5   3 -10  118.91    7.32
  -5  -3 -10  126.41    7.27
   5   3  10  140.41    6.76
  -5  -3 -10  122.74    6.33
   5  -3  10  138.14    7.46
  -5   3 -10  127.16    7.16
  -5   3 -11  155.76    8.69
   5   3  11  145.14    8.01
   5  -3  11  139.67    7.97
  -5   3 -11  150.79    8.57
  -5  -3 -11  161.18    8.55
  -5  -3 -11  147.36    7.34
  -5   3 -11  152.72    8.22
   5   3  11  166.14    7.96
   5   3  12    2.62    1.56
  -5   3 -12    5.95    2.01
   5  -3  12    2.98    1.67
  -5  -3 -12    2.29    1.23
  -5   3 -12    6.20    2.01
  -5  -3 -12    4.40    1.94
  -5   3 -12    4.80    1.74
   5   3  13    1.26    1.60
  -5   3 -13    5.86    2.05
  -5  -3 -13    0.37    1.06
  -5   3 -13    1.73    1.68
  -5  -3 -13   -0.43    1.88
  -5   3 -13    1.05    1.45
   5   3  14   17.63    2.65
  -5   3 -14   23.81    3.45
  -5  -3 -14   22.72    2.11
  -5   3 -14   28.15    3.47
  -5  -3 -14   23.04    3.15
  -5  -3 -14   21.06    2.63
  -5   3 -14   23.70    2.83
  -5  -3 -15    1.55    1.12
  -5   3 -15    0.95    1.98
  -5  -3 -15    0.48    2.12
  -5   3 -15    2.14    1.83
  -5   3 -16   80.87    5.84
  -5  -3 -16   71.18    3.98
  -5  -3 -16   80.30    5.99
  -5   3 -16   64.28    4.85
  -5   3 -17   -1.80    1.84
  -5   3 -17    2.07    2.59
  -5  -3 -17   -2.12    2.24
  -5   3 -18   62.27    5.55
  -5  -3 -18   66.65    5.75
  -5   3 -18   59.02    4.71
  -5   3 -19   -0.35    1.79
  -5   3 -19    0.56    2.56
   5   4 -21  112.26    7.77
   5   4 -20   -0.49    2.38
   5   4 -19    5.10    2.69
   5   4 -19    7.03    2.46
   5  -4 -19    4.23    2.80
   5   4 -19    6.16    1.71
   5  -4 -18   10.05    2.14
   5   4 -18   14.08    3.00
   5   4 -18   11.57    2.52
   5   4 -18    9.60    1.83
   5  -4 -17    3.83    1.65
   5   4 -17    0.52    2.15
   5   4 -17    0.84    1.86
   5  -4 -17    1.64    2.41
   5  -4 -16    1.00    1.31
   5   4 -16    0.99    2.02
   5   4 -16    0.79    1.80
   5  -4 -16   -1.55    2.42
  -5  -4  16   -1.22    1.17
   5  -4 -15   50.11    3.45
   5   4 -15   48.72    4.17
   5  -4 -15   57.91    4.96
   5   4 -15   45.26    4.44
  -5  -4  15   50.76    3.51
   5  -4 -14    3.77    1.32
   5   4 -14    5.43    2.14
   5  -4 -14    2.36    2.12
   5   4 -14    0.36    1.83
   5  -4 -13   31.46    3.26
   5  -4 -13   31.50    2.47
   5   4 -13   33.36    3.49
   5  -4 -13   37.26    3.83
   5   4 -13   29.16    3.04
   5  -4 -12    4.50    1.47
   5  -4 -12    5.06    1.11
   5   4 -12    2.46    1.66
   5  -4 -12    1.68    1.90
   5   4 -12    6.11    1.81
   5   4 -11   33.12    3.47
  -5   4  11   26.75    3.14
   5  -4 -11   34.74    2.32
   5   4 -11   38.53    3.17
   5  -4 -11   23.48    2.99
  -5   4  11   33.97    3.33
   5  -4 -11   31.20    3.11
   5   4 -10    7.53    2.03
   5  -4 -10    5.50    1.08
   5  -4 -10    7.91    1.93
   5   4 -10    4.62    1.53
   5  -4 -10    9.09    1.92
  -5   4  10    6.93    1.89
   5  -4 -10    7.64    1.77
   5  -4  -9  117.92    5.16
   5   4  -9   97.65    4.46
   5  -4  -9  115.02    6.56
   5   4  -9  112.82    6.11
   5  -4  -9  118.50    6.80
   5  -4  -9  118.78    6.62
   5  -4  -9  114.51    6.35
  -5   4   9  107.61    6.37
  -5  -4   8    2.44    0.83
   5  -4  -8    2.56    1.55
   5  -4  -8    1.15    0.67
   5   4  -8    1.33    1.15
  -5   4   8    1.26    1.25
   5  -4  -8    1.66    1.45
   5  -4  -8    3.19    1.39
   5  -4  -7    5.69    1.75
   5   4  -7    8.23    1.90
  -5  -4   7    2.23    1.40
  -5  -4   7    3.42    0.90
   5  -4  -7    2.86    1.33
   5   4  -7    6.69    1.41
   5  -4  -6   14.65    2.12
   5   4  -6   16.22    2.28
  -5  -4   6   18.88    2.51
  -5  -4   6   16.71    1.58
   5  -4  -6   13.51    2.09
   5  -4  -6   17.97    2.16
   5   4  -6   18.23    2.06
   5  -4  -5   -0.64    1.18
   5   4  -5    0.50    1.01
   5  -4  -5   -0.97    1.33
   5   4  -5    1.00    1.32
  -5  -4   5    1.72    1.15
   5  -4  -5   -1.49    1.30
   5  -4  -5    0.85    1.16
  -5  -4   5    0.18    0.77
   5  -4  -4   11.12    1.77
   5  -4  -4   11.72    1.15
   5   4  -4   13.23    2.03
  -5  -4   4   14.04    2.10
   5  -4  -4   13.54    2.05
  -5  -4   4   11.17    1.49
   5  -4  -4   15.89    1.98
   5  -4  -4   11.69    1.80
   5  -4  -3  862.55   35.93
   5  -4  -3  892.99   37.25
   5   4  -3  914.14   37.40
   5  -4  -3  889.78   37.02
   5  -4  -3  885.83   37.38
  -5  -4   3  904.71   36.60
   5  -4  -3  898.70   37.15
   5  -4  -2   -0.25    1.04
   5  -4  -2    0.63    0.62
   5  -4  -2    0.95    0.95
   5   4  -2    1.79    1.30
  -5  -4   2    0.88    0.87
   5  -4  -2    1.16    1.11
   5  -4  -2    0.28    1.05
   5  -4  -1    0.55    1.01
   5  -4  -1   -0.14    0.59
  -5  -4   1    0.44    0.52
   5  -4  -1   -0.32    1.06
  -5  -4   1    0.65    0.54
   5  -4  -1   -0.84    0.96
   5   4  -1    0.58    1.16
   5  -4   0   36.65    2.42
  -5  -4   0   41.55    3.22
   5  -4   0   38.87    3.27
  -5  -4   0   37.72    2.36
   5  -4   0   39.56    3.26
  -5  -4   0   39.87    2.21
   5   4   0   38.24    3.14
   5  -4   0   37.01    3.03
   5   4   1   82.70    5.09
   5  -4   1   95.25    4.58
  -5  -4  -1   79.90    5.12
   5  -4   1   85.67    5.30
  -5  -4  -1   86.13    4.45
   5  -4   1   84.81    5.31
  -5  -4  -1   84.86    4.09
   5  -4   1   86.93    5.11
   5  -4   2   14.89    1.61
   5  -4   2   12.50    1.95
  -5  -4  -2   14.82    1.56
   5   4   2   14.49    1.90
   5  -4   2   15.51    2.10
   5  -4   2   13.00    1.67
  -5  -4  -2   15.64    1.96
   5  -4   3   99.63    5.02
  -5  -4  -3   95.61    5.50
   5   4   3   93.89    5.37
   5  -4   3   95.02    5.57
  -5  -4  -3   91.29    4.93
  -5   4  -3   90.86    5.59
   5  -4   3   88.93    4.97
   5  -4   3   85.19    5.49
  -5   4  -4   26.58    2.34
  -5  -4  -4   23.29    2.42
   5   4   4   22.81    2.45
   5  -4   4   28.37    2.27
   5  -4   4   26.66    2.11
  -5  -4  -4   25.21    2.22
   5   4   4   24.00    2.44
   5  -4   4   26.14    2.59
  -5   4  -4   26.42    2.66
   5  -4   4   23.64    2.59
  -5   4  -5   96.52    5.41
   5   4   5   88.05    5.36
   5  -4   5   90.36    4.86
   5  -4   5   94.15    5.15
  -5  -4  -5   97.86    5.47
   5  -4   5   85.56    5.43
  -5  -4  -5   93.92    5.24
   5  -4   5   89.22    5.74
  -5   4  -5  107.47    5.86
   5   4   5   87.07    5.29
   5  -4   5   97.43    5.67
  -5   4  -6   -0.85    1.25
   5   4   6    0.87    1.27
  -5  -4  -6   -0.27    1.19
   5  -4   6    1.65    1.13
   5  -4   6   -1.53    1.35
  -5  -4  -6    0.52    1.15
   5  -4   6   -1.37    1.45
  -5   4  -6   -0.63    1.23
   5  -4   6    0.61    1.36
   5   4   6    0.30    0.85
   5   4   6    0.76    1.25
   5  -4   6   -0.94    0.92
  -5   4  -7  107.80    6.38
   5   4   7  113.07    6.34
   5   4   7  108.65    6.35
   5  -4   7  109.83    6.12
   5  -4   7  116.87    6.49
  -5  -4  -7  119.10    6.40
  -5  -4  -7  112.23    6.22
   5  -4   7  110.36    5.43
   5  -4   7  109.85    6.58
   5  -4   7  104.36    6.24
   5   4   7  120.22    5.72
  -5   4  -7  123.88    6.63
   5   4   8   37.97    2.74
  -5   4  -8   36.37    3.33
   5   4   8   44.64    3.45
   5   4   8   29.06    2.93
   5  -4   8   37.59    3.10
   5  -4   8   35.75    2.31
  -5   4  -8   36.81    3.47
   5  -4   8   40.22    3.40
  -5  -4  -8   44.14    3.46
  -5  -4  -8   35.42    3.02
   5  -4   8   42.63    3.56
  -5   4  -8   44.95    3.46
   5  -4   8   41.77    3.25
  -5   4  -9  495.82   21.28
   5   4   9  465.35   20.71
   5  -4   9  464.79   19.29
   5   4   9  443.54   20.80
   5  -4   9  447.58   20.57
  -5   4  -9  470.25   21.29
  -5  -4  -9  475.69   20.97
  -5  -4  -9  463.18   20.47
   5  -4   9  454.43   21.13
  -5   4  -9  485.72   20.98
   5   4   9  518.61   20.34
  -5   4 -10    4.96    1.83
   5   4  10    3.39    1.60
   5  -4  10    1.43    1.41
   5  -4  10    4.90    1.72
  -5  -4 -10    3.68    1.48
  -5   4 -10    1.97    1.59
  -5  -4 -10    3.19    1.64
  -5   4 -10    4.63    1.70
   5  -4  10    4.27    1.79
   5   4  10    2.21    1.29
  -5   4 -11  144.52    8.32
   5   4  11  141.10    7.78
   5  -4  11  128.99    7.62
  -5   4 -11  140.31    8.31
  -5  -4 -11  153.80    8.29
  -5  -4 -11  142.00    7.45
   5   4  11  164.99    7.75
  -5   4 -11  144.22    7.90
   5   4  12   11.74    2.16
   5  -4  12    5.05    1.90
  -5  -4 -12   10.05    1.89
  -5   4 -12    6.82    2.14
  -5  -4 -12    8.10    2.20
  -5   4 -12    8.73    1.92
  -5   4 -12    5.14    2.03
   5   4  13   16.18    2.48
  -5   4 -13   10.46    2.57
  -5  -4 -13    9.93    1.88
  -5   4 -13   16.06    2.86
  -5  -4 -13   15.47    2.66
  -5   4 -13   14.16    2.21
   5   4  14    1.36    1.89
  -5   4 -14   -0.48    2.27
  -5  -4 -14    0.25    1.40
  -5   4 -14    0.47    1.91
  -5  -4 -14    2.73    2.21
  -5   4 -14    1.01    1.64
  -5   4 -15  291.69   14.11
  -5   4 -15  286.86   13.98
  -5  -4 -15  275.75   13.76
  -5  -4 -15  246.80   12.11
  -5   4 -15  254.84   12.75
  -5   4 -16   10.68    2.96
  -5  -4 -16   13.47    2.14
  -5   4 -16   18.25    3.37
  -5  -4 -16   14.70    3.06
  -5   4 -16   13.65    2.45
  -5   4 -17   40.83    4.61
  -5   4 -17   37.87    4.32
  -5  -4 -17   32.45    4.12
  -5   4 -17   33.76    3.47
  -5   4 -18    1.63    2.41
   5   5 -21    3.25    2.53
   5   5 -20   -0.45    2.24
   5   5 -19    6.82    2.50
   5   5 -18    5.68    2.14
   5  -5 -18    9.87    3.32
   5   5 -17   19.29    2.84
   5  -5 -17   18.77    3.46
   5   5 -16    6.91    2.17
   5  -5 -16   10.97    2.80
   5   5 -16    5.12    1.10
   5  -5 -15   18.74    2.04
   5   5 -15   19.80    2.70
   5  -5 -15   24.75    3.47
   5   5 -15   17.45    1.46
   5  -5 -14  105.51    4.92
   5   5 -14   99.10    5.78
   5  -5 -14  107.18    6.79
   5  -5 -13   15.66    1.64
   5   5 -13   14.76    2.32
   5  -5 -13   14.85    2.65
   5  -5 -12  179.13    8.00
   5  -5 -12  186.59    9.87
   5   5 -12  171.52    8.97
   5  -5 -11    4.10    0.86
   5  -5 -11    4.41    1.92
   5   5 -11    2.19    1.22
   5  -5 -10   11.63    2.37
   5  -5 -10   13.47    1.14
   5  -5 -10    8.70    2.04
   5   5 -10   14.10    1.92
   5  -5  -9   -1.29    1.60
   5  -5  -9    0.51    0.53
  -5  -5   9   -1.32    1.67
   5  -5  -9   -0.36    1.44
  -5  -5   9    0.89    0.56
   5   5  -9    0.99    1.28
   5  -5  -9   -1.45    1.46
  -5  -5   8  413.75   18.95
   5  -5  -8  385.82   16.34
   5  -5  -8  423.10   18.40
   5   5  -8  413.94   17.68
   5  -5  -8  411.39   18.90
  -5  -5   8  425.88   16.87
   5  -5  -7   10.22    0.83
   5  -5  -7   13.69    2.33
  -5  -5   7   12.01    1.33
   5  -5  -7   11.15    0.79
  -5  -5   7    8.22    2.08
   5  -5  -7   11.33    1.96
   5  -5  -7   13.18    2.30
   5   5  -7   10.45    1.62
   5  -5  -6    2.31    1.44
   5  -5  -6    2.83    0.49
   5  -5  -6    2.31    0.44
  -5  -5   6    1.20    1.53
   5  -5  -6    1.43    1.58
   5   5  -6    2.62    1.64
  -5  -5   6    1.69    0.93
   5   5  -6    3.03    1.20
   5  -5  -6    2.03    1.44
   5  -5  -6    1.19    1.26
   5  -5  -5    0.74    1.39
   5  -5  -5    0.31    0.43
  -5  -5   5   -0.57    0.90
   5  -5  -5   -0.28    1.26
  -5  -5   5   -0.39    1.68
   5   5  -5   -0.36    1.49
   5  -5  -5    0.71    1.32
   5   5  -5   -0.30    0.59
   5  -5  -5   -0.99    1.38
   5   5  -5    0.46    1.00
   5  -5  -4  208.72    8.84
  -5  -5   4  212.60   10.98
   5  -5  -4  217.22   10.27
   5   5  -4  214.55    8.94
   5  -5  -4  216.38   10.75
  -5  -5   4  210.94    9.83
   5   5  -4  212.96   10.04
   5   5  -4  223.43   10.84
   5  -5  -4  220.80   10.64
   5  -5  -4  202.13   10.74
   5   5  -3    1.72    1.51
   5  -5  -3    4.00    0.64
   5  -5  -3    3.54    1.50
   5   5  -3    3.33    0.43
   5  -5  -3    2.77    1.47
  -5  -5   3    3.75    1.15
   5  -5  -3    5.13    1.49
   5  -5  -3    4.75    1.46
   5  -5  -2  753.32   30.56
   5  -5  -2  750.95   32.33
   5  -5  -2  772.16   31.81
   5  -5  -2  783.39   32.18
   5   5  -2  762.70   32.32
   5  -5  -2  720.53   32.28
   5  -5  -1   -0.96    1.25
   5  -5  -1    1.94    0.70
   5   5  -1   -0.33    1.40
  -5  -5   1   -0.48    0.78
  -5  -5   1    0.74    0.58
   5  -5  -1    1.02    1.30
   5  -5  -1    1.01    1.28
   5  -5  -1   -0.30    1.17
   5   5   0  269.57   12.58
   5  -5   0  259.52   11.18
   5  -5   0  264.48   12.43
  -5  -5   0  241.38   12.52
   5  -5   0  253.06   12.50
  -5  -5   0  276.11   11.21
   5  -5   0  255.70   12.55
   5  -5   0  255.49   11.91
  -5  -5   0  240.14   11.34
   5  -5   0  286.09   12.74
   5  -5   0  265.16   12.40
  -5  -5  -1    1.42    0.87
   5  -5   1    2.16    0.79
   5  -5   1    0.33    1.24
  -5  -5  -1    2.19    0.81
   5  -5   1    1.44    1.16
   5   5   1    0.32    1.42
   5  -5   1   -0.34    1.44
  -5  -5  -1    1.39    1.58
   5  -5   1    0.58    1.31
   5  -5   2  351.23   15.26
  -5  -5  -2  353.50   16.42
   5   5   2  360.90   16.34
   5  -5   2  341.37   16.30
  -5  -5  -2  356.56   15.33
   5  -5   2  391.11   16.14
   5  -5   2  365.66   16.50
  -5  -5  -2  339.76   15.18
   5  -5   2  370.82   16.17
   5  -5   3    6.80    1.35
  -5  -5  -3    4.57    1.04
   5  -5   3    3.05    1.26
   5  -5   3    2.71    1.05
   5   5   3    3.66    1.66
   5  -5   3    4.53    1.65
  -5  -5  -3    7.25    1.25
  -5  -5  -3    4.03    1.64
   5  -5   3    7.09    1.76
   5  -5   4    9.75    1.76
   5   5   4    9.11    1.77
  -5   5  -4    8.38    1.59
   5   5   4    9.01    1.85
  -5  -5  -4   12.33    2.07
   5  -5   4    8.36    1.43
   5  -5   4    7.15    1.88
  -5  -5  -4    8.33    1.52
   5  -5   4    7.24    1.59
   5  -5   4    5.01    1.47
   5  -5   5  123.26    6.35
   5   5   5  113.11    6.60
   5   5   5  120.06    6.84
   5  -5   5  118.10    6.23
  -5   5  -5  122.10    6.54
   5  -5   5  122.10    6.85
  -5  -5  -5  120.78    6.93
  -5  -5  -5  134.62    6.58
   5  -5   5  128.20    7.23
   5  -5   5  114.13    6.83
  -5   5  -6  284.81   12.23
   5   5   6  246.95   12.13
   5   5   6  254.45   12.04
   5  -5   6  250.53   11.70
   5  -5   6  259.67   12.31
  -5  -5  -6  257.74   11.95
  -5  -5  -6  271.73   12.47
   5  -5   6  239.93   12.47
   5  -5   6  249.99   11.57
   5  -5   6  239.79   12.19
  -5   5  -7    0.93    1.34
   5   5   7    3.21    1.37
   5   5   7    2.98    1.56
   5  -5   7    2.80    1.31
   5  -5   7    1.90    1.28
  -5  -5  -7    2.29    1.55
   5  -5   7    4.25    1.23
   5  -5   7    3.90    1.48
  -5  -5  -7    4.32    1.54
   5  -5   7    4.12    1.75
  -5   5  -8   54.15    4.10
   5   5   8   49.87    3.86
   5   5   8   47.93    3.90
   5  -5   8   52.50    3.75
   5  -5   8   60.34    3.44
   5  -5   8   51.83    4.00
  -5  -5  -8   58.54    4.26
   5  -5   8   55.28    4.37
   5  -5   8   50.62    3.92
  -5   5  -9   15.00    2.40
   5   5   9   12.08    2.07
   5  -5   9   13.34    1.95
   5  -5   9   12.15    1.96
   5   5   9    7.65    2.09
  -5  -5  -9   11.76    2.17
   5  -5   9   14.18    2.27
   5  -5   9   15.59    2.48
   5  -5   9   12.81    1.52
   5  -5   9   11.18    1.99
   5   5   9   12.81    1.79
  -5   5 -10  263.50   12.16
   5   5  10  226.94   11.37
   5  -5  10  235.07   10.35
   5  -5  10  221.10   11.09
  -5  -5 -10  236.62   11.57
  -5   5 -10  219.53   11.41
   5  -5  10  234.26   12.02
   5   5  10  253.35   11.19
  -5   5 -11   31.64    3.47
   5  -5  11   32.14    2.96
  -5  -5 -11   30.63    3.09
   5   5  11   30.24    2.95
  -5   5 -11   28.90    2.92
  -5   5 -12   10.88    2.43
   5  -5  12    6.82    2.03
  -5   5 -12    5.73    2.28
  -5  -5 -12    4.48    1.95
  -5   5 -12   10.81    2.10
   5   5  12    8.70    2.07
  -5   5 -13   10.15    2.70
   5  -5  13    6.19    1.92
  -5   5 -13    4.56    2.47
  -5  -5 -13    5.72    1.87
  -5   5 -13    3.77    1.72
  -5   5 -14    7.80    2.44
  -5   5 -14    8.99    2.48
  -5  -5 -14    8.15    1.98
  -5   5 -14   11.11    2.11
  -5   5 -15   17.44    3.32
  -5  -5 -15   16.34    2.51
  -5   5 -15   12.27    2.82
  -5  -5 -15   18.50    3.24
  -5   5 -15    8.73    2.02
  -5   5 -16   56.52    5.27
  -5   5 -16   53.35    5.07
  -5  -5 -16   53.68    5.10
  -5  -5 -16   61.76    4.34
  -5   5 -16   54.47    4.15
  -5   5 -17   10.74    3.12
  -5   5 -17    4.19    2.58
  -5   5 -18   38.27    4.65
   5   6 -18    0.36    1.87
   5  -6 -18    3.49    2.91
   5   6 -17  119.86    7.44
   5  -6 -17  130.81    8.66
   5   6 -16    2.15    2.41
   5   6 -16   -0.32    1.77
   5  -6 -16   -1.05    2.39
   5   6 -15   21.62    3.39
   5   6 -15   18.69    2.58
   5  -6 -15   24.41    3.43
   5   6 -14    9.86    1.92
   5  -6 -14    9.87    2.60
   5   6 -13  348.92   15.97
   5  -6 -13  357.37   17.23
   5   6 -13  376.70   17.55
   5   6 -13  358.48   16.19
   5   6 -12    0.91    1.77
   5   6 -12   -0.25    1.30
   5  -6 -12    0.42    1.85
   5   6 -12    1.58    1.44
   5  -6 -11  106.43    6.48
   5   6 -11   89.72    5.26
   5   6 -11  106.21    6.62
   5   6 -11   91.43    5.34
   5  -6 -11   93.30    6.76
   5  -6 -10   31.96    3.66
   5   6 -10   27.77    2.41
  -5  -6  10   23.25    3.41
   5  -6 -10   25.94    3.05
   5   6 -10   24.16    2.33
  -5  -6   9   61.66    2.87
  -5  -6   9   67.79    5.28
   5  -6  -9   68.50    4.76
   5   6  -9   55.57    3.70
   5   6  -9   64.75    3.76
   5  -6  -9   64.42    5.12
   5  -6  -8    5.14    2.04
  -5  -6   8    6.58    2.14
  -5  -6   8    5.00    0.94
   5  -6  -8    3.34    1.61
   5   6  -8    4.67    1.15
   5   6  -8    5.42    1.35
  -5  -6   7  410.60   20.02
   5  -6  -7  430.15   19.14
   5  -6  -7  398.92   19.87
   5   6  -7  417.74   18.29
   5   6  -7  428.54   17.94
  -5  -6   7  452.04   18.09
   5  -6  -6   -0.29    1.34
   5  -6  -6   -0.87    1.63
  -5  -6   6    1.36    1.66
   5   6  -6    0.58    1.02
  -5  -6   6    0.54    0.92
   5   6  -6    0.23    0.71
  -5  -6   5  407.36   17.65
  -5  -6   5  404.40   19.25
   5  -6  -5  415.74   18.17
   5   6  -5  419.86   17.69
   5  -6  -5  426.14   18.99
   5  -6  -5  380.80   18.96
   5   6  -4   -0.41    0.99
   5  -6  -4   -1.57    1.32
   5   6  -4    0.39    1.45
   5  -6  -4    2.25    1.63
  -5  -6   4    0.22    1.01
   5  -6  -4    0.36    1.40
  -5  -6   4    0.87    1.66
   5  -6  -4    2.07    1.69
   5   6  -3   20.81    2.72
  -5  -6   3   13.66    2.44
   5  -6  -3   15.61    1.98
   5  -6  -3   16.73    2.42
   5  -6  -3   18.95    2.59
   5  -6  -3   21.70    2.72
   5  -6  -3   16.50    2.56
   5  -6  -2    6.29    1.92
   5  -6  -2    1.40    1.12
   5   6  -2    1.12    1.43
   5  -6  -2    3.50    1.67
   5  -6  -2    1.21    1.68
   5  -6  -2    2.06    1.47
   5  -6  -1   30.08    1.77
  -5  -6   1   34.83    1.77
   5  -6  -1   26.13    2.44
   5   6  -1   29.26    3.18
   5  -6  -1   33.37    3.24
   5  -6  -1   34.42    3.33
   5  -6  -1   32.75    3.15
   5  -6  -1   29.15    3.18
   5  -6   0   25.31    2.84
   5  -6   0   24.40    1.62
  -5  -6   0   21.93    1.61
   5  -6   0   17.99    2.55
   5  -6   0   23.82    2.27
   5  -6   0   23.73    2.91
   5  -6   0   17.08    2.59
  -5  -6   0   29.95    3.25
   5   6   0   21.81    2.81
   5  -6   0   20.89    2.57
   5  -6   1  992.02   40.37
  -5  -6  -1 1018.00   42.38
   5  -6   1  966.12   41.90
  -5  -6  -1 1010.80   40.51
   5   6   1 1010.73   42.07
   5  -6   1 1033.90   41.96
   5  -6   1  979.33   42.01
   5  -6   1  966.64   41.00
   5  -6   1 1018.26   41.79
  -5  -6  -2   -0.80    1.50
   5  -6   2    1.53    1.05
   5  -6   2    3.23    1.78
   5  -6   2    3.00    0.94
   5  -6   2    1.77    1.63
   5   6   2    3.53    1.73
  -5  -6  -2    3.58    1.09
   5  -6   2    2.17    1.69
   5  -6   2    1.25    1.41
   5   6   3   75.36    4.51
   5  -6   3   72.55    4.89
   5  -6   3   70.86    4.09
  -5  -6  -3   77.32    5.37
   5  -6   3   81.17    5.19
  -5  -6  -3   78.81    4.34
   5  -6   3   73.45    5.16
   5   6   3   81.43    5.28
   5  -6   3   74.17    4.93
   5  -6   4   19.02    2.39
  -5   6  -4   17.55    1.98
   5   6   4   16.39    2.23
   5  -6   4   17.08    2.60
  -5  -6  -4   23.63    2.89
   5   6   4   22.10    2.26
   5  -6   4   19.62    1.92
   5  -6   4   19.48    2.38
   5  -6   4   16.87    2.42
  -5  -6  -4   18.12    1.99
   5  -6   4   13.52    2.49
   5   6   4   26.13    2.90
   5  -6   5   16.70    2.27
  -5   6  -5   15.07    1.97
   5   6   5   16.72    2.27
   5  -6   5   18.33    2.34
  -5  -6  -5   16.45    2.62
   5   6   5   14.78    2.06
   5  -6   5   16.16    1.92
   5   6   5   17.26    2.43
   5  -6   5   20.33    2.56
  -5  -6  -5   20.28    2.15
   5  -6   5   22.62    2.87
   5  -6   5   12.33    2.29
  -5   6  -6    7.35    1.71
   5   6   6    3.60    1.53
  -5  -6  -6    5.46    1.97
   5   6   6    3.37    1.58
   5  -6   6    6.04    1.55
   5  -6   6    3.44    1.70
   5  -6   6    5.72    1.82
  -5  -6  -6    6.99    1.68
   5  -6   6    4.31    1.86
   5  -6   6    4.93    1.62
  -5   6  -7  536.38   22.60
   5   6   7  486.56   22.32
   5   6   7  498.45   22.36
   5  -6   7  525.18   22.16
   5  -6   7  503.63   22.67
  -5  -6  -7  503.33   23.00
   5  -6   7  543.96   22.26
   5  -6   7  503.71   23.07
   5  -6   7  515.55   22.66
  -5   6  -8   -0.34    1.50
   5   6   8    1.79    1.50
   5  -6   8    0.74    1.37
   5  -6   8    1.33    1.26
   5  -6   8    1.09    1.39
   5   6   8    0.32    1.56
  -5  -6  -8   -0.39    1.77
   5  -6   8    0.32    1.52
   5  -6   8    3.30    1.90
  -5   6  -9  149.56    8.20
   5   6   9  143.55    7.69
   5  -6   9  140.92    7.25
   5  -6   9  148.18    7.67
   5  -6   9  146.86    7.27
  -5  -6  -9  132.28    8.07
   5  -6   9  145.80    8.35
   5  -6   9  139.39    7.64
  -5   6 -10    1.18    1.88
   5   6  10    1.51    1.50
  -5  -6 -10   -1.54    1.82
   5  -6  10    2.59    1.85
   5  -6  10   -0.22    1.33
  -5  -6 -11   42.54    4.07
  -5   6 -11   49.54    4.31
  -5   6 -12   24.68    3.47
  -5  -6 -12   24.77    3.05
  -5   6 -13   38.61    3.97
  -5  -6 -13   38.57    3.77
  -5   6 -14    0.98    2.17
  -5  -6 -14   -1.12    1.85
  -5   6 -15   65.09    5.59
  -5  -6 -15   60.09    4.84
  -5   6 -16    5.98    2.87
  -5  -6 -16    0.36    1.97
  -5  -6 -16    0.52    2.56
   5  -7 -17    6.58    2.97
   5  -7 -16    4.71    3.06
   5   7 -15    0.49    1.37
   5   7 -15    1.59    2.48
   5  -7 -15   -0.50    2.38
   5   7 -14   42.16    3.21
   5   7 -14   43.21    4.54
   5  -7 -14   42.81    4.49
   5   7 -13    0.42    1.31
   5   7 -13    0.49    2.19
   5  -7 -13   -0.44    2.15
   5   7 -13    0.57    1.76
   5   7 -12   67.40    4.26
   5  -7 -12   90.41    5.93
   5   7 -12   79.35    5.89
   5   7 -12   81.24    4.91
   5  -7 -11   -0.55    2.18
  -5  -7  11    1.10    2.22
   5   7 -11    0.45    2.05
   5   7 -11    1.43    1.09
   5  -7 -11    1.18    2.03
   5   7 -11    1.44    1.38
   5  -7 -10   27.80    3.92
   5   7 -10   33.88    2.41
   5  -7 -10   40.14    3.62
  -5  -7  10   36.10    4.11
   5   7 -10   33.03    3.71
   5   7 -10   28.39    2.60
   5  -7  -9    2.62    2.04
  -5  -7   9    1.06    2.31
   5   7  -9    0.31    0.96
   5  -7  -9   -0.35    1.72
  -5  -7   8  166.36    7.10
  -5  -7   8  150.75    9.44
   5  -7  -8  164.70    8.44
   5   7  -8  148.52    7.18
   5  -7  -8  143.71    9.19
   5  -7  -7   16.08    2.82
  -5  -7   7   18.05    3.18
   5  -7  -7   19.88    2.42
   5   7  -7   15.07    1.58
  -5  -7   7   17.89    1.75
   5  -7  -7   18.96    3.29
   5  -7  -6   -0.97    1.86
   5   7  -6    0.70    0.83
   5  -7  -6    0.51    1.91
  -5  -7   6    0.51    2.04
   5  -7  -6   -0.29    1.38
  -5  -7   6    0.20    1.06
   5  -7  -5    0.48    1.82
   5  -7  -5    0.50    1.93
   5  -7  -5    0.27    1.41
  -5  -7   5    1.50    1.94
   5   7  -5    0.30    0.88
  -5  -7   5   -0.22    1.20
   5  -7  -4   15.93    2.69
   5  -7  -4   16.33    2.84
   5  -7  -4   14.95    1.96
  -5  -7   4   15.26    2.86
   5   7  -4   13.97    1.56
  -5  -7   3   53.99    4.78
   5  -7  -3   44.24    3.45
   5   7  -3   62.74    3.40
   5  -7  -3   53.59    4.63
   5  -7  -3   50.79    4.54
   5  -7  -2  221.37   10.30
  -5  -7   2  209.41   10.44
   5  -7  -2  226.02   11.83
   5  -7  -2  242.86   11.91
   5  -7  -1   -0.77    1.66
   5  -7  -1   -2.10    1.72
   5  -7  -1   -0.21    1.21
   5  -7  -1   -0.91    1.71
  -5  -7   1    2.37    1.24
   5  -7   0   37.23    3.69
  -5  -7   0   39.94    2.20
   5  -7   0   43.40    3.84
   5  -7   0   41.23    2.84
  -5  -7   0   33.68    2.95
   5  -7   0   35.35    3.75
  -5  -7   0   35.32    3.88
  -5  -7  -1    3.91    1.40
  -5  -7  -1    5.57    2.36
   5  -7   1    3.16    1.83
   5  -7   1    5.04    1.20
   5  -7   1    1.14    1.61
  -5  -7  -1    2.53    0.88
   5  -7   1    6.59    1.97
   5  -7   1    4.92    2.09
  -5  -7  -2   24.61    2.51
  -5  -7  -2   19.32    3.03
   5   7   2   27.09    2.33
  -5  -7  -2   30.01    2.15
   5  -7   2   25.01    2.96
   5  -7   2   21.82    2.85
   5  -7   2   26.26    2.17
   5  -7   2   31.37    3.19
   5  -7   2   23.12    2.99
  -5  -7  -3    6.32    1.55
  -5  -7  -3   14.17    2.77
   5   7   3    7.65    1.52
   5  -7   3   10.60    2.24
   5  -7   3    7.30    1.90
  -5  -7  -3    8.61    1.43
   5  -7   3    5.26    1.91
   5  -7   3    7.32    2.04
   5  -7   3    7.59    1.38
   5  -7   3   14.34    2.35
   5  -7   4   -0.19    1.07
   5   7   4    0.91    1.43
  -5  -7  -4    0.78    1.17
  -5  -7  -4    2.27    2.15
   5  -7   4    2.50    1.79
   5   7   4   -0.97    1.35
   5  -7   4   -0.41    1.73
   5  -7   4   -0.36    1.84
  -5  -7  -4    1.11    1.13
   5  -7   4    0.38    1.68
   5  -7   4    0.33    1.57
   5  -7   5    5.78    1.74
  -5   7  -5    4.29    1.49
   5   7   5    5.05    1.69
  -5  -7  -5    5.88    2.07
   5   7   5    6.23    1.59
   5  -7   5    4.14    1.34
  -5  -7  -5    5.91    1.58
   5  -7   5    0.82    1.67
   5  -7   5    8.92    2.05
   5  -7   5    6.90    2.06
  -5   7  -6   67.75    4.36
   5   7   6   60.09    4.34
   5   7   6   65.92    4.40
   5  -7   6   62.47    4.05
  -5  -7  -6   73.53    4.46
  -5  -7  -6   63.02    5.07
   5  -7   6   52.37    4.62
   5  -7   6   70.97    4.72
   5  -7   6   68.99    4.87
   5  -7   6   58.99    4.50
  -5   7  -7    9.10    2.09
   5   7   7    6.12    1.69
  -5  -7  -7   13.45    2.66
   5  -7   7    5.50    1.69
   5   7   7    6.77    1.90
   5  -7   7    8.72    1.98
   5  -7   7   10.58    2.43
   5  -7   7    6.00    1.98
  -5   7  -8    8.97    2.09
   5   7   8    7.91    1.94
   5  -7   8    6.73    1.89
  -5  -7  -8    5.37    2.26
   5  -7   8    5.15    1.59
   5  -7   8    5.20    1.99
   5  -7   8    7.10    1.82
  -5   7  -9    1.45    1.86
   5   7   9    0.29    1.69
  -5  -7  -9    3.58    2.14
   5  -7   9    2.64    2.03
   5  -7   9    1.75    1.58
  -5   7 -10   24.35    3.12
  -5  -7 -10   24.54    3.45
   5  -7  10   21.93    3.20
  -5   7 -11    8.84    2.63
  -5  -7 -11    7.53    2.46
  -5   7 -12    0.89    2.33
  -5  -7 -12    5.28    2.51
  -5   7 -13   -0.47    2.32
  -5  -7 -13    0.44    2.21
  -5   7 -14    1.48    2.54
  -5  -7 -14    3.45    2.28
  -5   7 -15    6.76    3.01
  -5  -7 -15    2.56    2.35
  -5  -7 -16    6.29    2.58
   5  -8 -16   -1.02    2.68
   5  -8 -15   13.14    2.93
   5   8 -14    3.62    2.57
   5  -8 -14    0.92    2.34
   5   8 -13    3.97    2.82
   5  -8 -13    0.44    2.24
   5   8 -12    4.28    2.52
   5  -8 -12    5.35    2.39
   5  -8 -12   -2.67    2.87
   5  -8 -11    5.95    2.86
  -5  -8  11   11.92    3.37
   5   8 -11    5.04    2.31
   5  -8 -11    3.86    2.05
   5  -8 -11    7.19    3.43
   5  -8 -10   -1.16    2.45
   5   8 -10    1.76    2.13
   5  -8 -10    3.84    2.99
  -5  -8  10    1.76    2.60
   5  -8 -10   -0.72    1.89
   5  -8  -9   43.12    4.84
   5  -8  -9   37.32    4.48
   5   8  -9   31.19    3.74
  -5  -8   9   33.66    4.29
   5  -8  -9   32.21    3.50
   5  -8  -8   -0.56    2.27
   5  -8  -8   -0.62    1.60
  -5  -8   8    1.73    2.44
   5  -8  -8    4.24    2.64
   5  -8  -7    0.55    2.31
   5  -8  -7   -1.17    2.27
   5  -8  -7   -0.29    1.68
  -5  -8   7    0.57    2.45
   5  -8  -6   14.62    3.10
   5  -8  -6   13.49    3.16
   5  -8  -6   14.87    2.16
  -5  -8   6   18.05    3.33
  -5  -8   6   18.45    1.98
   5  -8  -5    8.54    2.79
   5  -8  -5   12.44    3.10
   5   8  -5    7.38    0.77
   5  -8  -5   17.94    2.13
   5   8  -5    8.45    0.79
  -5  -8   5   13.39    3.03
  -5  -8   5   12.93    1.94
   5   8  -4    8.52    0.97
   5  -8  -4   12.11    2.94
  -5  -8   4   14.28    3.15
   5   8  -4    8.78    0.97
   5  -8  -4   11.14    1.77
   5   8  -3  211.44    9.19
  -5  -8   3  248.33   12.42
   5  -8  -3  216.80   10.03
  -5  -8   3  213.66   10.64
   5   8  -3  207.08    9.23
   5  -8  -3  264.09   12.48
   5  -8  -3  245.75   12.29
   5  -8  -2    1.48    2.28
   5   8  -2    1.43    0.84
   5  -8  -2    3.42    1.27
  -5  -8   2    1.57    1.56
   5  -8  -2    1.57    2.11
   5   8  -2    0.91    0.88
   5  -8  -1    0.96    1.97
   5   8  -1    1.17    0.97
   5  -8  -1    0.87    1.06
   5  -8  -1   -0.52    1.93
  -5  -8   1   -1.57    1.67
   5  -8   0    0.47    1.00
   5  -8   0    1.40    2.01
   5  -8   0    0.51    2.06
  -5  -8   0    0.31    1.44
  -5  -8  -1   22.02    3.48
  -5  -8  -1   25.21    2.72
   5  -8   1   30.50    3.61
   5  -8   1   21.23    1.88
   5  -8   1   27.29    3.59
  -5  -8  -2   -0.31    1.36
  -5  -8  -2   -1.04    2.20
   5   8   2    0.76    1.14
   5  -8   2    3.49    2.06
  -5  -8  -2    0.16    0.94
   5  -8   2   -1.26    1.83
   5  -8   2   -2.54    2.31
   5   8   3    6.15    1.96
  -5  -8  -3    1.24    1.38
  -5  -8  -3    3.10    2.26
   5  -8   3    6.42    2.13
   5   8   3    4.61    1.38
  -5  -8  -3    4.00    1.37
   5  -8   3    3.41    1.89
   5  -8   4   11.26    2.51
   5   8   4   13.41    2.15
  -5  -8  -4   11.29    1.97
  -5  -8  -4    8.75    2.73
   5   8   4   10.04    1.78
  -5  -8  -4   12.08    1.83
   5  -8   4   12.75    2.56
   5   8   5   17.06    2.43
  -5  -8  -5   12.03    2.23
  -5  -8  -5   16.38    3.15
   5   8   5   11.86    1.96
  -5  -8  -5   11.79    1.98
   5  -8   5   13.16    2.48
   5  -8   5   17.76    2.85
  -5   8  -6    1.07    1.37
   5   8   6    2.00    1.57
  -5  -8  -6    4.08    2.09
   5   8   6   -0.27    1.47
   5  -8   6   -0.79    1.91
  -5  -8  -6    1.63    1.51
   5  -8   6    1.29    1.94
  -5   8  -7   60.58    4.20
   5   8   7   58.82    4.16
   5   8   7   52.13    4.12
  -5  -8  -7   63.88    5.37
   5  -8   7   57.00    4.61
   5  -8   7   55.65    4.76
  -5   8  -8   -0.32    1.56
   5  -8   8    1.45    1.88
  -5  -8  -8    2.53    2.48
   5  -8   8    4.03    2.14
  -5   8  -9   86.58    5.52
  -5  -8  -9   80.00    6.35
   5  -8   9   76.61    5.90
  -5   8 -10    2.28    1.97
  -5  -8 -10    1.51    2.40
  -5   8 -11   36.77    3.74
  -5  -8 -11   26.95    3.98
  -5   8 -12    0.44    2.29
  -5  -8 -12    0.50    2.57
  -5   8 -13    9.31    2.76
  -5  -8 -13    6.89    2.91
  -5   8 -14    1.96    2.41
  -5  -8 -14    3.40    2.79
  -5  -8 -15   97.95    7.03
   5   9 -12   17.69    3.33
   5   9 -11    0.46    2.22
   5   9 -10    2.64    2.12
  -5  -9  10   10.16    3.15
   5  -9  -9    1.24    2.58
   5   9  -9    2.54    2.35
  -5  -9   9    1.26    2.67
   5  -9  -9   -1.32    2.66
  -5  -9   8  113.90    8.24
   5   9  -8   99.79    6.77
   5  -9  -8  122.58    8.41
   5  -9  -8  100.11    7.65
   5  -9  -7    4.25    2.61
   5   9  -7    1.16    1.90
  -5  -9   7   -1.25    2.55
   5  -9  -7   -0.63    2.74
   5  -9  -6   -0.59    2.43
   5  -9  -6    3.06    2.59
  -5  -9   6   -2.48    2.82
   5  -9  -5   -2.35    2.64
   5  -9  -5    0.60    2.44
  -5  -9   5   -1.84    2.90
   5  -9  -4   53.17    5.45
  -5  -9   4   66.09    5.86
   5  -9  -4   53.01    5.33
  -5  -9   4   51.93    4.30
   5  -9  -3    7.98    3.00
  -5  -9   3   10.02    3.10
   5  -9  -3    6.94    2.91
  -5  -9   3    6.89    2.03
  -5  -9   2  142.09    9.86
  -5  -9   2  157.95    8.90
   5  -9  -2  173.07   10.32
   5  -9  -1   -2.72    2.33
   5  -9  -1   -2.31    2.52
  -5  -9   1    0.71    1.70
   5   9   0   50.77    2.78
   5  -9   0   55.41    5.06
   5  -9   0   59.72    5.43
  -5  -9   0   44.76    4.01
  -5  -9  -1    2.10    1.61
   5  -9   1    1.02    2.40
   5  -9   1    1.73    2.02
   5  -9   1    0.57    2.17
  -5  -9  -1    5.25    2.73
  -5  -9  -2   37.03    4.57
  -5  -9  -2   27.52    3.25
   5  -9   2   34.45    3.89
   5  -9   2   41.17    4.52
   5  -9   2   48.67    4.69
   5  -9   3    1.46    2.28
  -5  -9  -3    1.73    2.72
  -5  -9  -3    1.76    1.71
   5  -9   3   -0.87    2.06
   5  -9   3    0.57    2.50
   5  -9   4    0.87    2.02
  -5  -9  -4    2.07    1.69
  -5  -9  -4    1.15    2.46
   5  -9   4    4.75    2.51
   5  -9   5    1.31    2.17
  -5  -9  -5    0.35    1.81
  -5  -9  -5    0.57    2.29
   5  -9   5    1.39    2.35
  -5  -9  -6  141.60    9.26
   5  -9   6  153.37    8.73
   5  -9   6  136.21    8.42
  -5   9  -7    2.74    1.64
  -5  -9  -7    0.56    2.73
   5  -9   7    4.35    2.16
   5  -9   7    1.35    2.11
  -5   9  -8    7.96    2.01
  -5  -9  -8   11.77    3.32
   5  -9   8    8.24    2.65
  -5   9  -9    3.34    2.26
  -5  -9  -9   -1.11    2.70
  -5   9 -10   33.59    3.61
  -5  -9 -10   31.58    4.38
  -5   9 -11   12.04    2.72
  -5   9 -12   -0.83    2.30
  -5   9 -13    2.21    2.46
   5  10 -10    8.70    2.68
   5  10  -9   10.00    2.95
   5  10  -8   -1.60    2.14
   5  10  -7   61.85    4.97
   5  10  -6    2.21    2.03
  -5 -10   6    4.55    2.12
   5  10  -5   23.61    3.04
  -5 -10   5   24.43    3.22
   5 -10  -4    0.64    2.89
  -5 -10   4    2.86    1.94
   5 -10  -3   -1.25    3.18
  -5 -10   3    4.05    1.99
   5 -10  -2    0.61    2.75
  -5 -10   2    0.40    1.87
  -5 -10   1    2.76    2.00
   5 -10  -1    1.78    2.77
  -5 -10   0    8.61    2.26
   5 -10   0   13.18    2.91
   5 -10   0    8.75    3.20
   5 -10   1  170.44   10.17
  -5 -10  -1  186.43   10.06
  -5 -10  -2   -1.94    2.33
   5 -10   2   -0.87    2.26
   5 -10   2   -2.23    2.67
  -5 -10  -3   27.41    3.29
   5 -10   3   23.43    3.45
   5 -10   3   32.60    4.20
  -5 -10  -4   -1.14    1.96
   5 -10   4    1.06    2.58
   5 -10   4    0.44    2.18
  -5 -10  -5   25.79    3.22
   5 -10   5   26.59    3.99
   5 -10   5   19.17    3.24
   5 -10   6    2.24    2.40
   5 -10   7  150.58    8.96
   6   0 -21   -1.51    2.52
   6   0 -20   84.48    6.26
   6   0 -20   77.06    6.69
   6   0 -19   -2.79    2.25
   6   0 -19   -0.59    2.49
   6   0 -18    1.77    1.98
   6   0 -18    1.13    2.50
   6   0 -18    1.65    1.39
   6   0 -17   -0.42    1.75
   6   0 -17    0.54    2.06
   6   0 -17   -0.27    1.39
   6   0 -16    2.79    1.92
   6   0 -16    5.16    2.54
   6   0 -16    5.17    1.62
   6   0 -15   -0.38    1.61
   6   0 -15    1.08    1.29
  -6   0  15    0.60    1.28
   6   0 -14   86.05    5.81
  -6   0  14   91.55    5.77
  -6   0  14   96.03    5.56
   6   0 -14   91.60    5.32
  -6   0  13   -1.27    1.54
  -6   0  13   -0.30    1.25
   6   0 -13   -1.06    1.25
   6   0 -12  297.66   13.63
  -6   0  12  296.54   13.90
  -6   0  12  304.64   13.93
  -6   0  11   -1.10    1.36
   6   0 -11    1.04    1.16
  -6   0  11   -0.89    1.28
   6   0 -10   71.64    4.42
  -6   0  10   70.59    4.41
  -6   0  10   72.32    4.64
  -6   0   9   -0.93    1.00
   6   0  -9    0.26    1.11
  -6   0   9    1.17    1.24
   6   0  -8   88.66    5.31
  -6   0   8  102.58    5.25
  -6   0   8   95.31    5.60
  -6   0   7    0.87    1.04
  -6   0   7    0.38    0.88
   6   0  -7    2.53    1.07
   6   0  -7   -0.35    1.28
  -6   0   6  836.96   34.97
   6   0  -6  841.26   35.36
  -6   0   6  842.62   34.25
   6   0  -6  816.89   34.78
   6   0  -5    0.64    1.16
  -6   0   5    1.09    0.98
   6   0  -5    1.02    0.96
  -6   0   5    0.46    0.65
  -6   0   4  678.88   29.09
   6   0  -4  686.94   28.97
  -6   0   4  689.47   28.11
  -6   0   3    0.55    0.96
   6   0  -3   -0.26    0.96
   6   0  -2  558.50   23.36
  -6   0   2  534.94   23.57
  -6   0   1    0.28    0.93
   6   0  -1   -0.26    0.49
   6   0  -1   -0.44    0.91
   6   0   0 1311.48   55.80
   6   0   0 1387.82   54.96
  -6   0   0 1429.79   56.52
   6   0   1    0.36    0.91
   6   0   1    0.72    0.99
  -6   0  -1   -0.86    0.95
   6   0   1    0.64    0.46
   6   0   2 1139.02   48.43
  -6   0  -2 1219.18   48.72
   6   0   2 1181.63   47.72
  -6   0  -2 1196.41   48.48
   6   0   2 1156.62   48.29
   6   0   3    0.55    1.00
  -6   0  -3   -0.27    1.00
  -6   0  -3   -0.30    1.03
   6   0   3    0.14    0.75
   6   0   4 1330.98   53.05
  -6   0  -4 1316.94   52.99
   6   0   4 1265.66   51.77
   6   0   4 1257.49   52.71
  -6   0  -4 1314.03   53.23
   6   0   5   -0.29    1.03
  -6   0  -5    1.45    1.11
   6   0   5   -0.51    1.09
   6   0   5    0.09    0.54
   6   0   6   12.52    1.88
   6   0   6   13.42    0.93
  -6   0  -6   19.56    2.19
   6   0   6   14.47    1.86
   6   0   7   -0.61    1.10
  -6   0  -7   -0.65    1.14
   6   0   7   -0.28    1.03
   6   0   8   82.96    5.24
  -6   0  -8   77.05    5.28
   6   0   8   89.08    5.19
  -6   0  -8   89.04    5.58
   6   0   9   -1.62    1.33
  -6   0  -9   -1.09    1.31
  -6   0  -9    0.37    1.40
  -6   0 -10   63.06    4.94
   6   0  10   77.20    4.93
  -6   0 -10   75.35    5.19
  -6   0 -11    2.09    1.65
  -6   0 -11    0.41    1.45
  -6   0 -11   -1.21    1.85
  -6   0 -12  149.44    8.45
  -6   0 -12  127.20    8.04
  -6   0 -12  145.06    8.26
  -6   0 -13    3.68    2.07
  -6   0 -13   -0.45    1.72
  -6   0 -13   -0.43    1.90
  -6   0 -14  143.04    8.86
  -6   0 -14  149.29    8.78
  -6   0 -14  145.04    8.63
  -6   0 -15    2.53    2.42
  -6   0 -15   -1.49    2.17
  -6   0 -15    0.46    2.23
  -6   0 -16    5.01    1.13
  -6   0 -16    8.41    2.71
  -6   0 -16    3.18    2.35
  -6   0 -17    1.66    2.41
  -6   0 -17   -1.43    2.05
  -6   0 -18   55.16    5.38
  -6   0 -18   51.18    5.00
  -6   0 -19    0.49    2.34
  -6   0 -20   82.34    6.42
  -6   0 -21    0.50    2.73
   6  -1 -22    0.96    2.47
   6  -1 -21    4.19    2.44
   6   1 -21    6.43    3.05
   6   1 -21    1.25    2.77
   6  -1 -20    7.60    2.69
   6   1 -20    7.76    2.78
   6   1 -20    5.96    2.90
   6  -1 -19  117.75    7.53
   6   1 -19  132.09    8.58
   6   1 -19  124.38    7.94
   6  -1 -18    0.41    1.99
   6   1 -18    1.89    2.18
   6   1 -18    2.75    2.57
   6  -1 -18    1.65    1.86
   6   1 -18    0.42    1.27
   6  -1 -17  168.32    8.87
   6   1 -17  149.58    8.96
   6   1 -17  166.36    9.66
   6  -1 -17  151.67    8.34
   6   1 -17  152.50    7.62
   6  -1 -16   11.02    2.23
   6   1 -16   14.20    2.76
  -6  -1  16    9.38    1.86
   6   1 -16    6.04    2.51
   6  -1 -16    3.54    1.72
   6   1 -16    5.88    1.38
   6  -1 -15   30.62    3.23
   6   1 -15   35.96    3.64
   6  -1 -15   33.15    3.94
   6  -1 -15   34.20    3.21
   6   1 -15   33.76    2.72
  -6  -1  15   33.23    3.01
   6  -1 -14   -1.00    1.63
   6   1 -14   -0.39    1.62
   6  -1 -14    0.96    1.79
   6   1 -14   -0.92    1.94
   6  -1 -14   -0.62    1.54
  -6  -1  14    1.43    1.32
  -6   1  13   28.88    2.98
   6  -1 -13   26.78    2.83
   6  -1 -13   30.59    3.37
   6  -1 -13   23.84    2.62
   6   1 -13   17.91    2.87
  -6  -1  13   29.10    2.68
  -6   1  13   22.60    2.60
  -6   1  12    2.86    1.65
   6  -1 -12    0.43    1.58
   6   1 -12    1.24    1.64
   6  -1 -12    1.20    1.46
  -6   1  12    1.58    1.34
  -6  -1  12    2.87    1.31
   6  -1 -11  277.94   14.31
   6   1 -11  305.61   14.44
  -6   1  11  281.73   13.74
  -6  -1  11  309.78   13.60
   6  -1 -11  288.46   13.67
  -6  -1  11  304.77   13.74
  -6   1  11  295.19   13.75
  -6  -1  10    3.50    1.19
  -6   1  10    4.09    1.43
  -6  -1  10    4.30    1.31
   6   1 -10    6.10    1.79
   6   1 -10    4.18    1.71
   6  -1 -10    3.96    1.63
  -6   1  10    4.63    1.41
   6  -1 -10    2.92    1.32
  -6   1   9    3.29    1.26
  -6  -1   9    4.31    1.29
   6   1  -9    5.84    1.75
   6   1  -9    2.88    1.43
   6  -1  -9    2.89    1.30
   6  -1  -9    2.61    1.63
  -6   1   9    3.06    1.15
  -6   1   8   20.69    2.17
   6  -1  -8   17.60    2.42
   6   1  -8   18.10    2.52
  -6  -1   8   23.11    1.97
  -6   1   8   22.54    2.40
   6  -1  -8   20.86    2.34
   6   1  -7   74.28    4.79
   6  -1  -7   82.79    5.10
   6  -1  -7   68.59    4.46
  -6  -1   7   67.18    4.25
  -6  -1   7   68.49    3.85
  -6   1   7   68.97    4.53
  -6   1   7   68.70    4.18
   6  -1  -6    0.67    1.15
  -6  -1   6    2.24    0.80
   6   1  -6    3.14    1.37
  -6  -1   6    0.75    0.98
   6  -1  -6    3.98    1.40
  -6   1   6    2.06    0.90
  -6   1   6    2.91    1.25
  -6  -1   5  377.97   16.21
   6   1  -5  375.25   16.51
  -6   1   5  351.38   16.38
   6  -1  -5  360.32   16.31
   6  -1  -5  379.89   16.65
  -6   1   5  335.90   15.63
  -6  -1   5  369.99   15.28
  -6   1   5  363.78   16.40
  -6  -1   4    1.98    0.61
   6  -1  -4    1.05    0.69
   6   1  -4    0.85    1.10
  -6   1   4    0.30    0.92
  -6  -1   4    1.78    1.00
   6  -1  -4   -0.28    1.05
  -6   1   4    1.74    0.83
  -6   1   4    0.86    0.94
   6   1  -3 1108.63   45.05
  -6  -1   3 1088.75   43.62
  -6  -1   3 1084.59   44.90
   6  -1  -3 1061.60   44.20
  -6   1   3 1141.68   45.25
  -6   1   3 1076.21   45.20
  -6   1   2    6.52    1.44
   6  -1  -2    5.27    0.91
   6   1  -2    5.21    1.26
  -6  -1   2    7.80    1.47
   6   1  -2    2.69    1.01
  -6   1   2    4.78    1.39
   6  -1  -1    8.22    1.08
  -6   1   1   14.90    1.87
  -6  -1   1   11.07    1.64
   6   1  -1    8.98    1.50
   6   1  -1   11.80    1.65
   6   1   0  120.80    6.27
  -6  -1   0  117.63    6.59
   6  -1   0  128.59    5.88
  -6   1   0  125.46    6.83
   6  -1   1   50.86    3.54
  -6   1  -1   58.55    3.94
   6   1   1   50.25    3.30
  -6  -1  -1   57.66    3.59
  -6  -1  -1   51.91    3.68
   6  -1   2    3.55    1.22
   6   1   2    4.15    1.06
  -6  -1  -2    6.21    1.22
   6   1   2    2.02    0.99
  -6   1  -2    3.39    1.27
  -6  -1  -2    2.89    1.17
   6  -1   2    5.55    1.37
   6   1   3  926.26   39.98
   6  -1   3  957.37   39.90
   6  -1   3  959.49   38.95
   6  -1   3  954.87   40.06
  -6   1  -3  954.25   40.05
  -6  -1  -3  975.26   39.86
   6   1   3 1003.23   39.72
   6   1   3  934.41   39.18
  -6  -1  -3  998.81   40.21
   6   1   4    5.26    1.36
   6  -1   4    8.03    1.53
  -6   1  -4    8.03    1.52
  -6  -1  -4    9.21    1.49
   6  -1   4    7.07    1.53
   6  -1   4    8.76    0.99
   6   1   4    7.02    1.06
  -6  -1  -4    8.71    1.64
   6  -1   4    8.27    1.68
   6   1   5  170.90    8.87
   6  -1   5  167.00    8.72
   6   1   5  178.71    7.86
   6  -1   5  170.21    7.44
  -6   1  -5  189.42    9.10
  -6  -1  -5  183.66    8.86
   6  -1   5  188.27    8.98
   6  -1   5  165.19    8.74
  -6  -1  -5  177.64    9.09
   6   1   6   93.49    5.38
   6  -1   6   81.62    5.13
  -6   1  -6   84.56    5.34
  -6  -1  -6   85.45    5.23
   6  -1   6   88.23    5.22
   6   1   6   90.69    4.19
   6  -1   6   83.22    5.16
   6   1   6   75.18    4.79
  -6   1  -6   85.86    5.42
  -6  -1  -6   82.41    5.37
   6  -1   7   12.79    1.93
  -6   1  -7   11.39    1.96
  -6  -1  -7   10.13    1.86
   6  -1   7    9.78    1.74
   6   1   7   13.07    1.67
  -6   1  -7   10.78    1.87
   6  -1   8    7.73    1.70
  -6   1  -8    4.92    1.53
  -6  -1  -8   10.03    1.87
   6  -1   8    5.09    1.53
  -6   1  -8    8.24    1.82
   6  -1   9  303.34   14.37
  -6   1  -9  327.55   14.84
  -6  -1  -9  308.89   14.64
   6  -1   9  297.77   14.40
  -6   1  -9  318.17   14.81
  -6  -1  -9  297.96   14.73
  -6   1 -10   10.36    2.43
   6  -1  10   10.59    1.94
  -6   1 -10   12.52    2.33
  -6  -1 -10   12.81    2.29
  -6   1 -10   15.67    2.50
  -6  -1 -10   11.53    2.16
  -6   1 -11  484.78   21.15
  -6   1 -11  469.41   20.93
  -6  -1 -11  478.17   20.94
  -6   1 -11  452.84   20.74
  -6  -1 -11  494.03   21.14
  -6   1 -11  413.10   19.41
  -6   1 -12    0.19    0.93
  -6   1 -12    0.89    1.75
  -6  -1 -12    0.42    1.68
  -6   1 -12   -0.41    1.52
  -6  -1 -12   -0.43    1.79
  -6   1 -13   -0.93    1.97
  -6  -1 -13    1.35    1.87
  -6   1 -13    0.83    1.82
  -6  -1 -13    4.01    2.08
  -6   1 -13   -0.18    0.92
  -6   1 -14   78.17    5.99
  -6   1 -14   87.35    5.89
  -6  -1 -14   84.82    5.99
  -6   1 -14   75.93    4.21
  -6   1 -15   -0.51    2.06
  -6  -1 -15    1.00    2.17
  -6  -1 -15    0.48    2.07
  -6   1 -15   -1.31    1.96
  -6   1 -15   -0.12    0.84
  -6   1 -16   -1.07    2.23
  -6  -1 -16    4.18    2.31
  -6   1 -16    2.23    2.11
  -6  -1 -16    0.49    2.07
  -6   1 -16    2.57    0.75
  -6  -1 -17  141.90    9.45
  -6   1 -17  163.53    9.90
  -6   1 -17  167.06    9.85
  -6  -1 -17  152.29    9.55
  -6   1 -17  153.50    9.13
  -6  -1 -17  173.58    9.73
  -6   1 -18    5.83    2.86
  -6   1 -18    1.83    2.11
  -6   1 -18    5.75    2.98
  -6  -1 -18    4.55    2.56
  -6  -1 -18    3.60    2.44
  -6  -1 -19    2.10    2.70
  -6   1 -19    1.39    2.32
  -6  -1 -20    5.86    3.09
  -6   1 -20    0.93    2.41
   6  -2 -22    6.67    2.81
   6  -2 -21   -1.28    2.11
   6   2 -21   -4.23    3.00
   6  -2 -20    2.03    2.04
   6   2 -20    8.24    2.82
   6   2 -20    5.77    2.99
   6  -2 -20    5.08    3.01
   6  -2 -19    3.52    2.17
   6   2 -19    1.58    2.33
   6   2 -19    2.20    2.54
   6  -2 -18   64.41    4.77
   6   2 -18   61.50    5.49
   6  -2 -18   58.60    5.65
   6   2 -18   61.35    5.36
   6   2 -17   -0.96    2.10
   6   2 -17   -0.78    0.87
   6  -2 -17    1.13    2.38
   6   2 -17   -1.02    2.47
  -6  -2  17   -0.50    1.35
   6   2 -16  214.38   10.20
   6  -2 -16  252.60   11.70
   6   2 -16  267.40   12.66
   6  -2 -16  231.59   12.69
   6   2 -16  254.31   12.68
  -6  -2  16  231.70   11.03
   6  -2 -15   29.30    2.88
   6   2 -15   34.63    3.66
   6  -2 -15   28.11    3.66
   6   2 -15   22.78    3.31
   6  -2 -15   23.71    3.04
   6   2 -15   27.23    2.13
  -6  -2  15   26.68    2.61
   6  -2 -14  103.38    6.19
   6  -2 -14  112.58    7.36
   6   2 -14  123.83    7.36
   6   2 -14  125.79    7.19
   6  -2 -14  105.12    6.54
   6   2 -14  106.29    5.41
  -6  -2  14  105.28    6.09
  -6   2  13    0.71    1.61
   6  -2 -13    3.95    1.51
   6  -2 -13   -1.40    2.03
   6   2 -13   -0.42    1.68
   6  -2 -13    1.73    1.66
   6   2 -13    1.37    1.02
  -6  -2  13    2.84    1.41
   6   2 -12  337.71   17.78
   6  -2 -12  390.36   17.07
   6  -2 -12  389.83   18.27
   6   2 -12  397.28   17.98
   6  -2 -12  390.53   17.54
   6   2 -12  371.60   16.36
  -6   2  12  387.83   17.53
  -6  -2  12  401.46   17.23
  -6   2  11    8.19    1.95
   6  -2 -11    5.43    2.02
   6   2 -11   11.21    2.22
   6   2 -11    8.16    1.31
   6  -2 -11    4.66    1.62
   6  -2 -10  726.38   29.87
   6   2 -10  696.07   29.56
   6  -2 -10  682.05   29.24
   6   2 -10  647.19   28.16
  -6   2  10  689.40   29.01
  -6   2  10  672.36   29.18
   6   2  -9    1.52    1.50
   6  -2  -9    2.25    1.30
   6  -2  -9    1.91    1.51
   6   2  -9    1.34    0.93
   6   2  -9    0.70    1.37
  -6   2   9    3.90    1.42
  -6   2   9    2.52    1.34
   6   2  -8  569.07   25.09
   6  -2  -8  567.81   25.12
   6   2  -8  611.71   25.17
  -6  -2   8  561.61   24.09
   6  -2  -8  594.31   24.86
  -6   2   8  551.37   24.46
  -6   2   8  551.33   24.72
   6   2  -7    4.17    1.65
   6  -2  -7    2.82    1.27
  -6  -2   7    3.59    1.08
   6  -2  -7    3.88    1.43
  -6   2   7    6.08    1.46
  -6   2   7    4.07    1.33
   6   2  -7    4.68    1.61
   6   2  -6  300.33   13.98
   6   2  -6  274.71   12.79
   6  -2  -6  313.25   14.13
  -6  -2   6  291.93   13.22
   6   2  -6  319.87   13.97
  -6   2   6  299.48   13.36
   6  -2  -6  298.38   13.41
  -6   2   6  282.27   13.65
   6  -2  -6  291.59   13.77
   6  -2  -5    0.32    1.24
   6  -2  -5    1.41    0.92
   6   2  -5    1.85    0.83
   6   2  -5    0.31    1.13
  -6  -2   5    2.57    1.01
  -6   2   5    1.22    1.05
   6   2  -4   61.27    4.37
   6   2  -4   66.03    3.74
  -6  -2   4   71.36    4.24
   6  -2  -4   72.63    4.67
   6  -2  -4   75.67    4.24
  -6  -2   4   67.33    3.29
  -6   2   4   68.36    4.50
  -6  -2   3    1.23    0.38
   6  -2  -3    0.64    0.82
   6   2  -3    1.33    0.83
   6   2  -3    2.50    1.26
  -6   2   3    0.65    1.21
  -6  -2   3    1.70    1.03
  -6   2   3    1.18    0.99
   6   2  -2   25.15    2.38
   6   2  -2   24.83    1.93
   6  -2  -2   25.62    2.48
  -6  -2   2   21.59    2.20
  -6   2   2   22.44    2.47
   6  -2  -2   24.58    2.09
  -6   2   2   27.46    2.54
   6   2  -1    2.26    1.13
   6  -2  -1    3.26    0.98
   6  -2  -1    2.65    1.25
   6   2  -1    3.16    0.95
  -6   2   1    5.45    1.42
  -6  -2   1    1.56    0.98
   6  -2  -1    3.72    1.01
   6  -2   0    3.57    1.06
   6   2   0    3.57    1.13
  -6  -2   0    2.59    0.90
   6  -2   0    3.26    1.22
  -6   2   0    2.58    1.28
   6  -2   0    3.42    1.38
  -6  -2   0    4.58    1.16
   6  -2   0    5.08    0.99
   6  -2   1    0.94    0.99
  -6  -2  -1   -0.23    0.94
   6   2   1    0.23    0.98
  -6  -2  -1   -0.42    0.83
   6  -2   1    0.29    1.00
  -6   2  -1   -0.32    1.16
  -6  -2  -1    0.28    0.94
   6  -2   1   -0.31    1.14
  -6   2  -1    0.82    1.02
   6  -2   2  452.15   20.30
  -6  -2  -2  465.04   20.18
  -6  -2  -2  478.78   20.28
   6  -2   2  486.99   20.76
   6   2   2  459.13   20.15
   6  -2   2  494.00   20.94
  -6  -2  -2  487.95   20.80
  -6   2  -2  463.74   20.54
   6  -2   3   24.14    2.30
  -6  -2  -3   31.86    2.76
  -6  -2  -3   25.71    2.21
  -6  -2  -3   21.14    2.17
   6  -2   3   25.59    2.53
   6   2   3   25.46    2.16
   6   2   3   26.16    2.02
  -6   2  -3   25.09    2.44
   6  -2   3   26.11    2.66
   6  -2   4    5.96    1.36
  -6   2  -4    7.22    1.42
   6   2   4    7.36    1.29
  -6  -2  -4    4.77    1.17
  -6  -2  -4    3.07    1.26
   6  -2   4    6.01    1.46
  -6   2  -4    5.99    1.53
   6  -2   4    8.45    1.67
  -6  -2  -4    4.74    1.40
   6   2   4    5.78    0.58
   6   2   5    2.10    0.61
   6  -2   5    0.27    1.08
   6  -2   5    2.17    0.60
  -6  -2  -5    1.97    0.95
  -6   2  -5    1.64    1.23
  -6  -2  -5    1.09    1.08
   6  -2   5    2.47    1.24
  -6   2  -5    0.34    1.13
   6  -2   5    1.88    1.33
  -6  -2  -5    1.65    1.24
   6   2   5    2.59    0.96
  -6   2  -5    2.76    1.11
   6  -2   6  491.12   20.93
  -6  -2  -6  497.59   20.16
   6  -2   6  453.35   19.14
  -6   2  -6  508.20   21.43
  -6  -2  -6  499.97   21.01
   6  -2   6  504.13   21.18
  -6   2  -6  521.97   21.53
   6   2   6  491.59   20.08
  -6  -2  -6  485.41   21.34
   6   2   6  532.87   19.85
   6  -2   6  465.15   19.12
  -6   2  -6  485.31   20.65
  -6  -2  -7   45.84    3.88
   6   2   7   47.57    3.78
   6  -2   7   50.79    3.75
  -6  -2  -7   49.99    3.07
  -6   2  -7   45.80    3.85
  -6  -2  -7   50.70    3.81
   6  -2   7   54.43    3.90
   6   2   7   55.04    3.05
  -6   2  -7   52.14    3.96
  -6   2  -7   51.98    4.05
  -6   2  -7   48.92    3.39
  -6   2  -8  324.95   14.90
   6   2   8  305.88   14.53
   6  -2   8  293.83   14.34
  -6  -2  -8  290.97   13.34
  -6  -2  -8  325.13   14.73
  -6   2  -8  324.18   14.93
   6   2   8  343.65   13.68
  -6   2  -8  304.06   13.86
   6   2   9   -1.19    1.00
   6   2   9    2.00    1.36
  -6  -2  -9   -0.53    0.85
  -6  -2  -9    1.06    1.35
  -6   2  -9    0.74    1.50
  -6   2  -9   -2.35    1.06
   6   2  10   14.15    1.98
  -6  -2 -10   15.34    1.38
   6   2  10   15.71    2.21
  -6  -2 -10   13.19    2.28
  -6   2 -10   12.92    2.26
  -6   2 -10   15.25    1.72
   6   2  11   13.99    2.02
  -6  -2 -11   11.27    1.15
  -6  -2 -11    9.46    2.27
  -6  -2 -11   10.83    2.19
  -6   2 -11   11.28    2.24
  -6   2 -11   11.32    1.47
  -6   2 -12  133.10    7.90
  -6  -2 -12  129.61    5.99
  -6  -2 -12  168.11    8.55
  -6  -2 -12  142.54    8.32
   6   2  12  167.05    7.59
  -6   2 -12  129.59    6.52
   6   2  13    2.68    1.69
  -6   2 -13    3.70    2.16
  -6  -2 -13    4.51    2.16
  -6   2 -13    2.44    1.80
  -6  -2 -13    2.32    1.87
  -6   2 -13    3.99    1.02
  -6   2 -14    5.79    2.13
   6   2  14    3.21    1.89
  -6   2 -14    3.39    2.35
  -6  -2 -14    4.28    2.37
  -6  -2 -14    8.68    2.45
  -6   2 -15    4.05    2.25
  -6  -2 -15    6.50    2.43
  -6   2 -15    4.62    2.29
  -6  -2 -15    5.48    2.27
  -6   2 -16    0.53    2.24
  -6  -2 -16    4.72    2.45
  -6   2 -16    1.70    2.04
  -6  -2 -16    7.18    2.82
  -6   2 -17    1.69    2.57
  -6   2 -17    5.60    2.28
  -6   2 -17    2.75    2.37
  -6  -2 -17    4.94    2.75
  -6  -2 -17    0.53    2.22
  -6   2 -18    8.00    2.88
  -6   2 -18    8.66    2.65
  -6  -2 -18    7.01    2.87
  -6   2 -19    1.74    2.18
  -6  -2 -19   -0.55    2.61
   6   3 -21    0.58    2.89
   6  -3 -20    4.42    2.17
   6   3 -20    3.86    2.64
   6  -3 -19   72.17    5.28
   6   3 -19   87.27    6.57
   6  -3 -19   93.40    7.02
   6   3 -19   78.33    6.39
   6  -3 -18    3.30    2.01
   6   3 -18    4.80    2.39
   6   3 -18    1.01    2.23
   6  -3 -18    5.91    2.90
   6  -3 -17  175.12    8.79
   6   3 -17  156.47    9.54
   6  -3 -17  159.31   10.04
   6   3 -17  167.14    9.83
   6  -3 -16    8.62    1.83
   6   3 -16   12.34    2.76
   6  -3 -16    9.76    2.95
   6   3 -16    9.27    2.48
  -6  -3  16   10.30    1.81
   6  -3 -15   43.46    3.39
   6  -3 -15   52.39    4.70
   6   3 -15   45.74    4.22
   6   3 -15   37.42    4.06
  -6  -3  15   39.74    3.31
  -6  -3  14   18.16    2.26
   6  -3 -14   15.95    2.11
   6   3 -14   21.29    3.15
   6  -3 -14   17.28    3.04
   6   3 -14   20.37    2.91
   6  -3 -13    6.85    1.52
   6  -3 -13    6.59    2.26
   6   3 -13    4.07    1.81
   6  -3 -13    4.60    1.93
   6  -3 -12   66.21    4.17
   6  -3 -12   76.32    5.47
   6   3 -12   69.34    5.12
   6  -3 -12   68.48    4.97
  -6   3  12   71.77    5.00
   6  -3 -11  247.33   11.52
   6  -3 -11  246.46   12.79
   6   3 -11  253.32   12.55
   6  -3 -11  253.97   12.50
  -6   3  11  268.34   12.48
   6  -3 -10   23.72    2.82
   6  -3 -10   24.18    3.01
   6   3 -10   29.44    3.04
  -6   3  10   26.77    2.90
   6   3  -9    3.88    1.95
  -6  -3   9    1.98    0.95
   6  -3  -9    3.89    1.55
   6  -3  -9    2.34    1.60
   6   3  -9    4.77    1.67
  -6   3   9    1.87    1.38
   6  -3  -8    3.64    1.45
   6   3  -8    1.74    0.79
  -6  -3   8    3.12    1.06
   6  -3  -8    1.40    1.48
   6  -3  -8   -0.37    1.30
   6   3  -8    3.77    1.72
   6   3  -8    0.67    1.42
  -6   3   8    1.77    1.38
   6   3  -7  162.29    8.65
   6   3  -7  151.51    7.14
   6  -3  -7  158.23    8.58
   6   3  -7  175.07    8.66
   6  -3  -7  170.58    8.65
  -6  -3   7  168.53    7.78
  -6   3   7  152.87    8.15
  -6   3   7  177.02    8.68
   6  -3  -7  136.98    8.11
   6   3  -6   -0.62    1.34
   6  -3  -6    1.81    1.31
   6   3  -6    0.36    0.61
  -6  -3   6   -0.64    0.89
   6  -3  -6    0.68    1.30
   6   3  -6    1.05    1.34
  -6   3   6   -0.99    1.26
   6   3  -5  121.80    7.02
   6   3  -5  121.12    5.71
   6  -3  -5  129.45    7.09
  -6  -3   5  123.69    6.41
   6  -3  -5  124.51    6.80
  -6   3   5  131.53    7.06
   6  -3  -4   14.27    2.04
   6  -3  -4    7.92    1.63
   6   3  -4   11.21    1.97
   6  -3  -4    9.37    1.76
   6   3  -4    9.82    1.11
  -6  -3   4   10.71    1.52
  -6   3   4   12.15    1.87
   6   3  -3  482.85   21.47
   6   3  -3  476.83   20.20
   6  -3  -3  491.26   21.64
  -6  -3   3  490.58   21.03
   6  -3  -3  499.69   21.54
   6  -3  -3  486.48   21.19
  -6   3   3  506.72   21.61
   6  -3  -2    0.19    0.80
   6   3  -2    0.88    1.06
  -6  -3   2    1.19    1.07
   6  -3  -2    1.00    1.20
  -6  -3   2   -0.50    1.07
   6  -3  -2   -0.77    1.06
   6  -3  -1    5.37    1.23
  -6  -3   1    8.29    1.62
   6   3  -1   13.67    1.89
   6  -3  -1    7.05    1.71
  -6   3   1   12.41    1.97
   6  -3  -1   14.11    2.03
  -6  -3   1   13.18    1.72
   6  -3  -1   14.41    1.75
   6  -3   0   51.98    3.39
  -6  -3   0   61.53    3.93
  -6  -3   0   51.65    3.26
   6  -3   0   56.97    4.03
   6   3   0   50.78    3.71
   6  -3   0   54.61    4.03
  -6  -3   0   58.69    3.83
   6  -3   0   56.71    3.64
  -6   3   0   51.38    3.77
   6  -3   1    4.09    1.19
  -6  -3  -1    6.91    1.42
  -6  -3  -1    4.95    1.04
   6  -3   1    3.86    1.41
  -6  -3  -1    5.15    1.48
   6   3   1    8.56    1.51
   6  -3   1    2.34    1.34
   6   3   1    3.40    0.82
  -6   3  -1    6.60    1.39
   6   3   2    0.25    1.07
   6  -3   2    0.68    0.91
  -6  -3  -2    0.21    0.84
   6  -3   2    0.32    1.14
  -6  -3  -2    0.51    1.03
   6   3   2    0.36    0.64
   6  -3   2   -0.33    1.20
  -6  -3  -2   -0.30    1.08
  -6   3  -2    0.28    0.91
   6   3   3  649.54   26.81
   6  -3   3  611.31   26.69
  -6  -3  -3  643.29   26.84
  -6  -3  -3  632.90   26.71
   6  -3   3  645.66   27.37
   6   3   3  597.94   25.91
  -6   3  -3  674.80   27.63
   6  -3   3  633.90   27.40
  -6  -3  -3  657.94   27.35
  -6   3  -3  651.06   27.06
   6   3   4    7.28    1.78
   6  -3   4    7.43    1.56
  -6  -3  -4    7.43    1.41
   6  -3   4    8.02    1.74
  -6  -3  -4    9.29    1.52
   6   3   4    5.96    1.46
  -6   3  -4    9.47    1.86
   6  -3   4   11.68    2.01
  -6  -3  -4    9.23    1.72
   6  -3   4    8.52    1.17
  -6   3  -4    8.47    1.53
   6   3   5  312.81   15.31
  -6  -3  -5  338.44   15.64
   6  -3   5  327.35   15.03
  -6  -3  -5  321.56   14.83
  -6  -3  -5  345.26   15.18
   6  -3   5  365.70   15.64
   6   3   5  342.59   14.82
   6  -3   5  330.42   14.11
   6  -3   5  322.76   15.60
  -6   3  -5  353.40   15.80
   6  -3   5  334.39   15.52
  -6   3  -5  335.60   15.04
   6   3   6    0.98    1.39
   6   3   6   -0.63    1.05
   6  -3   6    0.82    1.26
   6  -3   6    0.94    0.63
  -6  -3  -6    0.29    1.11
   6  -3   6    0.99    1.36
   6  -3   6    0.36    1.20
  -6  -3  -6    0.88    1.12
  -6   3  -6    1.79    1.44
   6  -3   6   -1.64    1.55
  -6   3  -6   -0.25    1.05
   6   3   6    1.03    0.81
  -6   3  -7   12.88    1.98
   6   3   7    7.14    1.64
   6  -3   7    7.10    1.74
   6   3   7    8.57    1.49
   6  -3   7   10.28    0.77
  -6  -3  -7   10.49    1.94
   6  -3   7   12.11    2.15
   6  -3   7   13.04    2.13
  -6  -3  -7    9.06    1.49
  -6   3  -7    7.63    1.88
   6  -3   7   11.69    2.04
  -6   3  -7   10.09    1.62
   6   3   7    8.94    1.22
  -6   3  -8   89.54    5.77
   6   3   8   86.28    5.46
   6  -3   8   85.91    5.30
  -6  -3  -8   77.14    4.66
  -6  -3  -8   87.53    5.52
   6  -3   8   80.47    5.39
   6  -3   8   83.51    5.63
  -6   3  -8   86.06    5.65
   6   3   8  100.40    4.72
  -6   3  -8   86.35    4.87
  -6   3  -9  160.72    8.79
   6   3   9  157.75    8.51
   6   3   9  150.40    8.53
   6  -3   9  148.90    8.19
  -6  -3  -9  154.64    7.56
  -6   3  -9  168.65    9.01
  -6  -3  -9  159.76    8.60
   6  -3   9  148.19    8.56
  -6   3  -9  150.60    8.59
   6   3   9  171.95    7.70
  -6   3  -9  159.93    7.68
  -6   3 -10   33.47    3.42
  -6  -3 -10   26.69    2.24
  -6   3 -10   30.01    3.34
  -6  -3 -10   25.90    3.11
   6  -3  10   35.78    3.39
  -6   3 -10   31.29    3.26
   6   3  10   30.05    2.55
  -6   3 -10   27.36    2.29
  -6   3 -11  394.11   18.26
   6  -3  11  363.34   17.58
  -6  -3 -11  366.19   16.46
  -6   3 -11  374.85   18.15
  -6  -3 -11  379.97   17.98
  -6   3 -11  381.01   17.87
   6   3  11  442.29   17.23
   6   3  12   10.51    2.05
  -6   3 -12   15.70    2.75
  -6   3 -12   10.07    2.42
  -6  -3 -12    9.89    2.47
  -6  -3 -12    5.07    1.28
  -6   3 -12   13.39    2.43
   6   3  13    3.61    1.64
  -6   3 -13   10.87    2.56
  -6   3 -13    8.37    2.26
  -6   3 -13    6.22    2.22
  -6  -3 -13    5.91    2.44
  -6  -3 -13    6.02    1.30
  -6   3 -14    8.44    2.52
  -6   3 -14   11.91    2.68
  -6  -3 -14    8.17    2.62
  -6  -3 -14    9.10    1.35
  -6   3 -14   10.48    2.38
  -6   3 -15    4.17    2.68
  -6   3 -15    7.74    2.71
  -6  -3 -15   10.10    2.88
  -6  -3 -15    4.97    1.14
  -6   3 -15    4.87    2.13
  -6  -3 -15    4.17    2.48
  -6  -3 -16    6.99    2.89
  -6   3 -16   11.46    3.18
  -6   3 -16    7.49    2.59
  -6  -3 -16   11.13    2.96
  -6   3 -16    9.37    2.27
  -6   3 -17   92.23    6.90
  -6   3 -17   85.98    6.74
  -6  -3 -17   84.87    6.78
  -6   3 -17   87.48    6.06
  -6  -3 -17   84.08    6.67
  -6  -3 -18    5.68    2.92
  -6   3 -18    2.83    1.99
   6   4 -21    4.29    2.95
   6   4 -20   32.56    4.30
   6   4 -19   -0.99    2.48
   6  -4 -19    3.11    2.71
   6   4 -18    3.37    2.48
   6   4 -18   -0.47    2.20
   6  -4 -18    2.96    2.97
   6  -4 -17    0.81    1.53
   6   4 -17   -2.16    2.39
   6   4 -17    0.90    2.16
   6  -4 -17   -1.14    2.73
   6  -4 -16   10.86    1.89
   6   4 -16    9.36    2.69
   6   4 -16   10.45    2.42
   6  -4 -16    8.24    2.93
  -6  -4  16    9.60    1.82
   6  -4 -15   15.18    1.99
   6   4 -15   14.55    3.02
   6  -4 -15   10.45    2.87
   6   4 -15   12.43    2.51
   6  -4 -14   51.69    3.57
   6  -4 -14   57.41    5.11
   6   4 -14   56.48    4.80
   6   4 -14   53.72    4.44
   6  -4 -13    1.03    1.09
   6  -4 -13    3.33    2.13
   6   4 -13    1.90    1.82
   6  -4 -12  146.39    7.26
   6  -4 -12  162.91    9.02
   6   4 -12  150.21    8.31
   6  -4 -11   52.13    3.09
   6   4 -11   46.34    2.53
   6  -4 -11   47.47    4.26
   6   4 -11   44.60    3.82
   6  -4 -10   72.22    3.94
   6   4 -10   67.41    3.32
   6  -4 -10   78.38    5.39
   6   4 -10   72.99    4.90
   6  -4 -10   75.13    5.22
  -6   4  10   73.85    5.03
   6  -4 -10   73.50    5.05
   6  -4  -9    2.51    1.57
   6  -4  -9    2.75    1.64
   6   4  -9    2.43    0.54
  -6  -4   9    3.28    1.01
   6  -4  -9    3.07    1.60
   6  -4  -9    6.20    2.01
   6   4  -9    3.93    1.70
  -6   4   9    1.68    1.54
   6  -4  -8   28.15    3.03
  -6  -4   8   37.63    2.49
   6   4  -8   36.68    3.60
   6   4  -8   29.85    1.57
   6   4  -8   44.50    3.35
   6  -4  -8   28.86    3.26
   6  -4  -8   42.40    3.47
   6  -4  -7   10.19    2.07
   6   4  -7   11.29    2.17
  -6  -4   7   11.08    1.51
   6  -4  -7    8.89    2.01
   6   4  -7    8.25    1.88
  -6  -4   6  999.25   42.60
   6   4  -6 1003.07   42.45
   6  -4  -6  989.56   42.17
   6  -4  -6  976.15   42.35
  -6  -4   6 1015.32   41.32
   6   4  -6 1074.35   42.12
   6  -4  -6  989.71   42.32
   6  -4  -6  997.43   42.27
   6  -4  -5    7.03    1.77
   6  -4  -5    8.71    1.84
   6  -4  -5    5.74    1.07
   6   4  -5    8.66    1.72
   6   4  -5    5.45    1.94
  -6  -4   5    7.77    1.45
   6  -4  -5    6.93    1.78
   6  -4  -5    7.99    1.96
   6  -4  -4  355.65   15.99
   6   4  -4  376.79   17.40
   6  -4  -4  403.93   17.38
   6  -4  -4  392.07   17.51
  -6  -4   4  393.78   16.69
   6  -4  -4  360.11   17.13
   6  -4  -4  392.39   17.32
   6  -4  -3    1.43    1.54
   6  -4  -3    2.16    1.51
   6  -4  -3    2.13    0.91
   6   4  -3    1.02    1.53
  -6  -4   3    0.74    1.08
   6  -4  -3    2.20    1.31
   6  -4  -2  703.19   29.25
  -6  -4   2  732.76   30.55
   6   4  -2  697.45   30.37
   6  -4  -2  746.10   30.69
   6  -4  -2  711.58   30.21
   6  -4  -2  731.06   30.35
  -6  -4   2  742.66   29.99
  -6  -4   2  686.83   28.65
  -6  -4   1    7.21    0.75
   6  -4  -1   11.71    1.42
   6   4  -1   11.68    2.04
   6  -4  -1    6.92    1.67
  -6  -4   1    7.59    1.83
   6  -4  -1    5.00    1.72
  -6  -4   1   10.36    1.66
   6  -4  -1    9.99    1.75
   6  -4   0  605.37   26.52
  -6  -4   0  660.45   27.57
   6  -4   0  609.94   27.55
  -6  -4   0  684.75   26.49
   6  -4   0  683.16   27.49
   6   4   0  623.88   25.64
   6  -4   0  660.10   27.85
   6   4   0  627.59   27.37
  -6  -4   0  637.99   27.28
   6  -4   1    0.59    0.91
   6   4   1    0.30    1.44
   6  -4   1    0.70    1.54
  -6  -4  -1   -0.18    0.91
  -6  -4  -1    1.25    1.34
   6  -4   1   -0.36    1.28
  -6  -4  -1    3.32    1.33
   6  -4   2  437.97   18.84
   6   4   2  432.08   19.36
  -6  -4  -2  422.47   19.39
   6  -4   2  426.62   19.68
  -6  -4  -2  445.46   18.83
  -6   4  -2  467.33   20.03
   6  -4   2  441.09   19.84
   6  -4   3   -0.45    1.08
  -6  -4  -3   -0.59    1.28
   6  -4   3    1.38    1.52
  -6  -4  -3    0.22    1.05
  -6   4  -3    0.73    1.46
   6   4   3   -0.56    1.25
   6  -4   3   -0.71    1.45
   6  -4   3    0.43    1.01
   6   4   4  548.92   25.22
   6  -4   4  561.47   24.68
  -6  -4  -4  561.89   24.98
   6  -4   4  588.57   25.46
  -6  -4  -4  609.92   24.84
   6   4   4  582.35   24.98
   6  -4   4  598.73   24.47
  -6   4  -4  619.20   25.75
   6  -4   4  572.09   25.46
   6   4   5    3.58    1.59
   6  -4   5    6.47    1.60
   6  -4   5    4.92    1.75
   6  -4   5    5.47    1.63
  -6  -4  -5    1.59    1.27
   6   4   5    7.97    1.64
   6  -4   5    3.83    1.58
  -6   4  -5    5.12    1.80
  -6  -4  -5    8.95    1.79
   6  -4   5    6.57    1.23
  -6   4  -6    7.92    1.76
   6   4   6   11.44    2.03
   6  -4   6   11.33    1.34
   6  -4   6    6.32    1.49
  -6  -4  -6   11.49    1.81
   6  -4   6    8.65    1.95
   6  -4   6   10.07    2.02
  -6   4  -6    8.46    2.05
   6   4   6    9.30    1.81
   6  -4   6    6.60    1.87
  -6  -4  -6   10.81    1.83
  -6   4  -7   42.11    3.56
   6   4   7   39.72    3.41
   6  -4   7   40.49    3.24
  -6  -4  -7   38.50    3.17
  -6  -4  -7   38.00    3.30
   6  -4   7   39.77    3.54
   6  -4   7   41.40    2.46
   6  -4   7   36.59    3.60
  -6   4  -7   38.68    3.57
   6   4   7   37.06    2.46
   6  -4   7   40.17    3.49
  -6   4  -8   74.98    4.97
   6   4   8   74.16    4.86
   6   4   8   57.74    4.62
   6  -4   8   68.55    4.52
   6  -4   8   65.34    3.31
  -6  -4  -8   63.85    4.29
  -6  -4  -8   76.39    4.87
   6  -4   8   64.48    4.71
   6  -4   8   67.29    4.97
  -6   4  -8   71.94    4.94
   6  -4   8   56.56    4.47
   6   4   8   70.14    3.84
  -6   4  -9    0.77    1.70
   6   4   9    1.03    1.68
   6  -4   9   -0.31    1.49
  -6   4  -9   -0.42    1.63
  -6  -4  -9   -0.36    1.45
   6  -4   9   -1.66    1.88
  -6   4  -9    1.14    1.78
   6   4   9    0.20    1.09
  -6  -4  -9    0.26    1.41
  -6   4 -10   73.86    5.23
  -6  -4 -10   70.58    4.50
  -6   4 -10   73.80    5.41
  -6  -4 -10   75.51    5.27
  -6   4 -10   70.75    5.12
   6   4  10   72.62    4.33
   6  -4  10   64.76    5.11
  -6   4 -11   27.89    3.50
   6  -4  11   25.32    3.03
  -6  -4 -11   28.34    2.67
  -6   4 -11   31.54    3.69
  -6   4 -11   29.41    3.19
  -6  -4 -11   33.03    3.50
   6  -4  11   33.32    3.50
   6   4  11   29.91    2.76
  -6   4 -12   56.16    4.84
  -6  -4 -12   58.15    3.96
  -6   4 -12   60.47    5.14
  -6  -4 -12   59.30    4.90
  -6   4 -12   68.08    4.89
  -6  -4 -13    0.70    1.37
  -6   4 -13   -1.43    2.26
  -6   4 -13    0.49    2.08
  -6  -4 -13    2.29    2.35
  -6   4 -13    1.95    1.80
  -6   4 -14   99.66    6.79
  -6  -4 -14   85.15    5.04
  -6   4 -14   91.20    6.64
  -6  -4 -14   98.96    6.67
  -6   4 -14   85.04    5.95
  -6   4 -15    4.22    2.60
  -6   4 -15    6.27    2.71
  -6  -4 -15    6.60    2.50
  -6   4 -15    7.38    2.00
  -6  -4 -15    4.61    1.54
  -6   4 -16    3.87    2.49
  -6   4 -16    5.40    2.72
  -6  -4 -16    6.92    2.68
  -6   4 -16    6.93    2.24
  -6   4 -17   -1.67    2.74
  -6   4 -17    0.38    1.90
   6   5 -21   19.47    3.70
   6   5 -20    1.88    2.41
   6   5 -19   49.77    4.82
   6   5 -18   -1.30    2.22
   6  -5 -18   -0.60    2.86
   6   5 -17   81.03    5.68
   6  -5 -17   73.97    6.34
   6   5 -16   10.59    2.40
   6  -5 -16   11.50    3.17
   6   5 -15   29.57    3.43
   6  -5 -15   30.48    4.08
   6  -5 -14   -0.50    2.12
   6   5 -14    0.36    1.69
   6  -5 -13   37.52    2.49
   6  -5 -13   34.34    4.01
   6   5 -13   31.24    3.33
   6  -5 -12    3.02    1.04
   6  -5 -12    3.64    2.07
   6   5 -12    1.67    1.64
   6  -5 -11  129.38    6.13
   6  -5 -11  134.04    8.05
   6   5 -11  145.48    7.51
   6   5 -10    0.92    1.42
   6  -5 -10   -0.91    2.02
   6  -5 -10    0.45    0.71
   6  -5 -10   -0.82    1.80
   6  -5  -9   46.90    2.48
   6  -5  -9   53.90    4.24
   6   5  -9   43.64    3.56
  -6  -5   9   44.75    2.71
   6  -5  -9   35.93    3.89
   6  -5  -8   14.44    2.54
   6  -5  -8   11.70    1.09
   6  -5  -8   10.72    2.15
   6   5  -8    8.46    1.75
  -6  -5   8   11.54    1.48
   6  -5  -7   42.68    2.54
  -6  -5   7   59.41    4.58
   6  -5  -7   56.13    4.08
   6   5  -7   48.13    3.63
  -6  -5   7   55.11    3.23
   6  -5  -7   45.60    4.10
   6  -5  -6    0.40    1.50
   6  -5  -6    1.68    0.65
  -6  -5   6   -0.43    1.53
   6   5  -6    2.85    1.67
   6  -5  -6   -1.18    1.47
  -6  -5   6    2.10    1.09
   6  -5  -6    2.38    1.57
   6   5  -6    0.29    1.25
   6  -5  -6    0.74    1.51
   6  -5  -5   46.15    2.58
  -6  -5   5   42.37    3.99
   6  -5  -5   51.41    3.85
   6   5  -5   55.50    4.27
   6  -5  -5   43.72    4.01
  -6  -5   5   51.97    3.34
   6   5  -5   46.60    3.58
   6  -5  -5   41.72    3.86
   6  -5  -5   48.44    3.97
   6  -5  -4   12.43    2.04
   6  -5  -4    9.80    1.95
   6  -5  -4   10.13    1.10
   6   5  -4   11.85    2.30
   6  -5  -4    9.25    2.05
  -6  -5   4    7.59    1.61
   6  -5  -4    7.51    1.82
   6  -5  -3  207.80    8.63
   6  -5  -3  226.29   10.12
   6  -5  -3  212.30   10.38
  -6  -5   3  226.24    9.73
   6   5  -3  207.23   10.34
   6  -5  -3  219.22   10.41
   6  -5  -3  230.24   10.41
   6  -5  -2    6.52    1.66
   6  -5  -2    8.94    1.92
   6   5  -2    7.96    2.07
   6  -5  -2    9.97    1.27
  -6  -5   2    9.71    2.12
   6  -5  -2    8.00    1.96
  -6  -5   2    7.94    1.57
  -6  -5   2    8.77    1.16
   6  -5  -2    9.86    2.05
   6  -5  -1   80.32    4.00
  -6  -5   1   73.77    5.20
   6  -5  -1   72.78    5.07
  -6  -5   1   69.81    3.74
   6  -5  -1   70.59    5.10
  -6  -5   1   75.64    4.75
   6  -5  -1   69.19    4.68
   6  -5  -1   78.03    5.15
   6  -5  -1   74.03    4.97
   6   5  -1   74.31    5.08
   6   5   0  117.53    6.63
   6  -5   0  111.98    5.50
  -6  -5   0  108.60    6.69
   6  -5   0  117.94    6.81
  -6  -5   0  112.58    5.40
   6  -5   0  104.81    6.61
   6  -5   0  112.14    6.63
  -6  -5   0  101.59    5.08
   6  -5   0  114.39    6.61
   6  -5   1    7.66    2.02
  -6  -5  -1    5.40    1.72
  -6  -5  -1    6.30    0.88
   6  -5   1    4.61    1.12
   6  -5   1    5.20    1.77
  -6  -5  -1    6.70    1.16
   6   5   1    7.11    1.92
   6  -5   1    5.10    1.65
   6  -5   2    0.96    0.92
   6  -5   2    1.12    1.30
   6  -5   2   -0.37    1.47
  -6  -5  -2    0.39    1.02
  -6  -5  -2    0.35    1.47
   6  -5   2   -0.76    1.62
   6   5   2   -0.33    1.63
   6  -5   3  493.54   21.43
  -6  -5  -3  503.75   22.41
   6  -5   3  517.40   22.56
  -6  -5  -3  512.81   21.58
   6   5   3  475.54   22.21
   6  -5   3  514.58   21.86
   6  -5   3  525.16   22.70
   6  -5   4   -1.22    1.28
   6   5   4    1.34    1.61
   6  -5   4   -0.45    1.03
   6  -5   4    2.19    1.81
  -6  -5  -4    0.24    1.17
   6   5   4   -0.32    1.41
   6  -5   4   -1.50    1.84
  -6  -5  -4    0.35    1.51
   6  -5   5   60.63    4.56
   6   5   5   60.04    4.37
   6  -5   5   65.85    3.87
   6  -5   5   58.49    3.88
  -6  -5  -5   59.86    4.42
   6  -5   5   56.56    4.43
  -6  -5  -5   66.90    4.15
   6  -5   5   65.02    4.82
   6   5   5   50.50    4.06
  -6   5  -6   63.19    4.31
   6   5   6   57.65    4.32
   6   5   6   53.59    4.09
   6  -5   6   58.22    3.98
  -6  -5  -6   62.51    4.43
   6  -5   6   57.18    4.42
  -6  -5  -6   66.57    4.23
   6  -5   6   50.65    4.47
   6  -5   6   52.77    4.40
   6  -5   6   62.11    3.75
   6  -5   7   24.96    3.16
  -6  -5  -7   27.78    2.92
   6   5   7   37.33    3.27
  -6   5  -7   25.40    2.88
   6   5   7   28.67    3.07
   6  -5   7   24.79    2.67
  -6  -5  -7   33.26    3.04
   6  -5   7   27.72    2.31
   6  -5   7   30.83    3.18
   6  -5   8   -0.35    1.61
  -6  -5  -8    1.96    1.60
  -6   5  -8    4.34    1.81
   6  -5   8    0.16    0.98
   6   5   8   -0.34    1.56
   6  -5   8   -0.30    1.44
  -6  -5  -8    0.34    1.51
   6  -5   8    1.28    1.78
  -6   5  -8    1.13    1.72
  -6   5  -9  220.84   11.00
   6  -5   9  216.26    9.30
  -6  -5  -9  217.17   10.59
  -6  -5  -9  226.42   10.94
  -6   5  -9  196.41   10.70
   6  -5   9  191.32   10.98
   6  -5   9  200.15   10.52
  -6   5 -10   28.11    3.37
  -6  -5 -10   26.05    2.77
   6  -5  10   29.52    2.94
  -6  -5 -10   23.57    3.01
  -6   5 -10   21.48    2.89
   6  -5  10   21.92    3.12
  -6   5 -11  165.92    9.12
   6  -5  11  160.15    8.40
  -6  -5 -11  150.98    8.29
  -6  -5 -11  166.00    8.98
   6  -5  11  148.42    8.97
  -6   5 -11  152.40    8.64
  -6   5 -12    0.46    2.10
  -6  -5 -12    2.15    1.70
  -6  -5 -12   -1.31    2.06
  -6   5 -12    1.49    1.87
  -6   5 -13   -0.37    1.85
  -6   5 -13    3.37    2.31
  -6  -5 -13    2.09    1.64
  -6  -5 -13    2.30    1.98
  -6  -5 -14   27.27    2.99
  -6   5 -14   34.97    4.25
  -6   5 -14   34.97    4.13
  -6  -5 -14   31.56    3.84
  -6   5 -14   33.86    3.52
  -6  -5 -15    1.95    1.89
  -6   5 -15   -0.53    2.42
  -6   5 -15    1.59    2.31
  -6  -5 -15    2.04    2.53
  -6   5 -15    1.07    1.96
  -6   5 -16    3.34    2.85
  -6   5 -16    1.64    2.48
  -6  -5 -16    0.53    2.46
  -6   5 -16    0.70    1.67
   6   6 -18   22.79    3.02
   6   6 -17   -0.73    1.98
   6  -6 -17    2.85    2.92
   6   6 -16   89.04    6.06
   6  -6 -16  105.40    7.42
   6   6 -16  109.00    7.54
   6   6 -15   12.55    3.24
   6   6 -15    8.21    2.34
   6  -6 -15   13.52    3.11
   6   6 -14   64.78    4.81
   6  -6 -14   83.21    6.13
   6   6 -14   77.56    6.02
   6   6 -13    0.51    2.08
   6   6 -13    0.30    1.68
   6  -6 -13    0.48    2.20
   6   6 -13    0.28    1.54
   6  -6 -12  140.77    8.16
   6   6 -12  126.25    6.98
   6   6 -12  125.62    6.84
   6  -6 -11    3.44    2.14
   6   6 -11    1.39    1.36
   6   6 -11    0.70    1.32
   6  -6 -10  240.76   11.84
   6   6 -10  223.71   10.79
   6   6 -10  232.98   10.49
   6  -6 -10  205.68   12.00
   6  -6  -9   -0.48    1.91
  -6  -6   9   -2.05    2.09
   6  -6  -9   -1.55    1.93
   6   6  -9   -0.26    1.30
  -6  -6   9    0.12    0.85
   6   6  -9    0.19    1.09
  -6  -6   8  202.48   10.88
   6  -6  -8  166.74    9.69
   6   6  -8  194.50    9.28
   6   6  -8  184.32    8.57
   6  -6  -8  210.78   10.78
  -6  -6   8  189.93    8.63
   6  -6  -7    0.47    1.78
  -6  -6   7   -0.49    2.05
  -6  -6   7    0.77    1.09
   6  -6  -7    0.35    1.69
   6   6  -7   -0.79    0.90
   6   6  -7   -0.51    1.21
  -6  -6   6  251.29   12.49
   6  -6  -6  237.76   11.44
   6   6  -6  239.41   10.98
   6   6  -6  221.98    9.80
  -6  -6   6  230.14   10.62
   6  -6  -6  230.06   12.07
   6  -6  -5    0.88    1.65
  -6  -6   5    1.40    1.85
   6  -6  -5   -4.48    1.57
  -6  -6   5   -0.96    1.25
   6   6  -5   -0.79    1.39
   6  -6  -4   32.75    3.50
   6  -6  -4   27.73    1.42
   6  -6  -4   33.49    2.95
  -6  -6   4   36.64    2.83
   6   6  -4   33.84    2.85
   6  -6  -3   12.10    0.98
   6  -6  -3    8.12    1.81
  -6  -6   3    9.10    1.74
   6  -6  -3   10.64    2.31
   6  -6  -2  159.71    7.02
   6  -6  -2  160.16    8.99
   6  -6  -2  165.23    8.30
  -6  -6   2  157.11    8.27
   6  -6  -2  166.71    9.18
   6  -6  -1   35.98    3.39
   6  -6  -1   34.99    2.10
   6  -6  -1   26.51    3.28
   6  -6  -1   32.73    2.93
  -6  -6   1   31.27    3.46
   6  -6  -1   28.18    3.27
  -6  -6   1   30.00    2.32
   6  -6  -1   36.43    3.61
   6  -6  -1   33.45    3.18
   6  -6   0   21.83    2.58
   6  -6   0   17.71    2.19
   6  -6   0   18.18    1.61
  -6  -6   0   20.47    1.59
   6  -6   0   17.37    2.55
   6  -6   0   17.05    2.62
  -6  -6   0   14.72    2.63
   6  -6   0   15.64    2.68
  -6  -6   0   17.28    1.72
   6  -6   0   16.01    2.63
   6  -6   1   10.96    2.29
   6  -6   1   10.52    1.82
   6   6   1   11.79    2.43
  -6  -6  -1    9.88    1.30
   6  -6   1    8.73    1.33
   6  -6   1    6.72    2.02
  -6  -6  -1   11.63    1.40
   6  -6   1   10.06    2.32
  -6  -6  -1   13.15    2.45
   6  -6   1   10.66    2.27
   6  -6   1    8.30    1.87
   6  -6   2   90.61    4.77
  -6  -6  -2   86.55    5.98
   6  -6   2   80.42    5.75
  -6  -6  -2   96.63    4.88
   6   6   2   91.26    5.91
   6  -6   2   90.95    5.64
   6  -6   2   94.03    6.09
  -6  -6  -2   83.76    4.55
   6  -6   2   92.62    5.79
   6  -6   3    6.94    1.80
   6  -6   3    3.98    1.21
  -6  -6  -3    3.40    1.37
   6   6   3    1.47    1.79
   6  -6   3    2.38    1.81
  -6  -6  -3    9.03    2.18
   6   6   4   11.01    2.18
   6   6   4    9.56    2.14
   6  -6   4    8.97    1.56
  -6  -6  -4   11.22    1.69
   6  -6   4   11.70    1.99
   6  -6   4   11.25    2.44
   6  -6   4   10.30    2.26
  -6  -6  -4   14.22    2.43
   6   6   5    1.02    1.62
   6   6   5    1.50    1.51
   6  -6   5    1.69    1.53
   6  -6   5    1.43    1.25
   6   6   5    2.21    1.87
  -6  -6  -5    3.17    1.48
   6  -6   5    3.94    2.02
   6  -6   5   -0.39    1.81
  -6  -6  -5    3.20    1.82
   6   6   6  128.36    7.62
   6   6   6  133.35    7.50
   6  -6   6  134.90    7.14
  -6  -6  -6  143.03    8.10
  -6  -6  -6  138.88    7.36
   6  -6   6  141.53    7.98
   6  -6   6  129.73    8.07
  -6   6  -6  141.63    7.51
   6  -6   6  139.85    7.23
  -6   6  -7   14.38    2.23
  -6  -6  -7   12.52    2.37
   6   6   7    9.80    2.09
   6   6   7    7.24    2.13
   6  -6   7   12.35    2.03
   6  -6   7   12.22    2.02
  -6  -6  -7   13.53    2.18
   6  -6   7   18.52    2.89
   6  -6   7   11.68    2.35
  -6   6  -8  163.90    8.50
   6  -6   8  149.00    7.93
  -6  -6  -8  132.87    8.27
   6  -6   8  158.03    7.56
  -6  -6  -8  152.34    8.24
   6  -6   8  132.60    8.49
   6  -6   8  152.39    8.32
  -6   6  -9    0.38    1.67
  -6  -6  -9    1.15    1.86
  -6  -6  -9   -0.73    1.78
   6  -6   9   -0.92    1.92
   6  -6   9    1.76    1.74
   6  -6   9    0.20    1.30
  -6   6 -10    5.69    2.00
  -6  -6 -10    1.89    1.92
  -6  -6 -10    3.50    1.91
   6  -6  10   -0.47    1.89
  -6   6 -11   -0.86    2.06
  -6  -6 -11    0.75    2.02
  -6  -6 -11   -1.24    2.00
   6  -6  11    2.39    2.14
  -6   6 -12   41.94    4.36
  -6  -6 -12   49.05    4.28
  -6   6 -13   -0.48    2.22
  -6  -6 -13    0.36    2.04
  -6  -6 -13   -1.85    2.30
  -6   6 -14   -0.51    2.51
  -6  -6 -14    0.71    2.01
  -6  -6 -14    2.44    2.87
  -6   6 -15    2.13    2.66
  -6  -6 -15   -1.03    2.11
  -6  -6 -15    2.56    2.94
   6  -7 -16    1.08    2.59
   6   7 -15   22.92    3.78
   6  -7 -15   19.55    3.58
   6   7 -14    2.71    2.50
   6   7 -14    2.58    1.44
   6  -7 -14    1.47    2.37
   6   7 -13    1.05    2.28
   6   7 -13    3.40    1.71
   6  -7 -13    3.72    2.56
   6   7 -12    0.50    2.20
   6   7 -12    1.62    1.37
   6  -7 -12   -0.89    2.18
   6   7 -11   89.76    5.45
   6  -7 -11  106.72    6.76
   6   7 -11  109.50    5.69
   6  -7 -11  112.57    7.56
   6  -7 -10    4.90    2.42
  -6  -7  10    5.13    2.50
   6  -7 -10    7.60    2.31
   6   7 -10    8.54    1.62
   6   7 -10    6.91    1.52
   6   7  -9   -0.51    1.15
   6  -7  -9    0.53    2.22
  -6  -7   9   -0.56    2.16
   6  -7  -9    1.90    1.86
   6   7  -9    1.45    1.16
   6  -7  -8    2.12    2.09
  -6  -7   8    0.55    2.08
   6  -7  -8    0.36    1.77
   6   7  -8    1.02    1.17
  -6  -7   7  105.27    7.47
   6  -7  -7  103.61    6.38
   6   7  -7  110.06    5.68
  -6  -7   7  110.05    5.62
   6  -7  -7  105.00    7.31
   6  -7  -6   -1.51    2.16
  -6  -7   6    0.53    1.95
   6  -7  -6    0.32    1.60
  -6  -7   6   -0.23    1.25
   6   7  -6   -0.21    1.09
   6  -7  -5    4.95    2.03
   6  -7  -5    4.60    2.42
  -6  -7   5    1.57    2.18
   6  -7  -5    3.05    1.50
  -6  -7   5    6.57    1.65
   6   7  -5    2.62    1.27
   6  -7  -4   18.03    2.94
   6  -7  -4   17.57    2.29
   6  -7  -4   14.36    2.87
  -6  -7   4   13.99    2.13
   6   7  -4   16.70    1.99
   6  -7  -3   44.72    3.48
   6   7  -3   46.58    3.28
  -6  -7   3   41.00    3.16
  -6  -7   3   49.75    3.68
   6  -7  -3   44.09    4.26
   6  -7  -3   36.26    4.06
   6  -7  -2    2.73    2.02
   6  -7  -2    0.53    1.42
  -6  -7   2    2.33    1.25
   6  -7  -2    3.39    2.20
   6  -7  -1    8.83    1.78
  -6  -7   1   16.09    2.99
   6  -7  -1   12.54    2.54
   6  -7  -1   14.34    2.75
  -6  -7   1    8.34    1.54
  -6  -7   0    2.29    0.78
   6  -7   0    3.73    2.15
  -6  -7   0    6.13    2.20
   6  -7   0    2.48    1.43
   6  -7   0    0.47    1.87
   6  -7   1    2.80    1.78
   6  -7   1    4.37    1.05
  -6  -7  -1    6.50    1.16
  -6  -7  -1    3.32    2.11
   6  -7   1    5.14    2.05
   6  -7   1    3.98    1.38
   6   7   2    2.98    1.31
   6  -7   2    5.06    1.15
  -6  -7  -2    4.42    1.25
  -6  -7  -2   -0.47    2.04
   6  -7   2    2.83    2.00
   6  -7   2    3.86    1.85
   6  -7   2    2.18    1.37
   6   7   3  161.20    9.41
   6   7   3  182.44    9.06
   6  -7   3  197.16    9.87
   6  -7   3  199.04    8.68
  -6  -7  -3  189.96   10.41
  -6  -7  -3  184.68    8.74
   6  -7   3  171.69    8.85
   6   7   4    2.09    1.82
   6   7   4    3.31    1.57
   6  -7   4    2.11    1.75
  -6  -7  -4    0.47    1.26
   6  -7   4   -1.38    2.14
  -6  -7  -4   -0.93    1.97
   6   7   5  133.50    7.83
   6   7   5  140.92    7.61
  -6  -7  -5  135.90    8.49
  -6  -7  -5  150.23    7.49
   6  -7   5  137.22    8.51
   6  -7   5  156.33    8.03
   6  -7   6    1.61    1.73
  -6  -7  -6    2.73    2.13
   6   7   6    1.84    1.52
  -6  -7  -6    2.02    1.46
   6  -7   6    3.66    2.11
  -6   7  -7    5.52    1.84
  -6  -7  -7    5.41    2.48
   6  -7   7    5.56    1.89
  -6  -7  -7    5.97    1.87
   6  -7   7    3.25    2.03
  -6   7  -8    2.82    1.88
  -6  -7  -8    6.26    2.46
   6  -7   8    2.58    1.62
  -6  -7  -8    2.38    1.71
   6  -7   8    1.90    1.85
  -6   7  -9   10.97    2.39
  -6  -7  -9   12.85    2.73
  -6  -7  -9   13.48    2.37
   6  -7   9    9.63    2.78
  -6   7 -10    2.42    2.06
  -6  -7 -10   -1.75    2.22
  -6  -7 -10    4.28    2.24
   6  -7  10   -1.47    2.00
  -6   7 -11  139.59    8.35
  -6  -7 -11  144.20    8.56
  -6  -7 -11  143.57    8.36
  -6   7 -12    5.88    2.55
  -6  -7 -12    0.85    2.14
  -6  -7 -12   -0.44    2.34
  -6   7 -13    4.30    2.42
  -6  -7 -13    0.42    2.20
  -6  -7 -13    1.39    2.35
  -6   7 -14   13.05    3.26
  -6  -7 -14    3.70    2.28
  -6  -7 -14   11.69    3.21
   6  -8 -15   -0.51    2.64
   6  -8 -14    4.81    2.65
   6   8 -13    2.11    2.76
   6  -8 -13   -1.37    2.43
   6  -8 -12   49.12    4.67
   6   8 -12   54.60    5.25
   6  -8 -11    3.02    2.47
   6   8 -11    0.49    2.53
   6  -8 -11    0.81    2.06
   6  -8 -11    0.68    2.95
   6  -8 -10   -0.59    2.50
  -6  -8  10    3.07    2.87
   6   8 -10    6.60    2.41
   6  -8 -10    0.39    1.94
   6  -8 -10   -1.32    2.65
   6  -8  -9   -1.93    2.77
   6  -8  -9   -1.17    2.47
  -6  -8   9    1.21    2.56
   6  -8  -9   -0.73    1.94
   6  -8  -8    4.64    2.59
  -6  -8   8   13.75    3.21
   6  -8  -8   13.17    3.24
   6  -8  -8   12.80    2.60
   6   8  -8    9.21    1.28
   6  -8  -7   17.74    3.64
   6  -8  -7   11.42    2.94
  -6  -8   7    8.89    3.05
   6  -8  -7   20.09    2.68
   6   8  -7   11.63    1.44
  -6  -8   6  377.72   17.46
   6  -8  -6  347.24   15.36
   6   8  -6  308.29   14.03
   6  -8  -6  333.45   16.87
   6  -8  -6  395.98   17.74
   6  -8  -5    7.16    2.87
   6  -8  -5   14.06    3.40
  -6  -8   5   12.16    3.19
   6  -8  -5    5.73    1.84
   6   8  -5    6.23    1.27
  -6  -8   5    7.44    1.82
  -6  -8   4  102.48    7.14
   6  -8  -4   91.67    5.28
   6   8  -4   81.39    4.45
  -6  -8   4   86.96    5.26
  -6  -8   4   82.67    5.23
   6  -8  -4   85.33    6.53
   6  -8  -4   80.74    6.47
  -6  -8   3    4.42    1.92
   6  -8  -3    0.25    1.43
   6  -8  -3   -0.52    2.27
  -6  -8   3    1.42    1.40
   6   8  -3    1.11    1.22
   6  -8  -3    3.79    2.59
   6  -8  -2  210.76   10.17
   6  -8  -2  235.06   12.18
   6   8  -2  228.43   10.06
  -6  -8   2  201.85   10.37
   6  -8  -2  214.22   12.00
   6  -8  -1    5.86    2.51
   6   8  -1    5.25    1.33
   6  -8  -1    4.88    1.56
   6  -8  -1   -0.54    2.32
  -6  -8   1    3.25    2.30
  -6  -8   1    4.05    1.55
   6   8   0  172.94    8.31
  -6  -8   0  180.86   10.42
   6  -8   0  197.71   10.31
   6  -8   0  172.33    8.46
   6  -8   0  181.36   10.42
  -6  -8   0  168.15    8.67
  -6  -8  -1   -0.26    1.39
   6   8   1    0.21    1.24
   6  -8   1   -1.84    2.14
  -6  -8  -1    4.26    2.61
   6  -8   1    0.53    2.13
   6  -8   2  113.39    6.84
   6   8   2   90.01    5.31
  -6  -8  -2   98.19    7.03
   6  -8   2   99.42    7.10
  -6  -8  -2   90.25    5.39
  -6  -8  -3   13.55    2.09
   6   8   3   12.77    2.01
   6  -8   3   14.04    2.77
   6  -8   3   10.94    2.76
   6  -8   3   17.54    3.27
  -6  -8  -3   13.80    3.24
   6   8   4  133.30    7.15
  -6  -8  -4  150.70    8.94
   6  -8   4  120.31    8.19
   6  -8   4  142.01    8.09
  -6  -8  -5    0.52    2.39
   6   8   5    3.07    1.71
   6  -8   5    2.36    2.20
   6  -8   5   -0.79    1.95
  -6  -8  -6    9.76    2.93
   6  -8   6   10.31    2.48
  -6  -8  -6   11.55    2.05
   6  -8   6   13.31    2.92
  -6  -8  -7    0.51    2.41
  -6  -8  -7    3.09    1.93
   6  -8   7   -0.48    2.26
  -6   8  -8    0.34    1.75
  -6  -8  -8    3.03    2.61
  -6  -8  -8    0.34    1.92
   6  -8   8    2.95    2.32
  -6   8  -9    0.73    2.01
  -6  -8  -9    7.00    2.77
  -6  -8  -9    3.97    2.02
   6  -8   9    0.50    2.29
  -6   8 -10   42.79    4.00
  -6  -8 -10   36.62    4.38
  -6  -8 -10   45.50    4.19
   6  -8  10   39.60    4.37
  -6   8 -11    2.51    2.46
  -6  -8 -11    0.49    2.69
  -6  -8 -11    2.05    2.34
  -6  -8 -12   28.44    4.17
  -6  -8 -12   30.00    3.86
  -6   8 -13    2.34    2.60
  -6  -8 -13   -0.47    2.63
  -6  -8 -13    0.46    2.47
  -6  -8 -14   19.04    3.55
   6   9 -11   44.18    4.56
   6   9 -10   -0.95    2.43
   6   9  -9   -0.91    2.16
   6  -9  -8    0.67    2.77
   6  -9  -7    2.58    2.90
   6  -9  -7   -1.25    2.88
  -6  -9   7    3.23    2.94
   6  -9  -6    2.45    2.70
  -6  -9   6    1.92    2.83
   6  -9  -6    1.26    2.66
   6  -9  -5   13.91    3.40
   6  -9  -5   17.05    3.65
  -6  -9   5   15.85    3.77
  -6  -9   5   11.35    2.24
   6  -9  -4    1.20    2.66
   6  -9  -4    4.74    2.97
  -6  -9   4   -0.63    2.57
  -6  -9   4    1.66    1.55
   6  -9  -3   50.62    5.25
   6  -9  -3   45.08    5.08
  -6  -9   3   46.31    3.90
  -6  -9   3   46.08    3.89
   6  -9  -2    2.81    2.69
   6  -9  -2    1.79    2.64
  -6  -9   2    1.27    1.59
  -6  -9   1   19.32    2.66
   6  -9  -1   30.03    3.98
  -6  -9   1   16.16    3.75
   6  -9  -1   32.95    4.16
  -6  -9   0   15.54    2.35
   6  -9   0   19.61    3.62
  -6  -9   0   16.36    3.52
   6  -9   0   11.89    3.11
  -6  -9  -1   -1.81    1.78
   6  -9   1   -1.53    2.72
  -6  -9  -1    2.95    2.75
   6  -9   1    0.59    2.51
  -6  -9  -2    1.48    1.56
   6  -9   2    1.49    2.52
   6  -9   2    0.97    2.36
  -6  -9  -2    3.54    2.79
   6  -9   2    3.52    2.81
  -6  -9  -3  116.91    8.47
   6  -9   3  124.16    7.86
   6  -9   3  121.40    8.38
   6  -9   3  131.60    8.14
  -6  -9  -3  114.81    6.70
   6  -9   4   13.95    2.94
   6  -9   4   17.33    3.32
   6  -9   4   17.07    3.63
  -6  -9  -4   13.40    3.64
  -6  -9  -5   -6.33    2.98
   6  -9   5   -0.45    2.25
   6  -9   5    0.48    2.45
  -6  -9  -6    5.12    3.01
   6  -9   6    0.98    2.11
  -6  -9  -7    8.45    3.16
   6  -9   7    4.48    2.53
  -6  -9  -8    4.46    3.01
   6  -9   8    3.50    2.37
  -6  -9  -9   16.02    3.44
   6  10  -8   38.49    4.20
   6  10  -7    0.42    2.31
  -6 -10   7   -0.77    1.91
   6  10  -6   10.36    2.53
  -6 -10   6   10.93    2.51
  -6 -10   5    3.00    1.99
  -6 -10   4    4.43    2.07
  -6 -10   3   -0.72    1.96
  -6 -10   2   21.14    2.94
   6 -10  -2   28.89    4.45
   6 -10  -1    1.78    2.88
   6 -10   0   -0.58    2.87
   6 -10   0    2.44    2.50
   6 -10   1    5.69    3.10
   6 -10   1   -0.49    2.72
   6 -10   2   36.51    4.66
   6 -10   2   30.64    3.95
   6 -10   3    0.48    2.42
   6 -10   3   -0.54    2.81
   6 -10   4    0.48    2.37
   7   0 -21   98.43    7.21
   7   0 -20    1.49    2.60
   7   0 -20   -2.56    2.83
   7   0 -19   83.64    6.20
   7   0 -19   77.01    6.68
   7   0 -18    1.37    2.01
   7   0 -18   -2.97    2.55
   7   0 -17   62.49    4.96
   7   0 -17   51.62    5.26
   7   0 -17   56.47    4.15
   7   0 -16    1.26    1.83
   7   0 -16   -2.20    2.40
   7   0 -16   -0.89    1.46
  -7   0  16    2.38    1.78
   7   0 -15  571.87   25.31
   7   0 -15  587.44   24.57
  -7   0  15  539.51   24.71
  -7   0  14   -0.35    1.74
   7   0 -14    0.30    1.42
  -7   0  14    1.03    1.61
  -7   0  13    6.15    1.82
   7   0 -13   10.02    1.99
  -7   0  13    9.30    2.07
  -7   0  12    0.60    1.56
   7   0 -12    0.29    1.26
  -7   0  12   -0.34    1.40
  -7   0  11    7.87    1.86
   7   0 -11    5.54    1.60
  -7   0  11    4.76    1.56
  -7   0  10    1.28    1.38
   7   0 -10   -0.58    1.25
  -7   0  10   -0.34    1.23
   7   0  -9  322.11   14.98
  -7   0   9  333.09   14.65
  -7   0   9  330.27   15.31
  -7   0   8    1.01    1.35
  -7   0   8   -0.43    1.10
   7   0  -8    1.76    1.31
   7   0  -7  930.65   41.03
   7   0  -7  955.08   40.44
  -7   0   7  995.55   39.81
  -7   0   7  982.82   40.84
   7   0  -6    0.37    1.36
  -7   0   6    0.32    1.11
   7   0  -6    0.30    1.13
  -7   0   6    0.18    0.88
  -7   0   5    1.28    1.29
   7   0  -5    2.08    1.34
  -7   0   5    2.54    0.91
   7   0  -4   -0.91    1.20
   7   0  -4   -1.10    1.23
  -7   0   4    0.32    1.05
   7   0  -4    0.30    1.19
   7   0  -3   97.39    5.63
   7   0  -3   91.71    5.43
  -7   0   3  103.67    5.87
   7   0  -3   86.01    5.52
   7   0  -2    1.60    1.25
   7   0  -2   -0.82    1.08
  -7   0   2   -0.32    1.08
   7   0  -2   -0.31    1.23
  -7   0   1 1529.25   60.05
   7   0  -1 1553.73   59.52
   7   0  -1 1474.57   59.57
   7   0  -1 1398.74   58.23
   7   0   0   -0.08    0.53
   7   0   0    1.16    1.23
   7   0   0   -0.28    1.23
  -7   0   0    1.00    1.19
   7   0   1   64.75    4.38
   7   0   1   65.11    3.18
   7   0   1   55.98    3.80
   7   0   1   68.66    4.37
  -7   0  -1   71.13    4.64
   7   0   1   70.32    4.54
   7   0   2   -0.31    1.28
   7   0   2   -0.29    1.07
   7   0   2    0.19    0.88
  -7   0  -2    0.68    1.20
   7   0   2    0.45    0.48
   7   0   3  209.03   10.26
   7   0   3  203.00    9.28
  -7   0  -3  204.64   10.14
   7   0   3  211.43   10.12
  -7   0  -3  192.52   10.30
   7   0   4    0.99    1.35
   7   0   4    0.29    0.74
  -7   0  -4    0.32    1.07
   7   0   4    1.20    1.25
   7   0   4   -0.87    1.27
  -7   0  -4    0.36    1.14
   7   0   5  235.60   12.07
   7   0   5  258.21   10.80
  -7   0  -5  250.25   12.24
   7   0   5  258.30   12.09
   7   0   5  246.74   11.95
   7   0   6   -1.35    1.45
  -7   0  -6    1.40    1.28
   7   0   6   -0.08    0.55
   7   0   6    1.50    1.32
   7   0   7  126.85    7.35
  -7   0  -7  138.75    7.65
   7   0   7  134.31    7.29
   7   0   8   -0.35    1.56
  -7   0  -8   -0.76    1.36
  -7   0  -8   -1.64    1.68
   7   0   8    0.32    1.31
  -7   0  -9  299.21   14.73
   7   0   9  302.37   14.32
  -7   0  -9  315.93   15.02
  -7   0 -10    1.68    1.72
  -7   0 -10    0.87    1.88
  -7   0 -11    0.44    1.82
  -7   0 -11    2.25    1.96
  -7   0 -12    1.87    1.91
  -7   0 -12    0.46    1.87
  -7   0 -13   85.85    6.15
  -7   0 -13   76.37    5.91
  -7   0 -14    0.51    2.03
  -7   0 -14    1.96    2.07
  -7   0 -15    5.38    2.65
  -7   0 -15    7.51    2.44
  -7   0 -16   -0.19    1.27
  -7   0 -16   -1.68    2.33
  -7   0 -16    0.51    2.39
  -7   0 -17   66.56    6.05
  -7   0 -17   71.28    5.98
  -7   0 -18    1.05    2.52
  -7   0 -19   10.11    3.08
   7  -1 -21    2.85    2.56
   7  -1 -20   11.47    2.83
   7   1 -20    9.01    2.88
   7   1 -20    6.26    3.39
   7  -1 -19    3.53    2.27
   7   1 -19    4.07    2.53
   7   1 -19    9.12    2.95
   7  -1 -18    6.32    2.31
   7   1 -18    8.81    2.82
   7   1 -18    6.40    2.83
   7  -1 -17   13.29    2.63
   7   1 -17   17.43    3.05
   7   1 -17   16.83    3.41
   7  -1 -17   17.55    2.65
   7   1 -17   13.82    2.01
  -7  -1  17   20.58    2.68
   7  -1 -16   62.02    4.80
   7   1 -16   68.66    5.38
   7   1 -16   72.14    5.79
   7  -1 -16   72.45    4.94
   7   1 -16   62.43    4.16
  -7  -1  16   63.29    4.54
   7  -1 -15    5.92    1.77
   7   1 -15    8.30    2.35
   7  -1 -15    5.90    2.39
   7   1 -15    6.22    2.49
   7  -1 -15    7.80    2.04
   7   1 -15    7.17    1.67
  -7  -1  15    6.59    1.93
   7  -1 -14  108.76    6.58
   7  -1 -14   99.11    7.28
   7   1 -14  114.40    7.38
   7   1 -14  101.75    5.87
  -7   1  14  106.47    6.52
  -7  -1  14  114.42    6.46
  -7  -1  14  109.02    6.37
   7  -1 -14  115.14    6.57
  -7   1  13    1.01    1.66
  -7  -1  13    1.22    1.53
   7  -1 -13   -3.91    2.16
   7   1 -13    1.42    1.96
   7  -1 -13   -1.00    1.61
   7   1 -13    0.25    1.27
  -7   1  13   -1.09    1.60
  -7  -1  13   -1.00    1.36
   7  -1 -12  129.85    8.10
   7   1 -12  135.17    8.22
   7  -1 -12  132.34    7.43
  -7   1  12  125.32    7.22
  -7  -1  12  143.32    7.25
  -7   1  12  134.19    7.55
  -7  -1  12  124.45    7.27
   7   1 -12  136.35    6.97
  -7   1  11   -0.30    1.54
  -7  -1  11    1.56    1.32
   7   1 -11    0.43    1.67
   7  -1 -11    1.96    1.42
   7  -1 -11   -0.45    1.76
   7   1 -11   -0.44    1.70
   7   1 -11   -0.26    1.22
  -7   1  11    0.35    1.38
  -7  -1  11    0.67    1.32
   7   1 -10  444.72   20.12
   7  -1 -10  438.80   20.19
   7   1 -10  421.91   20.03
   7  -1 -10  414.79   19.39
   7   1 -10  430.46   19.02
  -7   1  10  446.84   19.22
  -7  -1  10  455.03   18.97
  -7   1  10  412.24   19.54
  -7  -1  10  445.51   19.60
   7   1  -9   26.22    3.05
   7   1  -9   26.83    2.46
   7  -1  -9   18.84    2.50
  -7  -1   9   26.28    2.31
   7  -1  -9   24.80    3.06
   7   1  -9   23.17    2.90
  -7   1   9   19.08    2.44
  -7   1   9   22.02    2.31
  -7  -1   8   16.62    1.70
   7   1  -8   10.28    2.22
  -7  -1   8   10.35    1.83
   7  -1  -8    8.77    1.88
   7   1  -8   11.94    1.83
   7  -1  -8   16.20    2.43
   7   1  -8   15.43    2.51
  -7   1   8   11.49    1.83
  -7   1   8   12.02    2.02
  -7  -1   7    0.34    0.83
   7   1  -7    1.46    1.36
  -7  -1   7    1.16    1.19
   7  -1  -7    0.32    1.32
   7   1  -7    0.27    1.25
  -7   1   7    0.91    1.14
   7  -1  -7    1.18    1.39
  -7   1   7    1.36    1.32
   7   1  -6  457.93   20.06
   7   1  -6  431.30   19.23
  -7  -1   6  453.58   19.65
   7  -1  -6  431.76   19.69
   7  -1  -6  449.37   20.18
   7   1  -6  433.17   19.38
  -7   1   6  449.23   19.04
  -7  -1   6  441.34   18.59
  -7   1   6  449.35   19.91
   7   1  -5   26.55    2.84
  -7   1   5   28.49    2.93
  -7  -1   5   35.18    2.90
   7   1  -5   34.65    2.88
   7  -1  -5   30.83    3.11
  -7  -1   5   29.87    1.98
   7  -1  -5   25.39    2.69
  -7   1   5   31.37    2.88
   7   1  -4  422.94   18.94
  -7   1   4  436.35   19.18
  -7  -1   4  429.87   18.85
   7  -1  -4  414.82   18.91
   7   1  -4  407.86   18.61
  -7  -1   4  412.49   17.40
   7  -1  -4  430.29   18.05
  -7   1   4  448.40   19.14
  -7   1   3    2.99    1.24
   7  -1  -3    2.02    0.90
   7  -1  -3    3.35    1.35
   7   1  -3    2.68    1.32
  -7   1   3    2.41    1.29
  -7  -1   3    3.33    1.36
   7   1  -3    3.68    1.36
   7   1  -2  408.31   18.32
   7  -1  -2  402.69   18.43
   7   1  -2  397.14   17.99
  -7   1   2  414.04   18.74
  -7  -1   2  416.04   18.55
   7   1  -2  417.55   18.36
   7  -1  -2  420.64   17.53
  -7   1   2  431.61   18.73
   7  -1  -1   11.24    1.32
   7  -1  -1    9.44    1.73
   7   1  -1    8.00    1.52
   7   1  -1   11.80    1.81
  -7   1   1    7.25    1.64
  -7  -1   1   10.31    1.79
   7  -1   0  776.70   34.06
   7   1   0  815.89   33.85
   7  -1   0  782.59   34.23
   7   1   0  806.77   33.88
  -7   1   0  839.20   34.69
   7  -1   0  797.92   34.42
  -7  -1   0  858.96   34.51
   7  -1   0  823.42   33.20
   7  -1   1    0.29    1.13
   7  -1   1    1.67    1.06
   7   1   1    1.78    1.09
  -7   1  -1    0.70    1.17
  -7  -1  -1    0.33    1.17
   7  -1   1    0.67    1.22
   7  -1   1    0.15    0.69
   7   1   1    0.92    1.07
   7   1   2   12.13    2.00
   7  -1   2   16.82    1.98
   7   1   2   13.05    1.68
   7  -1   2   11.31    1.45
  -7  -1  -2   16.83    1.96
   7   1   2   12.60    1.80
  -7   1  -2   16.71    2.24
  -7  -1  -2   12.12    2.01
   7  -1   2   15.08    2.12
   7   1   3  107.84    6.21
   7  -1   3  101.43    5.97
   7  -1   3  105.97    5.22
  -7  -1  -3  103.90    5.97
   7   1   3  100.71    5.75
   7   1   3  104.07    5.40
  -7   1  -3   98.80    6.24
  -7  -1  -3  108.12    6.26
   7  -1   3   91.20    5.97
   7   1   4  103.15    6.49
   7  -1   4  107.85    6.46
   7  -1   4  118.78    5.56
  -7   1  -4  123.54    6.83
  -7  -1  -4  115.87    6.57
   7   1   4  117.56    6.27
   7   1   4  118.22    5.77
  -7  -1  -4  117.48    6.83
   7  -1   5    3.50    0.74
   7   1   5    1.73    1.22
   7  -1   5    3.51    1.46
   7   1   5    2.09    0.92
  -7   1  -5    2.81    1.44
  -7  -1  -5    2.23    1.26
   7  -1   5    3.99    1.41
   7   1   5    1.79    1.30
  -7  -1  -5    3.73    1.67
   7   1   6   49.39    3.88
   7  -1   6   50.80    3.87
   7   1   6   53.72    2.88
  -7   1  -6   47.50    3.97
  -7  -1  -6   47.10    3.82
   7  -1   6   54.10    3.98
   7   1   6   48.74    3.52
  -7   1  -6   52.09    4.08
  -7  -1  -6   59.72    4.34
   7  -1   6   47.44    2.25
   7   1   7   11.71    2.16
   7  -1   7   10.03    1.93
   7   1   7   13.03    1.15
  -7   1  -7   15.93    2.39
  -7  -1  -7   12.69    2.13
   7   1   7   11.24    1.75
  -7   1  -7   12.26    2.21
   7  -1   7   11.96    2.05
   7  -1   8   93.83    6.01
  -7   1  -8  100.04    6.39
  -7  -1  -8   90.75    6.06
   7  -1   8  106.76    6.26
   7   1   8   96.67    5.68
  -7   1  -8  113.71    6.67
  -7   1  -9   39.01    3.70
  -7  -1  -9   34.40    3.51
   7  -1   9   44.76    3.68
  -7   1  -9   34.44    3.69
  -7  -1  -9   34.92    3.68
  -7   1 -10    3.95    1.38
  -7   1 -10    6.87    2.01
  -7  -1 -10    8.33    2.10
   7  -1  10    5.97    1.78
  -7   1 -10    4.32    1.92
  -7  -1 -10    4.92    1.99
  -7   1 -11    2.77    1.38
  -7   1 -11    5.38    2.11
  -7  -1 -11   11.85    2.49
  -7   1 -11    7.09    2.23
  -7  -1 -11    7.87    2.36
  -7   1 -12    5.18    1.41
  -7   1 -12   10.80    2.60
  -7  -1 -12   15.64    2.74
  -7   1 -12    4.54    2.35
  -7  -1 -12    9.57    2.52
  -7   1 -13    4.92    2.18
  -7  -1 -13    3.86    2.08
  -7   1 -13    5.12    2.34
  -7  -1 -13    5.43    2.34
  -7   1 -13    3.69    1.29
  -7   1 -14   48.96    4.71
  -7  -1 -14   48.67    4.70
  -7  -1 -14   56.82    4.91
  -7   1 -14   44.18    4.50
  -7   1 -14   42.77    3.10
  -7   1 -15   -0.54    2.40
  -7  -1 -15    0.53    2.06
  -7   1 -15    0.48    2.08
  -7  -1 -15    3.12    2.49
  -7   1 -15    1.86    1.06
  -7   1 -16   99.49    7.19
  -7  -1 -16   85.80    6.75
  -7   1 -16   79.58    6.39
  -7  -1 -16   99.03    6.95
  -7   1 -17    0.50    2.29
  -7  -1 -17    0.54    2.66
  -7  -1 -18    6.64    2.90
  -7   1 -18    4.50    2.57
  -7   1 -19    2.51    2.51
  -7   1 -20    0.50    2.62
   7  -2 -21    2.16    2.37
   7  -2 -20   -0.83    2.02
   7   2 -20   -0.60    2.82
   7  -2 -19    7.62    2.59
   7   2 -19    5.96    2.63
   7   2 -19    1.77    2.57
   7  -2 -19    2.55    2.83
   7  -2 -18   -1.16    1.96
   7   2 -18   -1.04    2.44
   7  -2 -18   -1.23    2.60
   7   2 -18    1.70    2.54
   7  -2 -17    4.40    1.90
   7   2 -17    5.06    2.65
   7  -2 -17   -2.95    2.65
   7   2 -17    0.55    2.23
  -7  -2  17    1.51    1.71
   7  -2 -16    6.28    1.91
   7   2 -16   10.74    2.80
   7  -2 -16   13.02    3.13
   7   2 -16    6.29    2.41
  -7  -2  16    9.43    2.05
   7  -2 -15   65.58    4.82
   7  -2 -15   68.97    5.86
   7   2 -15   77.53    5.94
   7   2 -15   82.40    5.92
  -7  -2  15   78.02    5.01
   7  -2 -14    1.56    2.17
   7  -2 -14   -0.32    1.55
   7   2 -14   -0.48    2.01
   7  -2 -14   -0.38    1.59
  -7  -2  14    0.33    1.50
   7  -2 -13   62.14    4.92
   7  -2 -13   71.03    4.75
   7  -2 -13   74.67    5.78
   7   2 -13   71.45    5.45
  -7  -2  13   74.80    4.87
  -7  -2  12   10.74    2.09
   7  -2 -12   11.84    2.39
   7  -2 -12    9.55    2.07
   7   2 -12   12.03    2.47
  -7   2  12   15.50    2.31
  -7   2  12   10.49    2.32
   7  -2 -11  261.35   13.71
   7   2 -11  280.02   13.67
   7  -2 -11  266.03   13.17
  -7   2  11  285.84   13.00
  -7   2  11  258.23   13.16
   7   2 -10    6.00    2.12
   7  -2 -10    8.24    1.90
   7  -2 -10    8.34    2.29
   7   2 -10    7.35    2.07
  -7   2  10    9.27    2.02
  -7   2  10    5.22    1.66
   7  -2  -9  163.18    8.71
   7   2  -9  157.80    9.02
   7  -2  -9  160.94    9.01
   7   2  -9  169.11    9.04
   7   2  -9  155.21    7.91
  -7   2   9  150.36    8.25
  -7   2   9  168.85    8.85
  -7  -2   9  167.71    7.84
   7   2  -8   23.81    3.03
   7   2  -8   22.20    2.37
  -7  -2   8   22.02    2.34
   7  -2  -8   23.21    2.73
  -7   2   8   29.11    2.71
  -7  -2   8   24.06    2.09
   7  -2  -8   26.81    3.10
  -7   2   8   21.58    2.74
   7   2  -8   28.81    3.21
   7   2  -7  117.90    7.22
   7  -2  -7  129.71    7.51
   7  -2  -7  127.21    7.19
   7   2  -7  126.14    7.35
   7   2  -7  123.68    6.51
  -7  -2   7  115.18    6.60
  -7   2   7  121.87    6.63
  -7  -2   7  129.92    6.02
  -7   2   7  127.15    7.19
   7   2  -6   15.95    2.30
  -7  -2   6   13.52    1.32
   7  -2  -6   10.16    1.62
   7   2  -6   17.80    2.53
  -7  -2   6   11.05    1.89
   7  -2  -6   13.32    2.11
  -7   2   6   13.38    2.14
   7  -2  -6   16.81    2.38
   7   2  -5  417.91   19.16
  -7  -2   5  437.11   18.76
   7  -2  -5  410.41   19.10
   7  -2  -5  442.43   19.42
  -7  -2   5  423.08   17.49
   7  -2  -5  421.44   18.44
  -7   2   5  410.05   19.05
   7  -2  -4    1.90    1.19
   7  -2  -4   -0.73    1.30
  -7  -2   4   -0.29    1.01
   7   2  -4    0.32    1.32
  -7   2   4    3.08    1.49
  -7  -2   4    0.66    0.43
   7   2  -3   37.56    3.22
  -7   2   3   35.52    3.28
  -7   2   3   37.44    3.22
  -7  -2   3   38.28    3.14
   7  -2  -3   32.32    2.64
   7  -2  -2    0.86    0.88
  -7   2   2    1.10    1.19
  -7  -2   2    0.89    1.20
   7  -2  -2    1.05    1.41
   7   2  -2    0.30    1.25
   7  -2  -1   21.67    2.26
   7   2  -1   27.13    2.60
   7  -2  -1   20.74    2.59
  -7   2   1   27.13    2.84
   7  -2  -1   23.11    2.10
  -7  -2   1   22.67    2.48
   7  -2   0    2.90    1.14
   7   2   0    1.88    1.19
   7   2   0    3.30    1.19
  -7   2   0    3.33    1.39
  -7  -2   0    1.90    1.23
   7  -2   0    3.89    1.48
   7  -2   0    2.26    0.99
   7  -2   1    0.82    1.10
   7   2   1    1.02    1.19
  -7  -2  -1    1.00    0.99
   7   2   1    0.23    1.03
  -7   2  -1    0.37    1.27
  -7  -2  -1    1.31    1.15
   7  -2   1   -0.36    1.43
   7  -2   1    0.40    0.85
  -7   2  -1    0.96    1.29
   7  -2   2    3.09    1.28
  -7  -2  -2    3.95    1.23
   7  -2   2    1.69    1.32
   7   2   2    2.42    1.24
  -7  -2  -2    1.35    1.19
   7  -2   2    2.86    1.52
  -7   2  -2    3.78    1.43
   7  -2   3   51.78    3.61
  -7  -2  -3   46.49    3.48
   7  -2   3   46.02    3.76
   7   2   3   44.59    3.27
   7  -2   3   48.56    3.87
  -7  -2  -3   48.72    3.90
  -7   2  -3   48.79    3.64
   7  -2   4    0.89    1.34
   7   2   4    0.42    1.04
  -7  -2  -4   -0.87    1.19
   7  -2   4    0.34    1.37
  -7  -2  -4   -0.73    1.37
   7  -2   4   -0.36    1.41
  -7   2  -4    0.60    1.17
   7  -2   5  199.41    9.98
   7  -2   5  191.56    8.68
   7   2   5  203.89    9.33
  -7  -2  -5  200.28   10.04
   7  -2   5  208.08   10.30
  -7   2  -5  214.55   10.64
  -7  -2  -5  189.86   10.29
   7  -2   5  212.09   10.41
   7   2   5  190.10    9.37
   7   2   5  205.54    8.33
  -7   2  -5  192.88    9.85
   7   2   6    8.10    0.95
   7  -2   6   12.29    1.99
   7  -2   6    7.62    0.65
   7   2   6    5.57    1.16
  -7   2  -6    0.38    1.78
  -7  -2  -6    8.20    1.98
   7  -2   6    8.14    1.89
   7   2   6    7.22    1.43
  -7   2  -6    7.52    1.98
  -7  -2  -6    4.32    1.81
   7  -2   6    5.65    0.67
  -7   2  -6    7.18    1.64
   7   2   7  957.74   39.41
   7  -2   7  927.99   40.52
  -7   2  -7  929.68   41.00
   7   2   7 1010.48   39.22
  -7  -2  -7  975.30   40.80
   7  -2   7  994.76   40.85
  -7   2  -7  938.66   41.08
  -7  -2  -7  985.79   41.20
  -7   2  -7  941.02   40.20
   7   2   8    0.63    0.96
   7  -2   8   -0.34    1.43
  -7   2  -8   -1.64    1.67
  -7  -2  -8    1.47    1.46
   7  -2   8   -0.38    1.60
  -7   2  -8    0.42    1.52
  -7   2  -8   -1.07    1.31
   7   2   9    9.83    1.55
  -7   2  -9   10.63    2.43
  -7  -2  -9   14.73    2.46
   7  -2   9   12.66    2.31
  -7   2  -9   11.97    2.43
  -7   2  -9    7.43    1.69
   7   2  10   13.97    1.81
   7  -2  10   11.77    2.30
  -7  -2 -10   11.86    2.39
  -7   2 -10   13.00    2.55
  -7   2 -10    8.77    1.69
  -7   2 -11   39.87    4.07
  -7  -2 -11   36.54    3.70
  -7   2 -11   38.42    3.96
  -7  -2 -11   48.84    4.33
   7   2  11   39.52    3.09
  -7   2 -11   33.04    2.80
   7   2  12    3.10    1.48
  -7  -2 -12    3.63    2.10
  -7   2 -12    4.05    2.24
  -7  -2 -12    0.49    2.11
  -7   2 -12    3.37    1.26
  -7  -2 -13  336.27   15.72
  -7   2 -13  330.68   15.58
  -7  -2 -13  335.74   15.91
  -7   2 -13  289.66   13.60
  -7   2 -14   14.66    3.04
  -7  -2 -14   20.08    3.32
  -7   2 -14   12.09    2.73
  -7  -2 -14   17.79    3.25
  -7   2 -14   13.90    1.62
  -7   2 -15   27.72    3.83
  -7  -2 -15   24.20    3.63
  -7   2 -15   15.52    3.04
  -7  -2 -15   29.11    3.91
  -7   2 -16   -0.56    2.57
  -7  -2 -16    6.59    2.93
  -7   2 -16    2.37    2.22
  -7  -2 -16    0.55    2.52
  -7   2 -17    2.87    2.40
  -7  -2 -17    1.13    2.64
  -7   2 -18    0.96    2.38
  -7   2 -19   -0.96    2.32
   7   3 -20    7.50    3.12
   7  -3 -19    1.07    1.92
   7   3 -19   -0.57    2.75
   7   3 -19   -0.56    2.87
   7  -3 -18    5.47    1.90
   7   3 -18    1.66    2.38
   7   3 -18    2.17    2.63
   7  -3 -18   -0.62    2.71
   7  -3 -17    6.86    1.95
   7   3 -17   11.84    3.00
   7  -3 -17    2.97    2.68
   7   3 -17   10.42    2.85
   7  -3 -16   57.20    4.27
   7   3 -16   66.53    5.44
   7  -3 -16   58.99    5.59
   7   3 -16   55.82    5.17
  -7  -3  16   60.84    4.30
   7  -3 -15   -0.88    1.52
   7   3 -15   -0.50    2.08
   7  -3 -15   -2.19    2.28
   7   3 -15    0.97    2.17
  -7  -3  15   -0.32    1.58
   7  -3 -14   70.21    4.56
   7  -3 -14   70.55    5.74
   7   3 -14   66.23    5.47
  -7  -3  14   76.63    4.99
   7  -3 -13   40.77    3.16
   7  -3 -13   31.77    3.83
   7   3 -13   33.05    3.75
   7  -3 -12   82.51    4.90
   7  -3 -12   81.75    6.09
   7   3 -12   85.37    5.86
   7  -3 -11    1.38    1.72
   7   3 -11   -1.26    1.53
  -7   3  11    2.44    1.77
   7  -3 -10  397.17   19.68
   7  -3 -10  391.50   19.25
  -7   3  10  416.97   19.04
   7   3  -9   26.45    2.09
  -7  -3   9   24.38    2.32
   7  -3  -9   30.14    3.18
  -7   3   9   31.17    3.01
   7   3  -9   32.42    3.38
   7  -3  -9   23.86    3.13
   7   3  -9   32.65    3.35
   7  -3  -8   20.59    2.70
   7   3  -8   20.66    1.81
  -7  -3   8   21.13    2.17
   7   3  -8   21.31    2.94
   7  -3  -8   20.71    2.81
  -7   3   8   18.50    2.42
  -7   3   8   21.00    2.62
   7   3  -8   25.16    2.91
   7   3  -7   -0.37    1.58
   7  -3  -7    0.65    1.32
   7   3  -7    1.07    0.86
  -7  -3   7    0.51    1.13
   7  -3  -7    0.38    1.65
   7   3  -7   -0.80    1.68
   7  -3  -7    0.40    1.55
  -7   3   7   -0.75    1.29
   7   3  -6  599.59   26.16
   7   3  -6  567.33   24.51
   7  -3  -6  654.00   26.49
  -7  -3   6  584.32   25.29
   7   3  -6  637.53   26.16
   7  -3  -6  582.07   25.61
  -7   3   6  582.81   26.02
   7  -3  -5    4.11    1.75
   7   3  -5    9.53    2.15
   7  -3  -5    6.88    1.56
   7   3  -5    3.04    0.94
  -7  -3   5    4.91    1.44
  -7   3   5    5.49    1.58
   7   3  -4  325.86   14.85
  -7  -3   4  306.23   12.79
   7   3  -4  309.70   13.44
   7  -3  -4  330.72   15.00
  -7  -3   4  321.45   14.31
   7  -3  -4  325.18   14.89
   7  -3  -4  291.42   14.17
  -7   3   4  314.98   14.77
   7  -3  -3    0.55    1.09
   7  -3  -3    0.45    0.90
   7   3  -3    0.34    1.43
   7   3  -3   -0.16    0.83
   7  -3  -3    0.38    1.44
  -7  -3   3   -3.17    1.33
  -7   3   3    2.83    1.37
   7  -3  -2  255.31   11.83
   7  -3  -2  258.64   12.63
   7   3  -2  261.06   12.50
   7  -3  -2  254.78   12.69
  -7  -3   2  267.53   12.36
   7  -3  -2  258.13   12.09
   7  -3  -1    0.48    1.05
   7   3  -1    2.51    1.69
   7  -3  -1    2.14    1.41
  -7   3   1    1.95    1.57
   7  -3  -1    0.75    1.40
  -7  -3   1    0.31    1.22
   7  -3  -1    0.27    1.09
   7  -3   0  553.35   24.07
  -7  -3   0  545.62   24.43
   7  -3   0  528.31   24.71
   7   3   0  557.39   24.48
   7  -3   0  574.54   25.00
  -7  -3   0  581.38   24.66
   7  -3   0  595.70   24.27
  -7   3   0  585.76   24.81
   7  -3   1    6.04    1.43
  -7  -3  -1    4.95    1.54
  -7  -3  -1    5.85    1.43
   7  -3   1    6.43    1.62
   7   3   1    7.43    1.71
   7  -3   1    7.93    1.91
  -7  -3  -1    6.34    1.67
   7  -3   1    6.97    1.50
  -7   3  -1    6.62    1.66
   7   3   2    5.21    1.53
   7  -3   2    5.81    1.58
  -7  -3  -2    3.63    1.38
  -7  -3  -2    2.26    1.19
   7  -3   2    9.73    1.87
   7   3   2    4.07    0.97
   7  -3   2    6.81    1.95
  -7  -3  -2    7.59    1.72
  -7   3  -2    2.27    1.20
   7   3   3  100.09    6.03
   7  -3   3   91.06    5.45
  -7  -3  -3  102.15    5.54
  -7  -3  -3   96.52    5.46
   7  -3   3  101.40    6.06
   7   3   3   91.86    4.77
  -7   3  -3   91.20    6.07
   7  -3   3   95.62    6.02
  -7  -3  -3   89.81    5.82
  -7   3  -3   98.47    5.76
   7   3   3   85.31    5.26
   7   3   4  247.18   12.49
   7  -3   4  251.57   12.06
  -7  -3  -4  260.65   11.94
   7   3   4  247.86   11.82
  -7  -3  -4  255.58   12.06
   7  -3   4  255.86   12.51
  -7   3  -4  267.04   12.91
   7  -3   4  265.28   12.72
  -7  -3  -4  266.90   12.72
  -7   3  -4  246.68   12.16
   7   3   5   -0.36    1.46
   7   3   5   -0.24    1.09
   7  -3   5   -0.29    1.37
  -7  -3  -5    0.25    1.19
  -7  -3  -5   -1.21    1.28
   7  -3   5   -0.73    1.47
  -7   3  -5   -0.40    1.60
   7  -3   5   -0.75    1.45
  -7  -3  -5    0.39    1.48
   7  -3   5    0.66    0.77
   7  -3   5    0.40    1.51
  -7   3  -5   -1.50    1.16
   7   3   6   49.95    4.33
   7  -3   6   60.57    4.27
   7  -3   6   64.79    3.12
  -7  -3  -6   64.13    4.00
  -7  -3  -6   64.67    4.44
   7  -3   6   54.36    4.47
   7   3   6   61.64    3.90
  -7   3  -6   62.13    4.75
  -7  -3  -6   66.55    4.92
   7  -3   6   68.02    4.78
  -7   3  -6   57.11    4.09
   7   3   7    4.04    1.63
   7  -3   7    0.95    1.47
   7   3   7    2.59    1.13
  -7  -3  -7    3.15    1.29
  -7  -3  -7    2.39    1.68
  -7   3  -7    2.49    1.81
  -7  -3  -7    1.69    1.65
   7   3   7    1.99    0.77
  -7   3  -7    2.77    1.26
   7  -3   8  116.63    6.82
  -7  -3  -8  110.36    6.13
  -7  -3  -8  113.06    6.95
  -7   3  -8  127.91    7.46
  -7  -3  -8  123.50    7.49
   7   3   8  134.54    5.83
  -7   3  -8  108.08    6.32
  -7  -3  -9  123.58    6.41
  -7  -3  -9  125.22    7.48
  -7   3  -9  125.53    7.71
  -7  -3  -9  129.79    7.93
   7   3   9  128.01    6.26
  -7   3  -9  138.32    6.87
   7   3  10   -0.40    1.10
  -7   3 -10    0.44    1.91
  -7  -3 -10    2.61    1.10
  -7   3 -10   -0.46    1.94
  -7  -3 -10    1.22    1.80
  -7   3 -10   -1.73    1.83
  -7   3 -10   -0.23    1.15
  -7   3 -11    2.30    2.01
  -7  -3 -11    0.17    1.03
  -7   3 -11    3.81    2.04
  -7  -3 -11    0.43    1.82
  -7   3 -11    2.63    2.05
  -7   3 -11    0.64    1.07
  -7   3 -12   14.99    3.02
  -7  -3 -12   15.55    1.59
  -7   3 -12    9.38    2.62
  -7  -3 -12   15.90    2.78
  -7   3 -12   13.33    2.68
  -7  -3 -12   20.46    3.32
  -7   3 -13   48.68    4.67
  -7  -3 -13   35.64    2.36
  -7   3 -13   38.48    4.25
  -7  -3 -13   38.79    4.17
  -7   3 -13   37.22    3.93
  -7  -3 -13   46.03    4.71
  -7   3 -14   75.87    6.24
  -7   3 -14   89.76    6.62
  -7  -3 -14   99.10    6.59
  -7  -3 -14   87.77    6.50
  -7   3 -14   74.06    5.91
  -7   3 -15   -0.55    2.31
  -7   3 -15   -0.55    2.35
  -7  -3 -15    0.53    2.23
  -7   3 -15   -2.27    2.32
  -7  -3 -15   -0.56    2.55
  -7   3 -16   96.40    7.35
  -7  -3 -16   98.80    7.36
  -7   3 -16  101.20    7.32
  -7  -3 -16   98.56    7.28
  -7   3 -16   91.30    6.72
  -7   3 -17   19.46    3.37
  -7   3 -18    4.04    2.35
   7   4 -20    3.26    2.78
   7   4 -19   23.46    3.61
   7   4 -18   -1.17    2.51
   7   4 -18   -2.03    2.27
   7  -4 -18    0.62    2.71
   7   4 -17   73.43    5.88
   7  -4 -17   71.04    6.21
   7   4 -17   64.55    5.88
   7  -4 -16   -1.06    1.53
   7   4 -16   -1.10    2.47
   7  -4 -16   -0.57    2.50
   7   4 -16    0.94    2.37
  -7  -4  16   -0.31    1.57
   7  -4 -15  324.93   14.54
   7   4 -15  335.07   16.44
   7  -4 -15  312.86   16.41
   7   4 -15  321.31   15.87
   7  -4 -14    2.12    1.36
   7  -4 -14   -1.06    2.34
   7   4 -14   -0.44    1.89
   7  -4 -13    8.63    1.58
   7  -4 -13   12.71    3.02
   7   4 -13   11.48    2.49
   7  -4 -12   59.86    3.55
   7   4 -12   47.35    2.84
   7  -4 -12   52.02    4.72
   7   4 -12   59.96    4.71
   7  -4 -11    5.41    1.35
   7   4 -11    5.39    0.90
   7  -4 -11    2.78    1.91
   7   4 -11    3.19    1.85
   7   4 -10    8.55    1.01
   7  -4 -10    8.43    2.35
   7   4 -10   10.04    2.19
   7   4  -9  154.49    6.92
   7  -4  -9  160.53    9.18
   7   4  -9  180.22    9.00
  -7  -4   9  165.54    7.84
   7  -4  -9  163.48    8.96
   7  -4  -8    5.01    1.94
   7   4  -8    2.91    0.66
  -7  -4   8    2.71    1.31
   7  -4  -8    4.12    2.05
   7   4  -8    4.80    1.84
   7   4  -7  429.33   17.84
   7  -4  -7  448.45   20.09
   7   4  -7  464.69   19.92
  -7  -4   7  441.39   18.97
   7  -4  -7  424.89   19.77
   7   4  -6   -0.70    1.53
   7  -4  -6    0.36    1.27
   7   4  -6   -0.82    1.64
  -7  -4   6   -1.79    1.22
   7  -4  -6    1.54    1.73
   7  -4  -5    1.40    1.44
   7  -4  -5    0.19    0.98
   7   4  -5    6.71    1.96
   7  -4  -5    3.20    2.00
  -7  -4   5    2.39    1.24
   7  -4  -5    0.77    1.62
   7  -4  -4    0.36    1.44
   7  -4  -4    1.69    1.38
   7  -4  -4    0.58    0.92
  -7  -4   4    0.78    1.58
   7   4  -4   -0.38    1.62
   7  -4  -4    1.19    1.49
  -7  -4   4    0.28    1.30
   7  -4  -3    7.58    1.76
   7  -4  -3    0.71    1.46
   7  -4  -3    3.23    1.21
  -7  -4   3    1.13    1.57
   7   4  -3    0.74    1.47
   7  -4  -3    5.95    1.81
  -7  -4   3    0.87    1.25
  -7  -4   3    1.93    0.51
   7  -4  -2    3.17    1.67
   7  -4  -2    2.49    1.18
  -7  -4   2    3.65    1.57
   7  -4  -2   -0.38    1.59
   7   4  -2    4.28    1.73
   7  -4  -2    2.41    1.72
  -7  -4   2    3.04    1.54
   7  -4  -2    0.98    1.31
   7  -4  -1  985.55   42.50
  -7  -4   1 1004.42   43.49
   7  -4  -1  987.91   43.63
   7  -4  -1 1098.18   44.02
  -7  -4   1 1046.05   43.37
   7   4  -1 1056.35   43.54
   7  -4  -1 1126.20   43.55
  -7   4   1 1043.23   43.64
   7  -4   0    8.80    1.56
  -7  -4   0    5.49    1.78
  -7  -4   0    3.97    1.12
   7  -4   0    2.69    1.77
   7   4   0    7.67    0.90
  -7  -4   0    6.27    1.74
   7  -4   0    5.94    1.93
   7  -4   0    5.05    1.69
  -7   4   0    7.44    1.77
   7   4   0    7.01    1.93
   7  -4   1    4.38    1.89
   7  -4   1    3.99    1.33
   7   4   1    1.94    1.61
  -7  -4  -1    4.36    1.55
  -7  -4  -1    3.48    1.19
   7  -4   1    4.58    1.81
   7   4   1    3.57    0.76
  -7  -4  -1    5.16    1.75
   7  -4   1    3.15    1.53
  -7   4  -1    4.50    1.52
   7  -4   2   13.29    1.90
   7   4   2   15.48    2.22
  -7  -4  -2   11.85    1.80
  -7  -4  -2   12.71    2.14
   7  -4   2    9.54    2.12
  -7   4  -2   17.25    2.65
   7  -4   2    8.76    2.16
  -7  -4  -2   16.82    2.34
  -7   4  -2   12.83    2.04
   7   4   3  272.79   13.70
   7  -4   3  263.28   12.91
  -7  -4  -3  301.17   13.58
   7   4   3  285.91   13.37
   7  -4   3  276.28   12.80
  -7  -4  -3  291.25   13.07
   7  -4   3  280.74   13.83
   7  -4   3  292.35   13.98
  -7  -4  -3  307.25   13.99
  -7   4  -3  295.18   13.59
  -7   4  -3  275.96   13.95
   7   4   4    8.81    1.83
   7   4   4    4.47    1.71
   7  -4   4    6.28    1.34
   7  -4   4    8.67    1.68
  -7  -4  -4    6.92    1.71
   7  -4   4    6.12    1.89
  -7  -4  -4    4.92    1.66
  -7   4  -4    7.43    2.04
   7  -4   4    9.14    2.10
  -7  -4  -4    1.95    1.67
  -7   4  -4    7.32    1.80
   7   4   5  274.10   13.27
   7  -4   5  256.15   12.59
  -7  -4  -5  271.65   12.76
   7  -4   5  274.50   11.98
  -7  -4  -5  270.72   12.81
   7   4   5  266.86   12.62
   7  -4   5  250.24   13.36
  -7   4  -5  282.18   13.61
   7  -4   5  282.85   13.49
  -7  -4  -5  270.91   13.46
  -7   4  -5  279.90   12.87
   7   4   6    4.58    1.96
   7   4   6    4.12    1.52
   7  -4   6    3.53    1.42
   7  -4   6    4.08    1.06
  -7  -4  -6    6.65    1.80
  -7  -4  -6    3.78    1.55
   7  -4   6    7.77    2.00
  -7   4  -6    3.35    1.89
   7  -4   6    3.13    1.55
  -7  -4  -6    6.37    1.99
   7  -4   7   36.85    3.27
  -7  -4  -7   41.40    3.28
   7   4   7   35.67    3.08
  -7  -4  -7   40.41    3.53
   7  -4   7   36.59    2.29
   7  -4   7   40.24    3.86
  -7   4  -7   38.57    3.78
   7  -4   7   44.36    3.89
  -7  -4  -7   42.02    3.92
  -7  -4  -8    2.16    1.57
   7  -4   8    0.13    0.39
  -7  -4  -8    1.64    1.48
   7  -4   8    1.76    1.71
  -7   4  -8   -0.86    1.78
   7  -4   8    1.52    1.93
  -7  -4  -8    4.14    2.09
  -7   4  -9  161.89    9.13
  -7  -4  -9  164.57    8.27
  -7  -4  -9  159.35    8.93
   7  -4   9  163.03    9.31
  -7   4  -9  156.53    9.18
  -7  -4  -9  162.30    9.49
   7   4   9  167.41    7.62
  -7   4 -10   70.60    5.18
  -7  -4 -10   60.29    4.12
  -7  -4 -10   70.34    5.12
   7  -4  10   62.69    5.09
  -7   4 -10   56.30    4.89
  -7  -4 -10   71.58    5.53
  -7   4 -11    7.85    2.23
  -7   4 -11    5.91    2.29
  -7  -4 -11    7.32    2.23
  -7  -4 -11    6.99    1.68
  -7   4 -11    5.27    1.99
   7  -4  11    8.49    2.63
  -7  -4 -11    9.78    2.76
  -7   4 -12    2.92    2.21
  -7   4 -12    2.54    2.43
  -7  -4 -12    2.27    2.04
  -7  -4 -12    1.82    1.36
  -7   4 -12    0.44    1.95
  -7   4 -13   78.51    6.26
  -7  -4 -13   84.48    4.79
  -7   4 -13   83.05    6.39
  -7  -4 -13   90.12    6.36
  -7   4 -13   77.21    5.91
  -7   4 -14    1.60    2.26
  -7   4 -14    2.17    2.44
  -7  -4 -14    2.52    2.47
  -7  -4 -14    3.45    1.34
  -7   4 -14    1.76    2.01
  -7  -4 -14    3.97    2.72
  -7   4 -15   -0.56    2.63
  -7   4 -15   -2.25    2.88
  -7  -4 -15   -0.53    2.58
  -7   4 -15    1.31    2.15
  -7  -4 -15    1.75    2.72
  -7   4 -16   -2.32    2.71
  -7   4 -16    0.43    2.00
  -7   4 -17   30.32    3.80
   7   5 -20   22.84    3.54
   7   5 -19   -0.48    2.45
   7   5 -18   -0.92    2.31
   7   5 -17    3.57    2.52
   7  -5 -17    0.60    2.71
   7   5 -16   22.46    3.76
   7   5 -16   29.95    3.53
   7  -5 -16   23.08    3.96
   7  -5 -15    4.96    2.64
   7   5 -15    1.25    2.07
   7   5 -14   54.62    4.43
   7  -5 -14   45.09    4.94
   7  -5 -13    3.55    2.60
   7   5 -13    1.57    1.88
   7  -5 -12   61.23    3.52
   7  -5 -12   65.80    5.26
   7   5 -12   60.75    4.78
   7  -5 -11   -1.02    0.92
   7   5 -11   -0.73    1.50
   7  -5 -10  187.96    8.73
   7  -5 -10  186.16   10.59
   7   5 -10  223.13   10.49
  -7  -5  10  198.55    8.89
   7  -5 -10  208.83   10.90
   7  -5  -9   24.62    3.32
   7  -5  -9   30.29    2.12
  -7  -5   9   29.06    2.40
   7  -5  -9   32.28    3.57
   7   5  -9   31.89    3.22
   7  -5  -8    4.01    0.98
   7  -5  -8    6.05    2.07
  -7  -5   8    4.48    1.30
   7  -5  -8    5.36    2.10
   7   5  -8    2.76    1.64
   7  -5  -7    2.14    1.81
   7  -5  -7   -0.57    0.88
   7  -5  -7   -1.58    1.56
  -7  -5   7    1.66    1.24
   7   5  -7    0.35    1.58
   7  -5  -6  199.42    9.31
   7  -5  -6  209.88   10.83
   7   5  -6  222.04   10.66
  -7  -5   6  218.58   10.07
   7  -5  -6  210.10   11.03
   7  -5  -5   26.88    3.05
   7  -5  -5   19.88    1.79
   7   5  -5   24.44    2.72
  -7  -5   5   21.74    2.33
   7  -5  -5   24.64    2.85
   7  -5  -4   60.94    3.50
   7  -5  -4   64.53    4.68
  -7  -5   4   67.39    4.30
   7  -5  -4   53.06    4.50
   7  -5  -3    0.84    0.87
  -7  -5   3    0.84    1.54
   7   5  -3    0.40    1.64
  -7  -5   3   -0.30    1.44
  -7  -5   3    0.85    0.65
   7  -5  -3    2.13    1.72
   7  -5  -3    1.93    1.50
   7  -5  -2   71.43    3.58
  -7  -5   2   73.11    4.93
   7  -5  -2   71.17    4.60
  -7  -5   2   74.29    4.41
   7  -5  -2   78.24    4.95
  -7  -5   2   61.55    2.76
   7   5  -2   60.80    4.58
   7  -5  -1   15.34    2.27
   7   5  -1   14.08    2.53
   7  -5  -1   13.27    1.65
  -7  -5   1   14.91    2.50
   7  -5  -1   15.64    2.70
  -7  -5   1   14.87    2.22
  -7  -5   1   12.28    0.88
   7  -5  -1   17.10    2.48
   7   5   0   50.80    4.33
   7  -5   0   64.46    3.71
  -7  -5   0   54.35    4.48
  -7  -5   0   61.02    3.50
   7  -5   0   53.80    4.65
  -7  -5   0   63.87    4.44
   7  -5   0   52.89    4.35
   7  -5   1    3.44    1.62
   7  -5   1    3.23    1.09
  -7  -5  -1    4.23    1.22
   7   5   1    6.47    1.96
  -7  -5  -1    2.70    1.66
   7  -5   1    2.50    1.74
  -7  -5  -1    3.62    1.80
   7  -5   1    1.86    1.65
   7  -5   2    1.83    1.09
  -7  -5  -2    2.46    1.26
  -7  -5  -2   -1.13    1.55
   7   5   2    1.06    1.52
   7  -5   2   -0.84    1.85
  -7  -5  -2    2.26    1.72
   7  -5   2    0.89    1.39
   7   5   3   10.71    2.09
   7  -5   3    5.29    1.39
  -7  -5  -3    8.62    1.60
   7  -5   3   10.85    2.34
  -7  -5  -3    8.67    2.13
   7  -5   3   11.30    1.88
  -7  -5  -3    8.48    2.13
   7   5   4  174.56    9.50
   7  -5   4  175.15    8.79
  -7  -5  -4  189.90    9.54
  -7  -5  -4  181.68    8.89
   7  -5   4  171.68    8.71
   7   5   4  168.49    9.16
   7  -5   4  186.68    9.86
   7   5   5   -0.99    1.48
   7  -5   5    1.08    1.27
  -7  -5  -5    2.33    1.39
   7  -5   5   -0.23    1.16
  -7  -5  -5   -0.35    1.51
   7  -5   5    2.29    1.75
   7  -5   5    3.30    1.95
   7   5   6   25.04    2.80
   7  -5   6   27.58    2.72
  -7  -5  -6   26.80    2.82
  -7  -5  -6   27.90    3.05
   7  -5   6   28.15    2.36
   7  -5   6   26.27    3.33
   7  -5   7    2.43    1.58
  -7  -5  -7    2.68    1.61
   7  -5   7    3.81    1.19
   7  -5   7    1.38    1.72
  -7   5  -7    6.45    2.23
  -7  -5  -7    3.65    1.65
   7  -5   8    6.17    1.18
  -7  -5  -8    4.67    1.89
   7  -5   8    7.01    2.25
  -7   5  -8    4.73    2.04
  -7  -5  -8    6.10    1.75
  -7   5  -9    4.14    2.17
  -7  -5  -9    2.68    1.65
   7  -5   9    4.31    2.19
  -7   5  -9    5.58    2.23
  -7  -5  -9    6.63    1.90
  -7   5 -10   -0.44    1.93
  -7  -5 -10   -0.41    2.04
  -7   5 -10   -0.43    1.81
   7  -5  10   -0.49    2.06
  -7  -5 -10   -0.31    1.59
  -7   5 -11    2.31    1.96
  -7  -5 -11    3.02    2.07
  -7   5 -11    7.27    2.27
   7  -5  11    7.93    2.52
  -7  -5 -11    3.57    1.72
  -7   5 -12    0.49    2.35
  -7  -5 -12   -0.91    2.29
  -7   5 -12    0.42    1.91
  -7  -5 -12    3.45    1.90
  -7   5 -13   12.24    3.01
  -7  -5 -13    9.62    2.70
  -7   5 -13    5.48    2.39
  -7  -5 -13    3.27    1.71
  -7   5 -14   35.24    4.42
  -7  -5 -14   42.41    4.42
  -7   5 -15    3.34    2.53
  -7  -5 -15    1.58    2.82
  -7   5 -15    1.22    2.18
   7   6 -17    3.92    2.31
   7   6 -16    1.13    2.06
   7  -6 -16    1.14    2.66
   7   6 -15   17.36    3.58
   7   6 -15   22.11    3.07
   7  -6 -15   23.06    4.04
   7   6 -14    1.12    2.58
   7  -6 -14    2.63    2.58
   7   6 -14   -0.71    1.78
   7  -6 -13   23.20    3.61
   7   6 -13   21.42    2.84
   7   6 -13   19.80    2.55
   7  -6 -12    1.93    2.42
   7   6 -12   -0.67    1.72
   7   6 -12   -1.00    1.64
   7  -6 -11  107.28    6.88
   7   6 -11   88.76    5.79
   7   6 -11   92.85    5.33
   7  -6 -10    2.55    2.19
   7  -6 -10    0.44    2.02
   7   6 -10    1.91    1.65
   7   6 -10    1.02    1.19
   7  -6  -9   55.08    4.70
   7   6  -9   57.99    4.22
   7   6  -9   59.79    3.54
  -7  -6   9   54.40    3.37
   7  -6  -9   53.38    4.78
   7  -6  -8   14.67    2.82
   7  -6  -8    9.68    2.36
   7   6  -8   10.07    1.47
  -7  -6   8    9.98    1.67
  -7  -6   7   43.16    4.43
   7  -6  -7   36.81    1.91
   7  -6  -7   51.53    4.14
   7   6  -7   50.83    3.77
   7   6  -7   45.98    2.59
  -7  -6   7   51.29    3.34
   7  -6  -7   48.35    4.44
   7  -6  -6    3.27    2.07
   7   6  -6    3.91    0.87
   7  -6  -6    4.14    1.83
  -7  -6   6    3.83    1.37
   7   6  -6    2.89    1.78
   7  -6  -5  169.18    6.76
   7  -6  -5  175.02    8.75
  -7  -6   5  187.62    8.32
   7   6  -5  186.05    8.60
   7  -6  -5  184.63    9.49
   7  -6  -4    2.25    2.02
   7   6  -4    4.45    1.72
   7  -6  -4    1.37    0.73
   7  -6  -4    4.49    1.87
  -7  -6   4    1.18    1.45
   7  -6  -3  118.25    5.45
  -7  -6   3  112.26    7.43
   7  -6  -3  126.71    6.97
  -7  -6   3  118.34    6.67
  -7  -6   3  112.83    5.65
   7  -6  -3  120.12    7.38
   7  -6  -2   27.34    2.00
  -7  -6   2   29.27    3.58
  -7  -6   2   22.19    1.86
  -7  -6   2   25.88    2.85
   7  -6  -2   27.35    3.03
   7  -6  -2   29.36    3.38
   7  -6  -1   29.65    2.21
  -7  -6   1   29.62    3.47
   7  -6  -1   34.44    3.18
  -7  -6   1   30.04    2.02
  -7  -6   1   27.43    3.00
   7  -6  -1   27.23    3.37
   7  -6   0    8.39    1.95
  -7  -6   0    7.08    1.02
   7  -6   0    6.92    2.01
   7  -6   0    6.34    1.27
  -7  -6   0   10.30    2.36
  -7  -6   0   10.62    2.18
   7  -6   0   11.34    2.32
   7  -6   1   56.18    3.60
  -7  -6  -1   57.22    4.81
  -7  -6  -1   60.73    3.58
  -7  -6  -1   58.50    4.58
   7  -6   1   67.32    4.46
   7  -6   1   68.10    5.02
   7  -6   1   60.80    4.54
   7  -6   2   -0.21    1.07
  -7  -6  -2    0.21    1.12
   7  -6   2    0.67    1.61
  -7  -6  -2   -0.43    1.83
   7  -6   2    1.30    1.87
   7  -6   3    2.88    1.51
   7  -6   3    1.59    1.22
  -7  -6  -3    2.12    1.21
  -7  -6  -3    1.27    1.90
   7  -6   4   -0.25    1.35
  -7  -6  -4    0.53    1.36
   7  -6   4   -1.92    1.97
   7  -6   4   -1.51    1.43
  -7  -6  -4   -0.82    1.87
   7  -6   5  145.88    7.50
   7  -6   5  141.84    7.36
  -7  -6  -5  136.99    8.08
  -7  -6  -5  136.46    7.39
   7  -6   5  138.07    8.55
   7  -6   6    0.57    1.46
  -7  -6  -6    1.54    1.78
   7  -6   6   -0.48    1.88
  -7  -6  -6   -1.58    1.89
   7  -6   6    0.26    1.33
  -7  -6  -7  257.82   13.60
  -7  -6  -7  286.23   13.41
   7  -6   7  286.99   12.77
   7  -6   7  286.71   14.36
  -7  -6  -8    3.21    1.91
   7  -6   8    2.96    2.15
  -7  -6  -8    1.94    2.01
  -7  -6  -9    8.01    2.35
   7  -6   9   10.07    2.71
  -7  -6  -9   11.46    2.44
  -7   6 -10   -0.86    2.09
  -7  -6 -10   -1.22    1.94
   7  -6  10    1.02    2.15
  -7  -6 -10   -0.38    1.86
  -7   6 -11   20.55    3.22
  -7  -6 -11   23.29    3.27
   7  -6  11   19.62    3.43
  -7  -6 -11   17.21    2.73
  -7   6 -12   -0.48    2.33
  -7  -6 -12    0.91    2.16
  -7  -6 -12    0.36    1.86
  -7   6 -13  194.78   11.14
  -7  -6 -13  184.95   10.13
  -7  -6 -13  222.59   11.33
  -7   6 -14    6.36    2.90
  -7  -6 -14    8.07    2.83
   7  -7 -15    0.54    2.47
   7  -7 -14   32.99    4.45
   7   7 -13    2.78    2.63
   7   7 -13   -1.43    1.59
   7  -7 -13    0.50    2.52
   7  -7 -12   19.89    3.39
   7   7 -12   19.86    2.52
   7  -7 -11    1.14    2.45
   7  -7 -11    1.36    2.12
   7   7 -11    2.16    1.64
   7  -7 -10  102.71    6.92
   7   7 -10  103.50    5.98
   7  -7 -10  113.95    7.61
   7  -7  -9    1.08    2.18
   7  -7  -9   -1.24    1.93
   7   7  -9   -0.78    1.40
   7  -7  -8    1.63    2.37
   7  -7  -8    1.19    1.97
   7   7  -8    0.26    1.39
   7  -7  -7    1.60    2.45
  -7  -7   7    1.12    2.14
   7  -7  -7    1.89    1.88
  -7  -7   7    1.38    1.33
   7   7  -7    2.12    1.33
  -7  -7   6  247.23   13.85
   7  -7  -6  260.08   12.82
   7   7  -6  267.80   12.30
  -7  -7   6  277.80   12.31
   7  -7  -6  252.35   13.73
   7  -7  -5    0.51    2.13
   7  -7  -5   -2.07    1.84
  -7  -7   5   -0.29    1.54
   7   7  -5   -0.28    1.58
   7  -7  -4  120.13    7.48
   7  -7  -4   97.89    6.15
  -7  -7   4  112.32    6.24
   7   7  -4  101.34    5.91
  -7  -7   4   97.16    5.43
   7  -7  -4  100.77    7.05
  -7  -7   3    2.64    2.02
   7  -7  -3    0.49    2.39
   7  -7  -3    4.51    1.69
  -7  -7   3    1.32    1.73
   7  -7  -3    4.51    2.28
  -7  -7   2   64.48    5.44
   7  -7  -2   54.47    4.22
  -7  -7   2   58.88    4.42
   7  -7  -2   51.72    4.90
   7  -7  -1    6.26    2.42
  -7  -7   1   11.79    2.75
  -7  -7   1    5.91    2.06
   7  -7  -1    4.57    1.84
   7  -7  -1    5.50    2.32
  -7  -7   0   93.90    6.95
   7  -7   0  106.33    6.16
   7  -7   0  113.84    6.81
  -7  -7   0  105.64    6.54
   7  -7   0  107.13    7.21
  -7  -7   0   99.13    5.13
  -7  -7  -1   12.69    1.51
   7  -7   1   14.60    2.67
  -7  -7  -1   12.49    1.52
  -7  -7  -1   11.93    2.92
   7  -7   1   11.79    2.72
   7  -7   1   14.37    2.28
   7  -7   2    0.30    1.51
   7  -7   2   -1.96    1.81
  -7  -7  -2   -0.95    1.14
  -7  -7  -2   -0.97    2.18
   7  -7   2    1.47    2.07
   7  -7   3   44.62    3.94
  -7  -7  -3   50.11    3.25
  -7  -7  -3   34.45    4.07
   7  -7   3   38.55    3.44
   7  -7   4  221.79   10.71
   7   7   4  195.82   10.28
  -7  -7  -4  214.87   11.34
  -7  -7  -4  214.40   10.01
   7  -7   4  188.60   11.23
   7  -7   5    5.03    1.96
  -7  -7  -5   10.47    2.04
   7  -7   5    2.54    2.41
  -7  -7  -5    4.15    2.27
  -7  -7  -6   28.53    2.91
   7  -7   6   31.28    3.77
   7  -7   6   24.76    2.87
  -7  -7  -6   24.33    3.39
  -7  -7  -7   18.58    2.61
   7  -7   7   20.31    3.29
  -7  -7  -7   21.82    3.32
  -7  -7  -8   72.71    5.62
  -7  -7  -8   65.09    4.83
   7  -7   8   64.72    5.55
  -7  -7  -9   10.17    2.39
   7  -7   9    6.29    2.56
  -7  -7  -9    6.64    2.36
  -7  -7 -10    0.80    1.99
   7  -7  10    1.06    2.37
  -7  -7 -10   -1.74    2.25
  -7   7 -11    0.45    2.19
  -7  -7 -11    2.99    2.32
  -7  -7 -11   -1.28    2.25
  -7   7 -12   -1.89    2.66
  -7  -7 -12   -2.71    2.53
  -7  -7 -12   -1.66    2.43
  -7   7 -13    2.48    2.55
  -7  -7 -13    9.52    2.86
  -7  -7 -13    7.69    2.51
   7  -8 -14   -1.50    2.64
   7  -8 -13    0.48    2.62
   7  -8 -12    3.20    2.44
   7  -8 -11   23.26    3.48
   7  -8 -10   -0.60    2.77
   7  -8 -10   -0.68    2.84
   7  -8 -10    2.09    2.30
   7  -8  -9   50.43    5.22
   7  -8  -9   40.39    5.31
   7  -8  -9   48.01    4.36
  -7  -8   9   47.41    5.37
   7  -8  -8    5.34    2.78
   7  -8  -8    5.14    2.81
  -7  -8   8    8.08    3.19
   7  -8  -8    6.07    2.37
  -7  -8   7  137.14    8.97
   7  -8  -7  142.60    9.08
   7  -8  -7  128.63    7.39
   7   8  -7  113.68    6.25
   7  -8  -7  149.42    8.90
   7  -8  -6   12.63    3.14
   7  -8  -6   13.40    3.51
  -7  -8   6    7.86    2.85
   7  -8  -6   13.72    2.46
   7   8  -6    6.11    1.55
   7  -8  -5    1.13    2.24
   7  -8  -5    0.59    2.48
   7  -8  -5    3.60    1.94
   7   8  -5    0.64    1.37
  -7  -8   5    1.29    1.39
   7  -8  -4    0.56    2.39
   7  -8  -4    0.56    2.43
   7  -8  -4    1.24    1.72
  -7  -8   4   -0.32    1.70
   7   8  -4    1.41    1.48
  -7  -8   4   -0.25    1.46
   7  -8  -3    6.15    2.81
   7   8  -3    1.72    1.46
  -7  -8   3    2.92    2.40
   7  -8  -3    6.78    1.93
  -7  -8   3    6.56    2.04
  -7  -8   3    5.01    1.55
   7  -8  -3    3.20    2.62
  -7  -8   2   -1.57    1.41
   7   8  -2    0.26    1.54
  -7  -8   2   -1.15    2.62
   7  -8  -2    1.54    2.60
   7  -8  -2    1.13    1.61
  -7  -8   2   -0.73    1.82
   7  -8  -2   -1.12    2.44
  -7  -8   1  336.20   15.98
   7  -8  -1  321.37   15.32
  -7  -8   1  323.56   14.57
   7  -8  -1  300.67   15.45
  -7  -8   0    0.20    1.30
   7  -8   0    2.40    2.27
  -7  -8   0   -0.56    2.49
  -7  -8   0    2.45    1.88
   7  -8   0   -0.56    2.36
  -7  -8  -1    8.02    1.54
  -7  -8  -1    7.18    2.85
   7  -8   1   12.48    3.09
   7  -8   1   10.02    3.08
   7  -8   2   11.60    2.65
  -7  -8  -2   15.15    3.31
   7  -8   2   21.42    3.70
   7  -8   3  126.44    7.54
  -7  -8  -3  125.07    7.98
   7  -8   3  110.83    7.75
   7  -8   3  110.21    7.88
   7  -8   4    6.97    2.30
   7  -8   4    2.10    2.26
  -7  -8  -4    4.68    2.56
  -7  -8  -5  110.76    7.36
   7  -8   5   94.19    6.98
   7  -8   5   89.64    6.20
   7  -8   6    2.61    2.37
  -7  -8  -6    2.06    2.59
   7  -8   7   15.85    3.24
  -7  -8  -7   22.03    3.48
   7  -8   8    3.21    2.62
  -7  -8  -8   -2.02    2.68
  -7  -8  -9   19.46    3.42
  -7  -8 -10    3.43    2.70
  -7  -8 -11    1.44    2.59
  -7  -8 -12    1.88    2.51
   7  -9  -6    9.61    3.32
  -7  -9   6   13.93    2.29
   7  -9  -5    0.62    2.62
  -7  -9   5    1.78    1.76
   7  -9  -4   19.21    3.87
   7  -9  -4   19.82    3.75
  -7  -9   4   18.98    2.57
   7  -9  -3    0.62    2.52
   7  -9  -3   -1.75    2.80
  -7  -9   3   -1.92    2.78
  -7  -9   3   -0.27    1.55
   7  -9  -2   19.30    3.76
  -7  -9   2   17.70    3.75
  -7  -9   2   16.47    2.79
   7  -9  -2   16.58    3.68
  -7  -9   1   -2.50    2.80
  -7  -9   1   -1.22    2.17
   7  -9  -1    2.20    2.56
   7  -9  -1   -1.85    2.61
  -7  -9   0    6.18    3.21
   7  -9   0    3.74    2.69
  -7  -9   0   11.13    2.57
   7  -9   0    1.23    2.45
   7  -9   1    3.58    2.48
  -7  -9  -1    7.30    3.22
   7  -9   1    5.53    3.02
   7  -9   2    0.49    2.53
   7  -9   2   -1.61    2.56
  -7  -9  -2   -0.60    2.85
   7  -9   2   -1.23    2.51
   7  -9   3   -0.48    2.49
   7  -9   3    0.54    2.33
  -7  -9  -3   -1.75    2.72
   7  -9   4   30.88    3.97
  -7  -9  -4   31.92    4.35
   7  -9   5    3.70    2.41
  -7  -9  -5    3.42    2.86
  -7  -9  -6    0.57    2.66
   7 -10   0   -0.58    3.04
   7 -10   1   12.94    3.38
   8   0 -20   -0.51    2.36
   8   0 -19    0.49    2.31
   8   0 -19    5.17    3.17
   8   0 -18  269.87   13.76
   8   0 -18  263.54   14.63
   8   0 -17   -0.46    2.16
   8   0 -17   -0.60    2.67
   8   0 -17   -0.63    1.70
   8   0 -16   17.74    2.97
   8   0 -16    8.75    3.03
   8   0 -16    9.85    2.15
  -8   0  16   12.70    2.37
   8   0 -15    0.85    1.82
   8   0 -15   -0.56    2.41
   8   0 -15    0.32    1.65
  -8   0  15   -0.77    1.71
   8   0 -14   10.60    2.13
  -8   0  14   10.45    2.37
  -8   0  13   -0.32    1.71
   8   0 -13   -0.97    1.54
  -8   0  13    1.16    1.81
   8   0 -12  271.97   13.16
  -8   0  12  280.67   13.09
  -8   0  12  279.74   13.63
  -8   0  11    1.67    1.39
   8   0 -11   -0.65    1.54
  -8   0  11    0.38    1.54
   8   0 -10  165.78    8.85
  -8   0  10  176.73    8.46
  -8   0  10  157.24    8.98
   8   0  -9    2.11    1.45
   8   0  -9   -0.33    1.47
  -8   0   9   -1.52    1.68
  -8   0   9    0.47    1.10
  -8   0   8   17.08    2.56
   8   0  -8   23.88    3.06
  -8   0   8   22.58    2.18
   8   0  -8   20.80    2.65
  -8   0   7    1.52    1.59
   8   0  -7    0.85    1.59
   8   0  -7    2.32    1.64
  -8   0   7    1.08    1.55
   8   0  -7    0.67    1.36
  -8   0   7    1.00    0.96
  -8   0   6   18.94    2.58
   8   0  -6   15.88    2.46
   8   0  -6   10.88    2.14
  -8   0   6   17.70    2.51
  -8   0   6   20.33    1.78
   8   0  -6   14.44    2.25
   8   0  -5   -0.35    1.60
   8   0  -5    1.55    1.18
  -8   0   5   -1.82    1.54
   8   0  -5    0.34    1.31
   8   0  -4   35.69    3.26
   8   0  -4   29.83    2.94
  -8   0   4   34.96    3.27
   8   0  -4   41.38    3.43
   8   0  -3   -0.32    1.32
   8   0  -3   -0.31    1.27
  -8   0   3    1.11    1.23
   8   0  -3    0.34    1.39
   8   0  -2    5.67    1.52
   8   0  -2    1.55    1.38
  -8   0   2    4.45    1.67
   8   0  -2    3.13    1.52
   8   0  -1    0.85    1.33
   8   0  -1    0.31    1.15
  -8   0   1    0.37    1.43
   8   0   0  452.16   18.89
   8   0   0  397.35   18.98
  -8   0   0  481.35   19.86
   8   0   0  418.90   17.48
   8   0   1   -0.41    0.61
   8   0   1   -0.35    1.28
   8   0   1   -0.95    1.37
   8   0   1   -0.24    1.23
  -8   0  -1   -0.39    1.30
   8   0   2   36.56    3.44
   8   0   2   40.55    2.93
   8   0   2   36.75    3.31
  -8   0  -2   41.76    3.76
   8   0   2   43.62    2.25
   8   0   3   -0.72    1.50
   8   0   3    0.33    1.31
  -8   0  -3    1.20    1.40
   8   0   3   -0.60    0.63
   8   0   3    0.20    1.08
   8   0   4  221.34   11.06
  -8   0  -4  228.95   11.08
   8   0   4  216.76   10.75
   8   0   4  214.41    9.71
   8   0   4  211.72   10.67
  -8   0  -4  194.31   10.92
   8   0   5   -0.74    1.49
  -8   0  -5    2.63    1.82
   8   0   5    0.83    0.83
  -8   0  -5   -2.52    1.72
   8   0   5   -0.67    1.40
   8   0   6  504.19   20.67
  -8   0  -6  516.04   22.78
   8   0   6  497.96   22.35
  -8   0  -7   -0.41    1.52
   8   0   7   -0.35    1.42
  -8   0  -8    6.38    1.99
   8   0   8   10.71    2.23
  -8   0  -8    9.16    2.37
  -8   0  -9   -0.44    1.80
   8   0   9   -0.37    1.64
  -8   0  -9    0.47    1.86
  -8   0 -10    4.12    1.96
  -8   0 -10   16.00    2.78
  -8   0 -11   -0.48    1.89
  -8   0 -11   -1.49    2.07
  -8   0 -12    2.99    2.12
  -8   0 -12    6.13    2.48
  -8   0 -13   -0.52    2.17
  -8   0 -13    1.57    2.35
  -8   0 -14    1.63    2.37
  -8   0 -14    5.88    2.59
  -8   0 -15    0.25    1.36
  -8   0 -15    1.70    2.39
  -8   0 -15   -2.72    2.70
  -8   0 -16   10.49    3.06
  -8   0 -17    0.56    2.77
   8  -1 -21   38.27    4.40
   8  -1 -20    5.64    2.52
   8  -1 -19  197.57   10.83
   8   1 -19  204.84   11.35
   8   1 -19  187.26   11.74
   8  -1 -18   -1.31    2.16
   8   1 -18    1.52    2.34
   8   1 -18   -1.85    3.12
  -8  -1  18    0.71    1.77
   8  -1 -17    1.68    2.04
   8   1 -17    3.95    2.50
   8   1 -17    2.97    2.63
  -8  -1  17    2.91    1.85
   8  -1 -16    2.85    2.15
   8   1 -16   -1.43    2.20
   8   1 -16    0.57    2.43
   8   1 -16   -0.81    1.61
  -8  -1  16    0.37    1.72
   8  -1 -15   14.89    2.66
   8  -1 -15   21.62    3.69
   8   1 -15   13.80    2.98
   8   1 -15   16.09    2.24
  -8   1  15   12.93    2.57
  -8  -1  15   18.37    2.67
  -8  -1  14    9.91    2.12
   8  -1 -14    3.27    2.44
   8   1 -14   10.58    2.73
   8  -1 -14   13.51    2.38
   8   1 -14   10.45    2.02
  -8   1  14    9.31    2.31
  -8  -1  14    6.77    2.10
   8  -1 -13  216.82   11.80
   8   1 -13  228.01   11.86
   8  -1 -13  193.14   10.69
   8   1 -13  216.46   10.34
  -8   1  13  212.74   10.68
  -8  -1  13  218.63   10.54
  -8   1  13  210.01   10.97
  -8  -1  13  193.99   10.66
  -8   1  12   -0.32    1.49
  -8  -1  12    2.56    1.58
   8  -1 -12    7.27    1.98
   8  -1 -12    5.11    2.30
   8   1 -12    7.44    2.49
   8   1 -12    2.61    1.51
  -8   1  12    0.40    1.72
  -8  -1  12    0.75    1.65
  -8  -1  11    9.08    2.06
  -8  -1  11    8.68    1.80
   8  -1 -11    4.69    1.89
   8  -1 -11    9.30    2.41
   8   1 -11    4.12    1.62
   8   1 -11    7.56    2.36
  -8   1  11    7.15    2.08
  -8   1  11    8.39    1.88
  -8  -1  10   11.44    2.31
  -8  -1  10   13.85    1.92
   8  -1 -10   13.98    2.38
   8   1 -10   16.04    2.20
   8  -1 -10   20.11    2.87
   8   1 -10   18.33    3.00
  -8   1  10    9.85    2.25
  -8   1  10   10.77    1.97
  -8   1   9   59.98    3.99
   8  -1  -9   54.56    4.71
   8   1  -9   63.66    4.96
   8  -1  -9   56.33    4.36
   8   1  -9   56.60    4.09
  -8  -1   9   60.31    3.73
  -8   1   9   54.22    4.37
  -8  -1   8   -0.19    1.00
   8   1  -8    2.48    1.78
  -8  -1   8    1.33    1.45
   8  -1  -8    0.36    1.60
   8   1  -8    0.91    1.29
  -8   1   8    1.49    1.37
   8  -1  -8    1.37    1.74
  -8   1   8    3.86    1.73
   8   1  -8    0.44    1.67
   8  -1  -7   95.73    6.23
   8   1  -7   89.86    5.97
   8   1  -7   96.11    5.39
  -8  -1   7   83.00    5.51
   8  -1  -7   80.34    5.55
   8   1  -7   88.57    5.45
  -8   1   7   93.52    5.08
  -8  -1   7   85.65    4.62
  -8   1   7   94.37    5.93
   8  -1  -6   29.83    3.20
   8   1  -6   24.86    2.56
   8   1  -6   23.21    3.02
  -8  -1   6   30.75    2.97
   8   1  -6   30.83    2.89
  -8  -1   6   31.38    2.09
   8  -1  -6   27.00    3.01
  -8   1   6   27.05    2.95
   8   1  -5  259.03   12.41
   8  -1  -5  241.00   12.01
   8   1  -5  246.08   11.67
  -8   1   5  240.30   12.32
  -8  -1   5  256.61   12.21
   8  -1  -5  244.13   12.17
   8   1  -5  239.80   11.87
  -8  -1   5  247.34   10.62
   8  -1  -5  250.84   12.56
  -8   1   5  252.21   12.36
  -8   1   4    1.13    1.29
   8  -1  -4    1.02    1.42
   8   1  -4    0.82    1.19
   8   1  -4    1.39    1.62
  -8   1   4    4.65    1.79
  -8  -1   4    0.35    1.35
   8  -1  -4    1.82    1.28
   8   1  -4    2.88    1.61
  -8   1   3    7.15    1.75
   8  -1  -3    9.62    1.30
   8  -1  -3    8.18    1.82
   8   1  -3   11.57    1.70
   8   1  -3   10.22    1.99
  -8   1   3    5.85    1.83
   8   1  -3   11.35    2.02
  -8  -1   3   12.63    2.06
   8  -1  -3    6.24    1.77
  -8   1   2   27.76    2.87
   8  -1  -2   25.28    2.69
   8   1  -2   22.78    2.39
   8   1  -2   27.15    2.72
  -8  -1   2   28.88    2.97
  -8   1   2   18.82    2.65
   8  -1  -2   21.63    1.87
   8   1  -2   26.36    2.72
   8  -1  -1   14.97    1.47
   8  -1  -1   11.93    2.07
   8   1  -1   15.33    2.01
   8   1  -1    7.53    1.83
  -8   1   1   14.92    2.29
  -8  -1   1   10.90    2.09
   8  -1   0    0.46    0.81
   8  -1   0    1.94    1.41
   8  -1   0    1.03    1.20
   8  -1   0    2.08    1.39
   8   1   0    1.14    1.19
  -8   1   0    2.37    1.48
  -8  -1   0    3.68    1.58
   8   1   0    0.27    1.18
   8  -1   0   -0.37    1.37
   8  -1   1  249.99   12.93
   8  -1   1  277.35   12.55
   8   1   1  282.74   12.74
   8  -1   1  274.17   13.20
   8   1   1  261.13   12.81
  -8   1  -1  279.82   13.57
  -8  -1  -1  276.56   13.42
   8  -1   1  277.70   13.41
   8  -1   1  284.16   12.01
   8   1   2   -0.37    1.33
   8  -1   2    0.67    1.31
   8   1   2    0.24    1.19
   8  -1   2   -0.86    1.07
   8  -1   2   -0.35    1.40
   8   1   2    0.60    1.25
  -8   1  -2    0.81    1.42
  -8  -1  -2   -0.39    1.47
   8  -1   2    1.52    1.47
   8  -1   2    0.79    0.82
   8   1   3  487.60   22.39
   8  -1   3  473.92   22.16
   8  -1   3  477.55   21.16
  -8  -1  -3  522.40   22.32
   8  -1   3  499.99   22.31
   8   1   3  534.17   22.12
   8   1   3  510.72   21.46
  -8   1  -3  527.48   22.85
  -8  -1  -3  493.31   22.57
   8  -1   3  510.15   22.50
   8   1   4    1.59    0.35
   8   1   4    4.57    1.85
   8  -1   4    3.49    1.65
  -8  -1  -4    4.85    1.60
   8   1   4    2.56    1.11
   8   1   4    1.77    1.23
   8  -1   4    2.82    1.02
  -8  -1  -4    2.45    1.62
   8   1   4    2.49    0.36
   8   1   5   93.29    6.06
   8  -1   5   98.62    6.00
  -8   1  -5   86.93    5.99
  -8  -1  -5   92.11    6.01
   8  -1   5   96.45    4.58
   8  -1   5   85.23    5.89
   8   1   5   87.97    5.47
  -8  -1  -5  100.17    6.39
   8   1   5   97.92    4.94
   8  -1   6   42.08    3.76
   8   1   6   43.04    2.64
  -8   1  -6   45.03    3.96
  -8  -1  -6   45.51    3.86
   8  -1   6   40.00    3.61
   8   1   6   39.49    3.31
  -8  -1  -6   38.69    3.82
   8  -1   6   40.85    2.15
  -8   1  -7  200.49   11.04
  -8  -1  -7  226.38   11.13
   8  -1   7  194.76   10.72
   8   1   7  202.42   10.37
  -8   1  -7  211.07   11.27
   8   1   7  219.47    9.20
  -8   1  -8    5.65    2.08
  -8  -1  -8   -0.82    1.73
   8  -1   8    1.57    1.53
   8   1   8    1.27    1.42
  -8   1  -8    2.75    1.97
  -8   1  -9  339.32   16.10
  -8  -1  -9  340.30   15.95
   8  -1   9  308.00   15.52
  -8   1  -9  340.46   16.19
  -8   1  -9  315.05   15.02
  -8   1 -10   12.79    2.14
  -8   1 -10   14.68    2.81
  -8  -1 -10   13.92    2.60
   8  -1  10   12.27    2.43
  -8   1 -10   11.48    2.62
  -8  -1 -10    7.90    2.44
  -8   1 -11   10.74    1.88
  -8   1 -11   10.38    2.68
  -8  -1 -11   11.80    2.66
  -8   1 -11   11.26    2.73
  -8  -1 -11   19.35    3.22
  -8   1 -12   58.92    5.16
  -8  -1 -12   57.93    5.07
  -8   1 -12   61.00    5.13
  -8  -1 -12   54.51    5.15
  -8   1 -12   54.70    3.89
  -8   1 -13    1.06    2.25
  -8  -1 -13    3.11    2.36
  -8   1 -13    7.14    2.64
  -8  -1 -13    4.31    2.48
  -8   1 -13    2.30    1.31
  -8   1 -14    1.10    2.29
  -8  -1 -14   -1.08    2.29
  -8   1 -14    2.07    2.36
  -8  -1 -14   -0.55    2.73
  -8   1 -14   -0.47    1.27
  -8  -1 -15  115.81    7.81
  -8   1 -15  103.61    7.44
  -8   1 -15  102.06    5.67
  -8   1 -16   13.82    3.25
  -8  -1 -16   22.40    3.85
  -8   1 -17   -1.61    2.72
  -8   1 -18    0.54    2.61
   8  -2 -20    2.99    2.21
   8  -2 -19    0.41    2.14
   8   2 -19   -1.68    2.36
   8   2 -19    0.62    2.96
   8  -2 -18    1.19    1.90
   8   2 -18   -3.26    2.50
   8  -2 -18   -1.92    2.58
   8   2 -18   -1.20    2.65
   8  -2 -17   -0.38    1.85
   8   2 -17   -0.53    2.27
   8  -2 -17   -0.62    2.77
   8   2 -17   -2.32    2.60
  -8  -2  17    0.70    1.80
   8  -2 -16    5.50    2.00
   8   2 -16    4.09    2.36
   8  -2 -16    4.78    2.96
   8   2 -16    1.68    2.41
  -8  -2  16    2.15    1.84
   8  -2 -15    1.42    1.70
   8  -2 -15    1.73    2.44
   8   2 -15    0.54    2.10
   8   2 -15    0.89    1.20
  -8  -2  15   -0.73    1.61
   8  -2 -14  149.09    8.43
   8  -2 -14  159.77    9.73
   8   2 -14  171.96    9.71
   8   2 -14  160.89    7.87
  -8  -2  14  157.89    8.41
  -8  -2  14  150.19    8.59
  -8  -2  13    0.37    1.66
  -8  -2  13    1.46    1.61
   8  -2 -13    1.06    1.98
   8   2 -13    3.51    2.31
   8   2 -13    1.21    1.26
  -8  -2  12   31.13    3.25
  -8  -2  12   19.87    2.52
   8   2 -12   34.40    2.79
   8  -2 -12   25.14    3.55
   8   2 -12   31.24    3.66
  -8   2  12   30.58    3.42
  -8   2  12   34.54    3.39
  -8  -2  11    4.17    1.44
   8  -2 -11    5.46    2.23
   8   2 -11    2.79    2.09
   8   2 -11    2.85    1.31
  -8   2  11    2.50    1.68
  -8   2  11    4.90    1.85
   8  -2 -10  360.30   17.36
   8  -2 -10  382.35   17.96
   8   2 -10  388.91   17.92
   8   2 -10  372.22   16.59
  -8   2  10  359.09   16.82
  -8  -2  10  378.40   16.30
  -8   2  10  363.35   17.45
   8   2  -9   38.09    2.88
  -8  -2   9   32.03    2.97
   8   2  -9   33.29    2.94
  -8   2   9   33.15    3.09
   8  -2  -9   29.37    3.44
  -8  -2   9   35.76    2.70
   8  -2  -9   33.45    3.73
  -8   2   9   35.27    3.65
   8   2  -9   36.54    3.81
   8   2  -8  422.09   19.32
   8   2  -8  401.76   17.93
   8  -2  -8  434.64   19.55
  -8  -2   8  376.18   18.25
   8   2  -8  452.51   19.51
   8  -2  -8  413.17   19.00
   8   2  -8  405.36   18.21
  -8   2   8  407.11   18.22
  -8  -2   8  416.35   17.53
  -8   2   8  414.53   19.03
   8   2  -7   21.64    2.88
   8   2  -7   22.58    2.25
   8   2  -7   25.92    3.14
  -8  -2   7   25.04    2.62
   8  -2  -7   17.47    2.68
  -8  -2   7   25.29    1.93
  -8   2   7   24.75    2.90
   8  -2  -7   22.73    3.01
   8  -2  -6  100.95    6.20
   8   2  -6   97.28    6.15
   8   2  -6   86.83    5.11
  -8  -2   6   99.59    5.82
   8  -2  -6   98.07    6.35
   8   2  -6   99.05    6.26
  -8  -2   6   91.87    4.53
  -8   2   6   86.59    5.92
   8  -2  -5    7.47    2.09
   8  -2  -5    8.85    1.74
   8   2  -5    9.80    1.55
   8   2  -5    7.44    1.92
  -8  -2   5    9.52    2.01
   8  -2  -5    6.55    2.10
  -8  -2   5    8.99    0.96
  -8   2   5    6.63    1.90
   8   2  -4 1235.77   52.86
   8  -2  -4 1239.05   52.88
   8   2  -4 1263.88   52.02
  -8   2   4 1289.10   53.36
  -8  -2   4 1317.74   52.84
   8  -2  -4 1268.28   52.08
  -8   2   4 1314.15   53.21
   8  -2  -3   -0.47    1.21
   8   2  -3   -0.24    1.13
  -8   2   3    0.82    1.44
  -8  -2   3    0.34    1.36
   8   2  -3   -0.34    1.41
  -8   2   3   -0.38    1.42
   8   2  -2  251.94   12.48
   8  -2  -2  242.76   12.60
   8   2  -2  262.07   11.93
  -8   2   2  250.94   12.94
  -8  -2   2  269.46   12.71
   8  -2  -2  265.09   12.90
   8  -2  -2  267.05   11.84
   8  -2  -1    1.31    1.07
   8   2  -1    0.94    1.35
   8  -2  -1   -0.30    1.26
   8   2  -1    0.25    1.09
  -8   2   1   -0.41    1.45
  -8  -2   1    0.71    1.27
   8  -2  -1   -0.39    1.56
   8  -2   0   58.05    4.22
   8   2   0   69.34    4.52
   8   2   0   64.57    4.16
  -8   2   0   68.30    5.09
  -8  -2   0   71.35    4.84
   8  -2   0   53.90    4.59
   8  -2   0   70.34    4.04
  -8   2   0   68.08    4.77
   8  -2   1    3.46    1.41
   8   2   1    2.84    1.38
   8   2   1    0.53    1.27
  -8   2  -1    2.10    1.83
  -8  -2  -1    1.12    1.45
   8  -2   1   -0.40    1.71
   8  -2   1    0.65    0.99
  -8   2  -1    0.73    1.41
   8   2   2  561.96   26.02
   8  -2   2  567.62   25.62
  -8  -2  -2  628.31   25.74
   8   2   2  583.06   25.36
  -8  -2  -2  586.23   26.14
   8  -2   2  577.76   26.15
   8  -2   2  624.38   25.06
  -8   2  -2  596.33   25.99
   8   2   3    5.09    1.85
   8  -2   3    1.94    1.27
   8  -2   3    6.01    1.41
  -8  -2  -3    3.50    1.53
   8   2   3    3.94    1.32
   8   2   3    3.50    1.43
  -8  -2  -3    3.59    1.89
   8  -2   3    4.39    1.96
  -8   2  -3    1.76    1.45
   8  -2   4   38.97    3.58
   8  -2   4   44.11    2.79
  -8  -2  -4   46.04    3.66
   8  -2   4   43.48    3.84
   8   2   4   42.55    3.22
  -8  -2  -4   42.87    3.90
   8  -2   4   45.83    4.01
   8   2   4   44.40    3.16
  -8   2  -4   41.53    3.58
   8  -2   5    0.34    1.34
  -8  -2  -5   -0.35    1.41
   8   2   5   -0.64    1.09
   8  -2   5    0.51    0.76
   8  -2   5    0.41    1.71
   8   2   5   -0.50    1.19
  -8   2  -5    0.88    1.77
  -8  -2  -5   -1.28    1.59
   8  -2   5   -0.40    1.62
  -8   2  -5    0.34    1.19
   8  -2   6   11.94    2.30
   8   2   6   17.36    1.92
   8  -2   6   15.82    1.18
  -8  -2  -6   17.48    2.62
   8  -2   6   18.78    1.15
   8  -2   6   17.35    2.60
   8   2   6   19.07    2.19
  -8   2  -6   13.40    2.64
   8   2   6   20.06    1.07
  -8  -2  -6   16.31    2.69
  -8   2  -6   11.21    2.02
   8   2   7    3.50    0.81
   8   2   7    0.86    1.02
  -8   2  -7    0.87    1.57
  -8  -2  -7    1.91    1.69
   8  -2   7    0.41    1.66
  -8   2  -7    4.09    2.04
  -8  -2  -7    3.20    2.05
  -8   2  -7    0.32    1.41
   8   2   8    1.67    0.90
  -8   2  -8    0.45    1.69
  -8  -2  -8    3.62    1.88
   8  -2   8    1.27    1.61
  -8   2  -8    1.39    1.90
  -8  -2  -8    2.37    1.97
  -8   2  -8   -0.31    1.46
   8  -2   9    0.43    1.66
   8   2   9    0.32    1.02
  -8   2  -9   -0.47    2.01
  -8  -2  -9   -0.42    1.93
  -8   2  -9    0.47    1.97
  -8   2  -9    1.49    1.39
  -8   2 -10  118.10    7.88
  -8  -2 -10  131.31    7.90
   8  -2  10  129.96    7.79
  -8   2 -10  135.46    8.09
  -8   2 -10  124.70    6.86
  -8  -2 -11    2.82    2.02
   8  -2  11    3.15    1.93
  -8   2 -11    5.92    2.48
  -8  -2 -11    0.52    2.14
  -8   2 -11    2.68    1.41
  -8  -2 -12  159.65    8.96
  -8   2 -12  151.79    8.90
  -8  -2 -12  149.73    9.07
  -8   2 -12  127.84    7.21
  -8  -2 -13   22.16    3.39
  -8   2 -13   14.78    3.15
  -8  -2 -13   26.10    3.89
  -8   2 -13   20.79    2.24
  -8  -2 -14   45.82    4.72
  -8   2 -14   48.96    4.87
  -8  -2 -14   53.01    5.10
  -8   2 -14   36.23    2.92
  -8   2 -15    2.93    2.66
  -8  -2 -15    4.49    2.75
  -8   2 -15    1.56    2.30
  -8  -2 -15    2.33    2.83
  -8   2 -16   54.17    5.37
  -8  -2 -16   58.33    5.66
  -8   2 -17    1.04    2.43
  -8   2 -18   97.90    7.21
   8   3 -19  106.73    7.92
   8   3 -18    0.58    2.48
   8   3 -18    0.57    2.88
   8  -3 -17   -1.02    1.83
   8   3 -17   -0.56    2.41
   8  -3 -17    3.74    3.06
   8   3 -17    3.35    3.01
   8  -3 -16    1.62    1.63
   8   3 -16    1.09    2.47
   8  -3 -16    4.21    2.85
   8   3 -16    1.08    2.43
  -8  -3  16    2.82    1.84
   8  -3 -15   10.90    2.16
   8  -3 -15   15.08    3.42
   8   3 -15   13.11    3.19
  -8  -3  15    9.82    2.27
  -8  -3  14   15.00    2.59
   8  -3 -14    9.02    1.99
   8  -3 -14    9.50    2.90
   8   3 -14   11.61    2.93
   8  -3 -13  153.14    7.91
   8  -3 -13  149.50    9.30
   8   3 -13  143.67    8.83
   8  -3 -12    6.68    2.65
   8   3 -12    9.54    2.54
   8  -3 -11   12.53    2.85
   8   3 -11   12.81    2.69
  -8  -3  10    7.56    1.60
   8  -3 -10    6.74    2.33
   8   3 -10    6.62    2.14
  -8   3  10    9.65    2.11
  -8   3  10   12.08    2.48
  -8  -3   9   25.23    2.54
   8  -3  -9   26.23    3.28
  -8  -3   9   25.94    2.21
   8   3  -9   27.89    3.27
  -8   3   9   23.05    3.04
  -8  -3   8   -0.16    0.99
  -8  -3   8    0.29    1.31
   8  -3  -8    1.35    1.75
  -8   3   8   -2.54    1.64
   8   3  -8   -0.43    1.73
   8  -3  -7   91.82    6.21
  -8  -3   7   83.39    5.19
   8   3  -7   95.68    6.03
  -8  -3   7   82.14    4.27
  -8   3   7   84.16    5.77
   8  -3  -7   77.96    5.29
   8   3  -6   29.06    3.25
   8  -3  -6   23.04    2.69
  -8  -3   6   24.04    2.61
   8  -3  -6   29.21    3.32
  -8  -3   6   26.00    1.75
  -8   3   6   23.13    2.92
   8   3  -6   26.56    3.19
   8  -3  -6   23.39    3.12
   8   3  -5  241.88   11.85
  -8  -3   5  230.02   11.23
   8  -3  -5  250.02   12.04
  -8  -3   5  223.49    9.52
   8  -3  -5  219.01   11.08
  -8   3   5  243.05   11.85
   8  -3  -4   18.25    2.27
   8  -3  -4   16.83    2.65
   8   3  -4   16.84    2.63
  -8  -3   4   18.32    2.43
  -8   3   4   14.45    2.49
   8  -3  -3   20.10    2.37
   8  -3  -3   19.94    2.17
   8   3  -3   19.56    2.79
  -8  -3   3   22.65    2.59
   8  -3  -3   18.49    2.65
   8  -3  -2   91.52    5.50
   8   3  -2   95.99    6.14
   8   3  -2  100.43    5.31
  -8   3   2   85.83    6.28
   8  -3  -2  102.76    6.49
  -8  -3   2  104.87    6.21
   8  -3  -2  110.93    5.92
   8  -3  -1   37.90    3.12
   8  -3  -1   36.17    3.62
   8   3  -1   35.07    3.52
  -8   3   1   46.87    4.05
   8  -3  -1   39.78    3.84
  -8  -3   1   41.20    3.59
   8  -3  -1   47.49    3.45
  -8   3   1   42.95    3.75
   8  -3   0   11.14    1.78
   8  -3   0    6.71    1.88
   8   3   0   10.92    2.00
   8  -3   0   10.45    2.31
  -8  -3   0    8.44    1.88
  -8   3   0   10.82    2.34
   8  -3   0   12.76    1.93
  -8   3   0    8.00    1.99
   8  -3   1  254.01   12.68
  -8  -3  -1  281.41   12.73
   8  -3   1  254.53   13.27
   8   3   1  273.23   12.95
   8  -3   1  289.59   13.72
  -8  -3  -1  266.04   13.31
   8  -3   1  282.00   12.75
  -8   3  -1  284.31   13.40
   8  -3   2    0.60    1.31
  -8  -3  -2    1.44    1.16
   8  -3   2    4.02    1.85
  -8  -3  -2    1.18    1.55
   8  -3   2    2.94    1.86
   8  -3   2   -0.28    1.21
   8   3   2    0.30    1.48
  -8   3  -2   -0.37    1.43
   8   3   3  105.32    6.86
   8  -3   3  102.92    6.34
  -8  -3  -3  119.81    6.60
  -8   3  -3  116.16    7.29
  -8  -3  -3  130.00    7.36
   8  -3   3  115.17    7.12
  -8   3  -3  110.50    6.67
   8   3   3  116.23    6.42
   8  -3   4    5.08    1.62
  -8  -3  -4    3.23    1.51
   8   3   4    4.86    1.53
  -8   3  -4    4.05    2.08
  -8  -3  -4    4.23    2.00
   8  -3   4    2.94    1.94
  -8   3  -4    3.86    1.54
   8  -3   5   82.15    5.45
   8   3   5   85.64    5.13
  -8  -3  -5   93.09    5.66
  -8   3  -5   82.22    6.08
  -8  -3  -5   95.27    6.18
  -8   3  -5   88.81    5.59
   8  -3   5   90.29    4.51
   8  -3   6   20.47    1.51
   8  -3   6   18.35    2.53
   8  -3   6   19.74    1.44
  -8  -3  -6   20.62    2.79
   8   3   6   19.01    2.24
  -8   3  -6   20.65    2.99
  -8  -3  -6   14.92    2.81
  -8   3  -6   21.16    2.54
   8   3   7  144.78    7.12
  -8  -3  -7  149.77    8.16
  -8  -3  -7  147.17    8.58
  -8   3  -7  118.93    7.32
  -8   3  -7  139.98    8.42
  -8  -3  -8    1.20    1.77
  -8   3  -8    6.59    2.34
  -8  -3  -8    1.46    1.93
  -8   3  -8    7.32    1.77
  -8  -3  -9  271.11   13.59
  -8   3  -9  275.48   13.93
  -8  -3  -9  279.92   14.09
  -8   3  -9  264.33   12.68
  -8  -3 -10   19.49    3.13
  -8   3 -10   15.47    3.04
  -8   3 -10   17.35    2.15
  -8  -3 -11    0.46    2.25
   8  -3  11   -0.48    1.94
  -8   3 -11   -0.98    2.42
  -8   3 -11    1.02    1.35
  -8   3 -12    6.42    2.50
  -8  -3 -12    2.43    2.22
  -8   3 -12    2.96    2.25
  -8   3 -12    3.03    1.42
  -8   3 -13   -0.55    2.41
  -8  -3 -13    1.53    2.41
  -8   3 -13   -0.50    2.41
  -8  -3 -13   -2.28    2.45
  -8   3 -14    0.57    2.46
  -8  -3 -14    1.06    2.32
  -8   3 -14   -0.50    2.24
  -8  -3 -14    4.69    2.84
  -8  -3 -15   86.43    6.74
  -8   3 -15   94.52    6.74
  -8  -3 -15   92.00    7.25
  -8   3 -16    2.00    2.58
  -8   3 -17    1.98    2.28
   8   4 -19   -0.56    2.73
   8   4 -18  104.68    7.64
   8   4 -17    1.19    2.39
   8  -4 -17    0.62    2.87
   8   4 -17    0.53    2.47
  -8  -4  16   36.27    3.50
   8   4 -16   36.29    4.55
   8  -4 -16   32.01    4.49
   8   4 -16   37.41    4.36
   8  -4 -15    0.58    2.39
   8   4 -15   -0.50    2.41
   8  -4 -14    9.85    1.84
   8  -4 -14   12.37    3.03
   8   4 -14   12.55    3.01
   8  -4 -13   13.10    2.03
   8   4 -13    8.38    1.30
   8  -4 -13   12.44    3.00
   8   4 -13   10.24    2.68
   8  -4 -12  214.11    9.96
   8   4 -12  198.70    9.16
   8  -4 -12  244.04   12.07
   8   4 -12  226.51   11.50
   8   4 -11    1.42    0.87
   8  -4 -11    3.99    2.42
   8   4 -11    1.78    1.88
   8   4 -10  108.09    5.23
   8  -4 -10  120.66    7.53
   8   4 -10  113.00    7.16
  -8  -4  10  121.27    6.14
   8   4  -9    9.86    1.17
  -8  -4   9   12.43    1.91
   8  -4  -9   14.03    2.81
   8   4  -9    8.86    2.22
   8  -4  -8    7.09    2.05
   8   4  -8    3.17    0.90
  -8  -4   8    2.98    1.53
   8   4  -8    6.83    2.17
   8   4  -7    6.06    2.00
   8  -4  -7   10.99    2.23
   8   4  -7    7.04    1.06
  -8  -4   7    7.72    1.74
   8  -4  -7    7.88    2.24
   8   4  -6    4.74    1.96
   8  -4  -6    8.60    1.98
  -8  -4   6    8.41    1.80
   8  -4  -5   15.63    2.38
   8  -4  -5   10.83    1.65
  -8  -4   5   11.25    2.07
  -8  -4   5   14.79    1.10
  -8   4   5   15.41    2.57
   8  -4  -5   10.63    2.46
   8  -4  -4    4.51    1.89
   8  -4  -4    5.27    1.75
   8  -4  -4    6.19    1.45
   8   4  -4    3.31    1.89
  -8  -4   4    2.59    1.38
  -8   4   4    3.38    1.79
   8  -4  -3   28.21    3.07
   8  -4  -3   22.84    2.29
   8   4  -3   24.07    3.08
  -8  -4   3   22.18    2.72
   8  -4  -3   30.33    3.00
   8  -4  -2    5.86    1.36
   8   4  -2    5.03    1.97
  -8  -4   2    3.14    1.61
   8  -4  -2   -0.34    1.48
   8  -4  -1    2.51    1.26
  -8  -4   1    2.30    1.75
   8   4  -1    2.23    1.67
  -8  -4   1    4.35    1.67
  -8   4   1    3.63    1.91
   8  -4  -1    2.39    1.61
   8  -4   0  482.95   22.25
  -8  -4   0  541.02   23.23
   8   4   0  512.38   21.48
  -8  -4   0  538.24   23.22
   8   4   0  515.33   23.09
   8  -4   0  539.74   22.97
  -8   4   0  533.63   23.36
   8   4   1    4.19    1.77
   8  -4   1    6.79    1.61
  -8  -4  -1    5.36    1.96
  -8  -4  -1    5.54    1.53
   8   4   1    7.75    1.03
  -8   4  -1    6.86    2.12
  -8  -4  -1    7.02    1.97
   8  -4   1    5.34    1.69
  -8   4  -1    7.77    2.05
   8  -4   2    1.12    1.34
   8   4   2   -1.01    1.46
  -8  -4  -2    0.35    1.70
  -8  -4  -2    0.81    1.25
  -8   4  -2    2.74    1.94
   8   4   2    2.78    0.84
  -8  -4  -2    2.02    1.74
   8  -4   2    4.36    1.72
  -8   4  -2    0.38    1.61
   8  -4   3    5.55    1.60
  -8  -4  -3    3.35    1.69
  -8  -4  -3    5.84    1.63
   8   4   3    1.95    1.51
  -8   4  -3    5.50    2.15
  -8  -4  -3    7.12    2.11
  -8   4  -3    3.70    1.72
   8  -4   4   24.35    2.71
  -8  -4  -4   34.22    3.03
  -8  -4  -4   30.43    3.03
  -8   4  -4   31.81    3.58
  -8  -4  -4   31.71    3.44
   8  -4   4   30.33    2.46
  -8   4  -4   20.51    2.72
   8   4   4   22.86    2.73
   8  -4   5    7.90    1.93
   8  -4   5    6.82    1.32
   8   4   5    2.68    1.63
  -8  -4  -5    4.38    1.68
  -8  -4  -5    4.26    1.78
   8  -4   5    3.33    2.14
  -8   4  -5    6.04    2.26
  -8  -4  -5    7.20    2.24
  -8   4  -5    4.88    1.72
   8  -4   6  199.42    8.48
  -8  -4  -6  191.34    9.48
  -8  -4  -6  186.79    9.67
   8  -4   6  166.66   10.15
  -8   4  -6  175.66   10.25
  -8  -4  -6  198.37   10.52
   8   4   6  174.72    9.27
  -8   4  -6  190.12    9.65
  -8  -4  -7   -0.29    1.42
   8  -4   7    1.53    0.80
  -8  -4  -7    1.86    1.72
   8   4   7    1.67    1.40
   8  -4   7    1.90    1.67
  -8   4  -7    1.89    2.00
  -8  -4  -7    1.45    1.92
  -8   4  -7    1.61    1.44
  -8  -4  -8    2.21    1.50
  -8  -4  -8   -1.97    1.98
   8  -4   8   -0.96    1.94
  -8   4  -8    0.48    2.02
  -8  -4  -8    0.50    1.98
  -8  -4  -9    7.61    1.81
  -8  -4  -9    6.64    2.32
   8  -4   9    6.42    2.43
  -8   4  -9    8.20    2.56
  -8  -4  -9    4.68    2.21
  -8  -4 -10   28.07    2.73
  -8  -4 -10   25.29    3.30
  -8   4 -10   26.72    3.67
  -8  -4 -10   31.73    4.05
  -8  -4 -11   -0.68    1.39
  -8  -4 -11    1.84    2.28
  -8   4 -11    0.49    2.19
  -8  -4 -11   -1.67    2.46
  -8  -4 -12   -0.21    1.38
  -8  -4 -12   -0.48    2.18
  -8   4 -12    2.45    2.54
  -8  -4 -13    2.52    2.58
  -8   4 -13    0.49    2.29
  -8   4 -14    2.33    2.85
  -8  -4 -14   -1.57    2.51
  -8   4 -14   -0.49    2.25
  -8   4 -15   -0.48    2.20
  -8   4 -16    0.48    2.45
   8   5 -19   61.23    5.58
   8   5 -18    9.43    3.15
   8   5 -17   10.22    3.00
   8  -5 -16    2.40    3.05
   8   5 -16   -2.36    2.60
   8   5 -15    5.24    2.82
   8  -5 -15    1.16    2.72
   8   5 -15    2.30    2.31
   8  -5 -14    3.36    2.56
   8   5 -14    8.98    2.52
   8  -5 -13  140.52    8.88
   8   5 -13  138.43    8.36
   8  -5 -12   -0.52    2.30
   8   5 -12    4.65    2.30
   8  -5 -11    0.50    2.11
   8   5 -11    2.51    2.05
   8  -5 -10    7.67    1.34
  -8  -5  10    6.35    1.46
   8  -5 -10    1.44    2.39
   8   5 -10    6.12    2.19
   8  -5  -9   54.16    4.71
   8   5  -9   49.31    4.17
  -8  -5   9   41.37    3.29
   8  -5  -9   41.57    4.19
   8  -5  -8   -0.44    1.95
  -8  -5   8   -1.03    1.30
   8  -5  -8   -0.45    1.85
   8   5  -8    0.40    1.73
   8  -5  -7   38.57    2.77
   8  -5  -7   47.59    4.33
   8   5  -7   50.11    4.09
  -8  -5   7   39.67    3.35
   8  -5  -7   44.11    4.07
   8  -5  -6   30.19    2.43
   8   5  -6   35.68    3.37
   8  -5  -6   30.33    3.39
  -8  -5   6   25.51    2.88
   8  -5  -6   36.60    3.64
   8  -5  -5  107.56    5.90
   8  -5  -5  116.59    7.35
  -8  -5   5  119.77    6.69
   8   5  -5  130.23    7.27
   8  -5  -5  137.41    7.57
   8  -5  -4    1.63    1.83
   8  -5  -4   -0.20    0.91
  -8  -5   4    0.46    1.86
  -8  -5   4   -0.33    1.51
  -8  -5   4   -0.12    0.53
   8  -5  -4   -0.83    1.87
   8  -5  -3    3.19    1.87
   8  -5  -3    4.42    1.86
   8  -5  -3    3.72    1.21
  -8  -5   3    6.26    2.17
  -8  -5   3    3.09    1.63
   8  -5  -2    3.53    1.88
   8  -5  -2    1.73    1.21
  -8  -5   2    0.87    1.92
   8   5  -2    1.40    0.60
  -8  -5   2    1.80    1.54
   8  -5  -2    4.79    1.96
   8  -5  -1   50.04    3.27
  -8  -5   1   52.98    4.39
  -8  -5   1   53.02    3.99
   8  -5  -1   55.23    4.20
   8  -5  -1   55.74    4.33
   8  -5   0    2.61    1.32
  -8  -5   0    0.83    1.75
  -8  -5   0   -1.17    1.77
   8  -5   0    2.79    1.95
   8   5   1  184.66   10.09
   8  -5   1  180.98    9.23
  -8  -5  -1  191.77   10.30
  -8  -5  -1  204.61    9.30
  -8  -5  -1  193.37   10.29
   8  -5   1  202.37   10.35
   8  -5   2    5.77    1.52
  -8  -5  -2    3.16    1.99
  -8  -5  -2    7.60    1.61
   8  -5   2    7.05    1.85
   8   5   2    4.93    2.09
  -8  -5  -2    3.77    1.84
   8  -5   2    6.69    2.03
   8  -5   3  131.11    7.10
  -8  -5  -3  133.03    7.70
   8   5   3  116.65    7.37
  -8  -5  -3  139.18    7.10
  -8  -5  -3  130.59    7.88
   8  -5   3  137.16    7.14
   8  -5   4    5.14    1.60
   8   5   4    1.06    1.62
   8  -5   4    3.53    1.38
  -8  -5  -4    1.51    1.70
  -8  -5  -4    5.64    1.71
  -8  -5  -4    4.06    2.14
   8  -5   5   46.35    3.63
  -8  -5  -5   37.43    3.66
   8  -5   5   43.55    3.16
  -8  -5  -5   49.09    3.68
   8  -5   5   33.50    3.98
   8   5   5   39.56    3.70
  -8  -5  -5   53.61    4.57
  -8  -5  -6   35.34    3.48
  -8  -5  -6   39.43    3.52
   8  -5   6   33.49    3.90
  -8   5  -6   32.06    3.88
  -8  -5  -6   36.16    4.10
   8  -5   6   37.52    2.72
   8   5   6   40.34    3.60
   8   5   7    9.15    2.15
  -8  -5  -7   12.83    2.44
  -8  -5  -7    9.02    2.13
   8  -5   7    7.58    2.51
  -8   5  -7   11.51    2.57
  -8  -5  -7   12.17    2.84
  -8  -5  -8    0.78    1.84
  -8  -5  -8    4.36    1.96
   8  -5   8    1.53    1.94
  -8   5  -8    2.40    2.18
  -8  -5  -9  259.00   12.89
  -8  -5  -9  274.63   13.49
   8  -5   9  249.14   13.86
  -8   5  -9  279.93   14.00
  -8  -5  -9  295.87   14.51
  -8  -5 -10    9.32    2.09
  -8  -5 -10    7.33    2.53
  -8   5 -10   14.35    3.10
   8  -5  10   12.67    2.88
  -8  -5 -10   12.30    3.04
  -8  -5 -11    2.66    1.84
  -8  -5 -11    6.33    2.38
  -8   5 -11    2.86    2.15
   8  -5  11    9.08    2.77
  -8  -5 -11    9.80    3.05
  -8  -5 -12   20.10    2.65
  -8  -5 -12   18.56    3.24
  -8   5 -12   19.90    3.34
  -8  -5 -12   20.83    3.78
  -8  -5 -13   -2.50    2.42
  -8   5 -13    0.47    2.22
  -8   5 -14    0.46    2.42
  -8   5 -15   42.27    4.48
   8   6 -17    3.41    2.55
   8   6 -16   -0.84    2.45
   8  -6 -15   -2.87    2.94
   8   6 -15   -1.22    2.11
   8  -6 -14   83.87    6.63
   8   6 -14   73.91    5.55
   8  -6 -13   12.30    3.08
   8   6 -13   10.56    2.59
   8  -6 -12   -0.52    2.47
   8   6 -12    3.45    1.97
   8  -6 -11    1.99    2.49
   8   6 -11   -1.50    1.90
   8  -6 -10  183.83    9.95
   8   6 -10  169.01    9.19
   8  -6 -10  153.35    9.78
   8  -6  -9   15.13    3.00
   8  -6  -9   22.43    3.32
   8   6  -9   16.14    2.63
   8  -6  -8  243.72   13.00
   8   6  -8  259.47   12.61
  -8  -6   8  257.64   11.86
   8  -6  -8  264.74   13.48
   8  -6  -7    6.89    2.47
   8   6  -7    7.56    1.18
  -8  -6   7   10.18    2.01
   8  -6  -7    8.66    2.53
   8   6  -7   12.97    2.55
   8  -6  -6   28.61    3.69
   8   6  -6   27.64    1.86
   8   6  -6   39.82    3.62
  -8  -6   6   28.72    2.93
   8  -6  -6   35.38    3.74
   8  -6  -5    5.66    2.37
   8   6  -5   -0.36    1.74
  -8  -6   5   -1.03    2.22
   8   6  -5    1.51    0.50
  -8  -6   5    4.10    1.75
   8  -6  -5    2.00    1.96
  -8  -6   5    0.68    0.89
  -8  -6   4  472.34   21.44
   8  -6  -4  457.43   20.61
  -8  -6   4  477.91   20.34
  -8  -6   4  433.51   18.60
   8  -6  -4  472.76   21.18
   8  -6  -3   16.61    2.93
  -8  -6   3   11.68    1.08
  -8  -6   3    9.87    2.75
  -8  -6   3   16.66    2.48
   8  -6  -3   10.17    2.42
  -8  -6   2  126.65    8.15
   8  -6  -2  149.03    7.93
  -8  -6   2  123.01    7.51
   8  -6  -2  136.77    8.32
   8  -6  -1    5.26    2.14
  -8  -6   1    2.85    2.16
  -8  -6   1    0.39    1.99
   8  -6  -1   -1.39    1.98
  -8  -6   0   78.89    6.15
   8  -6   0   93.15    6.10
  -8  -6   0   93.48    6.14
   8  -6   0   97.30    6.07
   8  -6   0  102.79    6.62
   8  -6   1    1.50    1.71
   8  -6   1    2.99    1.72
  -8  -6  -1    0.82    1.21
  -8  -6  -1    1.37    2.30
  -8  -6  -1    1.26    2.04
   8  -6   1    2.27    1.83
  -8  -6  -2  300.37   16.02
  -8  -6  -2  329.94   14.82
   8  -6   2  351.08   15.69
  -8  -6  -2  364.10   16.43
   8  -6   2  330.03   16.23
   8  -6   3    3.56    1.82
  -8  -6  -3    6.01    1.66
  -8  -6  -3    1.32    1.89
  -8  -6  -3    5.48    2.32
   8  -6   3    3.66    2.14
  -8  -6  -4    0.57    1.56
  -8  -6  -4    5.61    2.26
   8  -6   4    0.53    2.14
   8  -6   4    0.60    1.52
  -8  -6  -4    1.90    2.22
   8  -6   5   10.95    1.97
  -8  -6  -5   14.16    2.25
  -8  -6  -5    8.87    2.47
   8  -6   5   10.71    2.72
  -8  -6  -5    9.83    2.81
  -8  -6  -6    6.01    1.81
  -8  -6  -6   10.76    2.57
   8  -6   6    5.34    2.63
  -8  -6  -6    9.18    2.76
  -8  -6  -7    2.51    1.93
  -8  -6  -7    1.62    1.93
   8  -6   7   -0.53    2.14
  -8  -6  -7    5.28    2.59
  -8  -6  -8    3.42    2.05
  -8  -6  -8    3.15    2.03
   8  -6   8    5.37    2.64
  -8  -6  -8    6.55    2.83
  -8  -6  -9    6.04    2.41
  -8  -6  -9    3.06    1.93
   8  -6   9    1.64    2.20
  -8  -6  -9    6.21    2.93
  -8  -6 -10  109.09    6.63
   8  -6  10   90.69    6.95
  -8  -6 -10  106.00    7.58
  -8  -6 -11    1.34    2.32
  -8  -6 -11    0.36    2.02
  -8  -6 -12   41.38    4.41
  -8  -6 -12   38.06    3.67
  -8  -6 -13   21.18    3.48
   8  -7 -14   -0.55    3.02
   8  -7 -13   50.67    5.00
   8  -7 -12   -2.02    2.47
   8   7 -12    2.26    1.83
   8  -7 -11    8.74    2.88
   8   7 -11    9.30    2.12
   8  -7 -10    2.26    2.68
   8  -7 -10    5.14    2.45
   8   7 -10    1.26    1.80
   8  -7  -9   11.63    3.04
   8  -7  -9   10.81    2.92
   8   7  -9    7.31    2.12
   8  -7  -8    0.55    2.44
   8  -7  -8    0.43    2.22
   8   7  -8    0.96    1.77
   8  -7  -7    7.09    2.83
   8  -7  -7    8.70    2.51
   8   7  -7   15.00    2.39
   8  -7  -6    1.08    2.24
   8  -7  -6    0.80    1.92
  -8  -7   6   -0.89    1.46
   8   7  -6    2.99    1.99
  -8  -7   5   45.77    4.97
   8  -7  -5   56.88    4.55
   8   7  -5   55.03    4.25
  -8  -7   5   56.18    4.24
   8  -7  -5   53.90    5.08
   8  -7  -4   -1.05    2.22
   8   7  -4    4.38    1.89
  -8  -7   4    7.76    2.66
   8  -7  -4    3.14    2.28
   8  -7  -4    3.40    2.06
  -8  -7   4    2.76    1.86
  -8  -7   4    2.70    1.09
   8  -7  -3   20.30    3.49
  -8  -7   3   16.80    1.62
   8  -7  -3   17.58    3.24
  -8  -7   3   18.56    3.39
  -8  -7   3   21.23    2.91
   8  -7  -3   18.21    2.69
  -8  -7   2    6.29    1.03
   8  -7  -2    3.90    2.32
  -8  -7   2    5.92    2.74
  -8  -7   2    9.29    2.37
   8  -7  -2   12.21    2.56
   8  -7  -2   12.45    3.04
   8  -7  -1   24.96    3.56
  -8  -7   1   35.54    4.08
  -8  -7   1   27.14    3.34
   8  -7  -1   34.99    3.47
   8  -7  -1   39.79    4.36
  -8  -7   0    2.61    2.31
  -8  -7   0    1.27    2.08
   8  -7   0    1.74    2.10
   8  -7   0    4.16    2.37
   8  -7   0    4.65    2.18
  -8  -7  -1  131.76    8.59
   8  -7   1  129.98    8.03
   8  -7   1  129.42    7.59
  -8  -7  -1  138.69    8.18
   8  -7   1  156.82    8.96
   8  -7   2    0.35    1.78
   8  -7   2    0.40    1.82
  -8  -7  -2   -0.50    2.47
  -8  -7  -2   -1.38    2.01
   8  -7   2    0.51    2.24
   8  -7   3    1.05    1.94
  -8  -7  -3    0.50    2.19
   8  -7   3    1.13    1.92
  -8  -7  -3    3.83    2.32
   8  -7   3    2.05    2.36
   8  -7   4   10.13    2.41
  -8  -7  -4    7.80    2.50
   8  -7   4   11.16    2.76
  -8  -7  -4   11.41    3.02
  -8  -7  -5   28.24    3.79
   8  -7   5   28.40    3.90
  -8  -7  -6    1.28    1.72
  -8  -7  -6    3.29    2.53
   8  -7   6   -0.55    2.23
  -8  -7  -6    1.60    2.55
  -8  -7  -7   27.01    3.06
  -8  -7  -7   18.40    3.19
   8  -7   7   25.45    3.77
  -8  -7  -8    2.96    1.90
  -8  -7  -8    4.50    2.56
   8  -7   8    2.81    2.34
  -8  -7  -9   93.79    6.65
  -8  -7  -9  101.25    6.52
  -8  -7 -10    2.07    2.28
  -8  -7 -10    0.43    2.26
  -8  -7 -11   -0.44    2.27
  -8  -7 -11   -0.41    2.21
  -8  -7 -12    9.67    3.00
   8  -8 -12   53.63    5.16
   8  -8 -11    1.87    2.56
   8  -8 -10   28.77    3.88
   8  -8  -9   -0.86    2.14
   8  -8  -8   15.12    3.43
   8  -8  -8   12.51    3.50
   8  -8  -8    5.79    2.56
   8  -8  -7    1.20    2.45
   8  -8  -7    4.46    3.23
   8  -8  -7    4.78    2.33
   8  -8  -6   -0.59    2.66
   8  -8  -6    1.86    2.70
   8  -8  -6    0.38    2.15
   8   8  -6    1.31    1.59
   8  -8  -5    0.59    2.63
   8  -8  -5    3.29    2.06
   8   8  -5   -0.83    1.71
   8  -8  -5   -0.60    2.65
   8  -8  -4   20.93    3.66
  -8  -8   4   19.43    3.68
   8  -8  -4   20.63    3.76
   8   8  -4   18.42    2.53
   8  -8  -3   -2.31    2.37
   8   8  -3    1.20    1.81
   8  -8  -3   -0.54    2.51
  -8  -8   3    0.60    2.61
  -8  -8   3    0.38    2.08
  -8  -8   2   -0.59    2.62
   8  -8  -2   -0.52    2.58
  -8  -8   2    1.20    2.05
   8  -8  -2    1.73    2.65
   8  -8  -1    4.00    2.56
  -8  -8   1    1.75    2.77
  -8  -8   1    1.26    2.16
   8  -8  -1   -0.58    2.84
  -8  -8   0  158.50    9.97
   8  -8   0  171.83    9.70
  -8  -8   0  170.80    9.47
   8  -8   0  156.11   10.04
  -8  -8  -1   13.63    3.26
  -8  -8  -1   15.21    2.96
   8  -8   1   12.14    3.28
   8  -8   1   16.27    2.98
  -8  -8  -2   -1.68    2.87
   8  -8   2    1.79    2.34
  -8  -8  -2    0.48    2.39
   8  -8   2   -2.89    2.66
   8  -8   3    2.10    1.99
  -8  -8  -3    3.86    2.74
   8  -8   3    5.74    2.68
  -8  -8  -3    1.99    2.45
   8  -8   3    0.57    2.63
  -8  -8  -4   -0.54    2.57
   8  -8   4    1.15    2.53
  -8  -8  -4    1.55    2.38
   8  -8   4    1.14    2.44
  -8  -8  -5    6.40    2.77
   8  -8   5    5.70    2.77
  -8  -8  -5    9.13    2.88
   8  -8   5    5.18    2.99
  -8  -8  -6   44.50    4.81
  -8  -8  -7   -1.03    2.57
  -8  -8  -8    2.01    2.65
  -8  -8  -9   -0.49    2.46
  -8  -8 -10    7.18    2.88
   8  -9  -4   -0.61    2.68
   8  -9  -3   -2.92    3.06
   8  -9  -2    1.14    2.59
   8  -9  -1    5.51    2.89
   8  -9   0    2.13    2.67
  -8  -9   0    1.36    2.43
   8  -9   1   47.05    5.08
  -8  -9  -1   49.16    4.81
  -8  -9  -2    6.47    2.99
  -8  -9  -3   51.17    5.27
   9   0 -19    2.01    2.52
   9   0 -18    4.42    2.65
   9   0 -18    1.96    3.02
   9   0 -17   68.75    5.45
   9   0 -17   57.13    6.00
  -9   0  17   60.21    5.01
   9   0 -16    0.92    2.33
   9   0 -16    1.84    2.75
  -9   0  16   -1.28    2.14
   9   0 -15   28.97    4.13
  -9   0  15   34.16    3.52
   9   0 -14    1.76    1.78
  -9   0  14    0.86    2.15
   9   0 -13  116.67    6.98
  -9   0  13  118.64    6.81
  -9   0  13  114.11    7.22
  -9   0  12   -0.30    1.51
   9   0 -12   -0.71    1.69
  -9   0  12    0.43    1.92
   9   0 -11  244.68   12.26
  -9   0  11  240.89   11.70
  -9   0  11  266.98   12.82
   9   0 -10   -3.62    1.78
  -9   0  10    0.52    1.22
  -9   0  10   -0.42    1.64
   9   0  -9  117.90    6.87
  -9   0   9  108.47    5.94
  -9   0   9  106.49    6.94
  -9   0   8    0.42    1.64
   9   0  -8   -0.35    1.44
   9   0  -8    1.84    1.53
  -9   0   8   -1.92    1.30
  -9   0   7   30.14    3.24
   9   0  -7   33.84    3.76
   9   0  -7   23.26    3.15
   9   0  -7   24.42    2.92
  -9   0   7   28.25    3.25
  -9   0   7   26.38    2.27
   9   0  -7   28.52    3.11
  -9   0   6    0.85    1.61
   9   0  -6   -1.85    1.69
   9   0  -6    1.19    1.66
   9   0  -6   -0.69    1.45
  -9   0   6    1.22    1.69
   9   0  -6   -4.12    1.84
   9   0  -5   28.57    3.14
   9   0  -5   26.91    2.97
  -9   0   5   24.55    2.99
   9   0  -5   30.58    3.31
   9   0  -4   -0.73    1.59
   9   0  -4    0.34    1.31
  -9   0   4    0.41    1.69
   9   0  -4    1.14    1.56
   9   0  -3   58.42    4.26
   9   0  -3   51.83    4.12
  -9   0   3   49.03    4.33
   9   0  -3   52.12    4.27
   9   0  -2    0.33    1.50
   9   0  -2    0.35    1.45
  -9   0   2    0.42    1.60
   9   0  -2   -3.10    1.74
   9   0  -1  185.64    9.56
   9   0  -1  182.47    9.75
  -9   0   1  194.20   10.30
   9   0  -1  199.69   10.17
   9   0   0   -1.92    1.60
   9   0   0   -0.70    1.39
   9   0   0    2.93    1.49
  -9   0   0    0.86    1.60
   9   0   1   47.26    4.02
   9   0   1   44.37    3.43
   9   0   1   47.77    3.93
  -9   0  -1   59.10    4.57
   9   0   1   45.55    2.31
   9   0   2   -0.89    0.59
   9   0   2   -0.79    1.50
   9   0   2    0.73    1.52
  -9   0  -2    0.45    1.76
   9   0   2   -0.50    1.29
   9   0   3  457.48   20.33
   9   0   3  461.02   21.30
  -9   0  -3  486.79   21.98
   9   0   3  482.66   19.40
   9   0   4    0.20    1.24
   9   0   4    0.75    1.57
  -9   0  -4    0.92    1.86
   9   0   4    0.21    0.71
  -9   0  -5  525.72   23.91
  -9   0  -5  518.65   23.57
   9   0   5  523.93   23.31
   9   0   5  520.40   21.78
   9   0   6    0.35    0.80
  -9   0  -6   -0.43    1.77
   9   0   6    0.38    1.73
  -9   0  -7   80.93    5.95
   9   0   7   82.86    5.66
  -9   0  -8   -1.39    1.89
   9   0   8    1.18    1.44
  -9   0  -8   -1.01    2.21
  -9   0  -9   21.62    3.18
   9   0   9   27.19    3.20
  -9   0  -9   18.73    3.28
  -9   0 -10   -0.50    2.05
  -9   0 -10    1.07    2.19
  -9   0 -11  208.87   11.81
  -9   0 -11  220.85   12.10
  -9   0 -12    0.54    2.29
  -9   0 -12    2.79    2.68
  -9   0 -13    4.49    2.56
  -9   0 -13    5.70    2.89
  -9   0 -14   -0.31    1.61
  -9   0 -14   -0.58    2.41
  -9   0 -15    3.53    2.82
   9  -1 -20   -0.48    2.58
   9  -1 -19    9.28    2.86
   9  -1 -18   10.81    2.76
   9   1 -18   16.35    3.29
   9   1 -18   12.24    3.73
   9  -1 -17    1.32    2.20
   9   1 -17   -2.57    2.61
   9   1 -17   -3.75    2.99
  -9  -1  17   -0.81    2.10
   9   1 -16    9.08    3.18
   9  -1 -16    8.55    2.51
  -9  -1  16    6.59    2.15
   9   1 -15    1.75    2.35
   9   1 -15    2.45    1.69
  -9   1  15   -0.44    2.05
  -9  -1  15    1.25    1.94
   9  -1 -14  134.77    8.76
   9   1 -14  136.77    8.64
   9   1 -14  120.07    7.11
  -9   1  14  140.36    8.04
  -9  -1  14  119.98    7.59
  -9  -1  13   -0.90    1.63
   9  -1 -13    2.25    2.30
   9   1 -13    0.55    2.37
   9   1 -13   -0.96    1.57
  -9   1  13   -0.88    1.84
  -9  -1  13   -0.42    1.87
   9   1 -12  161.43    9.68
   9   1 -12  152.78    8.43
  -9   1  12  172.34    8.65
  -9  -1  12  161.41    8.22
  -9   1  12  143.66    8.88
  -9  -1  12  146.86    8.85
  -9  -1  11    4.57    1.57
   9   1 -11    3.95    1.77
   9  -1 -11    6.26    2.38
   9   1 -11    3.57    2.26
  -9   1  11    1.20    1.57
  -9   1  11    3.51    1.95
  -9  -1  11    7.16    2.25
  -9  -1  10   12.26    1.83
  -9  -1  10   10.63    2.32
   9   1 -10    7.00    2.03
   9  -1 -10   11.70    2.77
   9   1 -10   12.04    2.76
  -9   1  10   11.58    2.07
  -9   1  10    4.79    2.09
  -9  -1   9    0.85    1.71
   9   1  -9    0.94    1.46
   9  -1  -9    0.79    1.64
   9   1  -9   -0.34    1.51
  -9   1   9    0.26    1.46
   9  -1  -9    2.01    2.05
   9   1  -9    0.50    1.98
  -9   1   9   -0.43    1.65
  -9  -1   9   -0.42    1.10
   9   1  -8  481.74   21.23
   9  -1  -8  520.78   22.69
  -9  -1   8  491.26   21.72
   9   1  -8  493.59   22.41
   9  -1  -8  466.21   21.75
   9   1  -8  470.64   21.41
  -9   1   8  483.95   20.79
  -9  -1   8  468.57   20.33
  -9   1   8  485.99   22.03
   9  -1  -7    7.62    2.29
   9   1  -7    9.56    1.90
  -9  -1   7    8.36    2.07
   9  -1  -7    7.14    2.07
   9   1  -7   12.77    2.23
  -9  -1   7   14.95    1.50
  -9   1   7    8.93    2.20
   9   1  -6  114.72    7.00
   9  -1  -6  106.93    6.66
   9   1  -6  105.49    6.27
  -9   1   6  111.07    7.02
  -9  -1   6  104.03    6.65
   9  -1  -6   94.11    6.64
   9   1  -6  118.80    6.69
   9  -1  -6  120.15    7.41
  -9   1   6  121.38    7.17
   9  -1  -5    1.85    1.74
   9  -1  -5    2.99    1.53
   9   1  -5    3.36    1.47
   9   1  -5    1.58    1.59
  -9   1   5    4.30    1.88
  -9  -1   5    2.74    1.74
   9  -1  -5    5.62    1.85
   9   1  -5    5.69    1.87
  -9   1   5    4.22    1.70
   9   1  -4  180.23    9.42
   9  -1  -4  163.72    9.25
   9   1  -4  167.27    8.86
  -9   1   4  193.89    9.97
  -9  -1   4  165.90    9.34
   9  -1  -4  170.37    9.42
   9   1  -4  178.03    9.29
  -9   1   4  176.32    9.63
  -9   1   3    0.42    1.69
   9  -1  -3   -0.34    1.60
   9  -1  -3   -0.38    1.61
   9   1  -3    1.25    1.36
   9   1  -3   -0.36    1.59
  -9   1   3   -0.44    1.63
  -9  -1   3    1.60    1.66
   9  -1  -3    0.41    1.64
   9   1  -3    1.10    1.49
   9  -1  -2  419.02   18.48
   9   1  -2  400.10   18.54
   9  -1  -2  398.41   18.71
   9   1  -2  410.19   18.36
  -9   1   2  403.42   19.20
  -9  -1   2  418.15   19.02
   9  -1  -2  411.40   17.38
   9  -1  -1   14.27    2.34
   9  -1  -1   20.97    2.49
   9  -1  -1   21.29    2.72
   9   1  -1   17.68    2.33
  -9   1   1   19.38    2.87
  -9  -1   1   25.94    3.06
   9   1  -1   20.73    2.50
   9  -1  -1   22.55    1.87
  -9   1   0    2.49    1.64
   9  -1   0    2.65    0.99
   9  -1   0   -0.36    1.54
   9  -1   0    3.98    1.49
   9  -1   0    1.15    1.55
   9   1   0    3.23    1.51
  -9   1   0    2.22    1.76
  -9  -1   0    2.95    1.78
   9   1   0    1.54    1.36
   9  -1   1   50.03    4.46
   9  -1   1   72.34    4.36
   9   1   1   62.60    4.33
   9  -1   1   65.39    4.80
   9   1   1   70.49    4.67
  -9   1  -1   62.82    5.11
  -9  -1  -1   70.68    5.21
   9  -1   1   67.57    3.68
  -9   1  -1   71.91    5.08
   9  -1   2  225.72   11.82
   9  -1   2  229.89   10.99
   9  -1   2  237.53   11.98
   9   1   2  230.15   11.17
   9   1   2  230.21   11.59
  -9   1  -2  237.16   12.40
  -9  -1  -2  247.89   12.32
   9  -1   2  252.15   10.57
  -9   1  -2  228.58   11.98
   9   1   3   25.11    2.44
   9   1   3   26.29    2.90
   9   1   3   27.12    2.85
   9  -1   3   24.38    2.27
  -9   1  -3   21.21    3.14
   9  -1   3   25.69    2.10
  -9  -1  -3   23.97    3.06
  -9  -1  -4   15.13    2.38
   9   1   4   13.32    2.21
   9   1   4   17.88    2.01
  -9  -1  -4   13.27    2.65
   9  -1   4   15.32    1.81
   9   1   5    6.34    1.41
   9  -1   5    6.78    1.25
  -9  -1  -5    6.04    1.90
   9  -1   5    8.79    2.21
   9   1   5    7.27    1.77
  -9  -1  -5   10.82    2.37
  -9   1  -6   -0.38    1.54
   9  -1   6    0.24    0.69
   9   1   6    0.54    0.66
  -9  -1  -6    2.50    1.79
   9  -1   6    0.84    1.82
   9   1   6    0.67    1.55
   9   1   6    1.28    0.94
  -9  -1  -6   -0.97    2.01
  -9   1  -7    9.38    2.06
   9   1   7   10.48    1.29
  -9   1  -7    7.84    2.42
  -9  -1  -7   12.56    2.54
   9  -1   7    9.66    2.15
   9   1   7    9.66    2.04
  -9   1  -7   15.10    2.94
  -9   1  -8    2.56    1.67
  -9   1  -8    0.95    2.02
  -9  -1  -8    4.53    1.89
   9  -1   8    2.58    1.93
   9   1   8    1.75    1.60
  -9   1  -8    1.54    2.33
  -9   1  -9    7.82    1.94
  -9   1  -9    7.40    2.41
  -9  -1  -9    6.61    2.41
   9  -1   9    8.76    2.36
  -9   1  -9    6.79    2.49
  -9   1 -10    0.34    1.53
  -9   1 -10   -1.53    2.44
  -9  -1 -10    1.47    2.13
   9  -1  10    3.56    2.11
  -9   1 -10   -0.53    2.18
  -9  -1 -10    6.49    2.59
  -9   1 -11    2.64    2.13
  -9  -1 -11    5.07    2.46
  -9   1 -11   -1.08    2.32
  -9  -1 -11    0.56    2.35
  -9   1 -11   -0.65    1.74
  -9   1 -12   56.49    5.44
  -9  -1 -12   62.24    5.52
  -9   1 -12   69.39    5.82
  -9  -1 -12   70.59    5.92
  -9   1 -12   58.13    4.36
  -9   1 -13    9.13    2.91
  -9  -1 -13   14.81    3.47
  -9   1 -13    8.95    3.12
  -9  -1 -13    4.08    2.84
  -9   1 -13    7.26    1.91
  -9  -1 -14   91.76    6.93
  -9   1 -14   90.65    6.84
  -9  -1 -14   70.08    6.53
  -9   1 -14   81.73    5.04
  -9   1 -15    1.72    2.64
   9  -2 -19   43.16    4.29
   9  -2 -18    2.46    2.10
   9   2 -18   -0.63    2.87
   9  -2 -17   96.09    6.50
   9   2 -17  109.15    7.60
   9  -2 -17  100.91    7.89
   9   2 -17  117.51    8.10
  -9  -2  17   92.76    6.47
   9  -2 -16    0.39    1.81
   9  -2 -16   -0.63    2.70
   9   2 -16   -2.97    2.98
  -9  -2  16    1.61    2.04
   9  -2 -15   78.08    5.34
   9  -2 -15   73.31    6.44
   9   2 -15   73.33    6.22
  -9  -2  15   69.18    5.35
   9  -2 -14    0.58    2.68
   9   2 -14    2.76    2.30
   9   2 -14    1.87    1.37
  -9  -2  14    1.65    1.90
  -9  -2  13    5.42    2.29
  -9  -2  13    8.34    1.99
   9  -2 -13    9.59    2.97
   9   2 -13   13.02    3.18
   9   2 -13    6.95    1.79
  -9   2  13    7.83    2.40
  -9  -2  12    0.85    1.87
  -9  -2  12    0.53    1.45
   9  -2 -12    3.31    2.48
   9   2 -12   -0.52    2.14
   9   2 -12   -0.29    1.39
  -9   2  12   -1.83    2.25
  -9  -2  11   19.91    2.28
   9   2 -11   13.56    2.06
   9  -2 -11   15.97    3.11
   9   2 -11   16.59    2.99
   9   2 -11   13.90    2.23
  -9   2  11    9.35    2.14
  -9   2  11   13.22    2.76
  -9  -2  10    7.04    1.51
   9   2 -10    6.55    1.56
   9  -2 -10   11.76    2.74
   9   2 -10    4.55    1.71
   9   2 -10    4.95    2.41
  -9   2  10    6.11    1.81
  -9   2  10    3.15    2.01
   9   2  -9  304.86   14.04
   9  -2  -9  328.40   15.81
   9   2  -9  335.92   15.81
  -9  -2   9  299.81   14.49
  -9  -2   9  295.34   13.48
  -9   2   9  318.81   15.25
   9   2  -8   11.25    1.92
  -9  -2   8    5.63    1.80
   9  -2  -8   13.04    2.83
  -9   2   8    7.12    2.14
   9   2  -8   13.69    2.83
  -9  -2   8   10.29    1.41
   9   2  -7   61.30    4.01
   9  -2  -7   48.89    4.74
  -9  -2   7   61.13    4.48
   9   2  -7   59.31    4.93
  -9  -2   7   59.34    3.23
  -9   2   7   53.92    4.65
   9  -2  -6   10.34    2.47
   9   2  -6   13.22    1.92
  -9  -2   6   11.78    2.14
  -9  -2   6   11.33    1.08
  -9   2   6   10.03    2.29
   9   2  -5  150.58    8.92
   9   2  -5  158.40    8.26
  -9  -2   5  171.14    8.99
   9  -2  -5  170.98    9.55
  -9   2   5  175.41    9.39
   9  -2  -4   14.70    1.92
   9  -2  -4   16.00    2.48
   9   2  -4   14.07    1.96
  -9   2   4   17.77    2.93
  -9  -2   4   12.18    2.21
   9   2  -4   12.85    2.42
  -9   2   4   17.18    2.57
   9   2  -3  269.74   13.52
   9  -2  -3  261.39   13.55
   9   2  -3  274.97   12.79
  -9   2   3  284.28   14.06
  -9  -2   3  287.54   13.64
   9  -2  -3  288.99   12.67
  -9   2   3  257.88   13.58
   9   2  -2    3.60    1.60
   9  -2  -2    2.78    1.29
   9  -2  -2    4.59    1.52
   9  -2  -2    4.03    1.86
   9   2  -2    4.17    1.49
  -9   2   2    1.82    1.64
  -9  -2   2    2.39    1.66
   9  -2  -1   37.81    3.50
   9   2  -1   41.98    3.66
   9   2  -1   47.16    3.52
  -9   2   1   49.06    4.33
  -9  -2   1   42.70    3.88
   9  -2  -1   45.63    3.19
   9  -2   0   21.16    2.03
   9  -2   0   18.33    2.51
   9   2   0   19.08    2.56
   9   2   0   20.55    2.40
  -9   2   0   18.55    2.81
  -9  -2   0   18.46    2.73
  -9   2   0   18.08    2.73
   9  -2   1  304.26   15.30
   9   2   1  319.96   15.13
  -9   2  -1  322.97   16.13
  -9  -2  -1  335.11   15.95
   9  -2   1  356.41   14.70
  -9   2  -1  321.36   15.74
   9  -2   2    1.43    1.51
   9  -2   2    0.24    1.25
   9   2   2    0.89    1.38
  -9  -2  -2    1.73    1.89
   9  -2   2    0.23    1.15
  -9   2  -2    0.80    1.59
   9  -2   3   35.95    2.72
   9  -2   3   30.02    3.23
  -9  -2  -3   40.11    3.46
   9   2   3   29.52    2.79
   9   2   3   32.45    2.93
   9  -2   3   32.80    2.70
  -9  -2  -3   35.65    3.67
  -9   2  -3   27.28    3.19
   9   2   4    1.02    1.40
  -9  -2  -4   -0.75    1.58
   9  -2   4    1.65    1.05
   9   2   4    1.12    1.33
  -9  -2  -4    0.46    1.75
  -9   2  -4   -1.16    1.51
  -9  -2  -5   14.74    2.68
   9   2   5   11.55    1.73
   9  -2   5   15.49    2.60
   9   2   5   14.31    1.98
  -9   2  -5   13.71    2.79
   9  -2   5   14.32    1.52
  -9  -2  -5   10.91    2.54
  -9   2  -5   16.32    2.40
   9   2   6    0.82    1.12
   9  -2   6    0.14    0.63
  -9  -2  -6   -0.41    1.66
   9  -2   6   -1.37    1.99
   9   2   6    3.49    1.54
  -9   2  -6    1.99    1.93
   9  -2   6    1.72    0.70
  -9  -2  -6   -0.98    2.00
  -9   2  -6   -0.37    1.59
  -9  -2  -7  177.53    9.70
   9  -2   7  180.07    9.86
   9   2   7  170.76    8.82
  -9   2  -7  188.81   10.29
  -9  -2  -7  162.97    9.91
  -9   2  -7  167.09    9.16
  -9  -2  -8    2.65    2.12
   9  -2   8    4.16    1.99
  -9   2  -8    4.62    2.31
  -9  -2  -8    5.21    2.40
  -9   2  -8    2.44    1.59
  -9  -2  -9   44.47    4.33
  -9   2  -9   39.66    4.31
   9  -2   9   47.80    4.37
  -9   2  -9   34.44    4.18
  -9   2  -9   41.67    3.52
  -9   2 -10    2.62    2.25
  -9  -2 -10    0.48    2.37
   9  -2  10    1.91    1.93
  -9   2 -10    2.65    2.44
  -9   2 -10    1.29    1.55
  -9   2 -11  103.08    7.36
  -9  -2 -11  115.82    7.44
   9  -2  11  100.47    6.93
  -9   2 -11  111.27    7.51
  -9  -2 -11   98.22    7.33
  -9   2 -11   97.23    6.00
  -9   2 -12    2.25    2.30
  -9  -2 -12    1.56    2.30
  -9   2 -12    2.73    2.38
  -9  -2 -12    6.99    2.89
  -9   2 -12    2.89    1.60
  -9  -2 -13   -0.54    2.53
  -9   2 -13    0.55    2.47
  -9  -2 -13    2.39    2.64
  -9   2 -13    0.80    1.43
  -9   2 -14    3.89    2.69
  -9  -2 -14    1.22    2.85
  -9   2 -15   15.62    3.64
  -9   2 -16    1.67    2.98
   9   3 -18    2.44    2.99
   9   3 -17   -1.78    2.91
   9  -3 -16   19.45    2.73
   9  -3 -16   20.80    4.20
   9   3 -16   23.67    3.95
  -9  -3  16   13.79    2.65
   9  -3 -15    0.33    1.72
   9  -3 -15    0.61    2.78
   9   3 -15    2.24    2.51
  -9  -3  15   -0.81    2.10
   9  -3 -14   83.91    5.31
   9  -3 -14   78.39    6.45
   9   3 -14   84.09    6.44
  -9  -3  14   73.97    5.64
  -9  -3  13    2.73    1.67
   9   3 -13    1.84    1.37
   9  -3 -13    0.57    2.44
   9   3 -13    2.64    2.76
   9   3 -12   64.86    4.27
   9  -3 -12   71.86    5.99
   9   3 -12   85.06    6.10
  -9  -3  12   78.35    4.65
  -9  -3  11   -0.23    1.32
   9   3 -11    0.22    1.13
   9  -3 -11    0.54    2.38
   9   3 -11   -0.99    2.52
  -9  -3  10    0.61    1.20
   9   3 -10    1.07    1.16
   9  -3 -10    0.52    2.08
   9   3 -10   -0.97    2.05
  -9   3  10    0.94    1.86
  -9  -3   9    0.18    1.01
   9   3  -9   -0.42    1.24
  -9  -3   9   -0.64    1.49
   9  -3  -9   -1.50    2.12
  -9   3   9    2.34    1.91
   9   3  -9   -1.45    2.14
   9   3  -8  217.83   10.51
   9  -3  -8  231.66   12.37
  -9  -3   8  232.70   11.35
   9   3  -8  248.39   12.36
  -9  -3   8  229.97   10.12
  -9   3   8  237.11   12.19
  -9  -3   7    4.95    0.92
   9   3  -7    8.62    2.43
   9   3  -7    3.16    1.21
  -9  -3   7    8.26    1.97
  -9   3   7    6.89    2.13
   9  -3  -7    3.48    2.14
   9   3  -6   78.23    4.54
   9  -3  -6   85.20    6.12
  -9  -3   6   82.90    5.41
   9   3  -6   84.60    5.95
  -9  -3   6   79.02    3.58
   9  -3  -6   73.68    5.03
  -9   3   6   81.15    5.80
   9  -3  -5   -0.93    1.90
   9  -3  -5   -0.31    1.27
   9   3  -5   -0.22    1.11
  -9  -3   5    1.09    1.38
  -9   3   5    0.45    1.68
   9  -3  -4  125.76    7.39
   9   3  -4  142.60    7.19
  -9  -3   4  146.87    8.19
   9  -3  -4  165.40    8.91
   9  -3  -4  152.74    7.78
  -9   3   4  143.45    8.44
   9  -3  -3   69.80    4.73
   9   3  -3   74.70    5.50
   9   3  -3   72.52    4.47
  -9  -3   3   81.91    5.42
   9  -3  -3   79.97    4.90
   9  -3  -2  233.70   12.35
   9   3  -2  254.91   13.07
  -9   3   2  288.58   13.96
   9  -3  -2  298.52   12.75
  -9  -3   2  268.38   13.14
   9  -3  -1   -0.86    1.41
   9  -3  -1    0.95    1.29
   9   3  -1    3.75    1.90
  -9   3   1    0.96    1.82
  -9  -3   1    0.40    1.59
  -9   3   1    3.01    1.90
   9  -3   0   11.24    2.16
   9   3   0   14.04    2.27
  -9   3   0    8.14    2.27
  -9  -3   0    8.26    2.24
  -9   3   0   11.03    2.36
   9  -3   0    8.35    1.79
   9  -3   1    6.17    1.65
   9   3   1    8.57    1.51
   9   3   1    7.83    1.99
  -9  -3  -1    5.54    1.98
   9  -3   1    5.51    1.68
  -9   3  -1   10.86    2.35
   9  -3   2   86.49    5.70
   9   3   2   91.70    5.26
  -9  -3  -2   94.02    6.38
   9  -3   2  112.14    5.87
   9   3   2   87.79    5.72
  -9   3  -2   98.89    6.33
   9  -3   3    2.42    1.55
   9   3   3    4.02    1.57
  -9  -3  -3    2.39    1.69
   9   3   3    2.01    1.25
  -9   3  -3    0.99    1.88
  -9  -3  -3    2.72    1.86
   9  -3   3    3.23    1.46
  -9   3  -3    2.01    1.65
   9  -3   4   13.06    1.73
  -9  -3  -4   13.24    2.29
   9   3   4    8.73    1.93
   9   3   4   12.29    1.73
  -9   3  -4   11.49    2.63
  -9  -3  -4   11.71    2.64
  -9   3  -4   15.32    2.57
   9  -3   5    8.53    1.40
  -9  -3  -5   13.91    2.47
   9  -3   5   11.94    1.45
   9   3   5    9.48    1.70
  -9   3  -5    9.59    2.56
  -9  -3  -5   14.50    2.76
   9   3   5    7.11    1.73
  -9   3  -5    9.57    2.27
  -9  -3  -6    2.38    1.78
   9   3   6    3.02    1.36
   9  -3   6   -0.49    1.91
  -9   3  -6    0.51    2.12
   9  -3   6    2.04    0.81
  -9  -3  -6    3.49    1.97
  -9   3  -6    1.49    1.71
  -9  -3  -7    8.24    2.23
   9  -3   7    3.91    2.01
  -9   3  -7    6.69    2.62
  -9  -3  -7    1.55    2.19
  -9   3  -7    4.30    1.75
  -9  -3  -8    1.72    2.03
   9  -3   8    0.49    2.18
  -9   3  -8   -0.52    2.06
  -9  -3  -8   -1.07    2.39
  -9   3  -8    0.69    1.57
  -9  -3  -9   10.81    2.67
   9  -3   9   10.10    2.73
  -9   3  -9   10.02    2.74
  -9  -3  -9   11.55    2.94
  -9   3  -9   12.49    2.19
  -9  -3 -10    9.90    2.62
   9  -3  10    4.09    2.21
  -9   3 -10    9.05    2.77
  -9   3 -10    3.12    1.68
  -9  -3 -11    2.47    2.18
   9  -3  11    2.07    2.09
  -9   3 -11    0.54    2.20
  -9   3 -11    0.88    1.42
  -9  -3 -12   13.95    3.02
  -9   3 -12   16.74    3.47
  -9   3 -12   13.81    2.14
  -9   3 -13    6.50    3.00
  -9  -3 -13    6.48    3.16
  -9   3 -13    5.43    2.67
  -9  -3 -13    3.69    2.73
  -9   3 -14   53.78    5.36
  -9   3 -15    9.22    2.97
  -9   3 -16    0.54    2.52
   9   4 -18   -0.58    2.85
   9   4 -17  106.49    7.82
   9   4 -16    0.55    2.76
   9  -4 -15   46.52    5.25
   9   4 -15   43.45    4.75
  -9  -4  15   47.84    4.29
   9  -4 -14    0.59    2.51
   9   4 -14    0.52    2.30
  -9  -4  13   26.55    2.79
   9  -4 -13   25.84    2.79
   9  -4 -13   25.17    4.01
   9   4 -13   28.84    3.92
  -9  -4  12   -0.24    1.44
   9  -4 -12   -1.10    2.44
   9   4 -12   -1.99    2.27
   9  -4 -11  182.16   10.29
   9   4 -11  198.11   10.21
  -9  -4  11  183.96    8.37
  -9  -4  10    0.39    1.19
   9   4 -10    0.13    0.90
  -9  -4  10   -1.11    1.52
   9  -4 -10   -1.57    2.45
   9   4 -10   -1.41    2.04
   9   4  -9   30.13    2.14
   9  -4  -9   37.27    4.13
  -9  -4   9   29.30    2.31
   9   4  -9   30.81    3.64
  -9  -4   8    1.24    0.95
   9  -4  -8    0.40    1.87
   9   4  -8    1.15    0.98
  -9  -4   8    1.27    1.53
   9  -4  -8    2.45    2.07
   9   4  -8    2.31    2.21
   9   4  -7   20.54    3.04
  -9  -4   7   16.51    1.42
   9  -4  -7   10.85    2.44
   9   4  -7   16.05    1.64
  -9  -4   7   17.53    2.41
   9  -4  -7   22.79    3.39
   9  -4  -6   15.52    2.02
   9   4  -6   20.25    2.99
   9  -4  -6   16.90    2.65
  -9  -4   6   12.38    2.28
  -9  -4   6   12.56    0.92
  -9   4   6   19.90    3.03
   9  -4  -6   19.93    3.05
   9  -4  -5   23.11    2.82
   9  -4  -5   17.36    2.19
  -9  -4   5   16.61    2.57
  -9   4   5   21.57    3.08
   9  -4  -4   40.54    3.29
  -9  -4   4   46.94    3.97
   9  -4  -4   51.64    4.52
   9  -4  -4   49.74    4.05
   9  -4  -3   28.48    3.09
   9  -4  -3   36.64    3.83
   9  -4  -3   28.01    2.75
  -9  -4   3   30.80    3.26
   9  -4  -2   10.57    2.23
   9  -4  -2   10.05    1.79
  -9  -4   2    5.13    2.03
  -9   4   2   10.84    2.39
   9  -4  -1   76.46    5.05
  -9  -4   1   89.12    5.87
   9  -4  -1   87.51    5.52
  -9   4   1   86.02    6.01
   9  -4   0    1.19    1.26
  -9  -4   0    0.84    1.66
   9   4   0    1.16    1.81
  -9   4   0    0.44    1.73
   9  -4   0    1.42    1.85
   9   4   1   11.25    2.22
   9  -4   1    6.12    1.63
  -9  -4  -1    6.96    2.16
  -9   4  -1   11.18    2.37
   9  -4   2    0.63    1.43
   9   4   2   -1.08    1.68
  -9  -4  -2    0.31    1.31
  -9   4  -2   -2.52    1.96
  -9  -4  -2   -0.45    2.02
   9  -4   2    0.70    1.58
  -9   4  -2   -0.84    1.70
   9  -4   3  164.53    9.41
   9   4   3  172.83    9.60
  -9  -4  -3  188.23    9.56
  -9   4  -3  200.05   10.82
  -9  -4  -3  209.38   10.72
   9  -4   3  206.25    9.97
  -9   4  -3  190.86   10.12
  -9  -4  -4    2.06    1.72
   9  -4   4    2.46    1.31
  -9   4  -4    4.07    2.41
  -9  -4  -4    6.25    2.54
   9   4   4    1.33    1.75
  -9   4  -4    6.00    2.08
  -9  -4  -5  514.02   23.33
   9   4   5  513.61   23.02
   9  -4   5  518.14   22.07
  -9   4  -5  539.66   24.43
  -9  -4  -5  562.68   24.47
  -9   4  -5  533.99   23.53
  -9  -4  -6    3.45    2.03
  -9   4  -6    3.10    2.19
  -9  -4  -6    0.51    2.34
  -9   4  -6    4.87    1.92
  -9  -4  -7   10.43    2.44
  -9   4  -7   15.12    3.21
  -9  -4  -7   12.20    2.96
  -9   4  -7   15.82    2.43
  -9  -4  -8    2.95    2.02
  -9   4  -8    2.63    2.43
  -9  -4  -8    2.73    2.42
  -9   4  -8   -0.34    1.56
  -9  -4  -9   87.74    6.13
  -9   4  -9   79.60    6.37
  -9  -4  -9   82.34    6.53
  -9  -4 -10    0.47    2.09
  -9   4 -10    4.80    2.52
  -9  -4 -10    4.07    2.72
  -9  -4 -11  159.09    9.52
  -9   4 -11  149.79    9.79
  -9  -4 -11  178.90   10.49
  -9  -4 -12    2.05    2.65
  -9   4 -12    2.14    2.37
  -9  -4 -13    4.28    2.86
  -9   4 -13    1.07    2.50
  -9   4 -14    0.53    2.75
  -9   4 -15    1.05    2.75
   9   5 -18    5.87    2.97
   9   5 -17   -6.25    2.98
   9   5 -16   37.25    4.51
   9  -5 -15    0.61    2.85
   9   5 -15    2.50    2.51
   9  -5 -14   52.03    5.43
   9   5 -14   54.77    5.05
   9  -5 -13    0.57    2.57
   9   5 -13   -1.43    2.36
   9  -5 -12   36.47    4.41
   9   5 -12   36.59    4.04
   9  -5 -11   -0.53    2.55
   9   5 -11    0.46    2.26
   9  -5 -10    4.16    2.30
   9   5 -10    4.47    2.44
   9  -5  -9    1.86    2.08
  -9  -5   9   -0.56    1.50
   9  -5  -9    0.51    2.24
   9   5  -9   -0.89    1.97
   9  -5  -8  307.88   15.75
   9   5  -8  323.32   15.61
  -9  -5   8  318.04   14.62
   9  -5  -8  316.49   15.58
   9  -5  -7    0.44    1.97
  -9  -5   7    1.98    0.87
  -9  -5   7    1.60    1.60
   9  -5  -7    0.47    2.24
   9   5  -7   -0.87    2.16
   9  -5  -6   72.01    5.62
  -9  -5   6   84.22    5.21
   9   5  -6   87.41    5.79
  -9  -5   6   68.98    3.30
   9  -5  -6   83.67    5.71
   9  -5  -5    2.59    1.97
   9   5  -5    5.15    2.30
  -9  -5   5    5.68    2.06
   9  -5  -5    5.13    2.42
   9  -5  -4   90.05    6.26
  -9  -5   4   82.75    5.52
   9  -5  -4   79.66    5.87
   9  -5  -3    5.79    2.38
   9  -5  -3    1.25    2.07
   9  -5  -3    4.36    1.39
  -9  -5   3    1.54    1.81
   9  -5  -2  267.72   12.79
   9   5  -2  268.84   11.78
  -9  -5   2  291.06   13.89
   9  -5  -2  319.11   14.40
   9  -5  -2  319.00   14.22
   9  -5  -1   21.22    3.13
   9  -5  -1   20.22    2.31
   9   5  -1   19.55    1.39
  -9  -5   1   22.07    3.08
   9  -5  -1   25.61    3.12
   9  -5   0    0.27    1.37
  -9  -5   0   -2.19    2.13
  -9  -5   0   -0.43    2.02
   9  -5   0    0.42    1.87
   9  -5   1   30.22    2.94
  -9  -5  -1   27.67    3.38
  -9  -5  -1   29.52    3.54
   9  -5   1   36.64    3.67
  -9  -5  -2   63.26    4.94
   9  -5   2   53.48    4.18
   9  -5   2   70.82    4.62
  -9  -5  -2   58.63    4.19
  -9  -5  -2   63.61    5.21
   9  -5   2   75.59    5.25
   9  -5   3   11.63    2.13
   9  -5   3    8.10    1.89
  -9  -5  -3   10.03    2.40
  -9  -5  -3   13.76    2.28
  -9  -5  -3   15.38    2.93
   9  -5   3   12.42    2.75
  -9  -5  -4   10.12    2.35
   9  -5   4    8.44    1.86
  -9  -5  -4   13.42    2.22
  -9  -5  -4   13.87    2.80
  -9  -5  -5    2.64    2.03
  -9  -5  -5    3.52    1.83
   9  -5   5   -0.56    2.16
  -9  -5  -5    1.54    2.27
  -9  -5  -6  100.43    6.37
  -9  -5  -6  103.05    6.29
   9  -5   6   98.25    7.14
  -9   5  -6   98.42    7.14
  -9  -5  -6   90.64    6.88
  -9  -5  -7    7.70    2.14
  -9  -5  -7   11.33    2.59
   9  -5   7   10.43    2.78
  -9   5  -7    9.49    2.84
  -9  -5  -7    9.31    3.00
  -9  -5  -8   -0.67    1.89
  -9  -5  -8    2.06    2.20
   9  -5   8   -1.11    2.26
  -9   5  -8   -0.53    2.30
  -9  -5  -8    3.39    2.77
  -9  -5  -9   -0.32    1.69
  -9  -5  -9    4.36    2.33
   9  -5   9    2.82    2.42
  -9   5  -9    2.11    2.43
  -9  -5  -9    2.91    2.68
  -9  -5 -10    8.71    2.05
  -9  -5 -10    6.89    2.54
  -9   5 -10   12.61    3.06
   9  -5  10    5.68    2.53
  -9  -5 -10    8.38    3.12
  -9  -5 -11   -1.45    2.50
  -9   5 -11    3.66    2.71
  -9  -5 -12   28.29    3.88
  -9   5 -12   21.80    3.73
  -9   5 -13    2.05    2.52
  -9   5 -14   46.06    4.88
   9   6 -16   -0.91    2.52
   9   6 -15    6.27    2.47
   9  -6 -14   12.83    3.42
   9   6 -14   14.59    3.06
   9  -6 -13    3.39    2.81
   9   6 -13    5.65    2.52
   9  -6 -12    1.10    2.66
   9   6 -12   -0.43    2.18
   9  -6 -11    2.65    2.58
   9   6 -11    8.46    2.52
   9  -6 -10   -1.53    2.47
   9   6 -10    2.09    1.98
   9  -6  -9  155.32    8.90
   9   6  -9  127.79    8.00
   9  -6  -9  131.13    8.52
   9  -6  -8    4.02    2.41
   9  -6  -8    1.94    2.30
   9   6  -8    5.39    2.13
   9  -6  -7   32.60    3.92
  -9  -6   7   30.53    3.14
   9  -6  -7   34.80    3.93
   9   6  -7   31.55    3.67
   9   6  -6    0.41    2.01
   9  -6  -6    2.47    2.09
  -9  -6   6    1.34    1.81
   9  -6  -6    4.99    2.20
  -9  -6   6    1.90    0.85
   9  -6  -5   71.16    5.07
  -9  -6   5   68.55    4.48
   9   6  -5   68.25    4.82
   9  -6  -5   75.83    5.46
   9  -6  -4    1.92    2.09
  -9  -6   4    1.13    1.77
   9  -6  -4   -1.77    2.14
  -9  -6   3  112.83    7.75
   9  -6  -3  115.58    7.43
  -9  -6   3  122.14    7.23
   9  -6  -3  118.44    7.67
   9  -6  -2    1.90    2.16
  -9  -6   2    1.52    2.08
  -9  -6   2    2.47    2.15
   9  -6  -2    1.30    2.10
   9  -6  -1   22.48    3.16
  -9  -6   1   27.71    3.64
  -9  -6   1   23.17    3.21
   9  -6  -1   19.48    3.32
   9  -6   0    2.54    1.95
   9  -6   0    8.47    2.30
  -9  -6   0    1.93    2.23
  -9  -6   0    2.68    2.14
   9  -6   0    7.20    2.67
   9  -6   1  138.81    8.06
  -9  -6  -1  132.22    8.21
  -9  -6  -1  138.92    8.24
   9  -6   1  128.15    8.19
   9  -6   1  124.16    7.60
  -9  -6  -2    2.77    2.32
  -9  -6  -2    5.28    2.54
   9  -6   2    1.41    1.81
   9  -6   2    2.86    2.29
   9  -6   3    4.89    1.95
  -9  -6  -3    0.90    2.00
  -9  -6  -3    2.26    1.50
  -9  -6  -3   -1.99    2.13
   9  -6   3    5.21    2.29
  -9  -6  -4    3.52    2.16
  -9  -6  -4    4.92    1.86
   9  -6   4    1.74    2.30
  -9  -6  -4   -0.51    2.40
   9  -6   4    4.29    2.47
  -9  -6  -5   41.19    3.75
  -9  -6  -5   39.10    4.08
   9  -6   5   47.32    4.98
  -9  -6  -5   46.15    4.73
  -9  -6  -6    0.84    1.96
  -9  -6  -6    1.06    1.68
   9  -6   6    0.58    2.17
  -9  -6  -6   -0.55    2.46
  -9  -6  -7   13.44    2.96
  -9  -6  -7   20.36    2.86
   9  -6   7   20.75    3.54
  -9  -6  -7   16.97    3.43
  -9  -6  -8   27.15    3.39
  -9  -6  -8   32.04    3.55
   9  -6   8   19.16    3.53
  -9  -6  -8   30.31    4.24
  -9  -6  -9    0.38    2.10
  -9  -6  -9    0.42    2.13
  -9  -6 -10   -0.72    1.98
  -9  -6 -10   -1.80    2.44
  -9  -6 -11   57.62    5.23
   9  -7 -12    5.88    3.03
   9  -7 -11    3.62    2.87
   9   7 -11    4.39    2.19
   9  -7 -10    0.57    2.87
   9  -7 -10    3.51    2.60
   9   7 -10    1.46    1.99
   9  -7  -9   -1.13    2.56
   9  -7  -9    0.48    2.29
   9   7  -9   -0.37    1.93
   9  -7  -8   56.45    4.99
   9   7  -8   45.96    4.19
   9  -7  -8   57.72    5.43
   9  -7  -7    3.36    2.52
   9  -7  -7    8.62    2.72
   9   7  -7    4.48    2.15
   9  -7  -6   20.98    3.48
   9  -7  -6   14.26    2.99
   9   7  -6   14.03    2.63
   9   7  -5   -1.14    1.88
   9  -7  -5   -1.09    2.27
  -9  -7   5    1.07    2.01
   9  -7  -5   -0.43    2.14
   9  -7  -4   40.94    4.54
   9   7  -4   28.04    3.52
  -9  -7   4   39.85    4.64
  -9  -7   4   31.85    3.51
   9  -7  -4   35.50    3.98
   9  -7  -3    2.69    2.48
  -9  -7   3    0.57    2.67
   9  -7  -3    2.56    2.51
  -9  -7   3   -0.80    2.00
   9  -7  -3   -2.05    2.12
   9  -7  -2   43.89    4.69
  -9  -7   2   36.04    4.30
   9  -7  -2   35.06    4.16
  -9  -7   2   38.49    3.98
   9  -7  -2   40.93    4.04
  -9  -7   1    3.26    2.57
   9  -7  -1    2.36    2.09
  -9  -7   1    0.44    2.22
   9  -7  -1   -0.41    2.13
   9  -7  -1    3.75    2.65
   9  -7   0    4.85    2.29
  -9  -7   0    4.27    2.68
  -9  -7   0    8.33    2.69
   9  -7   0    4.32    2.63
   9  -7   0    5.26    2.27
   9  -7   1    3.18    2.12
  -9  -7  -1    3.67    2.57
   9  -7   1    5.42    2.36
  -9  -7  -1    2.88    2.33
   9  -7   1    1.08    2.55
   9  -7   2   15.86    2.91
   9  -7   2   20.62    3.17
  -9  -7  -2   18.00    3.43
  -9  -7  -2   17.90    3.26
   9  -7   2   22.64    3.68
   9  -7   3    1.20    2.18
  -9  -7  -3    1.01    2.57
  -9  -7  -3    3.08    2.34
   9  -7   3    0.53    2.45
  -9  -7  -4    0.99    2.35
   9  -7   4    3.64    2.80
  -9  -7  -4    3.19    2.58
   9  -7   4    6.38    2.78
  -9  -7  -5   10.19    3.03
   9  -7   5    6.64    2.80
  -9  -7  -5    8.24    2.95
   9  -7   5    8.05    2.99
  -9  -7  -6    4.26    2.68
  -9  -7  -6    5.67    2.85
  -9  -7  -7    5.07    2.63
  -9  -7  -8    1.35    2.60
  -9  -7  -9    7.38    2.73
   9  -8  -6    1.88    3.17
   9  -8  -5   33.61    4.48
   9  -8  -5   29.13    4.36
   9  -8  -4   -0.60    3.09
   9  -8  -4    2.91    2.99
   9   8  -4    3.06    2.14
   9  -8  -3   20.20    3.92
   9   8  -3   19.56    2.91
   9  -8  -3   24.86    3.90
  -9  -8   3   12.91    3.67
   9  -8  -2    4.15    2.70
  -9  -8   2   -0.60    2.86
  -9  -8   2    3.46    2.37
   9  -8  -2    0.53    2.48
  -9  -8   1   48.78    5.26
   9  -8  -1   44.24    4.77
  -9  -8   1   47.26    4.61
   9  -8  -1   45.61    5.17
   9  -8   0   12.59    3.05
  -9  -8   0   11.12    3.20
  -9  -8   0   12.34    3.05
   9  -8   0   16.68    3.65
   9  -8   1    5.11    2.69
  -9  -8  -1    2.31    2.73
  -9  -8  -1    0.49    2.48
   9  -8   1    1.79    2.93
  -9  -8  -2   -0.57    2.69
  -9  -8  -2   -2.57    2.77
   9  -8   2   -3.57    3.18
  -9  -8  -3   56.43    5.50
   9  -8   3   63.06    5.84
  -9  -8  -3   46.23    5.15
  -9  -8  -4    9.86    3.13
  -9  -8  -4    6.59    3.01
  -9  -8  -5  156.73    9.75
  -9  -8  -6    2.63    2.55
  -9  -8  -7    2.56    2.74
  -9  -8  -8    0.50    2.72
  -9  -8  -9   33.45    4.49
   9  -9  -2   41.41    5.05
   9  -9  -1    2.74    2.75
  -9  -9  -1    2.52    2.64
  10   0 -18   26.32    3.92
  10   0 -17   -0.99    2.77
 -10   0  17    0.46    2.17
  10   0 -16   78.23    6.77
 -10   0  16   78.16    6.03
  10   0 -15   -3.72    2.97
 -10   0  15    0.93    2.18
  10   0 -14   15.76    3.50
 -10   0  14   14.06    2.91
 -10   0  13   -0.94    2.10
 -10   0  12  481.42   20.99
 -10   0  12  472.01   22.07
 -10   0  11   -0.80    1.51
 -10   0  11   -1.40    2.06
 -10   0  10   18.56    2.24
 -10   0  10   19.46    3.05
 -10   0   9   -0.67    1.19
 -10   0   9    1.40    1.97
  10   0  -8    0.37    1.59
 -10   0   8   -1.39    1.93
 -10   0   7   -0.47    1.84
  10   0  -7    0.37    1.89
 -10   0   7    0.45    1.97
  10   0  -6  784.20   35.35
 -10   0   6  834.33   35.98
  10   0  -6  850.75   36.52
 -10   0   6  863.93   36.19
 -10   0   5   -0.47    1.85
  10   0  -5    0.37    1.60
 -10   0   5   -0.45    1.94
  10   0  -4   12.66    2.41
  10   0  -4   17.61    2.71
 -10   0   4   16.97    2.83
  10   0  -3   -0.76    1.70
  10   0  -3   -1.13    1.69
 -10   0   3    2.32    1.96
  10   0  -2    1.53    1.54
  10   0  -2    3.24    1.76
 -10   0   2   -0.47    1.94
  10   0  -1    0.68    1.65
 -10   0   1   -0.47    1.86
  10   0   0  246.59   11.79
 -10   0   0  235.68   12.64
 -10   0  -1    3.38    2.20
  10   0   1   -0.59    1.44
  10   0   2   44.75    3.49
 -10   0  -2   55.96    4.74
  10   0   3    0.30    0.42
  10   0   3   -0.50    1.32
 -10   0  -3   -1.00    1.95
  10   0   4    0.68    0.63
  10   0   4    0.22    1.23
  10   0   4    2.51    1.74
 -10   0  -4    1.03    2.00
  10   0   5    0.42    1.82
 -10   0  -5   -1.57    2.18
  10   0   5    0.09    0.74
  10   0   6   23.65    3.10
 -10   0  -7    1.95    2.25
  10   0   7    0.42    1.79
 -10   0  -8  198.61   10.64
  10   0   8  166.65    9.72
 -10   0  -8  172.00   10.45
 -10   0  -9    0.52    2.33
  10   0   9   -0.43    2.00
 -10   0  -9    1.70    2.36
 -10   0 -10  118.65    7.79
 -10   0 -10   98.31    7.48
 -10   0 -11   -2.22    2.49
 -10   0 -11   -0.59    2.57
 -10   0 -12  194.36   11.40
 -10   0 -12  193.18   11.50
 -10   0 -13    1.43    1.71
 -10   0 -13    2.44    2.85
  10  -1 -18    0.47    2.42
  10  -1 -17    1.37    2.27
  10   1 -17    2.64    2.33
 -10  -1  17    1.78    2.15
  10  -1 -16    1.33    2.25
  10   1 -16    5.07    3.00
 -10   1  16    1.92    2.38
 -10  -1  16    4.52    2.44
  10   1 -15  124.18    8.40
 -10   1  15  104.31    7.36
 -10  -1  15  114.42    7.41
  10  -1 -14    3.67    2.74
  10   1 -14    1.20    2.42
 -10   1  14   -0.48    2.26
 -10  -1  14    2.29    2.30
 -10  -1  13    4.89    1.85
  10  -1 -13    8.39    3.11
  10   1 -13    5.85    2.97
 -10   1  13    5.77    2.47
 -10  -1  13    3.21    2.20
  10  -1 -12   -1.16    2.63
  10   1 -12    5.61    2.85
 -10   1  12    2.40    2.06
 -10  -1  12    0.80    1.50
 -10  -1  12    0.92    1.98
  10   1 -11    2.40    1.78
  10  -1 -11    3.35    2.47
  10   1 -11    1.64    2.39
 -10   1  11    1.45    1.65
 -10   1  11    1.92    1.90
 -10  -1  11    0.98    1.33
 -10  -1  11    0.46    2.13
 -10  -1  10   -0.47    1.87
  10   1 -10    0.34    1.57
 -10   1  10   -0.55    1.61
  10  -1 -10    2.75    2.33
  10   1 -10    0.54    2.33
 -10  -1  10    2.86    1.26
 -10   1  10   -2.38    2.01
  10   1  -9   36.21    3.54
 -10  -1   9   36.93    2.85
 -10   1   9   45.53    4.37
 -10  -1   9   44.40    4.19
  10  -1  -9   46.05    4.65
  10   1  -9   41.30    4.56
  10   1  -8    8.32    2.70
  10   1  -8    2.38    1.68
 -10  -1   8    9.17    2.36
  10  -1  -8    5.92    2.32
 -10   1   8    7.54    2.35
  10   1  -7   65.59    4.88
 -10  -1   7   74.88    5.44
  10   1  -7   80.07    6.01
 -10   1   7   64.62    5.37
  10  -1  -6    1.54    2.10
  10   1  -6    0.67    1.44
 -10   1   6    6.61    2.29
 -10  -1   6    3.88    1.88
 -10   1   6    3.27    2.07
  10  -1  -5    4.62    2.39
  10   1  -5    0.34    1.48
 -10   1   5   -1.42    1.80
 -10  -1   5    0.88    1.67
 -10   1   5   -0.47    1.67
  10  -1  -4    1.94    1.74
  10   1  -4    2.05    1.64
  10   1  -4    2.84    2.06
 -10   1   4    0.48    1.98
 -10  -1   4    1.32    1.75
 -10   1   4    2.32    1.80
  10  -1  -3   88.90    5.62
  10   1  -3   71.54    5.32
  10   1  -3   80.05    5.26
 -10   1   3   83.29    6.04
 -10  -1   3   76.31    5.72
 -10   1   3   75.44    5.71
  10  -1  -2   -0.70    1.49
  10   1  -2    4.14    1.69
 -10   1   2    2.42    1.92
 -10  -1   2    3.17    1.91
  10   1  -2    2.18    1.76
  10  -1  -1   77.74    5.14
  10   1  -1   75.81    5.21
  10   1  -1   74.36    5.18
 -10   1   1   89.89    6.17
 -10  -1   1   78.82    5.79
  10  -1  -1   78.74    4.13
 -10   1   0   16.05    2.72
  10   1   0   17.40    2.44
  10  -1   0   18.18    2.30
  10   1   0   15.45    2.48
 -10   1   0   13.28    2.74
 -10  -1   0   17.28    2.96
  10  -1   0   18.61    1.64
  10  -1   1  133.09    7.33
  10   1   1  129.92    7.49
 -10   1  -1  150.32    8.77
 -10  -1  -1  139.70    8.47
  10  -1   1  141.26    6.56
 -10   1  -1  143.19    8.46
 -10   1  -2    2.26    2.02
  10  -1   2   -0.60    0.84
  10   1   2    0.30    1.34
  10  -1   2    0.26    1.34
 -10   1  -2    1.01    1.96
 -10  -1  -2   -2.43    2.06
  10  -1   3  133.88    6.95
  10   1   3  137.28    7.16
  10   1   3  124.24    7.60
 -10   1  -3  124.16    8.25
 -10  -1  -3  137.22    8.41
  10  -1   3  141.45    6.49
 -10   1  -3  132.93    8.09
 -10   1  -4   10.12    2.48
  10  -1   4    8.24    2.24
  10   1   4   11.13    2.49
 -10  -1  -4   14.13    3.10
  10   1   4   12.58    1.96
  10  -1   4   11.67    1.56
 -10   1  -5   37.66    3.76
  10  -1   5   30.43    3.55
  10   1   5   33.76    3.36
  10  -1   5   33.94    2.50
 -10  -1  -5   26.84    3.69
 -10   1  -6    9.77    2.34
 -10  -1  -6   12.81    2.60
  10  -1   6    4.58    1.97
  10   1   6    7.09    2.12
 -10  -1  -6   14.86    2.91
 -10  -1  -7  227.42   12.37
  10  -1   7  225.28   12.27
  10   1   7  235.71   11.88
 -10   1  -7  230.14   12.84
 -10  -1  -7  256.99   13.12
 -10   1  -7  239.45   12.18
 -10   1  -8   23.38    3.13
 -10  -1  -8   18.61    3.20
  10  -1   8   23.47    3.34
  10   1   8   16.48    2.78
 -10   1  -8   14.04    3.17
 -10   1  -9    2.34    2.06
 -10   1  -9    0.53    2.39
 -10  -1  -9    3.04    2.43
  10  -1   9    1.90    2.19
 -10   1  -9    1.15    2.31
 -10   1 -10    9.35    2.77
 -10  -1 -10    7.36    2.76
  10  -1  10    8.64    2.74
 -10   1 -10    2.92    2.63
 -10  -1 -10    2.35    2.61
 -10   1 -10    6.38    2.08
 -10   1 -11    9.08    2.92
 -10  -1 -11    4.92    2.60
 -10   1 -11    5.36    2.83
 -10  -1 -11    7.81    3.09
 -10   1 -11    6.11    1.97
 -10   1 -12    5.87    2.82
 -10  -1 -12    7.39    3.24
 -10   1 -12    6.65    3.11
 -10  -1 -12    9.20    3.31
 -10   1 -12    5.13    2.00
 -10   1 -13  101.50    7.59
 -10   1 -13   80.37    5.52
  10  -2 -17    0.41    2.28
  10  -2 -16    2.03    2.19
  10   2 -16    1.87    3.12
 -10  -2  16    3.09    2.31
  10  -2 -15    3.17    2.96
  10   2 -15   -1.81    2.70
 -10  -2  15    1.79    2.24
  10  -2 -14   76.06    6.57
  10   2 -14   70.15    6.31
 -10   2  14   81.82    6.15
 -10  -2  14   83.65    6.06
 -10  -2  13    1.62    1.55
  10  -2 -13   -3.02    2.59
  10   2 -13   -1.15    2.55
 -10   2  13    1.50    2.17
 -10  -2  13   -1.37    2.29
  10   2 -12   44.35    3.85
  10  -2 -12   59.79    5.45
  10   2 -12   54.26    5.37
 -10  -2  12   56.19    3.88
 -10   2  12   58.76    5.04
 -10  -2  12   57.52    4.98
 -10  -2  11    0.22    1.35
 -10  -2  11    0.93    2.06
  10   2 -11   -0.89    1.52
  10  -2 -11    0.56    2.46
  10   2 -11   -1.62    2.46
 -10   2  11   -1.98    2.19
  10   2 -10    1.19    1.57
  10  -2 -10    0.55    2.33
  10   2 -10   -0.54    2.08
 -10   2  10   -1.47    2.07
 -10  -2  10    0.78    1.17
  10   2  -9   -0.58    1.52
 -10  -2   9   -0.77    1.75
  10  -2  -9    4.38    2.52
 -10  -2   9    1.67    1.06
 -10   2   9    0.49    1.97
  10   2  -9    1.07    2.23
  10   2  -8   76.32    5.09
  10  -2  -8  101.64    6.93
 -10  -2   8   75.34    5.65
  10   2  -8  103.30    6.79
 -10  -2   8   86.18    4.32
 -10   2   8   87.58    6.22
  10   2  -7    1.51    2.20
  10   2  -7    1.46    1.45
 -10  -2   7    2.43    1.87
 -10   2   7   -0.97    1.91
  10  -2  -7    1.06    2.13
  10  -2  -6   25.31    3.61
  10   2  -6   20.59    3.29
  10   2  -6   20.26    2.45
 -10  -2   6   29.85    3.29
 -10   2   6   20.58    3.30
  10  -2  -5    7.17    2.42
  10   2  -5    2.05    1.44
 -10  -2   5    3.37    2.07
 -10   2   5    0.48    1.78
  10   2  -4   35.46    3.08
 -10  -2   4   37.22    3.75
 -10   2   4   27.43    3.56
 -10   2   4   26.49    3.46
  10  -2  -3    0.36    1.60
  10  -2  -3    1.65    1.30
  10   2  -3    3.04    1.67
 -10   2   3    2.49    2.14
 -10  -2   3    5.22    2.08
  10  -2  -2  316.29   15.92
  10   2  -2  365.26   16.39
  10   2  -2  343.89   15.74
 -10   2   2  344.44   16.97
 -10  -2   2  359.08   16.76
  10  -2  -2  340.99   15.23
  10   2  -1   27.66    3.15
  10   2  -1   30.46    2.92
 -10   2   1   18.64    3.29
 -10  -2   1   25.63    3.49
  10  -2  -1   29.74    2.65
 -10   2   1   28.06    3.40
  10  -2   0    2.23    1.38
  10   2   0    2.86    1.85
  10  -2   0    4.05    1.60
  10   2   0    1.29    1.60
 -10   2   0    1.02    1.95
 -10  -2   0    2.77    2.01
 -10   2   0    4.09    2.01
  10  -2   1    0.45    1.27
  10  -2   1    0.29    1.36
  10   2   1    1.03    1.62
 -10   2  -1    0.52    1.97
 -10  -2  -1    3.29    1.95
 -10   2  -1    2.24    2.15
  10  -2   2    1.59    1.56
  10   2   2   -0.64    1.59
  10   2   2    0.97    1.50
 -10   2  -2    4.16    2.37
 -10  -2  -2    3.36    2.12
  10  -2   2    3.88    1.33
 -10   2  -2    0.44    1.78
  10  -2   3    9.90    1.74
  10   2   3   11.50    2.11
 -10  -2  -3   12.35    2.81
  10   2   3    5.08    1.71
  10  -2   3    9.64    1.79
 -10   2  -3    9.57    2.37
  10   2   4   99.64    6.04
 -10  -2  -4   86.91    6.69
  10  -2   4  114.48    5.77
 -10   2  -4   99.96    6.55
  10   2   4   97.90    5.78
 -10  -2  -5    0.43    1.89
  10  -2   5   -1.50    2.11
  10   2   5    0.32    1.45
 -10   2  -5    1.08    2.09
 -10  -2  -5   -1.04    2.02
  10  -2   5    0.50    1.38
 -10   2  -5    1.68    1.91
 -10  -2  -6    4.44    2.31
  10  -2   6    3.99    2.15
  10   2   6    2.90    1.47
 -10   2  -6    2.19    2.24
 -10  -2  -6    3.75    2.23
 -10   2  -6    5.32    2.19
 -10  -2  -7    0.46    2.09
  10  -2   7   -1.49    2.06
  10   2   7   -0.65    1.50
 -10   2  -7    0.55    2.23
 -10  -2  -7    2.76    2.54
 -10   2  -7    1.60    1.76
 -10  -2  -8    8.12    2.58
  10  -2   8    5.54    2.33
 -10   2  -8    7.32    2.70
 -10  -2  -8    5.67    2.76
 -10   2  -8    3.86    1.93
 -10  -2  -9    0.50    2.14
  10  -2   9    1.02    1.99
 -10   2  -9    4.00    2.67
 -10   2  -9   -0.37    1.67
 -10  -2 -10   27.54    3.87
  10  -2  10   24.23    3.62
 -10   2 -10   35.27    4.58
 -10   2 -10   27.57    3.20
 -10   2 -11   -0.58    2.71
 -10  -2 -11    1.08    2.42
  10  -2  11    0.52    2.20
 -10   2 -11   -1.17    2.83
 -10  -2 -11   -1.22    2.67
 -10   2 -11   -0.68    1.63
 -10  -2 -12   -0.56    2.46
 -10   2 -12    3.54    2.49
 -10   2 -12    2.58    1.64
 -10   2 -13   -1.78    2.88
  10   3 -16    7.88    3.09
 -10  -3  16    8.67    2.53
  10  -3 -15  108.63    7.94
  10   3 -15  102.85    7.59
 -10  -3  15   90.74    6.59
 -10  -3  14   -0.46    2.31
  10  -3 -14   -0.62    2.69
  10   3 -14    2.87    2.85
 -10  -3  13   -0.46    2.13
  10  -3 -13   -0.60    2.74
  10   3 -13    2.26    2.77
  10  -3 -12    2.96    2.62
  10   3 -12   -0.55    2.38
 -10  -3  11    7.55    1.61
  10   3 -11   10.79    1.82
  10  -3 -11    8.02    2.99
  10   3 -11    7.43    2.72
 -10  -3  10    0.18    1.09
  10   3 -10    0.71    1.35
  10  -3 -10    2.21    2.30
  10   3 -10    2.11    2.37
 -10   3  10    3.57    2.32
  10   3  -9   14.12    1.98
 -10  -3   9   12.97    2.44
  10  -3  -9   21.74    3.70
 -10   3   9   14.19    2.91
  10   3  -9   18.66    3.29
 -10  -3   9   12.73    1.53
  10   3  -8    1.64    1.38
 -10  -3   8    3.39    1.73
  10  -3  -8    1.08    2.25
 -10  -3   8    1.03    0.82
 -10   3   8    0.50    2.07
  10   3  -8   -0.51    2.18
  10   3  -7   47.92    3.47
  10  -3  -7   49.85    4.92
 -10  -3   7   54.14    4.32
  10   3  -7   52.22    4.69
 -10   3   7   45.91    4.58
  10   3  -6    4.96    2.35
  10   3  -6    1.95    1.23
 -10  -3   6    1.20    1.79
 -10   3   6    1.98    2.06
  10  -3  -6    2.09    2.14
  10  -3  -5    3.07    2.17
  10  -3  -5    2.87    1.42
  10  -3  -5    2.20    1.62
  10   3  -5    1.00    1.24
 -10  -3   5    0.41    1.68
 -10   3   5    6.37    2.26
  10  -3  -4   32.57    3.90
  10  -3  -4   23.44    2.80
  10  -3  -4   29.86    2.93
  10   3  -4   36.47    2.96
 -10  -3   4   31.37    3.65
  10  -3  -3   53.17    4.15
  10   3  -3   59.79    3.97
 -10  -3   3   49.27    4.61
  10  -3  -3   56.78    4.04
  10  -3  -2   17.87    2.32
  10  -3  -2    9.80    2.03
 -10   3   2   11.50    2.91
 -10  -3   2   12.35    2.53
 -10   3   2    9.55    2.64
  10  -3  -1   75.27    5.14
 -10   3   1   74.31    5.88
 -10  -3   1   72.98    5.52
  10  -3  -1   73.40    4.76
 -10   3   1   76.98    5.70
  10  -3   0    4.96    1.91
  10   3   0    4.63    1.91
 -10   3   0    5.24    2.46
 -10  -3   0   10.56    2.62
 -10   3   0    6.53    2.35
  10   3   1  217.60   10.63
 -10  -3  -1  226.33   11.93
  10   3   1  227.17   11.37
  10  -3   1  230.57   10.89
 -10   3  -1  214.52   11.78
  10   3   2   27.73    3.26
  10   3   2   30.53    2.73
 -10  -3  -2   32.08    3.80
  10  -3   2   27.63    2.85
 -10   3  -2   29.80    3.60
  10   3   3  107.90    6.12
 -10  -3  -3  121.77    7.61
  10  -3   3  119.63    6.57
 -10   3  -3  103.57    7.03
  10   3   3  112.60    6.58
 -10  -3  -4   23.70    3.08
  10   3   4   16.48    2.19
 -10   3  -4   13.10    3.02
 -10  -3  -4   19.56    3.31
  10  -3   4   25.16    2.76
 -10   3  -4   24.24    3.13
 -10  -3  -5   37.92    3.82
  10   3   5   36.79    2.96
  10  -3   5   33.79    4.05
 -10   3  -5   28.74    4.00
 -10  -3  -5   31.79    4.09
 -10   3  -5   31.62    3.62
 -10  -3  -6   30.50    3.56
  10  -3   6   27.27    3.78
 -10   3  -6   31.86    4.09
 -10  -3  -6   20.17    3.62
 -10   3  -6   27.44    3.30
 -10  -3  -7  204.99   10.81
  10  -3   7  187.36   10.95
 -10   3  -7  197.00   11.40
 -10  -3  -7  222.87   11.68
 -10   3  -7  173.77   10.03
 -10  -3  -8    7.03    2.56
  10  -3   8    2.68    2.34
 -10   3  -8    3.41    2.37
 -10  -3  -8    4.62    2.77
 -10   3  -8    5.71    1.92
 -10  -3  -9    5.39    2.50
  10  -3   9    4.91    2.56
 -10  -3  -9    7.13    3.02
 -10   3  -9    4.73    1.92
 -10  -3 -10    4.06    2.46
  10  -3  10    0.55    2.18
 -10   3 -10    6.37    3.03
 -10  -3 -10    1.83    2.66
 -10   3 -10    4.51    1.80
 -10  -3 -11   -1.58    2.61
  10  -3  11    2.22    2.45
 -10   3 -11   -1.17    2.72
 -10   3 -11    0.33    1.57
 -10  -3 -12   -0.54    2.60
 -10   3 -12   -1.17    2.77
 -10   3 -12   -0.91    1.70
 -10   3 -13   49.22    5.39
  10   4 -16   34.41    4.61
 -10  -4  15    0.45    2.34
  10   4 -15   -1.71    2.85
  10  -4 -14   -0.62    2.79
  10   4 -14    1.66    2.68
  10  -4 -13    3.61    2.77
  10   4 -13   -1.64    2.55
  10  -4 -12  301.07   16.13
  10   4 -12  321.69   16.02
  10  -4 -11   16.19    3.49
  10   4 -11    9.28    3.10
  10  -4 -10   73.89    6.17
  10   4 -10   79.60    6.14
 -10  -4  10   69.09    4.93
 -10  -4   9    2.37    1.78
  10  -4  -9    3.79    2.74
  10   4  -9    2.05    2.39
 -10  -4   8    4.31    2.08
  10  -4  -8    0.53    2.42
 -10  -4   8    1.95    0.80
  10   4  -8    0.50    2.43
  10   4  -7   -2.44    2.50
  10  -4  -7   -0.78    1.90
 -10  -4   7    0.75    1.81
  10  -4  -7   -0.53    2.31
 -10   4   7   -0.52    2.22
  10  -4  -6  686.68   29.20
 -10  -4   6  656.76   28.03
  10   4  -6  653.30   28.66
 -10   4   6  626.77   28.72
  10  -4  -6  588.93   27.71
  10  -4  -5   20.27    2.65
  10  -4  -5   31.02    3.39
 -10  -4   5   30.49    3.39
 -10   4   5   29.02    3.80
  10  -4  -5   30.24    3.85
  10  -4  -4   13.63    2.87
  10  -4  -4    5.20    1.99
  10  -4  -4    8.97    1.85
 -10  -4   4    8.40    2.43
  10  -4  -3    5.13    2.15
  10  -4  -3    4.02    2.29
  10  -4  -3    3.69    1.62
 -10  -4   3    6.41    2.20
  10  -4  -2   -0.36    1.74
  10  -4  -2    0.62    1.39
 -10  -4   2    1.31    1.93
 -10   4   2    1.97    2.05
  10  -4  -1   24.78    2.96
  10  -4  -1   20.06    2.57
 -10  -4   1   17.19    3.05
 -10   4   1   26.26    3.38
  10  -4   0  103.75    6.60
 -10  -4   0  124.37    7.60
  10  -4   0  129.20    7.10
 -10   4   0  111.64    7.43
 -10  -4  -1    0.48    2.18
 -10   4  -1    0.94    1.96
  10  -4   1    1.83    1.87
 -10   4  -2   45.08    4.77
  10  -4   2   47.65    3.97
 -10  -4  -2   42.54    4.33
 -10   4  -2   36.88    4.01
  10   4   3   10.32    2.42
 -10   4  -3   12.69    3.03
  10   4   3   14.99    1.84
 -10  -4  -3   16.31    3.15
  10  -4   3   18.84    2.67
 -10   4  -3   16.21    2.84
 -10  -4  -4    0.75    1.78
 -10   4  -4    7.75    2.59
 -10  -4  -4    0.53    2.33
  10  -4   4    2.96    1.94
 -10   4  -4    1.75    1.94
 -10  -4  -5    0.40    1.87
 -10   4  -5    0.56    2.37
 -10  -4  -5    0.54    2.40
  10  -4   5   -0.38    1.79
 -10   4  -5    3.82    2.15
 -10  -4  -6   52.26    4.51
 -10   4  -6   51.86    5.07
 -10  -4  -6   49.05    4.92
 -10   4  -6   46.85    4.30
 -10  -4  -7    0.44    2.01
 -10   4  -7   -1.13    2.65
 -10  -4  -7    1.72    2.61
 -10   4  -7   -1.58    1.80
 -10  -4  -8   49.52    4.58
 -10   4  -8   56.00    5.36
 -10  -4  -8   59.05    5.49
 -10   4  -8   45.67    4.17
 -10  -4  -9    0.95    2.22
  10  -4   9   -0.58    2.40
 -10   4  -9    5.17    3.04
 -10  -4  -9   -0.61    2.49
 -10  -4 -10   40.45    4.53
 -10   4 -10   41.00    4.92
 -10  -4 -11   18.98    3.42
 -10   4 -11   17.36    3.53
 -10   4 -12   60.06    5.81
  10   5 -16    1.63    2.82
  10   5 -15   25.73    4.10
  10   5 -14   -0.52    2.51
  10  -5 -13   12.65    3.58
  10   5 -13   13.86    3.28
  10  -5 -12   -0.58    2.79
  10   5 -12   -0.51    2.62
  10  -5 -11   22.17    3.98
  10   5 -11   13.99    3.18
  10  -5 -10    1.12    2.58
  10   5 -10   -0.49    2.50
  10  -5  -9   -1.09    2.57
  10   5  -9    0.49    2.25
  10  -5  -8    4.11    2.21
 -10  -5   8   -1.37    1.82
  10  -5  -8   -1.58    2.29
  10   5  -8    3.49    2.55
  10   5  -7   15.74    3.11
  10  -5  -7    5.36    2.32
 -10  -5   7   10.50    2.44
  10  -5  -7   10.84    2.94
  10   5  -6    1.89    2.34
  10  -5  -6    2.20    1.97
 -10  -5   6    1.90    1.90
  10  -5  -6   -1.54    2.24
  10  -5  -5   11.43    2.72
  10   5  -5   11.37    2.76
 -10  -5   5   14.86    2.66
  10  -5  -5   12.45    3.04
  10  -5  -4    0.44    2.01
 -10  -5   4   -0.83    1.90
  10  -5  -4    0.50    2.22
  10  -5  -3   35.97    4.11
  10  -5  -3   34.56    3.83
 -10  -5   3   38.83    3.91
  10  -5  -2   -0.43    1.98
  10  -5  -2    5.38    2.48
  10   5  -2    1.35    0.92
 -10  -5   2   -0.44    2.21
  10  -5  -1   37.30    3.96
  10  -5  -1   42.30    4.42
  10   5  -1   35.96    2.24
 -10  -5   1   47.13    4.36
 -10  -5   0   10.93    2.85
  10  -5   0   11.48    2.64
 -10  -5  -1   34.83    3.98
  10  -5   1   39.30    4.03
  10  -5   2    0.32    1.69
 -10  -5  -2    2.03    2.24
  10  -5   2    3.45    2.26
 -10  -5  -3   80.44    6.20
  10  -5   3   77.05    5.77
 -10  -5  -4    5.69    2.03
  10  -5   4    2.39    2.41
 -10  -5  -4    4.31    2.61
  10  -5   4    2.16    1.99
 -10  -5  -5   76.55    5.47
  10  -5   5   71.79    6.30
 -10  -5  -5   72.27    6.16
  10  -5   5   87.78    5.97
 -10  -5  -6    4.38    2.13
  10  -5   6    1.80    2.58
 -10   5  -6    5.14    2.74
 -10  -5  -6    6.88    2.88
 -10  -5  -7  116.95    7.08
 -10   5  -7  108.22    7.81
 -10  -5  -7  113.44    7.86
 -10  -5  -8   12.86    3.00
 -10   5  -8   15.46    3.49
 -10  -5  -8   13.99    3.36
 -10  -5  -9    6.92    2.80
 -10   5  -9    9.71    3.24
 -10  -5 -10    4.32    2.80
 -10   5 -10   -1.14    2.62
 -10  -5 -11   -0.50    2.65
 -10   5 -11   -1.70    2.77
  10   6 -14    4.32    2.83
  10   6 -13   -0.94    2.42
  10  -6 -12   15.62    3.54
  10   6 -12   15.83    3.14
  10  -6 -11    3.37    2.88
  10   6 -11    2.80    2.42
  10  -6 -10   13.06    3.31
  10   6 -10   11.47    2.93
  10  -6  -9   -0.52    2.81
  10  -6  -9    6.96    2.97
  10   6  -9    1.36    2.44
  10  -6  -8   27.08    3.90
  10  -6  -8   40.37    4.58
  10   6  -8   32.03    3.91
  10  -6  -7    4.01    2.46
  10  -6  -7    3.56    2.28
  10   6  -7    0.46    2.19
  10   6  -6   33.47    3.83
  10  -6  -6   25.25    3.80
 -10  -6   6   30.74    3.40
  10  -6  -6   25.27    3.75
  10   6  -5   -0.90    2.37
  10  -6  -5    0.50    2.33
 -10  -6   5    1.98    1.96
  10  -6  -5    0.49    2.40
  10  -6  -4   13.85    2.99
 -10  -6   4   14.42    2.78
  10  -6  -4    7.82    2.70
  10  -6  -3   -0.49    2.43
 -10  -6   3   -1.30    2.05
  10  -6  -3   -3.45    2.39
  10  -6  -2  205.43   11.28
 -10  -6   2  201.84   10.98
  10  -6  -2  206.64   11.30
  10  -6  -1    8.29    2.98
  10  -6  -1   11.33    2.85
 -10  -6   1    7.97    2.74
  10  -6   0    2.83    2.34
  10  -6   0    3.69    2.06
 -10  -6   0    0.49    2.30
  10  -6   0   -0.49    2.40
  10  -6   1   -0.95    2.30
  10  -6   1    0.39    1.91
 -10  -6  -1   -1.51    2.66
  10  -6   1    0.99    2.51
 -10  -6  -2    2.40    2.41
 -10  -6  -2    2.08    2.40
  10  -6   2    9.39    2.69
 -10  -6  -3   -0.47    2.31
 -10  -6  -3   -2.15    2.48
  10  -6   3    2.48    2.63
 -10  -6  -4   70.43    5.45
  10  -6   4   58.47    5.90
  10  -6   4   62.40    5.56
 -10  -6  -5    3.93    2.44
  10  -6   5    0.63    2.53
 -10  -6  -5   -2.29    3.12
  10  -6   5    0.98    2.50
 -10  -6  -6    4.22    2.34
 -10  -6  -6    1.18    2.64
  10  -6   6   -1.00    2.53
 -10  -6  -7   13.79    2.83
 -10  -6  -8   -1.16    2.27
  10  -7 -10   -1.07    2.67
  10  -7  -9    2.07    2.56
  10   7  -9   -0.82    2.15
  10  -7  -8    3.38    2.98
  10  -7  -8    7.54    2.77
  10   7  -8    7.38    2.50
  10  -7  -7   10.10    3.05
  10  -7  -7    6.94    2.80
  10   7  -7   12.56    2.94
  10  -7  -6    5.06    2.91
  10  -7  -6   -1.45    2.54
  10   7  -6   -2.57    2.22
  10   7  -5    2.54    2.33
  10  -7  -5    7.84    3.05
  10  -7  -5    1.41    2.42
  10  -7  -4    2.21    2.76
  10   7  -4    0.43    2.28
 -10  -7   4    1.24    2.34
  10  -7  -4   -0.92    2.33
  10  -7  -3   40.41    4.54
  10  -7  -3   35.14    4.36
 -10  -7   3   34.09    3.91
  10  -7  -3   40.14    4.39
  10  -7  -2    2.20    2.50
  10  -7  -2   -1.00    2.53
 -10  -7   2   -0.46    2.35
  10  -7  -2   -1.37    2.36
  10  -7  -1   50.43    5.15
 -10  -7   1   45.07    5.01
  10  -7  -1   59.03    5.11
 -10  -7   1   41.58    4.61
  10  -7  -1   60.93    5.21
  10  -7   0   -1.77    2.37
 -10  -7   0    0.55    2.79
 -10  -7   0   -1.49    2.41
  10  -7   0    1.35    2.42
  10  -7   0   -1.10    2.69
 -10  -7  -1   79.51    6.45
  10  -7   1   92.31    6.35
 -10  -7  -1   71.71    6.20
  10  -7   1   82.86    6.65
 -10  -7  -2    5.77    2.69
 -10  -7  -2    4.27    2.83
  10  -7   2   -0.55    3.05
 -10  -7  -3   46.06    4.93
 -10  -7  -3   48.11    5.06
  10  -7   3   45.47    4.99
 -10  -7  -4    2.99    2.53
  10  -7   4    6.60    2.91
 -10  -7  -5   18.43    3.44
  10  -7   5   23.58    3.93
 -10  -7  -6    2.82    2.68
  10  -7   6    6.04    3.08
 -10  -7  -7   90.08    6.60
  10  -8  -4   10.53    3.27
  10  -8  -3    0.55    2.61
  10  -8  -2    5.25    2.81
 -10  -8   1    0.97    2.49
 -10  -8   0   33.41    4.22
 -10  -8  -1    1.05    2.81
 -11   0  17   22.77    3.77
 -11   0  16   -0.50    2.54
 -11   0  15    7.53    2.90
  11   0 -14    0.64    2.87
 -11   0  14    1.01    2.36
 -11   0  13    0.51    2.21
 -11   0  12   -1.01    2.34
 -11   0  11  103.70    7.23
 -11   0  10    0.50    2.13
 -11   0   9   74.29    5.92
 -11   0   8   -1.01    2.07
 -11   0   7  193.23   10.75
 -11   0   7  186.82   10.71
 -11   0   6   -1.02    2.01
  11   0  -6   -1.68    2.25
 -11   0   6    0.49    1.97
 -11   0   5    6.14    2.40
 -11   0   5    3.96    2.35
 -11   0   4    0.51    2.05
 -11   0   4   -2.01    2.16
 -11   0   3   30.03    3.85
 -11   0   3   46.30    4.57
  11   0  -2    0.39    1.83
 -11   0   2    1.54    2.30
  11   0  -1  117.27    7.07
 -11   0   1  124.88    8.03
 -11   0   0    0.52    2.04
  11   0   0   -0.34    1.77
 -11   0  -1   -1.06    2.21
  11   0   1   -0.32    1.60
 -11   0  -2   -0.54    2.28
  11   0   3   33.70    3.85
 -11   0  -3   40.05    4.44
  11   0   4   -0.46    2.02
 -11   0  -4   -1.12    2.09
  11   0   5   65.84    5.06
 -11   0  -5   53.23    5.27
  11   0   6    3.16    2.27
  11   0   7   -0.46    2.28
  11   0   8   -1.39    2.10
 -11   0  -8   -2.44    2.62
 -11   0  -9  139.46    9.08
  11   0   9  136.23    8.51
 -11   0  -9  148.65    9.54
 -11   0 -10   -0.57    2.43
 -11   0 -10   -0.63    2.79
 -11   0 -11    2.11    1.86
 -11   0 -12   -0.81    2.00
  11  -1 -17    0.47    2.50
 -11  -1  17   -0.48    2.46
 -11   1  16   64.29    5.63
 -11  -1  16   47.34    4.96
 -11   1  15    1.56    2.57
 -11  -1  15   -0.99    2.47
  11  -1 -14    3.22    3.13
  11   1 -14    3.16    3.21
 -11   1  14    4.16    2.46
 -11  -1  14    6.94    2.75
  11  -1 -13    4.42    2.91
  11   1 -13    3.07    2.87
 -11   1  13    1.04    2.35
 -11  -1  13    0.50    2.29
  11  -1 -12   -2.44    2.78
  11   1 -12    1.19    2.55
 -11   1  12    1.04    2.19
 -11  -1  12    1.00    2.11
  11  -1 -11    0.60    2.56
  11   1 -11    4.69    2.73
 -11   1  11   -1.04    2.36
 -11  -1  11    1.00    2.15
  11  -1 -10  155.85    9.70
  11   1 -10  156.86    9.65
 -11   1  10  147.47    9.13
 -11  -1  10  145.99    9.10
 -11  -1   9   -0.51    2.05
  11  -1  -9    2.38    2.47
  11   1  -9    1.17    2.77
 -11   1   9   -1.54    2.31
 -11  -1   8   75.53    5.62
  11  -1  -8   68.59    6.12
  11   1  -8   71.60    6.11
 -11   1   8   67.09    5.72
 -11  -1   8   67.77    5.66
  11  -1  -7    0.57    2.40
  11   1  -7    1.11    2.39
 -11  -1   7    0.46    2.05
 -11   1   7    1.02    2.13
 -11   1   6   83.18    6.23
 -11  -1   6   78.75    5.96
  11  -1  -6   80.34    6.44
  11   1  -6   85.62    6.43
 -11   1   6   75.13    5.96
  11  -1  -5   16.92    3.41
 -11   1   5   11.84    2.79
 -11  -1   5   12.50    2.76
 -11   1   5   11.68    2.71
 -11   1   4  251.19   13.13
 -11  -1   4  234.56   12.79
 -11   1   4  249.19   12.98
 -11   1   3    5.74    2.51
 -11  -1   3    6.90    2.40
  11  -1  -2   10.24    2.37
 -11   1   2    7.41    2.60
 -11  -1   2   13.97    2.87
  11  -1  -1   17.24    2.54
 -11   1   1   14.44    3.07
 -11  -1   1   20.26    3.30
  11   1  -1   15.99    2.68
 -11   1   1   17.54    3.05
  11  -1   0   60.21    4.24
  11   1   0   58.08    4.44
 -11  -1   0   45.73    4.70
 -11   1   0   43.72    4.62
 -11   1   0   50.35    4.68
 -11   1  -1   19.82    3.21
  11   1   1   26.93    2.99
 -11   1  -1   19.05    3.50
 -11  -1  -1   26.17    3.57
 -11   1  -2   -1.96    2.29
 -11   1  -2    1.10    2.30
 -11  -1  -2   -1.07    2.12
 -11   1  -3    1.94    2.06
  11   1   3    3.28    2.17
 -11   1  -3    3.91    2.58
 -11  -1  -3    0.55    2.14
 -11   1  -4    0.96    2.26
  11  -1   4   -1.50    2.12
  11   1   4    1.62    1.96
 -11   1  -4   -1.14    2.62
 -11  -1  -4    5.57    2.47
 -11   1  -5    5.17    2.33
  11  -1   5   -0.50    2.42
  11   1   5    3.22    2.02
 -11  -1  -5   -0.57    2.25
 -11   1  -6    2.76    2.15
  11  -1   6    4.94    2.42
  11   1   6    0.41    1.95
 -11  -1  -6    3.48    2.67
 -11   1  -7    3.14    2.12
  11  -1   7    4.48    2.36
  11   1   7    5.74    2.38
 -11   1  -7    1.79    2.40
 -11  -1  -7    2.95    2.58
 -11  -1  -8   27.98    4.06
  11  -1   8   27.34    3.96
  11   1   8   29.77    3.54
 -11   1  -8   42.96    4.88
 -11   1  -8   31.83    3.68
 -11  -1  -9   14.14    3.30
  11  -1   9   16.28    3.14
 -11   1  -9   21.50    4.07
 -11   1  -9   10.56    2.67
 -11  -1 -10    1.69    2.35
  11  -1  10    8.73    2.80
 -11   1 -10    2.49    2.91
 -11   1 -10    4.89    2.35
 -11   1 -11    5.46    2.07
 -11   1 -12   19.73    2.97
  11  -2 -16    4.21    2.56
 -11  -2  16    0.96    2.48
 -11  -2  15    1.45    2.34
  11   2 -14    0.62    2.63
 -11   2  14    1.07    2.46
 -11  -2  14   -1.47    2.42
  11  -2 -13  149.34    9.58
  11   2 -13  139.33    9.21
 -11   2  13  126.76    8.53
 -11  -2  13  128.03    8.36
 -11  -2  12   -0.50    2.25
  11  -2 -12   -0.62    2.66
  11   2 -12    3.52    2.74
 -11   2  12    0.54    2.23
 -11  -2  11    4.56    2.40
  11  -2 -11    0.60    2.77
  11   2 -11   -0.58    2.93
 -11   2  11    3.72    2.55
  11   2 -10   -1.56    1.60
  11  -2 -10    3.55    2.76
  11   2 -10   -3.45    2.43
 -11   2  10   -0.53    2.13
  11   2  -9    6.28    1.92
 -11  -2   9    4.25    2.17
  11  -2  -9    7.07    2.90
 -11   2   9    5.80    2.60
  11   2  -9    7.52    2.85
  11   2  -8   -0.56    2.46
  11   2  -8    0.32    1.56
 -11  -2   8    3.04    1.98
  11  -2  -8    3.59    2.65
 -11   2   8   -0.53    2.19
  11   2  -7   11.54    3.05
  11   2  -7    9.82    2.04
 -11  -2   7   12.05    2.72
 -11   2   7    9.45    2.61
  11  -2  -7   13.79    3.24
  11  -2  -6    3.39    2.53
  11   2  -6    4.95    2.40
  11   2  -6    0.95    1.54
 -11  -2   6    0.92    2.03
 -11   2   6   -1.56    2.09
  11   2  -5   56.51    4.19
 -11  -2   5   54.50    4.92
  11  -2  -5   53.91    5.21
 -11   2   5   50.67    4.91
  11  -2  -4    0.56    2.39
  11   2  -4   -0.99    1.63
 -11   2   4    1.08    2.06
 -11  -2   4    0.47    1.94
 -11   2   4    2.57    2.14
  11   2  -3  106.83    6.39
 -11   2   3  109.77    7.44
 -11  -2   3   92.48    6.74
  11  -2  -2   10.84    1.78
  11  -2  -2   16.13    2.63
 -11   2   2   13.04    2.89
 -11  -2   2   12.72    2.83
  11  -2  -1  163.56    8.71
 -11   2   1  152.91    9.66
 -11  -2   1  154.24    9.33
  11  -2  -1  158.28    7.77
 -11   2   1  165.60    9.56
  11  -2   0    0.86    1.31
  11   2   0    0.39    1.82
 -11   2   0    3.87    2.61
 -11  -2   0   -0.51    2.13
 -11   2   0   -1.49    2.10
  11   2   1  273.21   13.47
 -11   2  -1  278.52   14.70
 -11  -2  -1  294.85   14.55
  11  -2   1  273.05   12.45
 -11   2  -1  270.49   14.10
  11  -2   2   18.45    2.17
  11   2   2   19.27    2.67
 -11   2  -2   22.13    3.68
 -11  -2  -2   18.07    3.46
 -11   2  -2   21.31    3.25
  11   2   3  243.10   11.71
 -11  -2  -3  208.92   12.45
 -11   2  -3  243.06   12.47
  11  -2   4    0.54    2.35
  11   2   4   -0.69    1.79
 -11  -2  -4    0.55    2.37
 -11   2  -4   -0.47    2.04
  11  -2   5  103.45    7.37
  11   2   5  114.63    6.57
 -11   2  -5   97.96    7.61
 -11  -2  -5   99.69    7.49
 -11   2  -5  112.73    7.17
  11  -2   6    5.92    2.80
  11   2   6    4.56    1.85
 -11   2  -6    6.54    2.75
 -11  -2  -6   10.48    3.03
 -11   2  -6    7.15    2.35
 -11  -2  -7   84.42    5.99
  11  -2   7   54.60    5.48
  11   2   7   59.47    4.66
 -11   2  -7   65.02    6.04
 -11  -2  -7   75.27    6.28
 -11   2  -7   60.45    5.03
 -11  -2  -8   -1.03    2.52
  11  -2   8    1.09    2.40
 -11   2  -8   -0.61    2.95
 -11  -2  -8    0.61    2.38
 -11   2  -8    1.27    2.02
 -11  -2  -9   60.15    5.76
  11  -2   9   60.42    5.60
 -11   2  -9   72.21    6.21
 -11   2  -9   64.72    5.07
 -11  -2 -10   -0.55    2.28
  11  -2  10   -1.10    2.36
 -11   2 -10   -2.49    3.06
 -11   2 -10    1.17    1.89
 -11   2 -11    2.61    1.81
 -11  -3  15    0.48    2.47
 -11  -3  14   13.27    3.04
  11   3 -14   15.18    3.73
 -11  -3  13   -1.00    2.46
  11   3 -13   -2.38    2.92
  11  -3 -12    0.63    2.88
  11   3 -12    1.15    2.69
  11  -3 -11    0.61    2.61
  11   3 -11    1.70    2.43
 -11   3  11   -2.19    2.53
  11  -3 -10  220.17   12.86
  11   3 -10  236.03   12.89
 -11   3  10  240.79   12.86
 -11  -3   9    0.40    1.91
  11  -3  -9    1.17    2.55
 -11   3   9   -1.64    2.34
  11   3  -9   -1.72    2.88
 -11  -3   8   31.16    3.56
  11  -3  -8   28.59    4.21
 -11   3   8   29.87    3.96
  11   3  -8   27.48    4.02
  11   3  -7    1.62    2.59
  11   3  -7   -0.53    1.43
 -11  -3   7   -1.73    2.02
 -11   3   7    1.08    2.35
  11  -3  -7    1.18    2.64
  11  -3  -6   47.15    5.02
  11   3  -6   38.42    4.58
  11   3  -6   42.96    3.37
 -11  -3   6   38.52    4.09
 -11   3   6   32.03    4.08
  11  -3  -5   19.05    3.60
  11   3  -5   14.16    2.14
 -11  -3   5   15.88    2.98
 -11   3   5   12.72    3.07
  11   3  -4  141.07    8.06
 -11  -3   4  152.72    9.15
  11  -3  -4  175.82   10.09
  11  -3  -4  173.83    8.49
  11  -3  -3    4.14    1.83
 -11  -3   3    5.21    2.58
  11  -3  -2    3.26    1.73
 -11  -3   2    4.88    2.48
 -11   3   2    5.70    2.55
  11  -3  -1   -0.88    1.69
 -11   3   1   -1.13    2.40
 -11  -3   1    3.49    2.21
 -11   3   1    0.51    2.13
 -11   3   0   69.30    6.04
 -11  -3   0   69.06    5.67
  11  -3   0   81.03    4.83
  11  -3   1    3.49    1.77
  11   3   1    2.07    1.58
 -11  -3  -1    2.07    2.42
 -11   3  -1   -1.50    2.14
  11   3   2    1.71    1.62
 -11  -3  -2   -1.59    2.38
 -11   3  -2   -1.47    2.04
  11  -3   2    0.29    1.62
  11   3   3    4.84    1.78
 -11  -3  -3    3.82    2.38
 -11   3  -3    2.40    1.98
  11  -3   3    6.07    1.92
  11  -3   4    0.58    2.48
  11   3   4    4.55    1.66
 -11   3  -4   -1.18    2.46
 -11  -3  -4    5.04    2.75
  11  -3   4    4.02    1.81
 -11   3  -4    3.76    2.36
  11  -3   5    6.96    2.59
 -11   3  -5   11.95    3.30
  11   3   5   10.54    2.12
 -11  -3  -5    6.32    2.87
 -11   3  -5    9.15    2.58
 -11  -3  -6   -0.46    2.45
  11  -3   6    2.88    2.35
 -11   3  -6    1.81    2.56
 -11  -3  -6    0.59    2.56
 -11   3  -6    3.56    2.20
 -11  -3  -7    1.44    2.33
  11  -3   7    1.71    2.56
 -11   3  -7   -0.61    2.66
 -11  -3  -7    0.60    2.75
 -11   3  -7    1.29    2.16
 -11  -3  -8   15.02    3.10
  11  -3   8   11.52    3.25
 -11   3  -8   13.55    3.44
 -11  -3  -8   21.72    3.96
 -11   3  -8   17.36    2.80
 -11  -3  -9    0.52    2.54
 -11   3  -9   -0.62    3.08
 -11   3  -9   -0.40    1.97
 -11  -3 -10   24.62    3.84
 -11   3 -10   14.78    2.68
 -11   3 -11   10.02    2.40
 -11  -4  15   10.70    3.05
 -11  -4  14   -2.99    2.91
  11   4 -14   -1.17    2.69
  11   4 -13   -1.16    2.94
  11   4 -12    0.57    2.96
  11  -4 -11   17.75    3.93
  11   4 -11   20.94    3.81
  11  -4 -10    5.36    3.05
  11   4 -10    1.65    2.50
  11  -4  -9   60.37    5.65
  11   4  -9   65.83    5.77
 -11  -4   9   47.25    4.36
 -11  -4   8    0.40    2.07
  11  -4  -8   -1.15    2.65
  11   4  -8   -0.54    2.74
  11   4  -7   60.49    5.44
 -11  -4   7   43.67    4.44
 -11   4   7   64.97    5.55
  11  -4  -7   51.60    5.31
  11   4  -6    0.53    2.40
  11  -4  -6    0.76    1.98
 -11  -4   6    2.15    2.09
 -11   4   6    3.86    2.48
  11  -4  -6    1.16    2.59
  11  -4  -5    3.36    2.00
 -11  -4   5    5.78    2.31
  11  -4  -5    6.71    2.87
  11  -4  -4    1.10    2.37
  11  -4  -4   -0.37    1.74
 -11  -4   4    2.75    2.35
  11  -4  -3   10.46    3.00
  11  -4  -3    9.20    2.39
 -11  -4   3   10.96    2.90
 -11   4   3   13.45    3.04
  11  -4  -2    0.37    1.97
  11  -4  -2    0.55    2.55
 -11  -4   2    3.40    2.30
 -11   4   2    3.72    2.32
  11   4  -1  104.50    5.98
 -11  -4   1  111.12    7.54
  11  -4  -1  119.65    7.06
 -11   4   1  125.48    7.91
  11  -4   0    0.72    1.95
  11   4   0    0.66    1.24
 -11  -4   0   -1.02    2.40
 -11   4   0    2.59    2.35
  11  -4   1    1.45    2.03
  11   4   1    0.42    1.30
 -11  -4  -1   -0.52    2.32
 -11   4  -1    1.02    2.18
 -11   4  -2   15.43    3.43
  11   4   2   14.77    1.91
 -11  -4  -2   18.32    3.31
 -11   4  -2   16.93    3.11
  11  -4   2   14.71    2.64
 -11   4  -3   22.64    3.89
 -11  -4  -3   24.26    3.82
 -11   4  -3   24.80    3.55
  11  -4   3   21.01    3.13
  11  -4   4    1.22    2.71
 -11   4  -4    0.60    2.49
 -11  -4  -4    0.57    2.62
 -11   4  -4   -0.95    2.00
  11  -4   4   -0.38    2.12
  11  -4   5   30.13    4.23
 -11   4  -5   30.06    4.52
  11  -4   5   46.02    3.94
 -11  -4  -5   29.80    4.27
 -11   4  -5   33.99    3.87
 -11  -4  -6   18.71    3.21
  11  -4   6   14.05    3.33
 -11   4  -6   20.03    3.85
 -11  -4  -6   25.21    3.99
 -11   4  -6   11.54    2.87
 -11  -4  -7    6.05    2.58
 -11   4  -7    1.22    2.82
 -11   4  -7    5.13    2.36
 -11  -4  -8    4.35    2.73
 -11   4  -8   -1.23    2.75
 -11   4  -8    2.86    2.10
 -11  -4  -9   69.77    5.92
  11   5 -14   14.36    3.67
  11   5 -13    1.65    2.93
  11   5 -12   -1.63    2.75
  11   5 -11   -0.53    2.85
  11  -5 -10  119.64    8.37
  11   5 -10  107.84    7.77
  11  -5  -9    2.32    2.95
  11   5  -9    0.53    2.52
  11  -5  -8    5.09    3.03
  11   5  -8    9.07    3.20
  11   5  -7   -0.52    2.73
  11  -5  -7    1.80    2.23
 -11  -5   7   -0.40    2.10
  11  -5  -7   -0.56    2.71
  11   5  -6   24.65    3.71
  11  -5  -6   26.01    3.54
 -11  -5   6   18.51    3.18
  11  -5  -6   24.54    3.86
  11   5  -5   12.93    3.14
  11  -5  -5    3.93    2.07
 -11  -5   5   12.69    2.93
  11  -5  -5   16.37    3.45
  11  -5  -4   61.98    5.60
 -11  -5   4   63.32    5.21
  11  -5  -4   53.43    4.90
  11  -5  -3    1.08    2.77
  11  -5  -3    0.87    2.09
 -11  -5   3    2.84    2.32
  11  -5  -2   14.16    2.84
  11  -5  -2   13.97    3.32
 -11  -5   2   17.92    3.19
  11  -5  -1    7.72    2.44
  11  -5  -1    8.64    3.04
 -11  -5   1    7.50    2.58
  11  -5   0   31.42    3.78
 -11  -5   0   24.83    3.81
 -11  -5  -1   15.41    3.15
  11  -5   1    6.91    2.69
 -11  -5  -2    3.83    2.75
  11  -5   2    1.31    2.25
 -11  -5  -3    5.07    2.74
  11  -5   3    4.85    2.52
 -11  -5  -4    5.80    2.91
  11  -5   4    2.23    2.31
 -11  -5  -5    0.60    2.92
  11  -5   5    6.20    2.65
 -11  -5  -6    5.08    2.40
 -11  -5  -7    1.78    2.54
 -11  -5  -8    5.57    2.76
 -11  -5  -9    0.97    2.75
  11   6 -13   41.29    4.79
  11   6 -12    4.03    2.82
  11   6 -11   11.52    3.34
  11   6 -10    2.95    2.85
  11  -6  -9    2.87    2.84
  11   6  -9    2.46    2.46
  11  -6  -8    8.22    2.84
  11  -6  -8   12.34    3.55
  11   6  -8    6.47    2.80
  11  -6  -7    6.07    2.76
  11  -6  -7    4.36    2.68
  11   6  -7    8.00    2.71
  11   6  -6   18.21    3.27
  11  -6  -6   14.99    3.17
  11  -6  -6    8.58    3.07
  11   6  -5   50.28    4.93
  11  -6  -5   40.89    4.69
 -11  -6   5   42.96    4.46
  11  -6  -5   49.62    5.14
  11  -6  -4    5.51    2.81
 -11  -6   4    2.73    2.64
  11  -6  -4    6.40    2.86
  11  -6  -3   71.10    6.02
 -11  -6   3   60.20    5.47
  11  -6  -3   66.69    5.67
  11  -6  -2    2.96    2.59
 -11  -6   2    1.95    2.31
  11  -6  -2    6.29    2.96
 -11  -6   1   86.75    6.57
  11  -6  -1   83.91    6.60
  11  -6  -1   87.08    6.50
  11  -6   0    0.49    2.51
  11  -6   0    5.69    2.92
 -11  -6   0   -1.04    2.56
 -11  -6  -1  115.89    7.80
  11  -6   1  126.25    8.04
 -11  -6  -2    8.38    2.97
  11  -6   2    7.54    2.90
 -11  -6  -3   94.29    7.17
  11  -6   3   90.98    6.87
  11  -6   4    1.01    2.86
  11  -6   5   47.09    4.91
  11  -7  -7   -0.53    2.88
  11   7  -7    2.75    2.47
  11  -7  -6    2.08    2.78
  11   7  -6    6.99    2.90
  11   7  -5    0.92    2.58
  11  -7  -5    2.82    3.01
  11  -7  -5   -3.05    3.08
  11   7  -4   43.88    4.57
  11  -7  -4   45.59    5.14
  11  -7  -4   47.55    4.87
  11  -7  -3    8.92    3.16
  11  -7  -3    6.23    2.83
  11  -7  -3    3.49    2.65
  11  -7  -2   -1.67    2.82
 -11  -7   2   -0.49    2.60
  11  -7  -2   -0.50    2.69
  11  -7  -1   -1.67    2.97
 -11  -7   1    6.13    2.76
  11  -7   0   22.22    3.82
 -11  -7   0   23.37    3.89
  11  -7   1    8.91    3.05
  11  -7   2    2.80    2.85
 -12   0  13   -2.72    2.60
 -12   0  12   23.86    3.79
 -12   0  11    2.17    2.63
 -12   0  10   60.83    5.55
 -12   0   9    1.63    2.47
 -12   0   8  120.35    8.09
 -12   0   7   -2.10    2.58
 -12   0   7   -0.55    2.45
 -12   0   6   50.87    4.95
 -12   0   6   49.72    4.89
 -12   0   5   -1.64    2.42
  12   0  -5   -1.84    2.90
 -12   0   5    0.54    2.27
 -12   0   4   50.60    5.04
 -12   0   4   54.22    5.16
 -12   0   3    1.66    2.26
 -12   0   3    0.55    2.44
 -12   0   2    7.82    2.66
 -12   0   1   -1.69    2.23
 -12   0   0   18.60    3.46
 -12   0   0   20.54    3.65
 -12   0  -1    0.58    2.44
 -12   0  -2    5.28    2.57
  12   0   3   -1.48    2.61
 -12   0  -3    0.60    2.60
  12   0   4    5.40    2.60
 -12   0  -4    2.42    2.52
  12   0   5   -1.45    2.11
 -12   0  -5   -0.62    2.44
  12   0   6    0.97    2.33
 -12   0  -7   -3.03    2.75
  12   0   7   -1.97    2.47
 -12   0  -8   45.81    4.76
  12   0   8   51.67    4.77
 -12   0  -9   -0.48    2.49
  12   0   9   -0.49    2.39
 -12   0 -10   -0.46    2.22
 -12   0 -11   -0.45    2.29
 -12  -1  13   -0.53    2.42
 -12   1  12    3.32    2.72
 -12  -1  12    2.67    2.56
  12  -1 -11   -0.63    2.76
  12   1 -11   -0.62    2.83
 -12   1  11    0.55    2.49
 -12  -1  11    3.76    2.51
  12  -1 -10    4.44    3.01
  12   1 -10    6.85    3.13
 -12   1  10    3.88    2.49
 -12  -1  10    5.94    2.75
 -12  -1   9    1.09    2.44
  12  -1  -9   -0.64    2.74
  12   1  -9   -0.63    2.78
 -12   1   9   -1.66    2.37
  12   1  -8   -0.61    2.77
 -12  -1   8    0.55    2.43
 -12  -1   8    0.99    2.34
 -12   1   8   -0.55    2.51
  12  -1  -8    0.63    2.61
 -12  -1   7    0.55    2.26
  12  -1  -7   -3.08    2.76
  12   1  -7   -0.60    2.55
 -12  -1   7    5.03    2.58
 -12   1   7    4.95    2.76
 -12  -1   6    1.65    2.40
  12  -1  -6   -1.83    2.67
  12   1  -6    0.60    2.55
 -12  -1   6    3.07    2.45
 -12   1   6    3.29    2.46
  12  -1  -5   31.93    4.53
 -12   1   5   30.02    4.03
 -12  -1   5   25.60    3.68
 -12   1   5   32.79    4.11
 -12   1   4   -2.23    2.25
 -12  -1   4    1.59    2.57
 -12   1   4    1.64    2.16
 -12   1   3   16.92    3.53
 -12  -1   3   15.06    3.30
 -12   1   2   16.49    3.28
 -12  -1   2   17.42    3.35
 -12   1   1  111.99    8.04
 -12  -1   1  111.50    7.77
 -12   1   1  113.97    7.67
 -12   1   0    0.58    2.35
 -12  -1   0    0.56    2.44
 -12   1   0    0.54    2.23
 -12   1  -1  126.61    8.67
 -12  -1  -1  130.89    8.61
 -12   1  -1  124.58    8.18
  12   1   2   -0.89    2.02
 -12   1  -2   -0.60    2.53
 -12  -1  -2   -1.16    2.45
 -12   1  -2   -2.11    2.46
  12  -1   3   22.01    3.60
  12   1   3   21.63    3.20
 -12   1  -3   29.05    4.35
 -12  -1  -3   27.76    4.06
 -12   1  -3   23.41    3.59
  12  -1   4   11.33    2.92
  12   1   4   12.17    2.85
 -12   1  -4    3.69    2.79
 -12  -1  -4   12.08    3.19
 -12   1  -4   19.99    3.28
  12  -1   5   84.42    6.47
  12   1   5   80.64    5.96
 -12  -1  -5   71.73    6.65
 -12   1  -5   80.06    6.22
  12  -1   6    0.53    2.34
  12   1   6   -0.44    2.12
 -12  -1  -6    0.63    2.76
 -12   1  -6    2.95    2.36
  12  -1   7    2.67    2.50
  12   1   7    4.81    2.12
 -12   1  -7   -2.40    2.16
  12  -1   8    0.54    2.35
  12   1   8    3.94    2.12
 -12   1  -8   -0.47    2.24
 -12   1  -9    0.45    2.27
 -12   1 -10    2.61    2.37
 -12   1 -11   15.46    2.96
 -12  -2  13    5.30    2.84
 -12  -2  12    4.28    2.63
 -12  -2  11    2.71    2.56
  12   2 -11    6.14    3.15
 -12   2  11   -0.57    2.47
 -12  -2  10   20.25    3.59
  12  -2 -10   20.24    3.99
  12   2 -10   19.63    3.84
 -12   2  10   24.29    3.87
 -12  -2   9    2.31    2.29
  12  -2  -9    0.63    2.83
 -12   2   9    0.56    2.64
  12   2  -9   -0.62    2.90
  12  -2  -8  381.92   18.54
 -12  -2   8  320.96   17.02
  12   2  -8  377.09   18.24
 -12   2   8  353.85   17.79
  12   2  -7    0.59    2.74
 -12  -2   7    4.37    2.54
 -12   2   7    2.82    2.53
  12  -2  -7   -0.62    2.71
  12  -2  -6    4.90    3.11
  12   2  -6    8.34    3.18
 -12  -2   6    2.49    2.48
 -12   2   6    5.62    2.70
  12  -2  -5   -1.83    2.99
 -12  -2   5    1.53    2.38
 -12   2   5    3.34    2.46
  12  -2  -4    8.62    3.23
 -12  -2   4    5.17    2.72
 -12   2   3   -0.58    2.57
 -12  -2   3   -0.53    2.29
 -12   2   2    7.59    2.77
 -12  -2   2    5.35    2.67
 -12   2   2    8.76    2.76
 -12   2   1   -0.59    2.57
 -12  -2   1    0.54    2.47
 -12   2   1    0.54    2.22
 -12   2   0   14.27    3.43
 -12  -2   0   16.60    3.28
 -12   2   0   23.60    3.65
  12   2   1   -0.39    2.05
 -12   2  -1    4.21    2.70
 -12  -2  -1    2.27    2.47
 -12   2  -1   -0.53    2.38
  12   2   2    0.39    1.80
 -12   2  -2    2.44    2.54
 -12  -2  -2   -2.32    2.46
 -12   2  -2    6.80    2.65
  12   2   3   -0.75    2.03
 -12  -2  -3   -2.97    2.98
 -12   2  -3   -0.51    2.49
  12  -2   4   85.35    6.80
  12   2   4   80.43    5.71
 -12  -2  -4   86.26    6.84
 -12   2  -4   89.74    6.52
  12  -2   5    2.31    2.53
  12   2   5    8.31    2.32
 -12   2  -5    1.27    2.76
 -12  -2  -5    9.21    3.08
 -12   2  -5    3.95    2.57
  12  -2   6   21.07    3.74
  12   2   6   29.73    3.34
 -12   2  -6   21.70    3.54
  12  -2   7    2.86    2.80
 -12   2  -7    1.87    2.07
 -12   2  -8   19.48    3.29
 -12   2  -9    5.68    2.27
 -12   2 -10   77.37    5.77
 -12  -3  12    4.34    2.98
  12   3 -11    3.60    3.05
  12   3 -10    1.80    2.70
 -12  -3   9    0.44    2.07
  12  -3  -9    5.64    3.07
 -12   3   9   -1.16    2.61
  12   3  -9   -3.68    3.14
 -12  -3   8    0.45    2.33
  12  -3  -8   -2.51    2.89
 -12   3   8    1.16    2.53
  12   3  -8   -0.59    2.68
  12   3  -7    2.92    2.90
 -12  -3   7    3.30    2.42
 -12   3   7    5.18    2.62
  12  -3  -7    2.53    2.80
  12   3  -6   -1.17    2.55
 -12  -3   6    1.94    2.41
 -12   3   6   -0.57    2.42
  12  -3  -6   -1.84    2.72
  12  -3  -5   40.74    5.04
 -12  -3   5   35.74    4.37
 -12   3   5   50.58    5.15
  12  -3  -4    2.43    2.61
 -12  -3   4    3.55    2.66
  12  -3  -3   11.01    3.42
 -12  -3   3   11.92    3.11
 -12   3   3   10.65    3.11
 -12  -3   2    0.53    2.27
 -12   3   2    3.33    2.49
 -12   3   1   21.26    3.93
 -12  -3   1   33.05    4.31
 -12   3   1   29.72    4.05
  12   3   0    3.29    1.92
 -12   3   0    7.32    2.93
 -12  -3   0    1.68    2.48
 -12   3   0   10.33    2.88
  12   3   1   78.88    5.41
 -12   3  -1   86.40    6.99
 -12  -3  -1  104.43    7.19
 -12   3  -1   89.94    6.81
  12   3   2    2.48    1.74
 -12  -3  -2    7.52    3.00
 -12   3  -2    5.79    2.40
  12   3   3   23.52    2.81
 -12  -3  -3   22.95    3.85
 -12   3  -3   17.53    3.42
  12   3   4   45.05    3.71
  12  -3   4   34.62    4.72
 -12   3  -4   44.15    5.17
 -12  -3  -4   34.84    4.58
 -12   3  -4   30.23    4.09
  12  -3   5   73.29    6.43
 -12   3  -5   67.66    5.71
 -12   3  -6   10.94    2.74
 -12   3  -7   -0.92    2.25
 -12   3  -8    4.87    2.18
 -12   3  -9    7.23    2.50
  12   4 -11    0.58    2.99
  12   4 -10   42.58    5.03
  12   4  -9   -1.77    3.06
 -12  -4   8   28.27    3.76
  12  -4  -8   25.90    4.40
  12   4  -8   34.17    4.58
  12   4  -7    0.57    2.93
 -12  -4   7   -0.46    2.26
  12  -4  -7    3.08    3.22
  12   4  -6   49.65    5.44
  12  -4  -6   62.97    5.95
 -12  -4   6   53.23    4.97
 -12   4   6   62.86    5.76
  12   4  -5   -1.73    2.63
 -12  -4   5   -2.43    2.44
  12  -4  -5    0.61    2.79
 -12  -4   4   95.98    7.01
  12  -4  -4  104.19    7.74
  12  -4  -3    1.79    2.76
 -12  -4   3    3.08    2.49
 -12   4   3    4.02    2.82
  12  -4  -2   21.70    4.09
 -12  -4   2   27.02    3.92
 -12   4   2   32.39    4.19
  12   4  -1    0.25    1.49
 -12  -4   1   -0.55    2.34
 -12   4   1   -1.12    2.72
 -12  -4   0   19.41    3.64
 -12   4   0   24.30    3.68
 -12  -4  -1    1.13    2.81
 -12   4  -1    3.25    2.63
 -12  -4  -2    2.89    2.80
 -12   4  -2    3.72    2.39
 -12  -4  -3    1.19    2.55
 -12   4  -3    0.52    2.39
 -12   4  -4    4.54    2.48
 -12   4  -5   22.52    3.58
 -12   4  -6   10.42    2.86
 -12   4  -7   -1.82    2.15
 -12   4  -8   26.14    3.63
  12   5 -10   -0.56    2.82
  12   5  -9   16.81    3.94
  12   5  -8   -0.57    2.80
  12   5  -7    6.66    2.97
  12   5  -6    2.21    2.68
  12  -5  -6    3.59    3.04
  12  -5  -5   84.55    7.06
 -12  -5   5   85.32    6.47
  12   5  -5   83.73    6.77
 -12  -5   4    0.99    2.45
  12  -5  -4    2.97    3.02
  12  -5  -3   21.09    4.19
 -12  -5   3   25.65    3.74
  12  -5  -2    2.33    2.96
 -12  -5   2    1.06    2.48
  12  -5  -1   30.36    4.56
 -12  -5   1   44.42    4.76
  12  -5   0    1.18    2.92
 -12  -5   0    0.55    2.65
 -12  -5  -1   58.65    5.59
  12   6  -9    3.15    2.80
  12   6  -8   88.85    7.11
  12   6  -7   12.86    3.51
  12   6  -6    1.59    2.74
  12   6  -5    5.31    2.90
  12   6  -4    5.40    3.00
 -12  -6   3    4.11    2.96
  12  -6  -3   11.04    3.51
 -12  -6   2    8.43    2.99
  12  -6  -2   10.23    3.50
  12  -6  -1    1.12    3.03
 -12  -6   1    2.71    2.92
  12  -6   0    3.92    2.88
  12  -6   1    6.74    3.26
  12  -6   2    2.27    3.06
  12   7  -4    3.52    2.74
  12   7  -3    6.68    2.99
 -13   0   6    2.27    2.69
 -13   0   6    3.50    2.72
 -13   0   5   57.27    5.73
  13   0  -5   66.34    6.34
 -13   0   5   59.52    5.85
 -13   0   4    4.07    2.71
 -13   0   4   -2.34    2.93
 -13   0   3  269.09   14.56
 -13   0   2   -0.60    2.65
 -13   0   1  187.08   11.18
 -13   0   1  179.77   10.91
 -13   0   0   -0.58    2.51
 -13   0   0   -1.23    2.60
 -13   0  -1   20.39    3.62
 -13   0  -1   18.63    3.88
 -13   0  -2    2.89    2.70
  13   0   2   -2.10    2.67
  13   0   3   89.29    6.92
 -13   0  -3   98.40    7.24
 -13   0  -4   -2.26    2.67
  13   0   4   -1.56    2.71
  13   0   5   13.84    3.11
  13   0   6    0.52    2.35
 -13  -1   7    7.56    3.01
  13   1  -6   33.80    4.73
 -13  -1   6   30.75    4.22
 -13  -1   5    0.59    2.54
  13  -1  -5    2.65    2.93
  13   1  -5    0.66    2.87
 -13   1   5    3.56    2.62
 -13  -1   5    2.24    2.64
 -13   1   5    1.76    2.44
 -13  -1   4    1.78    2.55
  13  -1  -4    3.35    3.32
 -13   1   4    2.98    2.56
 -13  -1   4    5.70    2.80
 -13   1   3   -1.20    2.84
 -13  -1   3    2.32    2.78
 -13   1   2   51.12    5.42
 -13  -1   2   49.33    5.20
 -13   1   2   53.17    5.32
 -13   1   1    4.93    2.92
 -13  -1   1    7.14    3.06
 -13   1   1    4.03    2.73
 -13   1   0    6.87    2.92
 -13  -1   0    3.02    2.78
 -13   1   0   -0.57    2.57
  13   1   1    1.90    2.44
 -13  -1  -1   -0.61    3.14
 -13   1  -1    1.14    2.51
  13   1   2    7.60    2.70
 -13   1  -2    7.31    2.90
  13  -1   3    0.57    2.77
  13   1   3    2.80    2.40
 -13   1  -3    2.77    2.81
  13  -1   4    3.98    2.59
  13   1   4    4.14    2.23
 -13   1  -4    4.37    2.95
  13  -1   5   -2.25    2.55
  13   1   5    0.46    2.19
 -13   1  -5    0.53    2.50
  13   1   6   35.12    4.04
  13   1   7   23.93    3.53
 -13  -2   8    3.05    2.69
 -13  -2   7    6.27    2.77
 -13  -2   6    2.67    2.62
  13   2  -5    3.90    3.22
 -13  -2   5   -0.55    2.53
 -13  -2   4   -0.56    2.61
 -13   2   3   58.86    5.73
 -13  -2   3   47.68    5.20
 -13  -2   2    0.58    2.66
 -13   2   2    1.17    2.58
 -13  -2   1   -0.59    2.81
 -13   2   1   -2.32    2.49
 -13  -2   0    1.79    2.93
 -13   2   0   -1.72    2.54
  13   2   1   24.19    3.29
 -13   2  -1   18.69    3.69
  13   2   2   -2.85    2.26
 -13   2  -2   -2.23    2.86
  13   2   3   13.98    2.74
 -13   2  -3   12.07    3.22
  13   2   4    1.60    1.94
  13   2   5    3.18    2.25
  13   2   6    1.98    2.05
 -13  -3   8    6.83    2.81
 -13  -3   7   10.59    3.20
 -13  -3   6   50.66    5.05
 -13  -3   5   -1.07    2.54
 -13  -3   4   10.40    3.27
 -13  -3   3    0.56    2.86
 -13  -3   2    9.70    3.19
  13   3  -1    1.78    1.98
 -13  -3   1   -1.16    2.92
 -13  -4   6   -1.02    2.63
 -13  -4   5    6.80    2.89
 -13  -4   4    3.77    2.73
 -13  -4   3  146.90    9.42
 -13  -4   2   -2.83    2.84
 -13  -5   4    2.65    3.24
  14   0   1   -1.66    2.98
  14   1   1    0.50    2.57
  14   1   2    4.44    2.69
  14   1   3   37.13    4.36
  14   1   4   -0.96    2.46
   0   0   0    0.00    0.00


TITL exp_8045 in P2(1)/n
REM P2(1)/n (#14 in standard setting)
CELL 0.71073   9.835268   7.996948  16.474225  90.0000  97.0115  90.0000
ZERR   11.00   0.000424   0.000321   0.000641   0.0000   0.0039   0.0000
LATT  1
SYMM -x+1/2, y+1/2,-z+1/2
SFAC P S Br In Cs
UNIT 11.00 11.00 11.00 11.00 11.00
TREF
HKLF 4
END
_computing_structure_solution     'SHELXT 2014/5 (Sheldrick, 2014)'
;
_shelx_hkl_checksum              12143
_olex2_submission_special_instructions 'No special instructions were received'
_oxdiff_exptl_absorpt_empirical_details
;
Empirical correction (ABSPACK) includes:
- Absorption correction using spherical harmonics
- Frame scaling
;
_oxdiff_exptl_absorpt_empirical_full_max 1.200
_oxdiff_exptl_absorpt_empirical_full_min 0.805
loop_
_space_group_symop_operation_xyz
'x, y, z'
'-x+1/2, y+1/2, -z+1/2'
'-x, -y, -z'
'x-1/2, -y-1/2, z-1/2'
loop_
_atom_site_label
_atom_site_type_symbol
_atom_site_fract_x
_atom_site_fract_y
_atom_site_fract_z
_atom_site_U_iso_or_equiv
_atom_site_adp_type
_atom_site_occupancy
_atom_site_site_symmetry_order
_atom_site_calc_flag
_atom_site_refinement_flags_posn
_atom_site_refinement_flags_adp
_atom_site_refinement_flags_occupancy
_atom_site_disorder_assembly
_atom_site_disorder_group
In In 0.68268(2) 0.50010(3) 0.44506(2) 0.02251(6) Uani 1 1 d . . . . .
Cs1 Cs 0.55931(3) 0.00119(3) 0.27320(2) 0.03741(7) Uani 1 1 d . . . . .
Cs2 Cs 0.35176(3) 0.49998(3) 0.09120(2) 0.03712(7) Uani 1 1 d . . . . .
Br2 Br 0.83779(4) 0.74712(4) 0.40035(2) 0.03308(9) Uani 1 1 d . . . . .
Br1 Br 0.82737(4) 0.25308(4) 0.39072(2) 0.03299(9) Uani 1 1 d . . . . .
P P 0.36414(8) 0.41032(10) 0.36164(5) 0.02022(16) Uani 1 1 d . . . . .
S1 S 0.46158(9) 0.27594(10) 0.45899(5) 0.02546(18) Uani 1 1 d . . . . .
S2 S 0.27319(9) 0.27730(10) 0.26947(5) 0.02834(18) Uani 1 1 d . . . . .
S4 S 0.21811(9) 0.55034(12) 0.41183(5) 0.03012(19) Uani 1 1 d . . . . .
S3 S 0.51639(9) 0.55702(12) 0.32225(5) 0.0301(2) Uani 1 1 d . . . . .
loop_
_atom_site_aniso_label
_atom_site_aniso_U_11
_atom_site_aniso_U_22
_atom_site_aniso_U_33
_atom_site_aniso_U_23
_atom_site_aniso_U_13
_atom_site_aniso_U_12
In 0.02147(12) 0.02675(12) 0.01865(11) 0.00181(9) -0.00020(8) -0.00002(9)
Cs1 0.03705(14) 0.03511(13) 0.03983(14) -0.00248(10) 0.00367(10) 0.00242(10)
Cs2 0.04215(15) 0.03457(13) 0.03672(13) 0.00274(10) 0.01322(10) 0.00826(10)
Br2 0.03164(19) 0.02955(19) 0.0389(2) -0.00124(15) 0.00779(15) -0.00946(14)
Br1 0.0352(2) 0.02873(19) 0.03601(19) -0.00218(14) 0.00810(15) 0.00589(14)
P 0.0206(4) 0.0218(4) 0.0174(4) -0.0009(3) -0.0008(3) -0.0020(3)
S1 0.0275(4) 0.0255(4) 0.0223(4) 0.0044(3) -0.0014(3) 0.0010(3)
S2 0.0345(5) 0.0268(4) 0.0220(4) -0.0045(3) -0.0036(3) -0.0050(4)
S4 0.0290(5) 0.0400(5) 0.0202(4) -0.0012(3) -0.0016(3) 0.0118(4)
S3 0.0262(4) 0.0380(5) 0.0245(4) 0.0116(4) -0.0035(3) -0.0087(4)
loop_
_atom_type_symbol
_atom_type_description
_atom_type_scat_dispersion_real
_atom_type_scat_dispersion_imag
_atom_type_scat_source
Br Br -0.2901 2.4595 'International Tables Vol C Tables 4.2.6.8 and 6.1.1.4'
Cs Cs -0.3680 2.1192 'International Tables Vol C Tables 4.2.6.8 and 6.1.1.4'
In In -0.7276 1.3100 'International Tables Vol C Tables 4.2.6.8 and 6.1.1.4'
P P 0.1023 0.0942 'International Tables Vol C Tables 4.2.6.8 and 6.1.1.4'
S S 0.1246 0.1234 'International Tables Vol C Tables 4.2.6.8 and 6.1.1.4'
loop_
_geom_angle_atom_site_label_1
_geom_angle_atom_site_label_2
_geom_angle_atom_site_label_3
_geom_angle
_geom_angle_site_symmetry_1
_geom_angle_site_symmetry_3
_geom_angle_publ_flag
Br2 In S1 91.60(2) . 3_666 ?
Br2 In S1 163.89(2) . . ?
Br1 In Br2 96.333(14) . . ?
Br1 In S1 165.991(19) . 3_666 ?
Br1 In S1 90.28(2) . . ?
S1 In S1 85.12(3) . 3_666 ?
S4 In Br2 102.28(3) 3_666 . ?
S4 In Br1 91.99(2) 3_666 . ?
S4 In S1 92.11(3) 3_666 . ?
S4 In S1 75.00(3) 3_666 3_666 ?
S4 In S3 161.96(3) 3_666 . ?
S3 In Br2 88.92(2) . . ?
S3 In Br1 100.87(3) . . ?
S3 In S1 75.39(3) . . ?
S3 In S1 90.78(3) . 3_666 ?
Cs2 Cs1 Cs2 88.665(6) 2_545 . ?
Br2 Cs1 Cs2 156.794(9) 1_545 . ?
Br2 Cs1 Cs2 132.584(9) 2_645 2_545 ?
Br2 Cs1 Cs2 109.159(9) 1_545 2_545 ?
Br2 Cs1 Cs2 44.037(7) 2_645 . ?
Br2 Cs1 Br2 117.337(9) 2_645 1_545 ?
Br2 Cs1 P 123.931(14) 1_545 . ?
Br2 Cs1 P 91.950(14) 2_645 . ?
Br2 Cs1 S1 114.463(14) 2_645 . ?
Br2 Cs1 S1 95.518(14) 1_545 . ?
Br2 Cs1 S2 115.191(16) 2_645 2_545 ?
Br2 Cs1 S4 64.535(15) 2_645 2_545 ?
Br2 Cs1 S4 151.402(17) 1_545 2_545 ?
Br1 Cs1 Cs2 97.097(9) 2_645 . ?
Br1 Cs1 Cs2 133.585(9) 2_645 2_545 ?
Br1 Cs1 Cs2 95.066(8) . . ?
Br1 Cs1 Cs2 110.061(9) . 2_545 ?
Br1 Cs1 Br2 65.345(9) . 1_545 ?
Br1 Cs1 Br2 82.522(10) . 2_645 ?
Br1 Cs1 Br2 65.142(9) 2_645 2_645 ?
Br1 Cs1 Br2 81.534(10) 2_645 1_545 ?
Br1 Cs1 Br1 115.168(9) 2_645 . ?
Br1 Cs1 P 152.749(14) 2_645 . ?
Br1 Cs1 P 73.475(13) . . ?
Br1 Cs1 S1 61.144(14) . . ?
Br1 Cs1 S1 176.135(15) 2_645 . ?
Br1 Cs1 S2 86.506(16) 2_645 2_545 ?
Br1 Cs1 S2 157.067(17) . 2_545 ?
Br1 Cs1 S4 73.726(17) 2_645 2_545 ?
Br1 Cs1 S4 138.899(16) . 2_545 ?
Br1 Cs1 S3 71.933(17) 2_645 1_545 ?
Br1 Cs1 S3 120.507(15) . 1_545 ?
P Cs1 Cs2 52.577(12) . 2_545 ?
P Cs1 Cs2 55.731(12) . . ?
S1 Cs1 Cs2 84.618(12) . . ?
S1 Cs1 Cs2 49.755(13) . 2_545 ?
S1 Cs1 P 29.370(15) . . ?
S2 Cs1 Cs2 43.114(15) . . ?
S2 Cs1 Cs2 89.209(14) 2_545 . ?
S2 Cs1 Cs2 46.374(15) . 2_545 ?
S2 Cs1 Cs2 47.406(14) 2_545 2_545 ?
S2 Cs1 Br2 148.020(17) . 1_545 ?
S2 Cs1 Br2 113.722(15) 2_545 1_545 ?
S2 Cs1 Br2 86.992(16) . 2_645 ?
S2 Cs1 Br1 100.559(16) . . ?
S2 Cs1 Br1 129.587(16) . 2_645 ?
S2 Cs1 P 28.442(17) . . ?
S2 Cs1 P 90.698(18) 2_545 . ?
S2 Cs1 S1 53.711(17) . . ?
S2 Cs1 S1 96.997(19) 2_545 . ?
S2 Cs1 S2 67.765(7) . 2_545 ?
S2 Cs1 S4 51.572(19) 2_545 2_545 ?
S2 Cs1 S4 56.17(2) . 2_545 ?
S2 Cs1 S3 119.30(2) . 1_545 ?
S4 Cs1 Cs2 79.345(15) 2_545 2_545 ?
S4 Cs1 Cs2 44.172(14) 2_545 . ?
S4 Cs1 P 83.342(19) 2_545 . ?
S4 Cs1 S1 109.74(2) 2_545 . ?
S3 Cs1 Cs2 76.850(16) 1_545 2_545 ?
S3 Cs1 Cs2 144.282(15) 1_545 . ?
S3 Cs1 Br2 136.917(17) 1_545 2_645 ?
S3 Cs1 Br2 57.332(14) 1_545 1_545 ?
S3 Cs1 P 127.90(2) 1_545 . ?
S3 Cs1 S1 108.61(2) 1_545 . ?
S3 Cs1 S2 56.964(18) 1_545 2_545 ?
S3 Cs1 S4 100.546(19) 1_545 2_545 ?
Cs2 Cs2 Cs1 164.935(10) 3_665 2 ?
Br2 Cs2 Cs1 136.351(9) 2_645 2 ?
Br2 Cs2 Cs1 116.127(9) 4_575 2 ?
Br2 Cs2 Cs2 52.264(8) 4_575 3_665 ?
Br2 Cs2 Cs2 53.836(8) 2_645 3_665 ?
Br2 Cs2 Br2 106.100(9) 2_645 4_575 ?
Br2 Cs2 Br1 72.918(10) 2_645 4_565 ?
Br2 Cs2 Br1 66.549(10) 2_645 2_655 ?
Br2 Cs2 Br1 73.540(10) 4_575 2_655 ?
Br2 Cs2 Br1 64.543(9) 4_575 4_565 ?
Br2 Cs2 P 154.214(15) 2_645 2 ?
Br2 Cs2 P 75.820(14) 4_575 2 ?
Br2 Cs2 S1 169.314(16) 2_645 2 ?
Br2 Cs2 S1 63.622(15) 4_575 2 ?
Br2 Cs2 S4 67.113(16) 2_645 2_545 ?
Br2 Cs2 S3 135.566(15) 4_575 . ?
Br2 Cs2 S3 77.650(17) 2_645 . ?
Br1 Cs2 Cs1 115.289(9) 4_565 2 ?
Br1 Cs2 Cs1 134.952(9) 2_655 2 ?
Br1 Cs2 Cs2 55.552(8) 2_655 3_665 ?
Br1 Cs2 Cs2 52.917(8) 4_565 3_665 ?
Br1 Cs2 Br1 108.468(9) 2_655 4_565 ?
Br1 Cs2 P 127.771(14) 4_565 2 ?
Br1 Cs2 P 90.191(14) 2_655 2 ?
Br1 Cs2 S1 110.987(15) 2_655 2 ?
Br1 Cs2 S3 67.646(15) 2_655 . ?
Br1 Cs2 S3 148.824(17) 4_565 . ?
P Cs2 Cs1 54.697(13) 2 2 ?
P Cs2 Cs2 122.366(15) 2 3_665 ?
S1 Cs2 Cs1 53.098(14) 2 2 ?
S1 Cs2 Cs2 115.818(15) 2 3_665 ?
S1 Cs2 Br1 98.885(14) 2 4_565 ?
S1 Cs2 P 30.397(16) 2 2 ?
S1 Cs2 S3 111.50(2) 2 . ?
S2 Cs2 Cs1 47.275(16) 2 2 ?
S2 Cs2 Cs1 49.545(15) . 2 ?
S2 Cs2 Cs2 138.820(17) 2 3_665 ?
S2 Cs2 Cs2 141.029(17) . 3_665 ?
S2 Cs2 Br2 103.204(16) 2 4_575 ?
S2 Cs2 Br2 132.937(17) 2 2_645 ?
S2 Cs2 Br2 87.518(17) . 2_645 ?
S2 Cs2 Br2 165.390(17) . 4_575 ?
S2 Cs2 Br1 88.015(17) 2 2_655 ?
S2 Cs2 Br1 116.248(15) . 4_565 ?
S2 Cs2 Br1 154.054(17) 2 4_565 ?
S2 Cs2 Br1 117.853(16) . 2_655 ?
S2 Cs2 P 94.291(19) . 2 ?
S2 Cs2 P 29.326(17) 2 2 ?
S2 Cs2 S1 55.755(18) 2 2 ?
S2 Cs2 S1 102.46(2) . 2 ?
S2 Cs2 S2 69.674(7) 2 . ?
S2 Cs2 S4 57.739(19) . 2_545 ?
S2 Cs2 S4 123.23(2) 2 2_545 ?
S2 Cs2 S3 55.75(2) 2 . ?
S2 Cs2 S3 51.569(18) . . ?
S4 Cs2 Cs1 80.943(16) 2_545 2 ?
S4 Cs2 Cs2 97.396(16) 2_545 3_665 ?
S4 Cs2 Br2 122.286(16) 2_545 4_575 ?
S4 Cs2 Br1 58.720(15) 2_545 4_565 ?
S4 Cs2 Br1 133.610(17) 2_545 2_655 ?
S4 Cs2 P 134.36(2) 2_545 2 ?
S4 Cs2 S1 114.95(2) 2_545 2 ?
S4 Cs2 S3 100.342(19) 2_545 . ?
S3 Cs2 Cs1 79.855(15) . 2 ?
S3 Cs2 Cs2 115.085(16) . 3_665 ?
S3 Cs2 P 83.385(19) . 2 ?
In Br2 Cs1 98.623(12) . 1_565 ?
In Br2 Cs1 92.260(12) . 2_655 ?
In Br2 Cs2 97.642(12) . 4_676 ?
In Br2 Cs2 155.222(15) . 2_655 ?
Cs1 Br2 Cs1 95.971(10) 2_655 1_565 ?
Cs1 Br2 Cs2 162.193(12) 2_655 4_676 ?
Cs2 Br2 Cs1 105.452(11) 2_655 1_565 ?
Cs2 Br2 Cs1 91.001(10) 2_655 2_655 ?
Cs2 Br2 Cs1 97.123(11) 4_676 1_565 ?
Cs2 Br2 Cs2 73.900(9) 2_655 4_676 ?
In Br1 Cs1 101.886(13) . . ?
In Br1 Cs1 94.016(12) . 2_655 ?
In Br1 Cs2 94.679(12) . 4_666 ?
In Br1 Cs2 149.359(14) . 2_645 ?
Cs1 Br1 Cs1 99.971(10) 2_655 . ?
Cs1 Br1 Cs2 91.283(11) 2_655 2_645 ?
Cs1 Br1 Cs2 97.422(10) . 4_666 ?
Cs1 Br1 Cs2 158.497(13) 2_655 4_666 ?
Cs1 Br1 Cs2 106.866(10) . 2_645 ?
Cs2 Br1 Cs2 71.533(9) 2_645 4_666 ?
Cs2 P Cs1 72.726(14) 2_545 . ?
S1 P Cs1 70.83(3) . . ?
S1 P Cs2 68.46(3) . 2_545 ?
S1 P S4 104.47(5) . . ?
S1 P S3 104.69(5) . . ?
S2 P Cs1 59.39(3) . . ?
S2 P Cs2 60.71(3) . 2_545 ?
S2 P S1 116.10(5) . . ?
S2 P S4 109.07(5) . . ?
S2 P S3 109.96(5) . . ?
S4 P Cs1 160.07(4) . . ?
S4 P Cs2 87.47(4) . 2_545 ?
S3 P Cs1 87.33(4) . . ?
S3 P Cs2 160.04(4) . 2_545 ?
S3 P S4 112.49(5) . . ?
In S1 In 94.88(3) . 3_666 ?
In S1 Cs1 161.52(3) 3_666 . ?
In S1 Cs1 91.55(2) . . ?
In S1 Cs2 162.74(3) . 2_545 ?
In S1 Cs2 92.28(2) 3_666 2_545 ?
Cs2 S1 Cs1 77.147(16) 2_545 . ?
P S1 In 84.06(4) . . ?
P S1 In 83.65(4) . 3_666 ?
P S1 Cs1 79.80(3) . . ?
P S1 Cs2 81.15(3) . 2_545 ?
Cs1 S2 Cs1 166.81(3) . 2 ?
Cs1 S2 Cs2 94.17(2) . . ?
Cs2 S2 Cs1 93.30(2) 2_545 2 ?
Cs2 S2 Cs1 86.351(19) 2_545 . ?
Cs2 S2 Cs1 83.049(18) . 2 ?
Cs2 S2 Cs2 166.18(3) 2_545 . ?
P S2 Cs1 92.16(4) . . ?
P S2 Cs1 101.02(4) . 2 ?
P S2 Cs2 89.97(4) . 2_545 ?
P S2 Cs2 103.80(4) . . ?
In S4 Cs1 153.68(4) 3_666 2 ?
In S4 Cs2 103.00(3) 3_666 2 ?
Cs2 S4 Cs1 88.614(18) 2 2 ?
P S4 In 94.60(4) . 3_666 ?
P S4 Cs1 95.03(3) . 2 ?
P S4 Cs2 131.60(5) . 2 ?
In S3 Cs1 105.91(3) . 1_565 ?
In S3 Cs2 155.43(4) . . ?
Cs1 S3 Cs2 86.830(17) 1_565 . ?
P S3 In 94.04(4) . . ?
P S3 Cs1 136.35(5) . 1_565 ?
P S3 Cs2 90.54(3) . . ?
loop_
_geom_bond_atom_site_label_1
_geom_bond_atom_site_label_2
_geom_bond_distance
_geom_bond_site_symmetry_2
_geom_bond_publ_flag
In Br2 2.6545(4) . ?
In Br1 2.6533(4) . ?
In S1 2.8489(9) . ?
In S1 2.8752(9) 3_666 ?
In S4 2.4723(8) 3_666 ?
In S3 2.4834(8) . ?
Cs1 Cs2 4.8520(4) 2_545 ?
Cs1 Cs2 5.2511(4) . ?
Cs1 Br2 3.7111(5) 2_645 ?
Cs1 Br2 3.8233(5) 1_545 ?
Cs1 Br1 3.6757(5) . ?
Cs1 Br1 3.6339(5) 2_645 ?
Cs1 P 4.1467(9) . ?
Cs1 S1 3.9797(9) . ?
Cs1 S2 3.5716(9) . ?
Cs1 S2 3.7193(9) 2_545 ?
Cs1 S4 3.8548(9) 2_545 ?
Cs1 S3 3.6784(9) 1_545 ?
Cs2 Cs2 4.4351(5) 3_665 ?
Cs2 Br2 3.6507(4) 2_645 ?
Cs2 Br2 3.7268(4) 4_575 ?
Cs2 Br1 3.8560(5) 4_565 ?
Cs2 Br1 3.7303(5) 2_655 ?
Cs2 P 4.0353(8) 2 ?
Cs2 S1 3.7986(9) 2 ?
Cs2 S2 3.5984(9) . ?
Cs2 S2 3.5193(9) 2 ?
Cs2 S4 3.6600(10) 2_545 ?
Cs2 S3 3.9767(9) . ?
P S1 2.0664(11) . ?
P S2 1.9763(11) . ?
P S4 2.0712(12) . ?
P S3 2.0680(12) . ?
