#------------------------------------------------------------------------------
#$Date: 2022-01-20 01:52:26 +0200 (Thu, 20 Jan 2022) $
#$Revision: 272142 $
#$URL: file:///home/coder/svn-repositories/cod/cif/7/70/93/7709323.cif $
#------------------------------------------------------------------------------
#
# This file is available in the Crystallography Open Database (COD),
# http://www.crystallography.net/
#
# All data on this site have been placed in the public domain by the
# contributors.
#
data_7709323
loop_
_publ_author_name
'Greenacre, Victoria K.'
'Hector, Andrew L.'
'Huang, Ruomeng'
'Levason, William'
'Sethi, Vikesh'
'Reid, Gillian'
_publ_section_title
;
 Tungsten(vi) selenide tetrachloride, WSeCl4 -- synthesis, properties,
 coordination complexes and application of [WSeCl4(SenBu2)] for CVD growth
 of WSe2 thin films
;
_journal_name_full               'Dalton Transactions'
_journal_paper_doi               10.1039/D1DT03980F
_journal_year                    2022
_chemical_formula_moiety         'Cl4 Se W'
_chemical_formula_sum            'Cl4 Se W'
_chemical_formula_weight         404.61
_chemical_properties_physical
Air-sensitive,Moisture-sensitive,Oxygen-sensitive
_space_group_crystal_system      monoclinic
_space_group_IT_number           14
_space_group_name_Hall           '-P 2yn'
_space_group_name_H-M_alt        'P 1 21/n 1'
_audit_creation_date             2021-01-05
_audit_creation_method
;
Olex2 1.2
(compiled 2018.05.29 svn.r3508 for OlexSys, GUI svn.r5506)
;
_audit_update_record
;
2021-11-15 deposited with the CCDC.	2022-01-07 downloaded from the CCDC.
;
_cell_angle_alpha                90
_cell_angle_beta                 111.125(2)
_cell_angle_gamma                90
_cell_formula_units_Z            8
_cell_length_a                   8.8639(2)
_cell_length_b                   12.4149(2)
_cell_length_c                   12.1003(3)
_cell_measurement_reflns_used    13638
_cell_measurement_temperature    120
_cell_measurement_theta_max      75.7850
_cell_measurement_theta_min      5.2510
_cell_volume                     1242.08(5)
_computing_cell_refinement       'CrysAlisPro 1.171.41.89a (Rigaku OD, 2020)'
_computing_data_collection       'CrysAlisPro 1.171.41.89a (Rigaku OD, 2020)'
_computing_data_reduction        'CrysAlisPro 1.171.41.89a (Rigaku OD, 2020)'
_computing_molecular_graphics    'Olex2 (Dolomanov et al., 2009)'
_computing_publication_material  'Olex2 (Dolomanov et al., 2009)'
_computing_structure_refinement  'ShelXL (Sheldrick, 2015)'
_computing_structure_solution    'SHELXT 2018/2 (Sheldrick, 2018)'
_diffrn_ambient_temperature      120
_diffrn_detector                 'Hybrid Pixel Array Detector'
_diffrn_detector_area_resol_mean 10.0000
_diffrn_detector_type            HyPix
_diffrn_measured_fraction_theta_full 0.994
_diffrn_measured_fraction_theta_max 0.994
_diffrn_measurement_details
;
List of Runs (angles in degrees, time in seconds):

  # Type    Start    End  Width  t~exp~   \w     \q     \k     \f   Frames
#--------------------------------------------------------------------------
  1  \w    -69.00  27.00   0.50    4.00    --  -46.06  77.00-180.00  192
  2  \w    -37.00  27.00   0.50    4.00    --  -46.06  37.00 -90.00  128
  3  \w    -16.00  29.00   0.50    4.00    --  -46.06  19.00-120.00   90
  4  \w   -118.00 -31.00   0.50    4.00    --  -46.06 -57.00  30.00  174
  5  \w    -37.00  27.00   0.50    4.00    --  -46.06  37.00 150.00  128
  6  \w     23.00  94.00   0.50    4.00    --   46.06-125.00  60.00  142
  7  \w     29.00 125.00   0.50    8.00    --  101.75 -77.00 -60.00  192
  8  \w     29.00  76.00   0.50    8.00    --  101.75 -61.00  90.00   94
  9  \w     29.00 106.00   0.50    8.00    --  101.75 -94.00  60.00  154
 10  \w     30.00 174.00   0.50    8.00    --  101.75   0.00  60.00  288
 11  \w     29.00  76.00   0.50    8.00    --  101.75 -61.00   0.00   94
 12  \w     82.00 175.00   0.50    8.00    --  101.75 125.00 -60.00  186
 13  \w     29.00 106.00   0.50    8.00    --  101.75 -94.00 -60.00  154
 14  \w     29.00  76.00   0.50    8.00    --  101.75 -61.00-150.00   94
 15  \w     29.00 106.00   0.50    8.00    --  101.75 -99.00 106.12  154
 16  \w     29.00  76.00   0.50    8.00    --  101.75 -61.00  30.00   94
 17  \w     29.00 112.00   0.50    8.00    --  101.75-125.00-150.00  166
 18  \w     30.00 174.00   0.50    8.00    --  101.75   0.00 -90.00  288
 19  \w     29.00 106.00   0.50    8.00    --  101.75 -94.00-150.00  154
 20  \w     89.00 174.00   0.50    8.00    --  101.75  45.00   0.00  170
 21  \w    -70.00 -30.00   0.50    8.00    -- -103.00  61.00 -90.00   80
 22  \w    -70.00 -30.00   0.50    8.00    -- -103.00  61.00 -60.00   80
 23  \w   -174.00 -90.00   0.50    8.00    -- -103.00 -49.00-159.25  168
 24  \w   -174.00 -90.00   0.50    8.00    -- -103.00 -30.00 -60.00  168
 25  \w   -174.00 -90.00   0.50    8.00    -- -103.00 -45.00 -30.00  168
 26  \w   -118.00 -33.00   0.50    4.00    --  -46.06 -46.00  96.78  170
 27  \w     24.00 119.00   0.50    4.00    --   46.06  77.00 -60.00  190
 28  \w     24.00 119.00   0.50    4.00    --   46.06  77.00-150.00  190
 29  \w     24.00 119.00   0.50    4.00    --   46.06  77.00   0.00  190
 30  \w     24.00 119.00   0.50    4.00    --   46.06  77.00 120.00  190
 31  \w    108.00 174.00   0.50    8.00    --  101.75   0.00 120.00  132
 32  \w   -174.00 -86.00   0.50    8.00    -- -103.00 -61.00 153.13  176
 33  \w   -174.00 -78.00   0.50    8.00    -- -103.00 -81.00 -94.75  192
;
_diffrn_measurement_device       'four-circle diffractometer'
_diffrn_measurement_device_type  'ROD, Synergy Custom system, HyPix'
_diffrn_measurement_method       '\w scans'
_diffrn_orient_matrix_type
'CrysAlisPro convention (1999,Acta A55,543-557)'
_diffrn_orient_matrix_UB_11      0.0579774000
_diffrn_orient_matrix_UB_12      0.0071433000
_diffrn_orient_matrix_UB_13      0.1360845000
_diffrn_orient_matrix_UB_21      0.1144670000
_diffrn_orient_matrix_UB_22      -0.0960364000
_diffrn_orient_matrix_UB_23      0.0105429000
_diffrn_orient_matrix_UB_31      0.1351741000
_diffrn_orient_matrix_UB_32      0.0782022000
_diffrn_orient_matrix_UB_33      0.0005516000
_diffrn_radiation_monochromator  mirror
_diffrn_radiation_probe          x-ray
_diffrn_radiation_type           CuK\a
_diffrn_radiation_wavelength     1.54184
_diffrn_reflns_av_R_equivalents  0.0549
_diffrn_reflns_av_unetI/netI     0.0242
_diffrn_reflns_Laue_measured_fraction_full 0.994
_diffrn_reflns_Laue_measured_fraction_max 0.994
_diffrn_reflns_limit_h_max       10
_diffrn_reflns_limit_h_min       -8
_diffrn_reflns_limit_k_max       14
_diffrn_reflns_limit_k_min       -14
_diffrn_reflns_limit_l_max       14
_diffrn_reflns_limit_l_min       -14
_diffrn_reflns_number            18376
_diffrn_reflns_point_group_measured_fraction_full 0.994
_diffrn_reflns_point_group_measured_fraction_max 0.994
_diffrn_reflns_theta_full        67.002
_diffrn_reflns_theta_max         67.002
_diffrn_reflns_theta_min         5.296
_diffrn_source                   'Rotating-anode X-ray tube'
_diffrn_source_type              'Rigaku (Cu) X-ray Source'
_exptl_absorpt_coefficient_mu    55.880
_exptl_absorpt_correction_T_max  1.00000
_exptl_absorpt_correction_T_min  0.41461
_exptl_absorpt_correction_type   multi-scan
_exptl_absorpt_process_details
;
CrysAlisPro 1.171.41.89a (Rigaku Oxford Diffraction, 2020)
Empirical absorption correction using spherical harmonics,
implemented in SCALE3 ABSPACK scaling algorithm.
;
_exptl_crystal_colour            'clear green'
_exptl_crystal_colour_lustre     clear
_exptl_crystal_colour_primary    green
_exptl_crystal_density_diffrn    4.327
_exptl_crystal_description       block
_exptl_crystal_F_000             1408
_exptl_crystal_size_max          0.02
_exptl_crystal_size_mid          0.02
_exptl_crystal_size_min          0.02
_refine_diff_density_max         0.857
_refine_diff_density_min         -0.714
_refine_diff_density_rms         0.176
_refine_ls_extinction_method     none
_refine_ls_goodness_of_fit_ref   1.017
_refine_ls_hydrogen_treatment    undef
_refine_ls_matrix_type           full
_refine_ls_number_parameters     109
_refine_ls_number_reflns         2207
_refine_ls_number_restraints     0
_refine_ls_restrained_S_all      1.017
_refine_ls_R_factor_all          0.0183
_refine_ls_R_factor_gt           0.0162
_refine_ls_shift/su_max          0.002
_refine_ls_shift/su_mean         0.000
_refine_ls_structure_factor_coef Fsqd
_refine_ls_weighting_details
'w=1/[\s^2^(Fo^2^)+(0.0259P)^2^] where P=(Fo^2^+2Fc^2^)/3'
_refine_ls_weighting_scheme      calc
_refine_ls_wR_factor_gt          0.0392
_refine_ls_wR_factor_ref         0.0398
_reflns_Friedel_coverage         0.000
_reflns_number_gt                2069
_reflns_number_total             2207
_reflns_threshold_expression     'I > 2\s(I)'
_cod_data_source_file            d1dt03980f3.cif
_cod_data_source_block           2020vkwsecl4_2b
_cod_database_code               7709323
_shelx_shelxl_version_number     2016/6
_chemical_oxdiff_formula         WSeCl4
_chemical_oxdiff_usercomment     'very small green crystal'
_shelx_space_group_comment
;
The symmetry employed for this shelxl refinement is uniquely defined
by the following loop, which should always be used as a source of
symmetry information in preference to the above space-group names.
They are only intended as comments.
;
_shelx_estimated_absorpt_t_max   0.401
_shelx_estimated_absorpt_t_min   0.401
_reflns_odcompleteness_completeness 99.27
_reflns_odcompleteness_iscentric 1
_reflns_odcompleteness_theta     66.97
_olex2_refinement_description
;
;
_shelx_res_file
;
TITL 2020vkwsecl4_2b_a.res in P2(1)/n
    2020vkwsecl4_2b.res
    created by SHELXL-2016/6 at 14:59:05 on 05-Jan-2021
REM Old TITL 2020VKWSeCl4_2B in P2(1)/n
REM SHELXT solution in P2(1)/n: R1 0.028, Rweak 0.003, Alpha 0.009
REM <I/s> 0.619 for 115 systematic absences, Orientation as input
REM Formula found by SHELXT: Cl4 Se W
CELL 1.54184 8.8639 12.4149 12.1003 90 111.125 90
ZERR 8 0.0002 0.0002 0.0003 0 0.002 0
LATT 1
SYMM 0.5-X,0.5+Y,0.5-Z
SFAC Cl Se W
UNIT 32 8 8

L.S. 20
PLAN  7
SIZE 0.02 0.02 0.02
TEMP -153.15
CONF
list 4
MORE -1
fmap 2 53
acta
REM <olex2.extras>
REM <HklSrc "%.\\2020VKWSeCl4_2B.hkl">
REM </olex2.extras>

WGHT    0.025900
FVAR       0.13621
W2    3    0.628372    0.862442    0.571960    11.00000    0.01111    0.00977 =
         0.01094    0.00002    0.00343   -0.00002
W1    3    0.294840    0.593462    0.658406    11.00000    0.01187    0.01021 =
         0.01103    0.00000    0.00398    0.00040
SE1   2    0.239758    0.447750    0.741785    11.00000    0.02072    0.01323 =
         0.01880    0.00226    0.00943   -0.00093
SE2   2    0.752964    0.785669    0.746241    11.00000    0.01620    0.01760 =
         0.01291    0.00307    0.00246    0.00168
CL3   1    0.537203    0.547143    0.643219    11.00000    0.01419    0.01448 =
         0.01710   -0.00029    0.00616    0.00199
CL5   1    0.364734    0.805634    0.542460    11.00000    0.01289    0.01284 =
         0.01435    0.00036    0.00410   -0.00075
CL7   1    0.835967    0.953973    0.546496    11.00000    0.01237    0.01665 =
         0.01775   -0.00022    0.00584   -0.00278
CL6   1    0.552143    1.026139    0.642676    11.00000    0.01507    0.01210 =
         0.01283   -0.00187    0.00427   -0.00013
CL8   1    0.642843    0.730690    0.446207    11.00000    0.01754    0.01407 =
         0.01598   -0.00246    0.00624    0.00062
CL2   1    0.439052    0.693824    0.822844    11.00000    0.01743    0.01489 =
         0.01235   -0.00246    0.00367   -0.00116
CL4   1    0.174098    0.554247    0.459657    11.00000    0.01781    0.01938 =
         0.01257   -0.00211    0.00353   -0.00208
CL1   1    0.074053    0.700468    0.637998    11.00000    0.01403    0.01678 =
         0.02094   -0.00023    0.00578    0.00316
HKLF 4




REM  2020vkwsecl4_2b_a.res in P2(1)/n
REM R1 =  0.0162 for    2069 Fo > 4sig(Fo)  and  0.0183 for all    2207 data
REM    109 parameters refined using      0 restraints

END

WGHT      0.0259      0.0000

REM Highest difference peak  0.857,  deepest hole -0.714,  1-sigma level  0.176
Q1    1   0.6051  0.7794  0.5824  11.00000  0.05    0.86
Q2    1   0.6717  0.7843  0.5434  11.00000  0.05    0.79
Q3    1   0.7572  0.8761  0.6677  11.00000  0.05    0.79
Q4    1   0.3665  0.5222  0.6425  11.00000  0.05    0.72
Q5    1   0.2541  0.5191  0.6656  11.00000  0.05    0.72
Q6    1   0.5247  0.8025  0.5850  11.00000  0.05    0.69
Q7    1   0.1053  0.4559  0.6622  11.00000  0.05    0.68
;
_shelx_res_checksum              97412
_shelx_hkl_file
;
   0   0   1    0.05    0.59
   0   0  -1    0.34    0.68
   0   0  -1    1.15    0.71
   0   0  -1    0.19    0.51
   0   0  -1    1.69    1.58
   0   0   2   60.53    2.76
   0   0  -2   53.34    4.87
   0   0   2   55.10    2.62
   0   0  -2   66.85    3.05
   0   0  -2   64.44    2.88
   0   0  -2   62.14    2.72
   0   0   3    1.55    1.45
   0   0   3    0.45    1.22
   0   0  -3    1.52    1.63
   0   0  -3    0.78    1.74
   0   0  -3    2.80    5.53
   0   0  -4   96.84    4.66
   0   0  -4   99.28    4.72
   0   0   4   91.44    4.28
   0   0  -4  100.48    5.98
   0   0   4   88.39    4.37
   0   0  -5   -0.26    1.78
   0   0  -5   -0.25    2.04
   0   0  -5    0.15    3.66
   0   0   5    1.56    1.78
   0   0   5    0.55    1.76
   0   0  -6  107.37    5.98
   0   0  -6  120.04    6.02
   0   0  -6   97.60    6.99
   0   0  -6  119.19    8.33
   0   0   6  116.90    5.79
   0   0   6  119.37    5.75
   0   0   7   -1.75    2.36
   0   0  -7   -0.54    4.57
   0   0   7    0.96    2.07
   0   0  -7    1.35    2.04
   0   0   7   -0.64    1.96
   0   0  -7   -1.59    3.13
   0   0  -7    0.55    2.38
   0   0  -7    0.39    2.00
   0   0   8  121.06    5.62
   0   0  -8  112.81    5.86
   0   0  -8  113.55    9.94
   0   0   8  117.25    6.85
   0   0   8  118.00    5.75
   0   0  -8  106.73    7.89
   0   0  -8  120.64    7.08
   0   0  -8  113.74    6.65
   0   0   9    0.18    2.04
   0   0  -9    0.96    2.42
   0   0  -9   -5.63    6.85
   0   0   9    0.09    2.50
   0   0  -9   -0.50    3.17
   0   0  -9   -3.45    3.27
   0   0  10 3228.27  108.53
   0   0 -10 3174.20  108.81
   0   0 -10 2849.88  115.60
   0   0  10 3181.79  108.59
   0   0 -10 2926.41  111.08
   0   0 -11    1.36    2.69
   0   0  11   -2.01    2.60
   0   0  11   -0.53    3.04
   0   0 -12  576.70   21.61
   0   0  12  586.94   21.47
   0   0  12  561.86   21.53
   0   0 -13   -1.14    2.13
   0   0  13    0.16    2.52
   0   0 -13    3.39    6.92
   0   0  13    0.50    2.10
   0  -1   0    0.15    0.53
   0  -1   0   -0.11    0.36
   0  -1  -1   33.79    2.53
   0  -1   1   29.71    1.63
   0   1   1   29.85    1.69
   0  -1   1   36.31    1.33
   0  -1  -1   34.03    1.59
   0   1  -1   34.61    1.87
   0   1   1   35.29    1.57
   0   1   2 1405.65   53.86
   0  -1  -2 1728.22   55.39
   0   1  -2 1742.63   54.39
   0   1  -2 1509.92   54.52
   0  -1  -2 1773.77   54.27
   0  -1  -2 1607.03   54.23
   0   1   2 1612.01   54.29
   0  -1   2 1625.07   53.98
   0   1   3 1103.18   39.37
   0  -1   3 1113.38   39.71
   0  -1  -3 1174.94   40.19
   0  -1  -3 1213.29   41.67
   0   1  -3 1197.01   39.82
   0  -1  -3 1163.68   39.81
   0   1  -3 1148.36   40.22
   0  -1  -3 1201.90   39.87
   0  -1   3 1121.08   39.47
   0   1   3 1132.71   39.83
   0   1   4  140.25    6.12
   0  -1  -4  146.80    9.74
   0  -1  -4  161.37    7.48
   0  -1   4  147.15    6.45
   0  -1  -4  161.56    6.60
   0   1  -4  166.96    7.02
   0  -1  -4  161.43    6.67
   0   1  -4  148.70    6.47
   0   1   4  152.91    6.57
   0  -1   4  156.66    6.23
   0  -1   5  385.38   14.83
   0  -1  -5  343.30   18.64
   0   1  -5  437.39   17.41
   0  -1  -5  412.05   16.21
   0   1   5  391.01   14.54
   0  -1   5  396.22   14.50
   0   1   5  382.09   14.87
   0   1  -5  400.51   15.29
   0  -1  -5  397.31   15.02
   0  -1  -5  399.94   15.04
   0  -1  -5  345.00   15.56
   0  -1  -6    3.44    7.24
   0  -1  -6    2.78    2.91
   0   1  -6    4.35    2.20
   0  -1  -6    5.85    1.92
   0   1  -6    4.03    3.39
   0  -1  -6    7.38    2.57
   0  -1   6    6.30    1.96
   0  -1   6    6.04    2.32
   0   1   6    7.52    2.14
   0  -1  -6    6.66    3.74
   0   1  -6    8.38    5.31
   0   1   6    8.30    2.37
   0  -1  -7  979.42   35.61
   0  -1  -7  979.15   36.56
   0   1  -7  890.72   35.42
   0   1  -7  903.54   36.80
   0   1  -7 1036.88   35.71
   0   1  -7 1096.13   39.59
   0   1   7  941.50   35.03
   0  -1   7 1028.32   35.62
   0  -1  -7  963.97   37.67
   0   1   7 1019.72   35.43
   0  -1  -7  997.47   34.59
   0   1   7  951.86   34.15
   0  -1   7  948.45   34.11
   0  -1   7  985.04   34.14
   0  -1   8   38.89    3.01
   0  -1  -8   35.10    3.40
   0   1  -8   54.76    8.35
   0  -1   8   41.62    4.24
   0  -1  -8   32.68    6.48
   0  -1   8   37.32    3.15
   0   1   8   37.04    3.20
   0   1  -8   35.79    3.72
   0  -1  -8   32.20    4.49
   0   1  -8   34.34    4.06
   0  -1  -8   39.40    4.26
   0   1  -8   30.25    4.97
   0  -1   9    4.89    2.16
   0  -1  -9    2.80    2.52
   0  -1  -9   -0.79    5.81
   0  -1   9    1.66    3.19
   0   1  -9   -0.95    6.92
   0  -1   9    4.24    2.51
   0   1   9    1.33    2.46
   0   1  -9    7.70    3.46
   0  -1  -9    2.44    3.00
   0   1  -9    5.61    3.76
   0   1  -9    6.46    2.53
   0  -1  10  137.34    6.54
   0  -1 -10  122.87    6.76
   0   1 -10  123.99   12.94
   0  -1 -10  124.67   11.63
   0  -1  10  140.12    6.79
   0   1  10  133.00    6.84
   0   1 -10  110.06    8.48
   0  -1 -10  112.46    7.82
   0  -1 -11   50.85    4.45
   0  -1  11   55.47    4.48
   0   1  11   58.65    4.76
   0  -1  11   61.64    4.20
   0  -1 -12  311.93   12.90
   0   1 -12  321.73   17.45
   0  -1  12  327.94   12.89
   0   1  12  316.18   12.96
   0  -1  12  335.01   12.70
   0  -1 -12  291.69   12.64
   0  -1 -13   26.71    2.83
   0   1 -13   32.84    7.77
   0   1  13   27.74    3.28
   0  -1 -13   29.29    7.20
   0  -1  13   30.93    3.23
   0  -1  13   29.65    2.79
   0   2   0   51.82    2.10
   0   2   0   53.30    2.38
   0  -2   0   49.53    2.18
   0   2   0   49.12    2.16
   0  -2   0   51.83    2.30
   0   2   0   43.31    3.18
   0  -2   1   20.70    1.56
   0  -2  -1   23.61    1.14
   0   2  -1   21.81    4.96
   0   2   1   20.86    1.72
   0   2  -1   21.98    1.43
   0  -2  -1   22.10    1.26
   0  -2  -1   25.12    2.70
   0   2   1   22.98    1.83
   0   2  -2   32.41    2.25
   0   2  -2   35.85    2.60
   0  -2  -2   31.20    2.04
   0  -2   2   31.67    2.19
   0  -2  -2   31.54    3.84
   0   2  -2   40.34    5.58
   0   2   2   31.65    2.10
   0   2   3  343.83   12.81
   0  -2   3  359.38   12.10
   0   2  -3  349.93   12.70
   0  -2  -3  353.21   12.60
   0   2  -3  364.49   12.85
   0   2   3  326.20   11.88
   0  -2  -3  313.07   14.33
   0  -2  -3  323.02   12.98
   0  -2   4  141.90    5.45
   0   2   4  144.56    6.23
   0  -2  -4  123.60    6.38
   0  -2  -4  142.94    6.09
   0   2  -4  137.34    6.17
   0   2  -4  141.72    6.11
   0   2   4  124.24    5.25
   0  -2  -4  130.70    8.99
   0  -2   4  135.56    6.09
   0  -2  -4  132.88    6.73
   0   2   5 6927.22  220.46
   0   2  -5 6803.90  220.21
   0   2  -5 6786.32  220.80
   0   2  -5 6646.22  220.33
   0  -2  -5 6901.53  220.31
   0  -2  -5 6112.60  220.76
   0   2  -5 5998.03  221.49
   0   2   5 5754.18  219.35
   0  -2  -5 6438.65  223.87
   0  -2  -5 6673.11  221.20
   0  -2   5 6501.67  220.21
   0   2   6  318.15   12.44
   0   2  -6  293.99   12.02
   0   2  -6  300.29   12.40
   0  -2  -6  314.45   12.30
   0   2  -6  285.65   12.50
   0   2  -6  284.05   13.88
   0  -2  -6  280.51   12.68
   0   2  -6  333.62   15.99
   0   2   6  281.58   11.29
   0  -2  -6  296.11   13.62
   0  -2  -6  247.16   16.16
   0  -2   6  290.33   12.18
   0   2  -7  362.98   14.94
   0   2  -7  315.79   16.12
   0  -2  -7  379.02   14.88
   0   2  -7  361.33   14.81
   0  -2  -7  354.47   15.29
   0  -2  -7  290.72   20.58
   0   2  -7  373.90   18.89
   0  -2  -7  344.06   16.55
   0  -2   7  373.74   14.91
   0   2   7  346.10   13.23
   0   2   7  366.95   14.83
   0   2  -7  365.53   13.58
   0  -2  -7  356.20   13.89
   0   2   7  341.51   13.47
   0  -2   7  327.76   13.32
   0  -2   7  361.92   13.34
   0   2  -8   50.19    4.74
   0   2  -8   60.17    4.58
   0  -2  -8   43.28    4.61
   0   2  -8   43.87    5.90
   0  -2  -8   51.15    4.59
   0   2  -8   46.50    8.64
   0  -2  -8   42.03    6.50
   0  -2   8   49.28    4.63
   0   2   8   47.70    4.62
   0  -2  -8   45.92    3.92
   0   2  -8   51.20    3.63
   0  -2   8   47.85    3.57
   0   2   8   46.76    3.70
   0  -2   8   49.09    3.35
   0   2  -9  254.17   12.76
   0   2  -9  257.01   13.96
   0   2  -9  270.92   12.39
   0  -2  -9  234.21   12.16
   0  -2  -9  227.92   14.93
   0  -2   9  257.33   12.82
   0   2  -9  238.44   17.27
   0   2   9  270.76   11.56
   0  -2  -9  281.13   11.40
   0   2   9  261.50   11.03
   0  -2   9  269.95   10.90
   0   2   9  260.58   10.88
   0  -2   9  251.57   10.64
   0   2  10   49.65    4.04
   0  -2  10   53.52    3.95
   0  -2 -10   55.58    4.55
   0   2 -10   49.88    9.74
   0  -2 -10   53.79    8.35
   0   2  10   48.75    4.43
   0  -2  10   60.51    4.39
   0   2 -10   42.35    5.62
   0  -2 -11   20.93    3.36
   0  -2  11   20.58    3.39
   0   2  11   16.33    3.47
   0   2 -11   19.95    8.33
   0  -2  11   17.28    2.86
   0  -2 -12   -0.71    2.59
   0  -2  12    0.65    2.76
   0   2 -12   -4.75    8.15
   0   2  12    3.48    3.00
   0  -2  12   -0.26    2.27
   0  -2 -12   -1.55    2.63
   0  -2 -13   31.98    3.06
   0   2 -13   39.23    8.21
   0  -2  13   40.26    3.39
   0   2  13   31.06    3.32
   0  -2  13   45.42    3.06
   0   2  13   37.54    3.04
   0   3   0    0.49    1.58
   0   3   0    1.88    2.95
   0   3   0    1.03    1.12
   0  -3   0    0.78    1.17
   0  -3   0   -0.22    1.07
   0   3   0   -0.08    0.97
   0  -3  -1  555.24   19.22
   0  -3   1  530.97   19.64
   0   3   1  562.43   19.61
   0   3   1  582.35   19.63
   0  -3  -1  569.97   20.54
   0   3  -1  564.73   19.27
   0   3  -1  533.67   19.99
   0   3   1  536.20   20.03
   0   3   2 1730.20   63.27
   0   3  -2 2058.79   66.78
   0  -3  -2 1974.86   64.96
   0  -3   2 1781.69   63.47
   0   3   2 1895.55   63.54
   0  -3  -2 1846.93   62.78
   0  -3  -2 1836.42   63.07
   0   3  -2 1869.85   63.21
   0   3  -3  158.63    6.73
   0   3  -3  156.62    7.01
   0  -3  -3  163.86    6.54
   0  -3  -3  161.33    6.45
   0   3   3  160.15    6.53
   0  -3   3  144.19    6.71
   0  -3  -3  171.13    8.92
   0  -3  -4    9.68    2.23
   0   3  -4   10.86    2.27
   0  -3  -4    9.70    2.03
   0   3  -4    6.39    3.46
   0   3  -4    8.49    2.25
   0   3   4    9.18    1.93
   0  -3  -4   11.54    5.08
   0  -3  -4    8.20    2.77
   0   3   4   10.53    2.48
   0   3   5   39.76    2.77
   0  -3  -5   33.50    6.51
   0  -3   5   38.54    3.36
   0  -3  -5   35.29    4.00
   0   3   5   36.00    3.53
   0   3  -5   44.62    3.55
   0  -3  -5   38.02    3.44
   0   3  -5   36.99    3.22
   0  -3  -5   42.76    3.45
   0   3  -6    3.45    6.54
   0  -3  -6    9.02    3.68
   0   3   6    6.59    2.79
   0  -3   6    7.10    2.42
   0   3   6    8.73    1.86
   0  -3  -6    8.45    6.77
   0   3   6    8.44    2.17
   0   3  -6   11.72    2.69
   0  -3  -6    8.95    2.51
   0   3  -6    6.99    2.16
   0  -3  -6    9.82    2.61
   0  -3  -7  974.45   34.04
   0   3  -7  902.16   35.92
   0   3  -7  937.44   34.17
   0   3  -7  757.23   33.68
   0  -3  -7  910.98   33.89
   0   3   7  895.81   32.37
   0   3   7  963.39   34.47
   0   3   7  980.30   33.38
   0   3  -7 1011.65   39.93
   0  -3   7  963.78   34.23
   0  -3  -7  892.94   35.59
   0  -3  -7  738.67   39.62
   0   3  -7  950.01   32.64
   0  -3  -7  912.35   33.09
   0   3   7  942.88   32.86
   0   3  -7  995.57   35.65
   0   3   7  875.35   32.62
   0   3  -7  878.39   32.30
   0  -3   7  919.68   32.41
   0   3  -8  420.84   19.31
   0   3  -8  430.24   17.42
   0   3  -8  425.92   17.64
   0  -3  -8  378.95   16.77
   0   3   8  442.72   16.65
   0   3   8  401.64   15.57
   0   3  -8  431.52   23.06
   0  -3   8  429.95   17.68
   0  -3  -8  409.67   19.58
   0   3  -8  420.74   15.80
   0  -3  -8  406.50   16.31
   0  -3   8  395.45   15.65
   0   3   8  397.24   15.95
   0   3  -8  441.55   19.43
   0  -3   8  417.46   15.60
   0   3  -9   50.58    6.34
   0   3  -9   56.39    5.59
   0   3  -9   56.32    4.85
   0   3   9   62.38    4.78
   0   3  -9   42.80   10.09
   0  -3   9   50.98    5.42
   0  -3  -9   56.82    7.42
   0   3  -9   51.06    3.95
   0  -3  -9   50.71    4.35
   0  -3   9   48.72    4.01
   0   3   9   52.05    4.46
   0   3  -9   62.14    8.65
   0  -3   9   48.89    3.74
   0  -3  10  860.18   30.37
   0   3  10  839.33   30.61
   0   3 -10  768.76   39.28
   0  -3  10  850.24   33.31
   0  -3 -10  752.70   35.25
   0   3 -10  850.96   30.54
   0  -3 -10  836.33   31.00
   0   3  10  811.28   30.78
   0   3 -10  861.76   35.40
   0  -3  10  854.23   30.54
   0   3 -10  827.93   32.39
   0   3 -10  792.71   33.92
   0  -3 -11   30.48    3.76
   0   3 -11   28.91    3.23
   0   3  11   32.43    4.13
   0  -3  11   32.98    3.73
   0   3 -11   41.22    9.47
   0   3  11   32.24    3.53
   0  -3  11   37.21    3.38
   0  -3 -11   30.20    3.71
   0   3 -12  155.52    6.71
   0  -3 -12  126.46    6.81
   0  -3  12  153.18    6.96
   0   3  12  132.01    7.02
   0   3 -12  148.26   12.44
   0  -3  12  157.24    6.71
   0   3  12  130.91    6.67
   0  -3 -12  123.80    6.74
   0  -3 -13   38.85    3.23
   0   3 -13   56.75    3.31
   0  -3 -13   50.51    3.23
   0   3  13   47.12    3.65
   0  -3  13   53.12    3.61
   0   3 -13   42.75    8.57
   0  -3  13   57.93    3.30
   0   3  13   46.63    3.21
   0  -4   0  248.93    9.52
   0   4   0  257.36    9.32
   0   4   0  264.24    9.87
   0  -4   0  261.21    9.37
   0   4   0  256.64    9.22
   0   4   0  255.85   10.61
   0  -4   1  281.30   10.69
   0  -4  -1  274.06   10.18
   0   4   1  284.33   10.56
   0  -4  -1  295.71   11.81
   0   4   1  294.94   10.66
   0   4  -1  289.51   11.57
   0   4  -1  293.04   11.06
   0   4  -1  286.36   10.08
   0   4   1  275.01   11.26
   0  -4  -1  278.72   10.63
   0  -4   2  227.90    9.22
   0   4   2  237.47    9.23
   0  -4  -2  231.51   10.88
   0   4   2  230.24    9.00
   0   4  -2  222.91    9.95
   0   4  -2  237.00    8.79
   0   4   2  236.94    9.75
   0   4   3  227.82    8.79
   0   4  -3  245.95   13.72
   0  -4   3  229.88    9.18
   0  -4  -3  248.96   11.65
   0   4   3  236.64    9.33
   0  -4  -3  208.95    7.84
   0   4  -3  222.15   10.36
   0   4  -3  240.57    8.95
   0  -4  -4  716.25   26.82
   0  -4  -4  601.35   24.06
   0   4  -4  692.33   28.87
   0  -4   4  663.39   23.84
   0   4  -4  581.69   24.12
   0   4  -4  595.47   23.92
   0   4  -4  644.96   23.55
   0   4  -4  605.40   25.23
   0  -4  -4  661.81   22.84
   0   4   4  690.44   23.29
   0  -4  -5  228.03   11.19
   0  -4  -5  243.32   13.88
   0   4  -5  248.74   10.73
   0   4  -5  244.64   11.17
   0  -4  -5  242.11    9.86
   0   4  -5  250.69   10.61
   0   4  -5  230.92   12.38
   0   4   5  270.79   10.07
   0  -4  -6   -0.75    3.45
   0  -4   6    3.07    2.45
   0   4   6    1.84    2.87
   0   4   6    2.11    1.76
   0  -4  -6    1.52    6.11
   0   4  -6    5.73    5.54
   0   4  -6    2.74    1.48
   0   4   6    1.82    2.18
   0   4  -6    1.81    1.97
   0   4  -6    3.58    3.79
   0   4  -6    2.68    2.61
   0   4  -6    1.94    2.56
   0   4  -7   30.16    5.21
   0   4  -7   41.99    4.35
   0   4  -7   34.56    3.64
   0   4   7   33.15    2.90
   0   4   7   39.19    4.13
   0  -4   7   32.37    2.66
   0   4   7   33.13    4.33
   0  -4   7   32.94    3.88
   0   4  -7   33.00    8.81
   0  -4  -7   32.62    5.22
   0  -4  -7   38.10    3.73
   0   4  -7   34.90    2.92
   0  -4  -7   20.49    8.78
   0   4  -7   33.32    2.66
   0   4  -7   30.83    6.83
   0   4   7   32.93    3.46
   0  -4   7   33.33    2.73
   0   4   8  691.90   25.38
   0   4   8  655.47   24.53
   0  -4   8  692.63   26.81
   0  -4  -8  710.12   28.70
   0   4  -8  683.58   33.71
   0  -4   8  659.81   24.49
   0  -4  -8  679.12   25.38
   0   4  -8  676.98   24.66
   0   4  -8  680.90   24.48
   0   4   8  658.89   25.00
   0   4  -8  740.22   29.64
   0   4  -8  709.90   26.93
   0  -4   9   13.25    2.59
   0   4  -9   16.09    2.62
   0  -4   9   10.92    3.61
   0   4  -9    4.42    9.43
   0  -4  -9   18.46    5.32
   0  -4   9   14.92    3.14
   0   4   9    9.32    3.36
   0   4  -9   16.15    8.03
   0  -4  -9   17.68    3.37
   0   4 -10    3.81    8.45
   0  -4 -10    3.35    5.27
   0  -4  10    1.27    3.42
   0  -4 -10    0.39    2.91
   0   4 -10    3.46    2.43
   0   4  10    0.36    3.18
   0   4 -10   -3.29    8.52
   0  -4  10    1.06    2.90
   0   4  10    5.71    2.71
   0  -4  10    4.88    2.38
   0   4 -11  347.23   13.39
   0  -4 -11  314.00   13.77
   0  -4  11  376.05   13.74
   0   4 -11  350.53   19.91
   0   4  11  330.90   13.86
   0   4  11  327.54   13.50
   0  -4  11  347.70   13.34
   0  -4 -11  296.24   13.64
   0  -4 -12  258.99   11.91
   0   4 -12  316.80   11.86
   0  -4 -12  281.44   12.04
   0  -4  12  326.47   12.13
   0   4  12  309.22   12.27
   0   4 -12  293.10   17.78
   0  -4  12  322.40   11.83
   0   4  12  278.76   11.81
   0   5   0    1.36    2.21
   0   5   0    0.18    3.08
   0  -5   0    3.50    1.21
   0   5   0   -0.03    0.65
   0  -5   0    2.42    1.43
   0  -5   1  129.79    5.73
   0  -5  -1  123.70    5.08
   0   5   1  124.45    5.49
   0   5   1  132.50    5.72
   0  -5  -1  121.14    6.81
   0   5  -1  117.07    5.77
   0   5  -1  130.55    6.89
   0   5   1  123.74    6.48
   0  -5  -1  136.73    5.52
   0  -5   2  306.31   11.97
   0   5   2  313.29   11.95
   0  -5  -2  298.67   13.50
   0   5   2  305.99   11.62
   0   5  -2  307.12   12.65
   0   5  -2  291.86   12.63
   0   5  -2  307.42   11.27
   0   5   2  301.07   12.43
   0  -5  -3 1010.96   36.73
   0  -5   3  970.14   34.36
   0   5   3  964.12   34.43
   0   5   3  906.44   33.62
   0   5  -3  959.11   35.50
   0   5  -3  987.52   33.80
   0   5   3  949.68   34.76
   0   5  -4 1012.98   42.86
   0  -5   4 1061.64   37.74
   0  -5  -4 1208.71   41.10
   0   5   4 1075.85   37.96
   0   5   4  971.49   36.66
   0   5   4 1133.57   38.51
   0   5  -4  943.36   38.00
   0   5  -4 1101.00   37.31
   0   5  -4 1032.40   39.28
   0   5   5  421.40   17.31
   0  -5  -5  432.50   17.54
   0  -5   5  408.04   16.86
   0  -5  -5  456.10   20.76
   0   5   5  410.78   15.64
   0   5  -5  423.93   15.71
   0   5  -5  486.09   16.06
   0   5   5  372.83   15.75
   0   5  -5  380.33   17.21
   0   5  -5  429.10   16.65
   0   5  -5  397.99   18.42
   0   5  -5  434.78   16.95
   0   5   6  305.78   11.95
   0   5   6  324.61   12.77
   0  -5   6  316.95   12.02
   0  -5  -6  307.98   18.18
   0  -5  -6  338.75   14.61
   0   5  -6  305.39   13.83
   0   5  -6  325.04   13.54
   0   5  -6  286.12   15.37
   0   5  -6  305.10   13.35
   0  -5  -6  303.34   12.75
   0   5  -6  315.97   11.97
   0   5   6  283.93   12.37
   0   5  -6  309.48   16.50
   0   5  -6  317.73   12.15
   0  -5   6  304.74   11.87
   0   5   7  535.40   18.83
   0   5   7  527.15   19.88
   0   5   7  512.66   19.05
   0  -5   7  498.18   18.81
   0  -5  -7  452.59   26.90
   0  -5   7  502.64   20.96
   0  -5  -7  549.94   22.41
   0   5  -7  482.49   20.99
   0   5  -7  517.98   20.99
   0   5  -7  512.72   23.25
   0   5  -7  515.74   20.70
   0  -5  -7  502.10   19.91
   0   5  -7  523.24   19.10
   0   5  -7  525.11   24.21
   0   5   7  488.72   19.55
   0   5  -7  535.08   19.22
   0  -5   7  506.39   18.98
   0   5   8  197.08    9.14
   0  -5   8  188.46    7.90
   0   5   8  188.92    8.42
   0  -5  -8  144.30   16.99
   0  -5   8  203.16   10.58
   0  -5  -8  200.99   11.87
   0   5  -8  165.94   16.28
   0   5  -8  195.65   11.99
   0   5  -8  188.82   10.14
   0  -5  -8  183.69    9.16
   0   5  -8  190.85    8.35
   0   5   8  186.77    9.06
   0   5  -8  195.77    8.35
   0   5  -8  187.76   14.16
   0  -5   8  193.02    8.29
   0   5   9  279.22   14.65
   0   5  -9  243.33   11.93
   0   5  -9  229.60   13.65
   0   5   9  242.28   10.47
   0  -5   9  248.85   12.52
   0  -5  -9  247.44   13.88
   0   5  -9  203.88   17.96
   0   5  -9  249.09   10.11
   0  -5  -9  227.73   10.84
   0  -5   9  238.20    9.97
   0  -5   9  235.18   10.38
   0   5   9  214.13   10.64
   0   5  -9  243.23   16.62
   0   5 -10  116.91    5.90
   0  -5 -10  105.60    6.45
   0   5  10  109.51    6.16
   0  -5  10  112.19    5.84
   0  -5  10  118.91    6.36
   0   5  10  102.37    6.58
   0   5 -10   95.94   12.60
   0   5 -11   10.01    2.36
   0  -5 -11    4.34    2.84
   0   5  11    7.61    3.31
   0  -5  11    7.75    2.97
   0   5 -11    9.82    9.67
   0   5  11    5.80    2.58
   0  -5  11    7.34    2.32
   0   5 -12  118.68    5.49
   0  -5 -12  100.49    5.65
   0  -5 -12  120.38    5.84
   0   5 -12  104.09   12.24
   0  -5  12  131.39    5.97
   0   5  12  117.47    6.01
   0  -5  12  125.70    5.55
   0   5  12  100.48    5.45
   0   6   0  336.53   14.52
   0  -6   0  335.79   12.04
   0  -6   0  341.85   12.73
   0  -6  -1   94.90    4.42
   0  -6   1  106.58    5.12
   0   6   1   97.45    4.79
   0   6   1  104.24    5.17
   0   6  -1  103.38    4.76
   0  -6  -1  108.96    4.62
   0   6  -1   96.06    6.24
   0   6   1   97.02    5.84
   0  -6   2  380.11   14.25
   0   6   2  376.38   14.10
   0  -6  -2  355.87   15.95
   0   6   2  372.15   13.77
   0   6  -2  356.47   15.07
   0   6  -2  340.86   14.50
   0  -6  -2  363.91   13.78
   0   6   2  333.50   14.42
   0  -6  -3 1430.57   47.20
   0  -6   3 1322.88   44.40
   0   6   3 1293.18   44.33
   0   6   3 1226.34   43.34
   0   6   3 1223.50   44.46
   0   6  -3 1243.88   44.89
   0   6  -3 1144.00   44.93
   0   6  -3 1174.18   43.34
   0   6  -4    2.81    3.37
   0   6  -4    5.12    2.64
   0   6  -4    5.06    2.30
   0   6   4    3.19    2.74
   0   6   4    4.69    2.72
   0  -6   4    2.66    2.44
   0  -6  -4    6.23    5.02
   0   6   4    2.71    1.51
   0   6  -4    9.77    3.00
   0   6   4    4.52    2.47
   0   6   4    5.80    3.25
   0   6   5  579.10   22.30
   0   6   5  526.17   20.60
   0   6   5  513.68   19.92
   0   6   5  559.01   22.08
   0  -6  -5  656.99   26.34
   0  -6   5  531.47   21.62
   0  -6  -5  574.65   22.30
   0   6  -5  546.80   21.12
   0   6  -5  549.97   22.26
   0   6  -5  523.69   23.14
   0   6  -5  544.43   19.87
   0   6  -5  569.32   20.43
   0   6  -5  647.66   20.80
   0   6   5  528.90   20.45
   0   6  -5  492.08   24.82
   0  -6   5  528.59   19.83
   0   6   6  364.38   16.09
   0   6  -6  328.36   16.71
   0   6  -6  333.86   14.85
   0   6  -6  349.63   15.65
   0   6  -6  357.95   15.22
   0   6   6  347.88   14.22
   0   6   6  341.13   13.49
   0   6   6  356.23   15.97
   0  -6   6  358.83   13.69
   0  -6  -6  374.54   20.21
   0  -6   6  367.92   15.50
   0  -6  -6  387.13   16.35
   0   6  -6  350.32   13.39
   0  -6  -6  336.97   14.34
   0   6  -6  350.16   19.25
   0   6   6  336.65   14.02
   0   6  -6  370.82   13.88
   0  -6   6  340.40   13.33
   0   6   7    6.44    4.36
   0  -6  -7    6.70    3.10
   0   6   7    3.19    1.92
   0   6  -7    4.48    4.04
   0   6  -7    4.72    2.82
   0   6  -7    1.91    2.68
   0   6   7    2.78    3.44
   0  -6   7    1.25    2.21
   0   6   7    3.62    2.30
   0  -6  -7    3.78    3.80
   0   6  -7    6.79    2.06
   0  -6  -7    2.24    8.10
   0   6   7    3.50    2.96
   0   6  -7    2.51    2.00
   0   6  -7    2.68    8.46
   0  -6   7    1.47    1.92
   0   6   8   60.47    3.70
   0   6   8   70.63    7.04
   0   6  -8   70.03    5.72
   0   6  -8   60.95    6.83
   0   6   8   59.41    4.24
   0   6   8   60.68    4.97
   0  -6   8   58.50    3.78
   0  -6   8   66.76    5.84
   0  -6  -8   66.61    6.84
   0  -6  -8   58.83    5.01
   0   6  -8   60.27    4.03
   0  -6  -8   50.36   11.65
   0   6  -8   66.70    4.17
   0   6  -8   55.65   10.88
   0   6   8   59.92    5.03
   0  -6   8   58.06    3.97
   0   6  -9  835.60   31.39
   0   6  -9  800.70   33.08
   0   6   9  793.12   29.16
   0  -6   9  849.17   31.96
   0  -6  -9  788.43   32.83
   0  -6  -9  694.51   29.49
   0   6  -9  817.85   28.90
   0   6  -9  825.42   29.06
   0  -6   9  813.33   29.31
   0   6   9  810.34   29.66
   0   6  -9  737.53   35.72
   0  -6   9  818.00   28.87
   0  -6  -9  783.49   29.71
   0  -6 -10  219.08   11.16
   0   6 -10  276.74   10.79
   0   6  10  276.64   11.59
   0  -6  10  288.38   11.29
   0   6 -10  205.28   17.71
   0  -6  10  273.57   10.76
   0   6  10  247.12   10.96
   0  -6 -10  248.01   11.44
   0  -6 -11    0.89    2.55
   0   6 -11    2.83    2.07
   0   6 -11   -0.39    9.85
   0  -6  11   -1.36    2.75
   0   6  11   -2.26    2.99
   0  -6  11    1.76    2.07
   0   6  11    2.64    2.31
   0  -6 -11    1.40    2.69
   0  -6 -12   43.81    3.18
   0   6 -12   47.20    3.08
   0   6 -12   41.27    9.67
   0   6  12   39.22    3.52
   0  -6  12   52.93    3.54
   0   6  12   42.78    3.07
   0  -6  12   57.47    3.15
   0  -7   0   -0.37    1.67
   0   7   0    0.17    3.24
   0  -7   1 1353.76   45.51
   0   7   1 1187.76   46.90
   0   7  -1 1261.39   46.96
   0   7   1 1227.76   45.13
   0   7  -1 1404.67   45.37
   0   7   1 1214.43   45.55
   0   7   2  364.44   15.94
   0   7  -2  439.63   16.28
   0  -7   2  435.28   16.68
   0   7  -2  424.75   17.64
   0   7  -2  428.08   16.35
   0  -7  -2  383.06   18.42
   0   7   2  379.15   16.45
   0   7   3  139.78    7.71
   0  -7  -3  141.59    6.97
   0   7  -3  154.22    8.46
   0   7  -3  154.38    8.12
   0   7   3  154.50    7.77
   0   7   3  137.00    7.21
   0  -7   3  157.62    7.78
   0  -7  -3  161.67   10.04
   0   7  -3  126.73   13.24
   0   7   3  143.09    7.13
   0   7   3  168.44    7.58
   0   7   4  415.60   17.07
   0  -7  -4  378.11   16.40
   0   7  -4  368.99   17.59
   0   7  -4  379.31   17.59
   0   7  -4  426.24   17.58
   0   7   4  391.30   17.15
   0   7   4  387.98   16.17
   0  -7  -4  479.10   20.83
   0  -7   4  462.33   17.45
   0   7  -4  419.60   15.53
   0  -7  -4  412.26   15.90
   0   7   4  392.20   16.07
   0   7  -4  390.11   22.29
   0  -7   4  418.62   15.49
   0   7   5  205.18   10.35
   0   7  -5  200.85   10.70
   0   7  -5  172.22   10.79
   0   7   5  196.09    8.60
   0   7   5  189.26    9.34
   0  -7  -5  221.21   10.93
   0  -7   5  219.64   10.53
   0  -7  -5  234.69   14.17
   0   7  -5  217.88    8.57
   0   7   5  180.23    8.94
   0  -7  -5  206.04    9.14
   0   7   5  201.78    9.24
   0   7  -5  261.64    9.81
   0   7  -5  186.72   15.31
   0   7  -5  222.97    9.22
   0  -7   5  206.59    8.52
   0  -7  -6   13.63    3.46
   0   7   6   19.22    4.17
   0   7  -6   20.25    4.68
   0   7  -6   19.31    3.65
   0  -7   6   20.02    3.05
   0   7   6   22.41    2.88
   0   7   6   20.24    3.83
   0  -7   6   21.13    3.70
   0  -7  -6   21.69    4.24
   0   7  -6   21.89    2.49
   0   7   6   20.29    2.52
   0  -7  -6   21.72    3.43
   0  -7  -6   24.07    7.66
   0   7  -6   19.64    3.32
   0   7  -6   17.33   10.22
   0   7  -6   23.88    2.90
   0   7   6   23.22    3.60
   0  -7   6   21.85    2.48
   0   7   7   46.15    3.50
   0   7  -7   41.52    4.71
   0   7  -7   35.27    5.66
   0   7  -7   38.53    4.64
   0  -7   7   43.44    3.65
   0   7   7   43.84    4.49
   0   7   7   42.42    3.64
   0  -7   7   50.14    5.06
   0  -7  -7   51.55    5.69
   0   7  -7   48.88    3.40
   0  -7  -7   33.91    4.30
   0  -7  -7   43.07    4.31
   0  -7  -7   38.23    9.81
   0   7  -7   45.27    3.73
   0   7   7   43.66    4.48
   0   7  -7   33.58   11.28
   0  -7   7   44.01    3.36
   0   7   8   65.54    4.16
   0   7  -8   74.62    5.91
   0   7  -8   45.12    6.55
   0   7   8   64.49    4.54
   0  -7   8   71.59    4.31
   0   7   8   67.76    5.14
   0  -7  -8   71.84    6.78
   0  -7  -8   54.25   12.48
   0  -7  -8   73.42    5.38
   0  -7   8   76.73    4.41
   0   7   8   69.45    5.47
   0   7  -8   78.34    4.65
   0   7  -8   63.53   12.73
   0  -7  -8   59.06    5.25
   0   7  -8   72.87    4.38
   0  -7  -9  284.61   13.79
   0   7  -9  358.46   13.36
   0   7   9  330.63   13.41
   0  -7  -9  311.79   14.02
   0   7  -9  357.94   13.61
   0   7  -9  294.08   20.93
   0   7   9  345.32   14.18
   0  -7   9  352.03   13.31
   0  -7 -10  112.29    6.38
   0  -7 -10   97.29    6.11
   0   7 -10  115.98    5.74
   0  -7  10  132.93    6.40
   0   7  10  124.09    6.64
   0   7 -10   97.59   13.90
   0  -7  10  124.39    5.78
   0   7  10  104.31    5.85
   0  -7 -11   15.04    2.80
   0   7 -11   14.59    2.22
   0  -7 -11   13.48    2.54
   0   7 -11   11.46    9.84
   0  -7  11   15.81    2.80
   0   7  11   15.88    3.07
   0   7  11   14.42    2.34
   0  -7  11   18.92    2.33
   0  -8   0  128.10    8.23
   0   8   0  121.62    7.96
   0   8   0  134.14    7.58
   0  -8   1  356.75   14.13
   0   8  -1  360.96   14.24
   0   8   1  331.64   14.04
   0   8   1  388.28   14.85
   0   8   1  391.89   16.19
   0   8  -1  332.17   15.58
   0   8   1  301.13   15.58
   0   8   2  277.67   15.67
   0   8  -2  364.04   16.07
   0   8  -2  379.08   14.70
   0   8   2  309.94   14.25
   0  -8  -2  361.14   17.19
   0  -8   2  377.14   15.01
   0  -8  -2  361.74   13.57
   0   8  -2  457.78   15.47
   0   8   2  376.16   16.49
   0   8   2  401.01   14.98
   0   8  -2  312.07   17.33
   0   8  -3  357.30   15.57
   0   8   3  313.49   13.19
   0   8   3  302.60   13.89
   0  -8   3  382.15   15.06
   0  -8  -3  368.79   17.57
   0   8  -3  349.94   13.45
   0  -8  -3  330.46   13.20
   0   8  -3  282.76   20.81
   0   8   3  387.60   16.64
   0   8   3  395.01   14.53
   0   8  -3  239.31   17.02
   0   8   4  153.23    8.10
   0   8   4  146.68    7.17
   0  -8   4  186.83    9.20
   0  -8  -4  185.90   12.07
   0   8  -4  163.83    7.28
   0  -8  -4  149.28    7.36
   0   8   4  158.18    7.92
   0   8  -4  126.02   14.88
   0   8  -4  167.29    8.90
   0   8  -4  185.77    9.56
   0   8  -4  161.13    9.37
   0   8  -5  139.40    8.73
   0   8  -5  130.13    8.62
   0   8  -5  143.22    8.57
   0   8   5  124.14    6.54
   0   8   5  146.94    7.67
   0  -8   5  151.68    8.64
   0  -8  -5  166.14   12.33
   0  -8  -5  153.54    8.82
   0   8   5  119.41    7.06
   0   8  -5  154.27    6.70
   0  -8  -5  138.04    7.08
   0   8  -5  115.24   14.82
   0   8   5  138.28    7.37
   0   8  -5  184.24    8.05
   0   8  -5  150.00    7.36
   0  -8   5  144.67    6.57
   0   8  -6  164.93    9.57
   0   8  -6  153.66    9.95
   0   8   6  157.39    7.47
   0   8   6  161.59    8.37
   0  -8   6  170.12    7.79
   0  -8  -6  185.31   14.17
   0  -8  -6  183.61   10.09
   0  -8   6  161.49    9.45
   0   8   6  157.37    7.53
   0  -8  -6  123.80    8.11
   0   8  -6  172.87    7.44
   0  -8  -6  157.70    8.01
   0   8  -6  150.83   15.99
   0   8  -6  188.24    8.28
   0   8   6  151.92    8.18
   0   8  -6  191.27    8.56
   0  -8   6  157.69    7.30
   0   8   7  268.79   11.22
   0   8  -7  220.67   13.42
   0   8  -7  267.03   13.33
   0   8   7  301.21   12.16
   0  -8   7  247.71   10.98
   0   8   7  252.01   11.03
   0  -8   7  262.31   13.42
   0  -8  -7  312.38   14.32
   0  -8  -7  263.40   19.53
   0  -8  -7  226.62   11.76
   0   8  -7  295.08   11.18
   0  -8  -7  262.55   11.75
   0   8   7  267.50   11.92
   0   8  -7  288.23   11.72
   0   8  -7  265.59   20.07
   0  -8   7  294.01   11.10
   0   8   8  275.09   11.62
   0   8   8  261.21   11.70
   0   8   8  295.61   12.38
   0  -8   8  290.71   11.58
   0  -8   8  298.17   14.47
   0  -8  -8  243.50   20.49
   0  -8  -8  304.13   14.89
   0  -8  -8  289.22   12.62
   0   8  -8  325.18   11.95
   0  -8  -8  250.60   12.36
   0   8  -8  322.74   12.38
   0   8  -8  294.56   20.83
   0   8   8  283.04   12.60
   0  -8   8  311.21   11.82
   0  -8   9   48.23    3.50
   0  -8  -9   48.81    4.38
   0   8  -9   48.40    3.53
   0  -8  -9   37.95    4.05
   0   8  -9   36.03   13.01
   0   8  -9   47.22    3.71
   0   8   9   47.55    4.65
   0   8   9   42.52    3.09
   0  -8 -10  102.19    5.40
   0  -8 -10  112.57    5.90
   0  -8  10  119.52    5.27
   0   8  10   94.49    5.21
   0   8  10  108.94    5.99
   0  -8  10  113.73    5.83
   0   8 -10   96.80   14.05
   0   8 -10  114.38    5.30
   0  -8 -10   96.50    5.53
   0  -8 -11  261.32   10.10
   0  -8 -11  243.84    9.86
   0  -8  11  283.39   10.28
   0  -8  11  254.87    9.61
   0  -9   0    1.59    3.65
   0   9   0    1.47    4.49
   0   9   0    2.21    3.28
   0   9   0    1.54    3.26
   0   9  -1   24.70    4.45
   0   9   1   27.01    4.74
   0   9  -1   35.80    4.39
   0   9   1   33.11    4.27
   0   9  -1   32.09    4.62
   0  -9   1   40.51    5.17
   0   9  -1   38.67    4.47
   0   9   1   37.94    4.14
   0   9   1   35.94    5.24
   0   9  -1   38.06    5.90
   0   9   2   20.85    4.29
   0   9  -2   25.71    4.35
   0   9  -2   25.82    4.14
   0   9   2   18.67    3.83
   0  -9   2   22.53    3.19
   0  -9  -2   22.10    2.27
   0   9  -2   30.98    4.50
   0   9   2   27.33    3.62
   0   9  -2   24.47    5.98
   0   9   2   27.57    5.37
   0   9   3   26.63    4.37
   0   9  -3   34.31    4.63
   0   9  -3   33.31    4.44
   0   9   3   33.87    4.32
   0  -9   3   41.71    4.30
   0   9  -3   45.50    3.56
   0  -9  -3   40.05    2.98
   0  -9  -3   49.07    6.60
   0   9  -3   35.34   12.76
   0   9   3   38.73    5.76
   0   9   3   38.71    4.06
   0   9  -3   39.96    7.50
   0   9  -4  837.51   30.95
   0   9  -4  755.90   30.56
   0   9   4  764.05   28.88
   0   9   4  703.31   27.76
   0  -9  -4  846.11   34.08
   0  -9   4  832.50   30.44
   0   9  -4  824.05   28.23
   0   9   4  590.55   28.66
   0  -9  -4  794.58   28.03
   0  -9  -4  785.47   27.92
   0   9  -4 1093.08   30.57
   0   9  -4  657.33   36.44
   0   9  -4  668.30   32.56
   0   9  -5   -0.70    3.01
   0   9  -5    0.70    2.98
   0   9   5    1.99    3.60
   0   9   5    0.17    2.39
   0  -9  -5    4.01    3.03
   0  -9   5    1.11    2.97
   0   9  -5    2.81    2.34
   0   9   5   -0.92    2.92
   0  -9  -5    1.22    2.51
   0  -9  -5    1.46    2.14
   0  -9  -5    3.12    5.91
   0   9  -5   -1.96    3.42
   0   9  -5    0.56   12.60
   0   9  -5    0.66    2.70
   0   9  -5    0.39    7.70
   0   9   6  208.60    9.66
   0   9  -6  208.14   11.30
   0   9  -6  228.08   11.60
   0  -9   6  218.93    9.57
   0   9   6  236.00   10.46
   0   9   6  190.03    9.09
   0  -9  -6  229.52   16.06
   0  -9   6  218.15   11.70
   0  -9  -6  222.03   11.63
   0   9   6  221.33    9.60
   0   9  -6  226.34    9.42
   0  -9  -6  205.24    9.63
   0  -9  -6  203.83    9.32
   0   9  -6  181.02   18.84
   0   9  -6  262.06   10.64
   0   9  -6  236.46   10.18
   0  -9   6  227.65    9.26
   0   9   7   62.99    4.36
   0   9   7   58.43    4.15
   0   9   7   70.76    5.32
   0  -9   7   60.88    4.25
   0  -9   7   61.47    6.12
   0  -9  -7   69.66    6.15
   0  -9  -7   65.73    4.41
   0  -9  -7   58.57   10.64
   0  -9  -7   63.72    4.76
   0  -9   7   67.56    4.07
   0   9  -7   39.97   13.46
   0   9  -7   63.61    4.77
   0   9  -7   64.77    4.19
   0  -9  -7   44.45    4.72
   0   9   8  612.18   22.02
   0  -9  -8  518.26   22.30
   0   9  -8  629.92   22.09
   0   9   8  613.21   22.46
   0  -9   8  599.64   21.78
   0  -9  -8  590.73   22.16
   0  -9  -8  612.38   22.48
   0   9  -8  511.02   30.73
   0   9  -8  655.84   22.71
   0  -9   8  646.92   21.95
   0   9  -9  165.45    7.24
   0  -9   9  179.57    7.13
   0  -9  -9  154.36    7.33
   0  -9  -9  163.89    7.65
   0   9   9  160.13    6.93
   0   9  -9  170.57    7.61
   0  -9 -10  186.65    8.03
   0  -9 -10  191.42    7.92
   0  10   0    0.64    3.24
   0 -10   0    1.25    4.20
   0  10   0   -2.64    4.65
   0  10   0    2.32    3.29
   0  10  -1  252.44   13.68
   0  10   1  218.95   13.27
   0 -10  -1  268.78   15.23
   0 -10   1  286.09   15.10
   0  10   1  271.44   12.54
   0  10  -1  260.61   12.56
   0  10  -1  321.58   13.48
   0  10   1  316.73   14.55
   0  10   1  307.82   12.70
   0  10  -1  339.82   14.86
   0  10  -1  291.05   13.45
   0  10  -2  339.71   16.72
   0  10   2  317.28   15.06
   0 -10   2  375.53   17.88
   0  10   2  388.52   17.27
   0  10  -2  474.01   17.00
   0  10   2  362.86   15.22
   0  10  -2  435.03   18.09
   0  10  -2  296.64   15.85
   0  10   3   95.09    6.50
   0 -10  -3  110.19    9.63
   0 -10   3   98.52    6.58
   0 -10   3  107.98    8.23
   0 -10  -3   98.19    4.76
   0  10   3  106.94    6.33
   0  10  -3   98.97    7.19
   0  10  -4  183.95   10.58
   0  10   4  192.17    9.56
   0 -10   4  194.35   10.33
   0 -10  -4  213.90   13.83
   0  10   4  150.68    9.17
   0 -10  -4  189.97    8.06
   0  10  -4  188.08    9.38
   0  10  -4  225.25   10.26
   0  10  -4  196.24   12.71
   0  10  -5  168.30    9.82
   0 -10   5  183.93    8.20
   0  10   5  178.27    8.99
   0 -10  -5  164.44    9.62
   0 -10  -5  160.38   13.02
   0 -10   5  150.10    9.51
   0  10   5  164.89    8.45
   0 -10  -5  163.56    7.48
   0 -10  -5  165.43    7.45
   0  10  -5  137.99   17.42
   0  10  -5  175.54    8.74
   0  10  -5  200.05    9.18
   0  10  -5  146.04   11.88
   0  10   6 1053.04   38.09
   0  10   6 1099.92   38.49
   0 -10   6 1065.40   37.68
   0 -10  -6 1019.41   39.97
   0 -10   6 1038.79   40.29
   0 -10  -6 1073.66   45.75
   0 -10  -6 1027.90   37.45
   0 -10  -6 1049.03   37.48
   0  10  -6  951.63   41.39
   0  10  -6 1112.38   38.58
   0  10  -6 1036.07   37.53
   0  10   6 1123.76   37.93
   0  10  -7    3.10    1.97
   0 -10  -7    5.46    2.28
   0 -10  -7    2.01    2.29
   0 -10   7    8.12    2.66
   0  10   7    7.14    3.47
   0  10  -7    4.30   12.59
   0  10  -7    6.48    2.70
   0  10   7    3.47    2.44
   0 -10  -8   50.27    3.49
   0 -10  -8   45.64    3.50
   0 -10   8   50.53    3.38
   0  10  -8   57.74   13.42
   0  10  -8   53.91    3.97
   0  10   8   52.56    3.55
   0  10  -9   37.03    3.01
   0  10  -9   35.71   10.89
   0 -10   9   39.56    3.39
   0 -10  -9   39.40    2.76
   0 -10  -9   39.74    2.86
   0  10   9   36.67    2.50
   0 -11   0    7.71    4.93
   0  11   0    4.59    4.69
   0  11   0    0.15    3.27
   0  11  -1  343.42   18.02
   0  11   1  370.46   17.21
   0 -11  -1  399.10   20.39
   0 -11   1  391.81   19.99
   0  11  -1  473.93   18.59
   0  11  -1  446.66   17.93
   0  11   1  445.46   17.44
   0  11   1  450.85   19.22
   0  11  -1  477.29   19.30
   0  11  -2    4.58    3.34
   0  11   2    5.98    4.13
   0  11  -2    6.66    3.81
   0  11   2    7.73    4.27
   0 -11   2    4.26    4.35
   0  11  -2    8.65    4.87
   0  11  -2    2.02    4.70
   0  11   2    5.63    4.64
   0  11   2    5.83    3.20
   0  11  -3  146.59    9.30
   0  11   3  151.65    8.68
   0 -11  -3  164.12   11.79
   0  11   3  130.52    8.67
   0 -11   3  161.11   10.57
   0  11  -3  155.65    9.57
   0 -11  -4    8.39    3.31
   0 -11   4    3.05    4.00
   0 -11  -4    6.49    1.84
   0 -11  -4   -0.42    5.76
   0  11   4    5.28    3.99
   0  11  -4    4.76    3.30
   0  11  -4    6.04    3.59
   0  11   4    7.95    3.55
   0  11  -4    8.82    4.94
   0  11   5   96.67    5.63
   0  11   5   96.97    6.27
   0 -11   5   97.42    5.27
   0 -11  -5   83.52    4.39
   0  11  -5   82.44    5.76
   0  11  -5   93.19    6.05
   0  11   5   88.69    5.58
   0  11   6   18.42    2.63
   0 -11  -6   14.15    2.17
   0 -11   6   17.66    2.93
   0  11   6   22.41    4.01
   0  11  -6   19.44    3.24
   0  11   6   16.31    2.98
   0 -11  -7    6.48    1.85
   0 -11  -7    9.00    1.82
   0 -11   7   10.53    2.42
   0  11  -7    7.59    2.57
   0  11   7    9.61    2.46
   0 -11  -8    6.67    1.53
   0 -11  -8    5.15    1.59
   0 -11   8    7.40    1.87
   0  11  -8    3.17    2.09
   0  11   8    9.48    1.83
   0 -11  -9  230.92    8.58
   0  11   9  225.27    8.46
   0 -12   0  540.83   24.49
   0  12   0  586.76   20.98
   0 -12  -1  953.57   41.61
   0 -12   1  932.06   41.15
   0  12   1  901.72   37.86
   0  12  -1 1031.47   38.09
   0  12   1 1030.16   37.83
   0  12   2   10.84    4.25
   0  12  -2   13.98    4.73
   0  12   2   15.45    4.45
   0  12   2   13.09    3.28
   0  12   2   13.29    4.40
   0  12  -2   10.46    3.60
   0  12   3  134.76    7.67
   0  12  -3  139.09    7.77
   0  12  -3  135.04    7.98
   0  12   3  141.36    7.57
   0  12   4  162.58    7.83
   0  12   4  170.33    8.43
   0 -12   4  175.25    7.39
   0  12  -4  159.80    8.18
   0  12  -4  136.06    7.86
   0  12  -4  170.16    9.20
   0  12   4  168.41    8.15
   0  12   5   27.59    3.13
   0  12  -5   17.73    4.22
   0  12   5   26.84    4.14
   0 -12   5   28.60    3.02
   0  12  -5   26.16    3.74
   0  12  -5   22.30    3.37
   0  12   5   27.77    3.39
   0  12   6  603.67   20.33
   0  12   6  589.13   19.82
   0  12   6  527.38   20.37
   0 -12   6  580.34   19.82
   0 -12  -6  500.28   19.22
   0  12  -6  494.27   20.30
   0  12  -6  501.94   21.52
   0  12  -7   19.76    3.74
   0 -12   7   24.25    2.21
   0 -12  -7   19.17    1.67
   0  12  -7   17.75    2.47
   0  12   7   20.26    2.30
   0  13   0    1.13    3.42
   0  13   0    2.32    2.69
   0  13  -1   36.31    5.05
   0  13  -1   20.31    3.64
   0  13  -1   23.65    3.97
   0  13   1   28.76    3.42
   0  13  -1   25.85    3.51
   0  13   2   12.06    2.85
   0  13  -2   10.40    3.07
   0  13   2   16.78    3.69
   0  13   2   14.64    4.08
   0  13  -2   17.84    4.06
   0  13  -2    8.69    2.92
   0  13   2   16.62    4.24
   0  13  -2   11.38    3.08
   0  13   3   -0.97    2.52
   0  13   3    3.83    2.85
   0  13  -3    0.20    2.38
   0 -13   3    0.83    2.30
   0  13   3   -2.01    3.53
   0  13  -3    4.22    2.72
   0  13  -3    0.12    3.08
   0  13   3    2.32    3.45
   0  13  -3    4.23    2.81
   0  13   4  661.52   23.03
   0  13   4  546.64   23.13
   0 -13   4  600.55   22.40
   0  13   4  691.94   23.95
   0  13  -4  617.47   23.21
   0  13  -4  626.01   23.53
   0  13   5   34.28    2.96
   0  13   5   29.62    2.52
   0  13   5   19.51    3.46
   0 -13   5   26.91    2.54
   0  13   5   27.38    3.65
   0  13  -5   22.57    2.85
   0  13  -5   28.97    3.50
   0  13  -6   16.11    2.81
   0  13   6   12.03    1.43
   0 -13   6   17.83    1.92
   0  13  -6   14.86    2.24
   0  13   6   11.26    2.64
   0  13   6   17.13    2.12
   0  14   0   64.43    4.33
   0  14   0   68.70    4.24
   0  14   0   58.66    4.08
   0  14   0   62.70    3.53
   0  14  -1  304.76   12.25
   0  14  -1  308.92   12.30
   0  14  -1  277.27   12.16
   0  14   1  307.40   11.85
   0  14   2   32.32    2.75
   0  14   2   33.43    3.23
   0  14  -2   29.58    2.86
   0 -14   2   29.87    2.65
   0  14  -2   25.30    2.96
   0  14  -2   37.53    3.55
   0  14   2   40.58    4.55
   0  14  -2   30.01    3.09
   0  14   3   28.94    2.63
   0 -14   3   27.22    2.42
   0  14   3   35.79    4.05
   0  14  -3   24.63    2.76
   0  14  -3   28.07    3.01
   0  14  -3   27.54    2.86
   0  14  -3   24.57    2.24
   0  14   3   28.31    2.77
   0 -14   4   39.78    2.63
   0  14   4   44.96    2.81
   0  14   4   50.36    4.15
   0  14  -4   42.37    3.15
  -1   0  13   77.69    4.71
   1   0 -13   80.12    9.02
  -1   0  13   81.66    4.61
  -1   0  12    0.75    2.64
   1   0 -12    0.58    7.20
  -1   0  12    0.78    2.41
   1   0 -11    1.41    6.42
   1   0 -11    4.00    2.71
   1   0 -11    8.75    7.10
  -1   0  11   -0.88    2.77
  -1   0  11    1.43    2.48
   1   0 -10   -0.45    2.78
   1   0 -10    2.68    6.06
  -1   0  10    1.01    2.47
   1   0 -10   -0.26    5.86
  -1   0  10   -0.78    2.31
  -1   0   9 1129.95   39.07
   1   0  -9 1072.54   40.44
   1   0  -9 1044.27   43.56
  -1   0   9  964.86   39.02
   1   0  -9 1248.38   41.18
  -1   0   9  984.59   37.54
  -1   0   9 1104.44   37.85
  -1   0   8    0.82    1.97
   1   0  -8    1.95    4.35
   1   0  -8   -0.32    5.21
  -1   0   8    0.96    2.23
  -1   0   8    1.14    2.21
   1   0  -8   -0.58    2.73
   1   0  -7  634.96   26.22
  -1   0   7  623.62   23.24
  -1   0   7  636.98   23.24
  -1   0   7  576.97   22.16
   1   0  -7  633.12   23.78
   1   0  -7  637.05   24.38
   1   0  -7  685.79   23.89
   1   0  -6    2.38    2.04
   1   0  -6    1.50    2.62
   1   0  -6    0.73    2.21
   1   0  -6   -5.99    9.52
   1   0  -6   -0.38    4.48
  -1   0   6    0.25    1.77
  -1   0   6    0.53    2.11
   1   0  -5  890.44   32.78
   1   0  -5  968.62   32.51
   1   0  -5  893.19   32.30
  -1   0   5  899.80   32.21
  -1   0   5  858.49   31.91
   1   0  -5  967.99   33.90
   1   0  -4    0.37    1.67
   1   0  -4   -0.57    2.33
   1   0  -4    4.59    2.09
   1   0  -4    2.91    6.56
   1   0  -4    2.50    3.94
  -1   0   4    0.24    2.11
   1   0  -3  272.44   10.37
   1   0  -3  266.26   10.32
   1   0  -3  271.52   10.65
  -1   0   3  279.86   10.53
   1   0  -2    1.30    1.42
   1   0  -2    0.23    4.80
   1   0  -2    0.90    2.29
  -1   0   2   -0.10    2.08
   1   0  -1  188.37    7.37
   1   0  -1  176.41    6.72
   1   0   0    0.55    1.52
  -1   0   0    0.37    0.69
  -1   0   0   -0.14    1.04
   1   0   1 2609.08   87.98
  -1   0  -1 2583.66   87.82
  -1   0  -1 2586.87   87.99
  -1   0  -1 2604.68   87.86
  -1   0  -1 2451.29   87.65
  -1   0  -1 2635.05   87.63
  -1   0  -2   -0.30    2.26
   1   0   2    0.42    1.58
  -1   0  -2    0.42    1.17
  -1   0  -2    2.54    1.66
  -1   0  -2   -0.60    3.20
   1   0   3  503.57   17.32
  -1   0  -3  484.84   18.01
  -1   0  -3  501.79   17.41
  -1   0  -3  484.39   16.92
  -1   0  -3  439.00   17.52
   1   0   4    1.46    2.04
  -1   0  -4    0.37    3.09
  -1   0  -4   -0.24    2.15
  -1   0  -4    1.02    1.90
   1   0   5 3616.45  123.20
  -1   0  -5 3554.15  123.24
  -1   0  -5 3549.54  123.29
  -1   0  -6    0.47    1.91
  -1   0  -6   -0.13    2.45
   1   0   6    0.50    1.99
   1   0   6    0.64    2.37
  -1   0  -7   40.40    5.67
  -1   0  -7   63.47    4.43
  -1   0  -7   59.38    4.80
  -1   0  -7   63.71    7.38
   1   0   7   59.31    4.99
   1   0   7   53.59    3.27
  -1   0  -7   62.60    3.86
   1   0   7   68.84    4.06
  -1   0  -7   82.76    6.32
   1   0   7   60.46    3.64
  -1   0  -8    0.48    2.17
  -1   0  -8    1.51    5.62
  -1   0  -8    1.86    4.60
   1   0   8    2.35    2.45
  -1   0  -8   -1.12    3.79
  -1   0  -8    2.59    2.63
  -1   0  -8    1.14    2.07
  -1   0  -9    4.82    2.60
  -1   0  -9    7.64    6.67
  -1   0  -9    9.94    6.04
   1   0   9    5.07    3.01
  -1   0  -9   10.48    3.61
  -1   0  -9    3.79    3.62
   1   0  10    1.85    3.16
  -1   0 -10   -3.35    6.84
  -1   0 -10   -2.03    7.48
  -1   0 -10    0.88    2.84
  -1   0 -11   55.33    4.20
   1   0  11   57.91    4.76
  -1   0 -11   56.10    8.71
  -1   0 -12    1.78    2.27
   1   0  12    2.61    3.01
  -1   0 -12    5.20    6.88
   1   1 -13    1.69    2.29
   1  -1 -13    2.48    2.41
  -1   1  13    2.33    2.44
  -1  -1  13    0.86    2.49
   1  -1 -13   -6.07    6.82
   1   1 -13    4.17    7.59
  -1  -1  13    2.51    2.13
  -1   1  13    0.25    2.25
   1  -1 -12  353.07   15.13
   1   1 -12  391.16   15.08
   1  -1 -12  357.80   14.78
   1  -1 -12  378.01   18.75
   1   1 -12  375.17   19.43
  -1   1  12  368.13   14.86
  -1  -1  12  375.54   14.76
  -1   1  12  401.47   15.05
  -1  -1  12  393.63   14.84
  -1   1  11  204.69    9.43
   1  -1 -11  158.08   13.25
   1   1 -11  153.20   14.46
   1   1 -11  198.61    8.85
   1  -1 -11  180.78    8.98
   1   1 -11  177.13    8.24
   1  -1 -11  175.64    8.67
   1  -1 -11  205.73   12.86
  -1  -1  11  190.89    8.56
   1   1 -11  228.42   13.67
  -1   1  11  180.56    8.53
  -1   1  11  189.88    8.75
  -1  -1  11  203.88    8.62
  -1   1  10  181.91    7.96
  -1  -1  10  176.17    7.73
   1  -1 -10  174.25   12.81
   1   1 -10  146.32   13.56
   1   1 -10  165.39    7.96
   1  -1 -10  162.91    8.20
  -1   1  10  151.87    8.22
  -1  -1  10  160.76    7.58
  -1   1  10  163.82    7.75
   1   1 -10  207.47   12.26
   1  -1 -10  189.17   11.56
   1   1 -10  156.64    9.72
   1  -1 -10  150.67    9.00
   1   1  -9  208.23   11.54
   1  -1  -9  222.51   11.16
  -1  -1   9  233.32   11.04
   1   1  -9  213.25   15.15
   1  -1  -9  236.38   14.14
  -1   1   9  227.00   10.89
   1  -1  -9  195.09    9.69
   1   1  -9  217.68    9.56
   1   1  -9  261.49   12.99
  -1  -1   9  214.58    9.19
  -1   1   9  216.55    9.27
   1  -1  -9  265.02   12.61
  -1  -1   9  227.21    9.32
   1   1  -8    5.09    3.09
   1  -1  -8    6.49    2.75
   1   1  -8    8.83    2.54
  -1   1   8    9.76    2.38
  -1  -1   8   11.39    2.35
  -1  -1   8    9.89    2.77
   1  -1  -8   11.13    5.08
  -1   1   8    5.70    2.61
   1   1  -8   11.74    6.50
  -1   1   8    8.94    2.10
   1   1  -8    7.92    2.34
   1   1  -8    6.58    4.69
  -1   1   8    9.58    2.23
  -1  -1   8    6.79    2.05
  -1  -1   8    7.77    1.94
   1  -1  -7 1580.69   57.51
  -1  -1   7 1602.32   55.42
   1   1  -7 1650.01   59.23
  -1   1   7 1534.57   54.93
  -1   1   7 1500.53   54.15
  -1  -1   7 1427.99   54.08
  -1   1   7 1662.92   55.66
  -1  -1   7 1618.59   54.92
   1   1  -7 1721.52   55.88
   1   1  -7 1610.24   56.60
   1  -1  -7 1675.87   56.19
  -1   1   6  351.17   13.82
  -1  -1   6  342.52   13.17
  -1  -1   6  340.73   13.46
  -1   1   6  319.79   13.09
   1  -1  -6  334.27   14.94
   1   1  -6  387.06   17.14
   1  -1  -6  346.13   13.80
   1   1  -6  362.11   13.84
   1   1  -6  336.66   14.55
   1  -1  -6  357.43   14.17
  -1  -1   5  373.83   13.80
   1  -1  -5  373.00   14.21
   1  -1  -5  383.53   14.53
   1   1  -5  359.60   14.93
  -1   1   5  347.47   13.61
   1   1  -5  416.85   17.03
   1  -1  -5  389.26   15.20
   1  -1  -5  325.98   18.38
  -1   1   5  376.08   14.39
  -1  -1   5  358.94   13.94
   1  -1  -4   38.22    3.12
   1   1  -4   39.90    3.70
   1  -1  -4   37.21    2.90
   1  -1  -4   33.46    6.89
   1  -1  -4   38.00    3.51
  -1   1   4   37.35    3.29
  -1  -1   4   38.36    2.66
   1   1  -4   45.36    6.12
   1   1  -3   34.82    2.91
   1  -1  -3   32.77    2.50
   1   1  -3   32.24    2.33
   1  -1  -3   33.93    5.60
  -1  -1   3   32.64    2.52
   1  -1  -3   32.96    2.65
   1   1  -3   39.22    5.21
  -1   1   3   32.75    3.08
   1   1  -2 3217.45  103.18
   1   1  -2 2978.89  103.47
   1  -1  -2 2970.00  103.18
   1   1  -2 3215.22  104.63
  -1  -1   2 2804.14  103.40
  -1   1   2 2981.31  103.62
   1  -1  -2 3038.77  103.00
  -1   1   1   50.42    2.96
   1  -1  -1   52.73    3.22
   1   1  -1   65.94    2.70
   1   1  -1   60.68    4.37
   1   1  -1   64.56    2.52
   1   1  -1   62.50    2.40
   1  -1  -1   62.65    2.80
  -1   1   0   93.68    3.91
   1  -1   0   85.25    3.55
   1  -1   0   89.17    3.86
  -1   1   0  100.54    4.14
   1   1   0   95.56    4.54
   1  -1   0   81.66    3.65
  -1   1  -1  506.76   11.98
   1   1   1  447.35   10.92
  -1   1  -1  446.82   11.42
  -1  -1  -1  462.80   10.80
  -1  -1  -1  445.06   10.94
  -1  -1  -1  401.21   11.36
  -1   1  -1  473.00   11.08
   1   1   2  615.64   23.15
  -1  -1  -2  682.25   23.93
  -1   1  -2  723.57   24.16
   1  -1   2  629.14   23.32
  -1  -1  -2  657.85   23.50
  -1  -1  -2  672.16   23.27
  -1  -1  -2  684.66   23.23
  -1   1  -2  653.91   23.31
  -1   1  -3  980.25   33.34
   1   1   3  879.62   32.06
   1  -1   3  898.62   32.25
  -1  -1  -3  872.70   33.31
  -1  -1  -3  929.78   32.74
  -1  -1  -3  942.23   32.24
  -1   1  -3  916.09   32.08
  -1  -1  -3  918.57   32.17
   1   1   4   86.58    4.54
   1  -1   4   85.29    4.65
  -1  -1  -4   68.92    7.12
  -1   1  -4   80.40    6.04
  -1  -1  -4   88.66    4.45
  -1   1  -4   79.45    4.91
  -1  -1  -4   91.36    4.70
  -1   1  -4   84.99    4.28
   1   1   5    8.86    2.62
  -1   1  -5    8.05    4.11
   1  -1   5    9.42    2.42
  -1   1  -5    6.76    2.45
  -1  -1  -5    8.09    2.48
  -1   1  -5    9.67    1.87
  -1   1  -5    7.29    2.39
  -1  -1  -5    9.34    2.04
  -1  -1  -5    6.01    6.06
  -1   1  -6  281.26   12.21
  -1  -1  -6  300.02   11.86
  -1  -1  -6  287.52   12.07
  -1   1  -6  278.07   12.17
   1  -1   6  280.89   10.93
   1   1   6  282.66   10.98
   1  -1   6  295.90   12.29
   1   1   6  257.65   11.76
  -1   1  -7  444.30   18.07
  -1  -1  -7  458.78   17.73
  -1   1  -7  478.06   18.44
  -1  -1  -7  348.39   18.82
  -1   1  -7  390.77   19.89
  -1  -1  -7  446.11   18.08
  -1  -1  -7  484.39   20.81
   1  -1   7  485.62   18.65
   1  -1   7  417.21   16.19
   1   1   7  408.37   16.11
  -1  -1  -7  454.33   16.89
  -1   1  -7  473.20   16.91
   1  -1   7  458.40   16.79
  -1   1  -7  536.23   19.54
   1   1   7  460.62   16.84
   1   1   7  460.27   16.59
  -1  -1  -8  170.10    9.22
  -1   1  -8  181.70    9.51
  -1  -1  -8  146.66   10.00
  -1   1  -8  138.18   10.71
  -1   1  -8  177.30    9.08
  -1  -1  -8  192.44   12.39
  -1   1  -8  173.42   12.98
   1  -1   8  172.15    9.83
   1  -1   8  159.57    7.21
  -1   1  -8  182.30    8.02
  -1  -1  -8  180.52    8.04
   1   1   8  182.59    8.19
  -1  -1  -8  209.21   10.78
   1  -1   8  203.50    8.30
  -1   1  -8  212.87   11.19
   1   1   8  172.25    7.71
   1   1   9   37.48    3.35
  -1   1  -9   37.36    3.53
  -1  -1  -9   41.49    3.69
  -1  -1  -9   35.19    7.59
  -1   1  -9   41.15    8.65
  -1   1  -9   40.47    7.25
   1   1   9   36.45    3.95
   1  -1   9   40.58    4.02
  -1  -1  -9   42.88    6.84
  -1   1  -9   33.68    5.66
  -1  -1  -9   36.22    4.50
  -1   1  -9   39.89    4.19
  -1   1  -9   42.08    4.94
  -1  -1  -9   28.51    4.64
  -1  -1 -10  149.91   13.71
  -1   1 -10  154.82   14.44
  -1  -1 -10  190.65    8.79
  -1   1 -10  184.66    8.70
   1   1  10  191.09    8.56
   1  -1  10  196.29    9.03
   1   1  10  191.65    9.12
  -1   1 -10  205.32   12.93
  -1  -1 -10  215.06   12.56
  -1   1 -11   57.66    4.23
  -1  -1 -11   57.39    4.29
   1   1  11   58.58    4.89
  -1   1 -11   55.31    8.67
   1  -1  11   63.08    4.83
  -1  -1 -11   64.76    8.40
   1   1  11   64.38    4.25
  -1  -1 -12  313.25   12.61
  -1   1 -12  323.62   12.58
   1   1  12  327.06   13.05
  -1  -1 -12  337.12   16.60
   1  -1  12  338.19   12.98
  -1   1 -12  321.90   16.90
   1   1  12  320.01   12.52
  -1  -1 -12  287.54   12.50
   1  -2 -13   59.47    4.38
   1   2 -13   76.60    4.27
  -1   2  13   61.22    4.37
  -1  -2  13   73.10    4.35
   1   2 -13   60.49    9.27
   1  -2 -13   62.34    7.79
  -1   2  13   62.53    4.24
  -1  -2  13   86.64    4.35
   1  -2 -12  448.89   18.37
   1   2 -12  481.13   18.06
   1  -2 -12  429.13   17.96
  -1  -2  12  466.23   17.86
  -1   2  12  469.91   18.07
   1   2 -12  486.58   23.22
   1  -2 -12  487.49   21.83
  -1   2  12  473.06   18.15
  -1  -2  12  516.92   18.02
  -1   2  11  401.91   14.85
   1   2 -11  284.19   21.05
   1  -2 -11  333.05   14.68
   1   2 -11  383.06   14.36
   1  -2 -11  317.03   14.26
   1   2 -11  372.56   19.19
  -1   2  11  341.00   14.16
  -1  -2  11  352.97   14.00
   1  -2 -11  356.21   17.84
  -1  -2  11  365.03   14.07
  -1   2  11  349.35   14.35
   1  -2 -10   18.36    3.47
   1   2 -10   26.76    4.46
  -1   2  10   24.42    4.14
   1  -2 -10   19.07    6.20
  -1  -2  10   27.54    4.26
   1   2 -10   23.61    8.81
   1   2 -10   22.22    3.05
  -1   2  10   19.14    3.18
   1  -2 -10   31.27    6.40
   1   2 -10   32.15    7.77
  -1  -2  10   18.04    3.00
  -1  -2  10   20.85    2.75
   1   2  -9   48.12    5.30
   1  -2  -9   41.24    4.19
   1   2  -9   41.38    4.19
  -1   2   9   38.68    4.62
  -1   2   9   41.36    4.44
  -1  -2   9   37.53    4.39
   1   2  -9   44.05    9.55
   1  -2  -9   38.57    6.54
   1   2  -9   38.49    3.34
   1  -2  -9   41.77    4.01
  -1   2   9   41.09    3.69
  -1   2   9   33.75    3.46
   1   2  -9   46.28    7.06
  -1  -2   9   37.45    3.28
  -1  -2   9   41.84    3.22
   1   2  -8   35.97    4.70
   1  -2  -8   36.41    3.92
  -1  -2   8   37.35    3.95
   1  -2  -8   38.92    5.79
   1   2  -8   34.22    8.37
  -1   2   8   36.37    3.07
  -1   2   8   41.18    4.34
   1  -2  -8   36.83    3.77
   1   2  -8   38.54    3.13
  -1   2   8   36.89    3.17
  -1  -2   8   36.74    2.99
   1   2  -8   47.33    6.45
  -1  -2   8   36.91    2.89
  -1   2   7 2200.09   71.08
  -1  -2   7 2098.62   69.55
   1  -2  -7 2108.95   72.21
  -1  -2   7 2101.90   70.59
   1  -2  -7 1552.79   76.33
   1   2  -7 2262.51   76.00
  -1   2   7 1762.22   69.41
   1  -2  -7 2029.56   69.96
  -1   2   7 1923.05   69.20
   1   2  -7 1936.65   69.18
   1  -2  -7 2201.55   70.96
   1   2  -7 2148.68   70.91
   1   2  -7 2026.43   71.84
   1  -2  -6   16.58    2.76
   1   2  -6    9.17    3.11
   1   2  -6   14.55    2.85
   1  -2  -6   15.56    8.19
   1  -2  -6   19.83    3.77
   1   2  -6   15.20    6.89
  -1  -2   6   13.99    1.93
  -1   2   6   13.90    1.91
  -1  -2   6   14.35    2.47
  -1   2   6   11.98    2.97
   1   2  -5    9.51    3.04
   1  -2  -5    6.75    2.14
   1   2  -5    7.94    2.52
   1   2  -5    5.40    1.84
   1  -2  -5    5.34    6.27
  -1  -2   5    9.02    2.11
   1  -2  -5    9.03    3.07
  -1   2   5    8.83    2.83
  -1  -2   5    8.03    1.65
  -1   2   5    6.61    1.50
   1   2  -5    6.02    6.55
   1   2  -4 2556.60   83.80
   1   2  -4 2503.67   83.94
   1  -2  -4 2431.53   83.70
   1   2  -4 2457.13   83.78
   1  -2  -4 2122.27   86.10
   1  -2  -4 2305.20   83.89
  -1   2   4 2480.97   84.20
  -1  -2   4 2368.47   83.18
   1   2  -4 2732.96   87.36
   1  -2  -3   14.00    1.59
   1   2  -3   15.45    2.17
   1   2  -3   15.46    2.07
   1  -2  -3   11.28    4.22
  -1   2   3   14.08    2.07
   1  -2  -3   10.57    2.03
   1   2  -3   19.32    6.67
  -1  -2   3   14.76    1.60
  -1   2   3   12.17    2.61
   1   2  -2   22.59    1.95
   1   2  -2   24.27    2.46
   1   2  -2   26.92    1.95
   1  -2  -2   23.36    1.60
  -1   2   2   23.38    2.41
  -1  -2   2   22.32    2.07
  -1   2   1  705.60   26.73
   1  -2  -1  754.35   26.47
   1  -2  -1  738.43   27.00
   1   2  -1  733.59   26.05
   1  -2  -1  774.98   26.11
   1   2  -1  742.26   26.22
   1   2  -1  813.30   26.50
   1  -2  -1  795.98   26.75
   1   2   0 3365.32  113.36
   1  -2   0 3347.45  113.73
   1   2   0 3201.51  113.63
   1  -2   0 3273.10  113.77
  -1   2   0 3587.78  113.97
  -1   2   0 3084.45  114.61
  -1   2   0 3382.73  113.91
  -1   2  -1  568.69   21.42
  -1   2  -1  596.73   20.84
  -1  -2  -1  580.50   20.59
   1  -2   1  563.35   20.95
  -1   2  -1  630.56   22.31
  -1  -2  -1  608.28   21.46
  -1   2  -1  622.20   21.03
  -1   2  -2  288.79   11.64
  -1   2  -2  322.35   11.45
  -1  -2  -2  322.10   11.18
  -1  -2  -2  327.11   10.94
  -1   2  -2  341.36   13.06
  -1  -2  -2  293.27   12.41
   1   2   2  288.96   10.45
  -1  -2  -3 4307.31  152.84
  -1   2  -3 4761.26  153.42
   1   2   3 4338.42  151.00
   1   2   3 4283.67  151.63
  -1  -2  -3 4515.03  151.54
  -1   2  -3 4320.14  151.76
  -1   2  -3 4438.25  151.76
  -1  -2  -3 4649.81  151.34
  -1  -2  -4    1.81    1.95
  -1  -2  -4    2.24    1.47
  -1   2  -4    1.13    2.20
  -1   2  -4    0.76    1.68
  -1   2  -4    1.60    2.36
  -1   2  -4   -0.53    4.31
   1   2   4    0.29    1.61
   1  -2   4    0.43    1.95
   1   2   4   -0.79    2.08
  -1   2  -5   16.68    3.04
  -1   2  -5   19.19    2.43
  -1  -2  -5   15.99    2.67
  -1  -2  -5   18.90    2.23
  -1   2  -5   14.04    2.98
   1  -2   5   19.25    2.87
   1   2   5   19.74    2.22
  -1   2  -5   21.37    5.62
  -1  -2  -6  287.55   18.48
   1  -2   6  377.35   15.04
  -1  -2  -6  348.66   16.16
  -1   2  -6  336.86   14.93
  -1  -2  -6  355.72   14.60
  -1   2  -6  340.25   14.23
  -1   2  -6  372.32   13.70
  -1   2  -6  427.02   16.02
   1   2   6  368.11   13.71
   1  -2   6  349.59   13.49
  -1  -2  -7   12.89    2.40
  -1  -2  -7   12.67    3.55
  -1  -2  -7   11.00    2.86
  -1   2  -7    8.85    2.76
  -1   2  -7    8.86    4.36
   1  -2   7   11.92    3.33
  -1  -2  -7   14.75    5.01
   1  -2   7   11.08    2.02
   1   2   7    9.82    1.81
  -1   2  -7   15.09    2.37
   1  -2   7   12.39    2.55
  -1   2  -7   16.27    5.13
   1   2   7    8.75    2.58
   1  -2   7   11.45    2.11
  -1  -2  -8  743.93   34.61
  -1  -2  -8  937.44   34.47
  -1   2  -8  862.14   36.94
  -1   2  -8  906.95   34.51
  -1  -2  -8  826.51   37.07
   1  -2   8  991.54   35.47
   1  -2   8  843.91   32.15
  -1  -2  -8  907.19   33.00
  -1   2  -8  949.04   32.95
  -1   2  -8 1039.95   36.57
   1  -2   8  965.62   32.99
   1   2   8  973.24   33.18
   1   2   8  925.09   32.68
   1  -2   8  910.10   32.69
   1  -2   9   77.38    4.65
   1   2   9   75.59    4.62
  -1  -2  -9   75.01    4.91
  -1   2  -9   74.56    4.85
   1  -2   9   73.69    6.86
  -1  -2  -9   62.63    8.54
  -1   2  -9   68.36   10.58
   1   2   9   76.25    5.36
  -1   2  -9   91.18    9.31
   1  -2   9   82.10    5.25
  -1  -2  -9   90.32    8.22
  -1  -2  -9   83.86    6.12
  -1   2  -9   74.55    7.93
  -1   2  -9   77.51    5.78
  -1  -2  -9   56.89    5.67
  -1  -2 -10  757.33   37.38
  -1   2 -10  756.81   39.12
  -1   2 -10  859.07   31.59
  -1  -2 -10  845.28   31.73
   1  -2  10  861.13   31.47
   1   2  10  849.45   31.44
  -1  -2 -10  938.41   35.37
  -1   2 -10  878.95   35.95
   1  -2  10  901.96   31.87
   1   2  10  938.21   32.20
  -1  -2 -11  276.13   11.67
  -1   2 -11  275.96   11.55
  -1  -2 -11  278.91   15.37
   1   2  11  294.92   12.21
   1  -2  11  283.26   11.90
  -1   2 -11  296.25   16.81
   1   2  11  277.30   11.46
   1  -2  11  275.80   11.44
  -1  -2 -12  172.84    8.36
  -1  -2 -12  186.75    8.33
  -1   2 -12  204.27    8.38
   1  -2  12  211.81    8.80
  -1  -2 -12  193.23   11.90
   1   2  12  195.35    8.87
  -1   2 -12  180.94   13.09
   1   2  12  191.59    8.24
   1  -2  12  202.13    8.30
   1  -3 -13    3.50    2.02
   1   3 -13    4.57    2.07
   1  -3 -13    4.98    2.40
  -1  -3  13    3.73    2.38
  -1   3  13    1.82    2.47
   1  -3 -13    2.23    5.64
   1   3 -13   -2.05    8.06
  -1  -3  13    4.24    2.04
   1  -3 -12   56.17    4.40
   1  -3 -12   52.26    4.55
   1   3 -12   62.37    4.08
  -1  -3  12   60.89    4.21
   1  -3 -12   52.52    7.70
   1   3 -12   69.64   10.46
  -1   3  12   56.87    4.53
  -1  -3  12   66.45    4.11
  -1   3  11  177.31    8.38
   1   3 -11  171.79    7.91
   1  -3 -11  154.81    8.52
   1  -3 -11  152.18    8.22
  -1   3  11  172.87    8.27
   1  -3 -11  183.48   11.80
  -1  -3  11  169.45    7.82
   1   3 -11  201.12   14.01
  -1  -3  11  173.08    7.78
   1   3 -10  288.32   14.65
  -1   3  10  322.03   12.85
   1  -3 -10  257.89   15.64
   1   3 -10  249.02   19.49
  -1  -3  10  303.55   14.23
   1  -3 -10  292.86   12.74
   1   3 -10  294.41   11.91
   1  -3 -10  281.73   12.42
   1   3 -10  300.94   16.98
  -1  -3  10  279.84   11.79
  -1   3  10  269.39   12.08
   1  -3 -10  335.00   15.83
  -1  -3  10  290.02   11.71
   1   3  -9  279.41   13.94
  -1   3   9  269.80   11.76
  -1   3   9  247.77   12.90
   1  -3  -9  239.73   14.17
  -1  -3   9  268.22   12.66
   1   3  -9  239.99   18.66
   1   3  -9  264.80   10.82
   1  -3  -9  267.44   11.79
  -1  -3   9  257.00   10.66
  -1   3   9  247.38   10.89
   1   3  -9  290.09   15.43
  -1  -3   9  264.85   10.58
   1  -3  -8  142.27    7.40
   1   3  -8  142.95    9.08
   1   3  -8  136.56    7.67
  -1   3   8  155.49    8.67
  -1   3   8  141.32    7.57
   1  -3  -8  105.36   15.14
   1  -3  -8  153.71    9.67
   1   3  -8  113.47   12.84
  -1  -3   8  156.41    8.10
   1  -3  -8  143.96    7.46
   1   3  -8  144.80    6.54
  -1   3   8  138.80    7.08
   1   3  -8  154.82   10.35
  -1   3   8  142.16    6.71
   1   3  -8  136.71    6.35
  -1  -3   8  128.92    6.33
  -1  -3   8  147.95    6.38
   1   3  -7  819.08   29.42
   1   3  -7  828.43   29.61
   1  -3  -7  855.14   29.14
  -1   3   7  816.07   29.96
  -1   3   7  777.73   28.59
  -1  -3   7  750.17   29.26
   1  -3  -7  842.86   30.67
   1   3  -7  809.16   35.11
   1  -3  -7  763.74   28.69
   1   3  -7  807.21   27.98
  -1   3   7  765.56   28.61
  -1   3   7  721.69   27.94
   1   3  -7  766.35   27.88
   1   3  -7  907.21   31.32
  -1  -3   7  769.01   27.74
  -1   3   6  295.12   12.46
  -1  -3   6  310.41   12.94
   1  -3  -6  330.84   13.76
   1   3  -6  334.96   18.52
   1   3  -6  308.21   12.85
   1   3  -6  333.57   13.22
   1   3  -6  322.03   13.13
   1  -3  -6  326.03   12.64
  -1  -3   6  314.54   11.71
  -1   3   6  329.18   13.67
  -1   3   5  174.46    7.41
   1   3  -5  194.60   13.49
   1  -3  -5  160.11    7.98
  -1   3   5  144.78    6.33
   1  -3  -5  169.16   11.59
   1   3  -5  177.43    7.64
   1   3  -5  183.90    7.95
   1   3  -5  181.89    7.80
   1  -3  -5  179.59    7.28
  -1   3   5  198.92    8.56
  -1  -3   5  170.39    6.50
  -1   3   4   82.22    4.70
   1  -3  -4   86.76    7.73
   1   3  -4  105.46   10.12
   1  -3  -4   80.80    4.88
  -1  -3   4   93.05    4.78
   1  -3  -4   96.55    4.23
   1   3  -4   97.84    4.96
   1   3  -4   96.31    5.74
   1   3  -4   96.95    4.90
  -1  -3   4   94.37    3.76
   1   3  -3  140.85    6.36
   1   3  -3  148.68    6.58
   1   3  -3  164.73    7.15
   1  -3  -3  142.75    5.67
   1   3  -3  137.70   11.07
  -1  -3   3  150.50    6.41
  -1  -3   3  149.76    5.44
   1  -3  -3  153.86    8.76
  -1   3   3  139.16    6.54
   1   3  -2 1467.82   50.38
   1  -3  -2 1535.91   49.75
   1   3  -2 1577.76   50.75
   1   3  -2 1321.50   50.24
  -1  -3   2 1427.97   49.95
  -1   3   2 1341.67   50.64
  -1   3   2 1424.87   50.64
  -1   3   1  551.06   21.24
   1  -3  -1  595.94   21.11
   1  -3  -1  651.16   21.45
   1   3  -1  522.65   22.44
   1   3  -1  630.33   21.20
   1   3  -1  602.78   21.05
   1  -3  -1  604.18   21.87
  -1   3   1  567.43   21.40
  -1   3   0  313.07   11.98
   1  -3   0  323.27   12.00
   1   3   0  309.03   13.12
   1   3   0  309.98   11.77
   1  -3   0  323.94   11.94
   1   3   0  318.39   11.69
  -1  -3   0  333.75   11.22
  -1   3  -1   74.73    3.61
   1  -3   1   63.92    3.62
  -1   3  -1   70.41    6.67
   1   3   1   62.99    5.17
  -1  -3  -1   69.09    2.96
  -1   3  -1   67.71    3.45
  -1   3  -1   62.91    4.60
  -1   3  -1   67.85    3.83
  -1  -3  -1   70.07    4.53
  -1  -3  -2   -0.48    3.58
  -1   3  -2    0.18    2.62
  -1   3  -2   -0.11    1.99
  -1  -3  -2    0.93    1.52
   1  -3   2    1.89    1.87
  -1   3  -2    0.16    4.78
  -1   3  -3 1722.85   56.01
  -1  -3  -3 1886.78   55.42
  -1   3  -3 1845.90   55.85
  -1   3  -3 1949.00   58.59
  -1  -3  -3 1692.90   57.64
   1   3   4  282.09   10.10
  -1   3  -4  274.29   11.40
  -1   3  -4  272.14   11.34
  -1  -3  -4  277.53   11.00
  -1   3  -4  280.32   14.20
  -1  -3  -4  258.22   13.46
   1   3   5  164.90    6.40
  -1   3  -5  154.32    8.48
  -1  -3  -5  163.82    7.45
  -1   3  -5  155.82    7.60
  -1   3  -5  165.85    7.84
  -1  -3  -5  147.13   10.75
  -1  -3  -5  155.38    8.73
   1  -3   5  155.06    7.84
  -1   3  -5  163.30   10.93
  -1  -3  -6  253.11   12.59
  -1  -3  -6  295.42   12.20
  -1   3  -6  289.31   12.61
  -1   3  -6  290.49   12.10
  -1   3  -6  294.44   13.03
   1  -3   6  309.41   12.81
  -1  -3  -6  288.47   13.86
  -1   3  -6  296.98   16.13
  -1  -3  -6  235.96   15.67
   1   3   6  275.51   10.77
   1  -3   6  294.86   11.02
   1   3   6  271.96   10.83
  -1  -3  -6  290.73   11.42
   1   3   6  296.57   11.49
  -1   3  -6  323.95   14.25
   1  -3   6  285.75   11.11
  -1  -3  -7  453.45   20.64
  -1  -3  -7  546.06   20.55
  -1   3  -7  526.22   21.14
  -1   3  -7  468.48   23.19
  -1   3  -7  537.25   21.07
   1  -3   7  566.10   21.33
  -1  -3  -7  491.33   22.52
  -1  -3  -7  375.86   25.45
   1  -3   7  520.72   18.86
   1   3   7  481.79   18.62
  -1  -3  -7  524.31   19.46
   1   3   7  548.24   19.64
  -1   3  -7  577.84   22.71
   1  -3   7  535.08   19.18
  -1   3  -8   27.91    3.81
  -1   3  -8   23.32    4.04
  -1   3  -8   20.78    5.58
  -1  -3  -8   28.64    3.85
   1  -3   8   22.97    4.18
  -1  -3  -8   26.83    6.14
   1  -3   8   24.29    2.64
  -1  -3  -8   27.90    3.11
   1  -3   8   26.51    3.33
   1   3   8   27.40    3.71
  -1   3  -8   36.10    7.14
   1  -3   8   23.87    2.76
   1   3   8   30.32    2.89
   1   3   9  255.67   10.94
   1  -3   9  260.93   11.00
  -1  -3  -9  254.85   11.30
  -1   3  -9  231.17   17.87
  -1  -3  -9  233.15   15.51
   1  -3   9  263.90   13.64
   1  -3   9  279.79   11.45
  -1   3  -9  279.49   16.04
   1   3   9  269.87   11.73
  -1   3  -9  265.20   12.77
  -1   3  -9  258.24   13.24
  -1   3  -9  255.14   14.89
  -1   3 -10   63.22   11.24
  -1  -3 -10   55.32    9.11
  -1  -3 -10   78.44    5.11
   1   3  10   80.34    4.84
   1  -3  10   74.87    4.83
  -1   3 -10   76.23    9.97
   1   3  10   89.61    5.89
  -1  -3 -10   81.15    8.65
   1  -3  10   85.05    5.48
  -1  -3 -11  108.67    5.85
  -1  -3 -11  109.63    9.56
  -1   3 -11   94.97   11.29
   1   3  11  113.36    6.61
   1  -3  11  114.61    6.20
   1   3  11  102.61    5.61
   1  -3  11  105.80    5.64
  -1  -3 -12   81.79    4.92
  -1  -3 -12   78.04    4.72
   1  -3  12  106.71    5.33
  -1  -3 -12   92.61    8.56
   1   3  12   91.65    5.45
  -1   3 -12   87.68   10.52
   1  -3  12   97.59    4.77
   1   3  12   87.72    4.71
   1  -4 -13    0.26    1.89
   1  -4 -13    3.06    1.63
   1  -4 -13    1.67    2.23
   1   4 -13    2.18    1.80
   1   4 -13    5.79    7.81
   1  -4 -13   -1.24    4.94
  -1  -4  13    2.71    2.19
  -1   4  13    2.49    2.24
  -1   4  13   -1.48    2.12
  -1  -4  13    2.33    1.78
   1  -4 -12  372.42   15.29
   1  -4 -12  336.69   15.45
   1   4 -12  413.59   15.09
   1   4 -12  349.73   21.04
  -1   4  12  375.80   15.28
   1  -4 -12  452.12   18.83
  -1  -4  12  428.08   15.26
  -1  -4  12  438.47   15.10
  -1   4  12  353.65   15.22
  -1   4  11   74.99    4.93
   1   4 -11   73.39    4.50
   1  -4 -11   64.66    5.31
   1  -4 -11   59.53    4.91
  -1  -4  11   69.71    4.65
  -1   4  11   65.37    4.95
   1  -4 -11   89.11    8.59
   1   4 -11   78.51   11.48
  -1   4  11   65.01    4.90
  -1  -4  11   78.04    4.50
  -1   4  10   59.65    5.09
   1   4 -10   43.45   10.69
  -1  -4  10   63.83    5.85
   1   4 -10   58.23    4.01
   1  -4 -10   54.56    5.06
   1  -4 -10   44.09    4.61
   1   4 -10   57.43   10.26
  -1   4  10   53.21    4.50
  -1  -4  10   58.95    4.20
  -1  -4  10   55.97    3.89
   1   4  -9 1029.36   38.10
  -1   4   9 1131.81   37.07
  -1   4   9 1018.42   36.22
  -1   4   9  958.02   38.96
   1  -4  -9 1020.62   39.68
   1   4  -9  944.00   45.46
  -1  -4   9 1076.02   38.61
   1   4  -9 1026.67   36.05
   1  -4  -9  970.78   37.04
   1  -4  -9 1009.71   36.73
   1   4  -9 1088.49   41.61
  -1   4   9  964.32   36.30
  -1  -4   9  952.05   35.93
  -1  -4   9 1020.34   35.89
   1  -4  -8   14.52    3.50
   1   4  -8   17.74    3.04
  -1   4   8   17.51    3.76
  -1   4   8   16.83    2.76
  -1  -4   8   16.99    3.28
  -1   4   8   17.66    4.12
   1   4  -8   12.16    9.30
   1  -4  -8   14.49    4.28
   1   4  -8   16.40    2.36
   1  -4  -8    6.79   10.24
  -1   4   8   17.41    3.03
   1   4  -8   13.95    2.17
   1   4  -8   22.88    7.45
  -1  -4   8   17.04    2.27
   1   4  -7  440.80   18.82
   1   4  -7  421.19   17.20
  -1   4   7  419.35   15.89
  -1   4   7  401.90   18.01
  -1   4   7  439.52   16.67
   1  -4  -7  471.56   18.49
  -1  -4   7  431.35   17.33
   1   4  -7  456.28   24.43
   1  -4  -7  353.24   23.15
   1   4  -7  436.07   15.76
   1  -4  -7  391.88   16.64
  -1   4   7  418.11   16.64
  -1   4   7  410.27   16.00
   1   4  -7  496.32   20.33
   1   4  -7  399.61   15.77
  -1  -4   7  419.77   15.59
   1  -4  -6 1406.13   55.26
   1  -4  -6 1505.03   50.80
   1   4  -6 1508.81   57.08
  -1   4   6 1396.58   49.41
  -1   4   6 1243.28   50.51
  -1   4   6 1397.65   49.62
  -1   4   6 1299.61   48.88
   1   4  -6 1418.14   48.89
   1  -4  -6 1461.25   49.11
   1   4  -6 1394.09   49.96
   1   4  -6 1445.95   50.28
   1   4  -6 1519.00   51.92
  -1   4   5  494.09   19.10
   1   4  -5  495.16   20.51
   1   4  -5  524.40   19.42
   1   4  -5  509.32   19.54
   1  -4  -5  512.73   18.30
  -1  -4   5  496.63   19.32
   1  -4  -5  510.81   19.57
   1  -4  -5  532.54   23.24
   1   4  -5  488.48   25.28
  -1   4   4  418.35   15.59
  -1   4   4  406.91   16.05
  -1  -4   4  394.44   15.39
   1   4  -4  433.89   16.44
   1  -4  -4  385.71   14.33
   1   4  -4  406.05   15.58
  -1  -4   3  594.31   21.83
  -1   4   3  591.05   22.26
   1  -4  -3  596.82   20.62
   1   4  -3  648.73   22.58
   1   4  -3  573.04   21.92
   1   4  -3  616.15   21.94
  -1   4   3  614.59   22.08
  -1   4   2 4070.98  153.75
  -1   4   2 4497.75  153.04
   1  -4  -2 4512.81  153.84
   1  -4  -2 4504.62  153.22
  -1  -4   2 4463.52  152.71
  -1   4   2 4310.37  153.77
  -1  -4   2 4533.02  153.51
   1   4  -2 4706.83  153.73
   1   4  -2 4913.70  153.98
  -1   4   1    9.30    2.69
   1  -4  -1   11.15    3.05
   1   4  -1    8.46    4.67
   1  -4  -1   10.81    1.88
  -1  -4   1   11.68    1.78
  -1   4   1    9.35    2.14
  -1  -4   1    8.38    0.62
   1   4  -1    9.50    2.06
   1   4  -1   10.49    2.12
   1  -4  -1   10.13    2.06
  -1   4   0    2.60    2.40
   1   4   0    4.13    4.17
  -1  -4   0    1.18    0.94
   1  -4   0    1.28    1.69
  -1   4   0    6.86    1.79
   1   4   0    5.89    1.19
   1   4   0    0.84    1.92
   1  -4   0    2.67    1.58
  -1  -4   0    1.15    0.91
  -1   4   0    1.74    1.44
  -1  -4  -1  901.55   30.26
   1   4   1  768.63   30.16
   1  -4   1  817.09   29.14
  -1   4  -1  810.48   28.20
  -1  -4  -1  787.47   28.14
  -1   4  -1  866.49   28.74
  -1   4  -1  802.21   30.28
  -1  -4  -1  836.90   28.09
  -1  -4  -2   65.40    5.42
  -1   4  -2   64.18    3.64
  -1   4  -2   61.27    4.78
  -1  -4  -2   63.57    3.00
  -1   4  -2   60.78    7.45
   1  -4   2   54.42    3.74
   1   4   2   62.22    5.47
  -1   4  -3  447.94   16.70
  -1   4  -3  403.86   17.18
  -1  -4  -3  461.77   16.17
  -1  -4  -3  477.63   19.15
  -1   4  -3  444.34   20.38
   1  -4   3  410.80   16.81
   1   4   3  463.52   18.39
  -1  -4  -4  471.00   19.53
  -1   4  -4  444.33   20.65
  -1   4  -4  428.67   16.56
  -1  -4  -4  455.41   16.09
  -1   4  -4  426.43   16.88
  -1  -4  -5 1120.76   47.41
  -1   4  -5 1407.11   49.58
  -1  -4  -5 1161.74   45.33
  -1  -4  -5 1329.10   43.99
  -1   4  -5 1278.25   44.52
  -1  -4  -5 1106.96   43.98
  -1   4  -5 1257.72   44.53
   1   4   5 1229.96   43.52
   1  -4   5 1257.11   43.29
   1   4   6  936.34   31.95
  -1   4  -6  908.35   33.57
  -1   4  -6  791.31   36.20
  -1   4  -6  901.82   34.57
  -1  -4  -6  966.08   33.35
  -1   4  -6  934.01   33.94
   1   4   6  878.67   31.93
   1  -4   6  920.87   32.22
   1   4   6  864.95   31.94
  -1  -4  -6  856.42   35.01
  -1   4  -6  965.96   39.00
   1  -4   6  905.31   34.01
  -1  -4  -6  763.95   37.39
  -1   4  -6  942.72   32.41
  -1  -4  -6  920.99   32.62
  -1   4  -6  974.89   35.90
   1   4   6  898.06   32.66
  -1   4  -6  910.61   32.14
   1  -4   6  910.41   32.28
   1   4   7   65.56    3.52
  -1   4  -7   64.29    4.88
  -1   4  -7   73.66    5.76
  -1  -4  -7   65.61    4.87
  -1   4  -7   68.62    5.69
  -1   4  -7   58.62    7.21
   1   4   7   59.54    3.68
   1  -4   7   63.48    3.96
  -1  -4  -7   59.48    6.73
  -1   4  -7   66.39    9.69
   1  -4   7   65.42    5.48
  -1   4  -7   69.68    4.21
  -1  -4  -7   67.35    4.46
  -1  -4  -7   54.21   10.52
   1   4   7   68.13    4.84
  -1   4  -7   79.95    8.69
   1  -4   7   68.88    4.09
   1  -4   8 1146.61   40.75
  -1  -4  -8 1088.01   45.64
   1  -4   8 1198.09   43.94
  -1   4  -8 1152.73   43.55
  -1   4  -8 1188.64   43.61
  -1  -4  -8 1175.90   41.47
  -1   4  -8 1185.06   41.28
   1   4   8 1187.00   41.81
   1  -4   8 1168.03   41.41
  -1   4  -8 1174.53   45.87
   1   4   8 1165.95   41.11
   1  -4   8 1152.28   41.14
  -1   4  -9  143.25    9.16
  -1   4  -9  138.67    8.53
   1  -4   9  138.05    6.45
  -1   4  -9  133.57   14.39
  -1  -4  -9  132.12   11.15
   1  -4   9  145.51    9.45
  -1  -4  -9  137.70    7.31
  -1   4  -9  143.90    7.08
   1   4   9  146.39    7.05
   1  -4   9  141.13    6.97
   1  -4   9  155.79    7.57
   1   4   9  157.72    8.05
  -1   4  -9  145.36   12.55
  -1   4 -10    5.61    2.59
  -1  -4 -10    7.52    2.74
  -1  -4 -10   10.23    6.19
  -1   4 -10    3.97    8.85
   1  -4  10    5.14    3.28
   1   4  10    4.75    3.66
   1   4  10    4.61    2.49
   1  -4  10    6.08    2.53
  -1  -4 -11   17.50    2.89
  -1   4 -11   18.63    2.74
   1  -4  11   22.91    3.37
   1   4  11   18.23    3.80
  -1  -4 -11   20.34    6.44
  -1   4 -11    8.36    8.99
   1   4  11   13.76    2.66
   1  -4  11   19.27    2.71
  -1  -4 -11   16.26    3.15
  -1   4 -12    3.87    1.92
  -1  -4 -12    1.30    1.92
   1   4  12    1.09    2.69
  -1   4 -12    1.76    8.04
  -1  -4 -12    1.96    5.65
   1  -4  12   -0.23    2.47
   1   4  12    1.15    1.87
   1  -4  12    2.66    1.90
  -1  -4 -12    0.55    2.20
   1  -5 -13  138.54    6.22
   1   5 -13  137.58    5.78
   1  -5 -13  161.46    8.76
  -1   5  13  131.77    6.08
   1   5 -13  109.18   11.23
  -1  -5  13  163.19    6.22
  -1   5  13  123.60    5.94
  -1  -5  13  152.36    5.81
   1  -5 -13  125.16    5.66
   1  -5 -13  131.20    5.90
   1   5 -12   12.57    2.29
   1  -5 -12   10.38    2.96
  -1  -5  12   15.17    2.78
  -1   5  12    8.95    2.87
   1   5 -12   10.27    9.75
   1  -5 -12   18.64    5.61
  -1   5  12    8.85    2.66
  -1  -5  12   14.51    2.29
   1  -5 -12   11.54    2.77
   1  -5 -11  334.45   15.54
   1   5 -11  403.28   14.82
   1  -5 -11  339.61   15.26
  -1   5  11  380.40   15.26
   1   5 -11  362.81   22.02
  -1  -5  11  403.34   15.03
  -1   5  11  351.93   15.14
  -1  -5  11  404.87   14.78
  -1   5  10   68.57    5.26
  -1  -5  10   72.48    6.13
   1  -5 -10   57.15    5.31
   1   5 -10   64.07    4.24
   1   5 -10   72.69   11.90
  -1  -5  10   71.38    4.61
  -1   5  10   60.97    4.99
  -1  -5  10   72.60    4.31
   1  -5  -9    0.31    3.51
   1   5  -9    0.40    2.27
   1   5  -9    7.19    3.83
  -1   5   9    1.66    2.63
  -1   5   9    2.93    3.97
  -1  -5   9    3.84    3.31
   1  -5  -9    6.91    4.12
   1   5  -9    1.64    2.13
   1  -5  -9   -2.70   12.54
  -1  -5   9    1.33    2.65
  -1   5   9    0.91    3.04
   1   5  -9    2.71    2.15
   1   5  -9    7.32    9.36
  -1  -5   9    3.43    2.12
   1   5  -8   40.43    4.22
   1   5  -8   49.69    5.78
  -1   5   8   38.48    3.64
  -1   5   8   47.11    4.67
  -1   5   8   40.92    5.53
   1  -5  -8   48.66    5.54
  -1  -5   8   51.36    4.77
   1   5  -8   50.37    3.31
   1  -5  -8   39.73    4.69
   1  -5  -8   44.37    4.30
   1  -5  -8   44.23   11.92
  -1   5   8   42.60    4.07
   1   5  -8   49.46    9.62
   1   5  -8   44.39    3.41
  -1  -5   8   44.43    3.18
   1   5  -7   42.26    5.20
   1   5  -7   38.59    3.75
   1   5  -7   37.02    3.76
  -1   5   7   37.47    4.23
  -1   5   7   36.33    3.28
   1  -5  -7   46.04    4.83
   1  -5  -7   34.93    4.09
   1   5  -7   40.62    2.90
   1  -5  -7   26.12    9.30
  -1   5   7   40.51    3.66
   1   5  -7   33.66    8.40
   1   5  -7   40.61    3.06
  -1  -5   7   39.91    2.82
   1  -5  -6  208.69    9.90
  -1  -5   6  192.90    9.43
   1  -5  -6  230.93   14.85
  -1   5   6  180.69    8.17
  -1   5   6  202.27    9.00
  -1   5   6  217.61    9.17
  -1   5   6  174.03    8.35
   1   5  -6  218.46   13.44
   1   5  -6  201.02    8.29
   1   5  -6  196.53   10.58
   1   5  -6  209.91    9.50
   1  -5  -5 1008.06   37.04
  -1  -5   5  838.59   32.39
   1  -5  -5  937.45   32.83
  -1   5   5  790.77   32.88
   1  -5  -5  885.03   31.68
  -1   5   5  931.83   32.32
   1   5  -5  995.83   31.74
  -1   5   5  787.87   31.36
   1   5  -5  905.43   31.50
   1   5  -5  844.16   32.45
   1   5  -5  928.65   33.70
  -1   5   4    9.44    2.72
   1  -5  -4   10.15    4.77
  -1   5   4   11.29    2.76
   1   5  -4    9.00    2.32
   1   5  -4    8.87    3.07
   1   5  -4    8.31    2.34
  -1  -5   4    9.12    2.34
  -1   5   4    6.77    2.89
  -1  -5   3  519.56   18.43
  -1   5   3  457.32   18.62
  -1   5   3  520.11   18.66
   1   5  -3  521.56   18.59
   1   5  -3  438.83   18.25
   1   5  -3  519.49   18.96
  -1   5   3  489.11   17.88
   1  -5  -3  455.72   18.43
   1  -5  -2 1147.76   37.16
  -1  -5   2 1117.40   37.58
  -1   5   2 1015.66   37.65
  -1   5   2  966.64   37.73
   1   5  -2 1115.73   37.93
   1   5  -2 1093.82   37.78
  -1   5   2  966.65   36.78
   1  -5  -2 1164.96   37.83
  -1  -5   1   77.38    3.77
   1  -5  -1   71.16    3.83
  -1   5   1   71.54    3.88
  -1   5   1   71.21    4.50
   1  -5  -1   75.31    5.28
   1   5  -1   73.38    4.36
   1   5  -1   74.54    3.92
   1  -5  -1   80.17    4.12
  -1   5   1   67.90    3.07
   1   5  -1   76.69    6.38
  -1  -5   0   20.45    1.72
   1  -5   0   23.80    2.43
  -1   5   0   23.24    1.89
  -1   5   0   25.49    3.10
   1   5   0   20.39    4.79
   1   5   0   21.65    2.75
   1  -5   0   20.24    2.05
  -1   5   0   21.27    1.67
  -1  -5  -1  528.80   20.06
  -1   5  -1  557.51   19.34
   1   5   1  491.83   20.10
  -1  -5  -1  497.40   17.66
   1  -5   1  494.29   18.84
   1   5   1  485.72   18.84
  -1   5  -1  523.02   18.16
  -1  -5  -2  548.92   22.00
   1   5   2  524.67   21.36
  -1   5  -2  547.09   19.71
  -1   5  -2  533.41   21.42
   1  -5   2  546.27   20.30
   1   5   3  363.76   15.63
  -1   5  -3  340.72   13.73
  -1  -5  -3  355.66   12.98
  -1   5  -3  374.83   15.08
  -1  -5  -3  385.26   16.65
  -1   5  -3  330.60   17.74
   1  -5   3  341.90   14.19
  -1  -5  -4  366.29   13.76
  -1   5  -4  370.01   15.29
  -1   5  -4  367.90   14.53
   1  -5   4  359.04   13.96
  -1  -5  -4  338.39   15.31
   1  -5   4  357.67   14.92
  -1   5  -4  343.66   18.78
   1   5   4  346.54   13.92
   1   5   4  392.57   16.66
   1   5   5   33.77    2.43
   1   5   5   34.44    6.13
  -1   5  -5   32.35    3.60
  -1   5  -5   29.43    3.54
  -1  -5  -5   30.35    2.92
  -1   5  -5   30.18    5.57
   1  -5   5   28.16    3.14
  -1   5  -5   32.79    7.67
  -1  -5  -5   23.87    4.19
  -1   5  -5   29.59    2.60
  -1  -5  -5   30.37    6.99
  -1   5  -5   20.77    6.87
   1   5   5   30.10    3.31
  -1   5  -5   34.39    2.98
  -1   5  -5   31.51    2.68
   1  -5   5   28.51    2.49
   1   5   6  119.80    9.58
   1   5   6  117.83    5.28
  -1   5  -6  114.44    6.81
  -1   5  -6   93.21    8.87
  -1   5  -6  117.18    6.96
   1   5   6  105.84    5.20
   1  -5   6  112.67    5.71
  -1   5  -6  101.88   11.69
  -1  -5  -6  113.49    8.26
  -1  -5  -6  105.65   11.14
  -1  -5  -6  113.17    5.88
  -1   5  -6  117.38    5.55
   1   5   6  109.60    6.17
  -1   5  -6  100.46    9.91
  -1   5  -6  116.54    5.52
   1  -5   6  115.69    5.49
  -1  -5  -7    2.95    2.42
   1   5   7    7.69    5.88
   1   5   7    6.30    1.79
  -1   5  -7    9.67    3.39
  -1   5  -7    8.21    2.96
  -1   5  -7    2.10    4.60
   1  -5   7    4.91    2.47
   1  -5   7    5.05    3.15
  -1   5  -7    3.22    7.44
  -1  -5  -7    4.66    4.04
  -1   5  -7    4.95    2.18
  -1  -5  -7    3.84    7.84
  -1   5  -7    8.72    1.94
  -1   5  -7    9.52    7.80
   1   5   7   10.85    3.46
   1  -5   7    7.85    2.29
   1   5   8  744.46   27.07
   1  -5   8  764.16   27.35
   1  -5   8  768.48   30.32
  -1  -5  -8  826.84   32.67
  -1   5  -8  762.27   30.10
  -1   5  -8  699.69   32.14
  -1   5  -8  771.02   27.75
  -1  -5  -8  768.69   27.99
  -1   5  -8  714.14   32.89
   1   5   8  772.04   28.47
   1  -5   8  776.81   27.66
   1   5   9  564.04   25.75
   1  -5   9  499.96   19.32
  -1  -5  -9  525.29   24.74
   1  -5   9  548.51   22.87
   1  -5   9  529.16   19.84
   1   5   9  522.38   19.81
  -1   5  -9  530.11   19.88
  -1  -5  -9  510.30   20.08
   1   5   9  550.58   20.83
  -1   5  -9  525.01   26.03
   1   5  10  457.32   17.86
   1  -5  10  471.72   17.95
  -1  -5 -10  451.17   18.11
  -1   5 -10  470.11   17.98
   1   5  10  521.42   18.98
  -1  -5 -10  527.40   21.81
  -1   5 -10  422.76   23.88
   1   5  11    5.50    2.27
   1  -5  11    3.39    2.17
  -1  -5 -11    1.30    5.73
  -1   5 -11    0.70    9.28
   1  -5  11    2.11    2.82
   1   5  11    2.18    3.22
  -1   5 -11    2.92    2.12
  -1  -5 -11    0.59    2.24
  -1  -5 -12   80.83    4.49
   1  -5  12  103.73    4.41
   1   5  12   74.89    4.02
  -1  -5 -12  101.95    7.71
   1   5  12   99.34    4.92
   1  -5  12  100.90    4.76
  -1  -5 -12   65.74    3.98
  -1   5 -12   89.58    4.34
   1  -6 -12  363.50   14.91
  -1  -6  12  443.70   14.96
  -1   6  12  340.26   15.00
   1   6 -12  424.41   14.95
   1  -6 -12  403.97   15.55
  -1  -6  12  437.93   15.30
   1  -6 -12  505.65   18.29
  -1   6  12  378.22   15.28
   1   6 -12  334.03   21.39
  -1   6  11  431.13   18.97
  -1  -6  11  542.57   18.78
  -1   6  11  490.25   19.19
   1   6 -11  451.81   26.11
  -1  -6  11  523.23   19.04
   1   6 -11  510.76   18.73
   1  -6 -11  462.80   19.50
   1  -6 -10    1.33    3.37
  -1   6  10   -2.23    3.16
   1   6 -10    0.35    2.12
   1  -6 -10   -2.24    3.35
  -1   6  10    0.80    3.21
  -1  -6  10   -1.00    2.77
   1   6 -10    1.41   10.86
  -1  -6  10    1.37    2.11
   1  -6  -9   10.96    3.79
   1   6  -9   11.04    4.23
   1   6  -9   17.33    3.21
  -1   6   9   11.55    3.70
  -1   6   9   13.18    3.06
  -1  -6   9   19.64    3.89
   1   6  -9   16.36    2.46
   1  -6  -9   13.22    3.76
   1   6  -9   15.33   11.03
  -1   6   9   18.48    3.67
   1   6  -9   12.35    2.50
  -1  -6   9   17.14    2.49
   1  -6  -8   29.18    4.55
   1   6  -8   41.76    5.63
   1   6  -8   39.88    4.13
  -1   6   8   35.77    4.38
  -1   6   8   36.21    3.63
   1  -6  -8   41.97    5.08
   1   6  -8   36.80    3.03
   1  -6  -8   33.36    4.11
   1  -6  -8   27.53    9.87
   1   6  -8   25.72   10.85
  -1   6   8   34.00    3.99
   1   6  -8   37.43    3.35
  -1  -6   8   37.28    3.01
   1  -6  -7    5.72    3.46
  -1   6   7    6.01    3.27
   1   6  -7    6.91    2.57
   1   6  -7    6.40    3.71
  -1   6   7    5.89    2.61
  -1   6   7    6.41    3.36
  -1  -6   7    8.70    2.86
  -1   6   7    4.03    3.69
   1  -6  -7    6.89    3.39
   1   6  -7    6.94    1.89
   1  -6  -7    2.20    7.48
   1  -6  -7    4.51    3.03
   1   6  -7    9.77    2.22
  -1   6   7    6.71    3.02
   1   6  -7   13.44    9.86
  -1  -6   7    6.70    1.92
   1   6  -6   69.62    6.36
   1   6  -6   65.15    5.08
   1   6  -6   69.56    5.06
  -1  -6   6   74.03    4.51
  -1   6   6   76.17    5.18
  -1   6   6   67.25    4.42
  -1   6   6   69.97    6.03
  -1  -6   6   77.55    5.50
   1  -6  -6   80.40    9.37
   1  -6  -6   82.92    5.81
   1   6  -6   79.72    3.95
   1  -6  -6   72.83    4.83
   1   6  -6   79.12    4.42
  -1   6   6   73.69    4.73
   1   6  -6   86.44    4.82
   1   6  -6   67.41   10.73
  -1   6   6   73.39    5.32
  -1   6   5  455.90   16.96
  -1   6   5  408.02   17.82
  -1   6   5  429.43   16.62
  -1   6   5  395.52   16.01
  -1  -6   5  448.06   17.41
   1  -6  -5  493.35   17.78
   1  -6  -5  485.12   21.63
   1   6  -5  456.25   17.42
   1   6  -5  443.48   17.35
   1   6  -5  457.10   18.58
  -1   6   5  456.97   17.04
   1  -6  -5  415.38   16.37
   1   6  -5  509.23   16.77
  -1   6   5  431.57   16.31
   1   6  -5  443.63   22.09
   1   6  -5  471.59   16.35
   1   6  -4  875.70   32.81
   1   6  -4  941.80   33.00
   1   6  -4  862.96   33.57
  -1  -6   4  923.46   32.86
  -1   6   4  805.90   33.03
  -1   6   4  838.30   32.09
  -1   6   4  898.38   32.61
  -1   6   4  848.81   31.88
   1  -6  -4  828.29   32.72
  -1   6   4  838.15   32.04
  -1  -6   3  487.56   16.87
  -1   6   3  423.89   16.90
  -1   6   3  415.20   16.67
   1   6  -3  424.70   16.70
   1   6  -3  470.88   17.00
   1   6  -3  431.22   17.16
  -1   6   3  391.28   15.73
   1  -6  -3  437.36   16.66
  -1   6   2   30.72    3.39
   1  -6  -2   31.80    4.58
  -1   6   2   29.73    3.01
   1  -6  -2   35.99    2.92
   1   6  -2   29.57    3.12
   1   6  -2   31.73    3.09
  -1  -6   2   31.07    2.78
   1  -6  -2   29.26    2.37
  -1  -6   1  889.33   29.84
   1  -6  -1  814.56   29.81
  -1   6   1  791.01   29.64
  -1   6   1  816.28   30.46
   1  -6  -1  854.56   31.49
   1   6  -1  830.54   29.42
   1  -6  -1  865.89   29.86
   1   6  -1  847.09   30.39
   1   6  -1  824.75   31.79
  -1  -6   0  535.51   18.31
   1  -6   0  530.61   18.98
  -1   6   0  511.92   17.98
  -1   6   0  570.59   19.70
   1  -6   0  526.08   20.12
   1   6   0  543.49   20.74
   1  -6   0  524.51   18.47
   1   6   0  530.35   19.39
  -1  -6  -1  456.30   17.58
   1  -6   1  462.03   16.07
   1   6   1  406.73   17.30
  -1   6  -1  395.32   14.71
   1   6   1  452.79   16.12
  -1   6  -1  356.34   16.01
  -1   6  -1  368.19   17.26
  -1  -6  -2  300.98   13.72
   1  -6   2  297.74   11.82
   1   6   2  290.85   12.98
  -1   6  -2  280.86   10.80
   1   6   3    6.66    4.32
   1  -6   3    4.08    2.47
  -1  -6  -3    3.29    4.44
   1   6   3    7.35    2.68
  -1   6  -3    4.77    1.89
  -1   6  -3    2.05    3.05
  -1   6  -3    2.87    3.78
   1   6   4   30.75    5.26
  -1   6  -4   33.13    3.23
  -1   6  -4   23.41    5.04
  -1   6  -4   32.30    4.07
   1  -6   4   33.23    3.56
   1  -6   4   27.30    3.63
  -1   6  -4   29.62    2.54
   1   6   4   35.30    2.85
  -1  -6  -4   35.35    6.23
   1   6   4   32.81    3.48
  -1   6  -4   49.50    3.85
  -1   6  -4   30.71    8.21
   1   6   4   38.91    6.34
   1  -6   4   30.09    2.58
   1   6   5   48.41    6.37
   1   6   5   49.64    3.27
  -1   6  -5   44.54    4.05
  -1   6  -5   43.36    5.20
  -1   6  -5   44.11    6.13
  -1   6  -5   51.96    4.78
   1   6   5   45.61    3.89
   1   6   5   43.56    2.98
   1  -6   5   50.30    3.97
   1  -6   5   49.97    4.84
  -1  -6  -5   46.34    5.40
   1   6   5   54.61    3.26
  -1   6  -5   52.02    3.35
  -1  -6  -5   49.62    7.52
  -1   6  -5   41.88    8.83
  -1   6  -5   47.87    3.53
  -1   6  -5   58.71    3.93
   1   6   5   48.42    4.21
   1  -6   5   46.18    3.27
  -1  -6  -6    9.75    2.69
   1   6   6   10.90    5.43
   1   6   6    9.96    2.06
  -1   6  -6   12.15    3.01
  -1   6  -6   14.22    3.15
  -1   6  -6   14.19    5.20
  -1   6  -6   22.17    4.21
   1  -6   6   11.77    2.89
   1   6   6    9.57    2.14
  -1  -6  -6    9.83    4.36
  -1   6  -6   18.28    8.02
  -1   6  -6   10.19    2.15
  -1  -6  -6    6.52    7.09
  -1   6  -6   10.20    7.93
   1   6   6    5.90    3.26
  -1   6  -6   14.06    2.36
   1  -6   6    9.30    2.23
   1   6   7  316.99   12.29
   1   6   7  315.43   16.64
   1  -6   7  330.89   12.63
   1  -6   7  293.24   14.69
  -1  -6  -7  333.04   16.40
  -1  -6  -7  243.25   19.00
  -1   6  -7  290.14   14.98
  -1   6  -7  326.18   14.54
  -1   6  -7  266.25   16.36
  -1   6  -7  289.05   14.16
  -1   6  -7  312.28   12.56
  -1  -6  -7  318.86   12.98
   1   6   7  321.38   13.43
  -1   6  -7  327.51   12.65
  -1   6  -7  302.85   18.58
   1  -6   7  309.86   12.53
   1   6   8  322.74   16.85
   1   6   8  273.84   11.58
  -1   6  -8  254.54   15.77
  -1   6  -8  280.81   14.07
  -1   6  -8  299.74   14.53
   1  -6   8  307.86   11.96
  -1  -6  -8  286.82   12.35
  -1   6  -8  299.62   12.15
   1  -6   8  289.65   14.61
  -1  -6  -8  322.82   16.43
   1   6   8  322.79   13.21
  -1   6  -8  279.11   18.95
  -1   6  -8  318.16   12.06
   1  -6   8  310.12   12.15
  -1   6  -9    1.68    2.35
  -1  -6  -9   -0.22    2.58
   1  -6   9    1.82    2.20
  -1   6  -9   -6.30    9.96
   1   6   9    0.79    3.67
   1   6   9    3.17    2.31
   1  -6   9    1.84    2.38
  -1  -6 -10   95.60    5.80
   1   6  10   91.04    5.11
   1  -6  10  112.29    5.39
   1   6  10  111.72    6.46
  -1  -6 -10  115.64    9.11
  -1   6 -10   67.40   11.81
  -1  -6 -10   80.84    5.24
  -1   6 -10  104.93    5.38
  -1  -6 -11  303.36   12.53
   1  -6  11  370.05   12.37
   1   6  11  277.47   11.88
   1   6  11  362.12   13.07
  -1  -6 -11  357.96   15.47
   1  -6  11  347.12   12.62
  -1   6 -11  350.97   12.35
  -1  -6 -11  245.98   11.87
   1  -7 -12  158.78    6.88
  -1   7  12  146.63    6.71
  -1  -7  12  174.71    7.01
   1  -7 -12  188.36    9.29
  -1   7  12  153.62    6.97
   1  -7 -12  177.25    7.10
   1  -7 -11   15.88    2.99
  -1  -7  11   19.67    2.31
  -1   7  11   12.51    2.73
  -1   7  11   13.06    3.02
  -1  -7  11   20.56    2.91
   1  -7 -11   22.70    5.65
   1   7 -11   14.17   10.67
   1  -7 -11   17.91    3.21
   1   7 -11   19.35    2.40
   1  -7 -10  214.60   10.61
   1   7 -10  231.79    9.49
  -1   7  10  238.24   10.18
   1  -7 -10  224.01   10.37
  -1  -7  10  239.15    9.95
  -1   7  10  214.65   10.15
  -1  -7  10  238.48    9.52
   1  -7  -9   35.80    4.79
  -1   7   9   43.03    4.51
  -1   7   9   34.37    3.84
   1   7  -9   44.91    3.36
   1  -7  -9   46.14    4.72
   1  -7  -9   32.21   12.85
   1   7  -9   46.20    3.74
   1   7  -9   51.43   13.65
  -1   7   9   52.15    4.63
  -1  -7   9   45.86    3.43
   1  -7  -8  575.93   26.08
  -1   7   8  607.57   23.60
   1   7  -8  660.52   25.75
   1   7  -8  583.37   27.14
  -1   7   8  610.55   24.08
  -1   7   8  732.38   24.92
   1  -7  -8  613.28   34.06
  -1  -7   8  651.29   26.39
   1  -7  -8  655.72   26.28
   1   7  -8  674.56   23.73
   1  -7  -8  560.95   25.03
   1  -7  -8  651.81   24.88
  -1   7   8  663.84   24.52
   1   7  -8  619.54   32.34
   1   7  -8  682.86   24.34
  -1  -7   8  693.87   23.72
   1   7  -7  139.20    9.43
   1   7  -7  133.93    8.06
   1   7  -7  152.24    8.16
  -1  -7   7  145.64    6.60
  -1   7   7  128.23    6.94
  -1   7   7  141.07    7.69
  -1   7   7  140.83    9.34
   1  -7  -7  150.84    8.63
  -1  -7   7  152.58    8.65
   1  -7  -7  145.60   14.38
   1  -7  -7  122.05    7.93
   1   7  -7  150.08    6.51
   1  -7  -7  144.90    7.68
   1   7  -7  132.75   14.77
  -1   7   7  138.89    7.31
   1   7  -7  150.69    7.09
   1  -7  -7  140.04    8.52
  -1   7   6    1.67    2.47
  -1   7   6    0.58    3.10
  -1  -7   6    4.27    2.98
  -1   7   6    0.67    3.67
   1  -7  -6    1.46    2.82
   1   7  -6    2.38    1.82
   1  -7  -6    1.96    2.78
   1  -7  -6    2.24    6.66
  -1   7   6    2.78    2.89
   1   7  -6   -8.92   10.76
   1   7  -6    0.11    2.64
   1   7  -6    0.62    1.97
   1   7  -6   -0.49    3.60
   1  -7  -6   -0.37    2.99
   1   7  -6    0.18    2.50
   1   7  -6    1.20    2.16
  -1  -7   5   10.83    2.84
   1  -7  -5   14.52    3.17
  -1   7   5   11.04    3.62
   1   7  -5   13.72    2.82
   1   7  -5    8.60    3.45
   1   7  -5   11.45    2.77
   1  -7  -5    9.36    2.90
   1  -7  -5    4.42    5.72
   1  -7  -5   12.40    2.84
   1   7  -5   20.60   11.00
  -1   7   5   12.38    2.92
   1   7  -5   13.67    2.37
   1   7  -5   12.71    2.86
  -1   7   5   11.51    3.22
  -1   7   5   13.19    2.59
   1  -7  -4  364.69   14.81
  -1   7   4  333.18   15.18
  -1   7   4  305.12   13.77
  -1   7   4  363.60   14.43
  -1  -7   4  379.17   15.18
   1   7  -4  372.47   15.79
   1   7  -4  398.23   15.39
   1   7  -4  379.05   15.17
   1  -7  -4  367.14   14.12
   1  -7  -4  350.88   13.83
  -1   7   4  360.81   14.72
   1   7  -4  385.33   21.86
  -1   7   4  351.31   14.16
  -1   7   4  390.88   14.57
   1  -7  -4  307.55   14.80
  -1   7   3  366.39   15.24
  -1   7   3  353.69   15.71
  -1  -7   3  412.99   15.86
   1   7  -3  364.16   15.65
   1   7  -3  401.16   16.00
   1   7  -3  403.65   16.07
  -1   7   3  361.23   15.62
   1  -7  -3  376.96   14.67
   1  -7  -3  403.96   15.46
  -1   7   2   48.77    4.15
   1   7  -2   50.74    4.09
   1   7  -2   54.18    3.52
   1  -7  -2   53.12    3.49
  -1   7   2   45.12    3.62
   1  -7  -2   47.09    5.23
  -1  -7   2   54.30    3.77
   1  -7  -1   44.09    5.05
  -1   7   1   43.28    4.09
   1   7  -1   46.89    3.90
   1  -7  -1   46.48    3.02
  -1   7   1   43.03    2.93
  -1   7   1   40.83    3.64
   1   7  -1   48.22    3.73
   1  -7  -1   38.80    3.13
  -1  -7   1   48.44    3.17
   1  -7   0  571.09   21.29
  -1  -7   0  570.19   20.47
  -1   7   0  506.66   23.30
   1   7   0  573.73   21.64
   1  -7   0  573.21   22.78
  -1   7   0  572.66   21.10
   1   7   0  586.13   22.86
   1  -7   1    3.13    2.26
  -1   7  -1    3.18    1.81
   1   7   1    1.42    2.25
  -1   7  -1    1.50    3.71
  -1  -7  -1    5.57    3.47
  -1   7  -1    2.81    2.82
   1   7   1    2.73    2.59
   1   7   1    1.21    4.02
   1   7   2   31.63    4.94
  -1   7  -2   35.90    4.87
  -1   7  -2   30.94    3.79
   1   7   2   32.86    3.41
   1   7   2   42.32    3.56
  -1   7  -2   41.13    3.83
   1  -7   2   48.76    3.98
  -1  -7  -2   37.10    5.30
  -1   7  -2   46.03    4.07
  -1   7  -2   33.21    9.15
   1   7   2   53.41    6.36
   1   7   3  728.48   29.71
   1   7   3  720.44   27.66
   1  -7   3  786.20   29.10
  -1  -7  -3  846.84   32.08
  -1   7  -3  708.78   29.70
   1   7   3  709.52   27.85
  -1   7  -3  756.95   27.42
  -1   7  -3  659.74   32.88
   1   7   3  760.87   27.96
   1  -7   3  711.61   27.28
   1   7   3  912.25   31.54
   1   7   4 1167.64   44.93
   1   7   4 1114.40   42.43
  -1  -7  -4 1435.19   48.73
   1  -7   4 1243.26   44.32
  -1   7  -4 1039.66   42.62
  -1   7  -4  995.60   44.87
  -1   7  -4 1263.79   44.94
  -1   7  -4 1205.78   42.23
   1   7   4 1278.62   42.70
   1   7   4 1204.68   42.82
  -1   7  -4 1047.11   47.64
  -1   7  -4 1641.14   43.96
   1  -7   4 1158.20   42.13
   1   7   5  199.64   11.62
   1   7   5  224.58    9.04
   1   7   5  207.48    8.52
   1   7   5  190.19    9.22
   1  -7   5  213.20    9.33
  -1  -7  -5  232.60   11.92
  -1  -7  -5  233.87   14.82
   1  -7   5  218.55   10.99
  -1   7  -5  226.03   11.20
  -1   7  -5  186.03    9.60
  -1   7  -5  199.56   11.62
  -1   7  -5  154.96   11.29
   1   7   5  224.90    9.02
  -1   7  -5  204.70    8.88
   1   7   5  215.01    9.75
  -1   7  -5  165.36   14.70
  -1   7  -5  250.99    9.83
  -1   7  -5  228.07    9.52
   1  -7   5  206.01    8.86
   1   7   6  238.67   13.30
   1   7   6  262.95   10.08
   1   7   6  238.78    9.66
   1  -7   6  201.73   10.01
   1   7   6  208.54   10.10
   1  -7   6  245.90   12.21
  -1  -7  -6  270.95   17.51
  -1  -7  -6  252.96   13.35
  -1   7  -6  250.79   12.18
  -1   7  -6  232.15   12.68
  -1   7  -6  174.99   12.86
  -1   7  -6  243.28   10.00
   1   7   6  239.84    9.75
   1   7   6  257.69   11.03
  -1   7  -6  264.04   10.51
  -1   7  -6  248.17   17.51
   1  -7   6  237.96    9.94
   1   7   7  247.52   10.39
   1   7   7  275.18   14.35
  -1   7  -7  245.52   12.49
  -1   7  -7  256.44   13.31
  -1   7  -7  186.24   13.56
   1  -7   7  224.37   10.47
  -1  -7  -7  288.94   14.68
  -1  -7  -7  239.07   18.42
  -1  -7  -7  239.75   10.79
  -1   7  -7  256.35   10.61
   1   7   7  283.05   11.71
  -1   7  -7  253.55   18.30
  -1   7  -7  275.22   10.90
   1  -7   7  258.81   10.57
   1   7   8    8.04    2.22
  -1  -7  -8   11.07    2.87
   1  -7   8   12.26    2.69
   1  -7   8   10.78    4.02
  -1  -7  -8   22.63    5.38
  -1  -7  -8   13.15    3.53
  -1  -7  -8    1.44    9.67
   1   7   8   12.30    2.55
   1  -7   8    9.27    2.61
  -1   7  -8   17.59   11.27
   1   7   8   13.39    3.99
  -1   7  -8   14.97    2.52
  -1   7  -8   11.51    2.64
  -1   7  -9   70.52    4.33
  -1  -7  -9   51.60    4.12
   1  -7   9   65.89    3.98
  -1  -7  -9   60.25    4.83
   1   7   9   75.32    5.51
  -1   7  -9   61.52   12.75
   1   7   9   51.67    3.87
   1  -7   9   69.78    4.31
  -1  -7 -10   23.15    3.23
   1  -7  10   25.79    2.70
   1   7  10   27.07    3.75
  -1  -7 -10   22.76    6.13
  -1   7 -10   23.26    2.73
  -1  -7 -10   17.21    2.58
  -1  -7 -11   26.97    2.82
   1  -7  11   35.27    2.62
   1   7  11   32.76    3.28
  -1  -7 -11   38.32    5.64
   1  -7  11   31.55    3.00
  -1   7 -11   31.77    2.60
   1  -8 -11   67.78    4.05
   1  -8 -11   64.76    3.78
  -1   8  11   62.67    3.84
  -1   8  11   58.56    4.09
   1  -8 -11   90.30    6.79
  -1  -8  11   74.00    4.19
   1   8 -11   48.70   11.51
   1  -8 -11   70.21    4.22
  -1   8  10  797.45   29.59
  -1  -8  10  860.29   29.55
   1  -8 -10  792.40   29.61
   1  -8 -10  794.82   29.38
   1  -8 -10  855.35   30.09
  -1   8   9  193.13    9.03
  -1   8   9  225.28    9.66
   1  -8  -9  197.02    9.98
   1   8  -9  214.72    8.71
   1  -8  -9  206.64    9.19
   1  -8  -9  201.09    9.55
   1   8  -9  217.16    9.33
   1   8  -9  178.04   18.04
  -1   8   9  205.21    9.46
  -1   8   9  190.67    8.37
  -1   8   8  226.90    9.85
  -1   8   8  183.51    9.00
  -1  -8   8  206.93   11.03
   1  -8  -8  178.81   17.51
   1  -8  -8  195.03   10.23
   1   8  -8  209.58    8.66
   1  -8  -8  209.10    9.72
   1  -8  -8  198.48    9.10
   1   8  -8  206.14   19.44
  -1   8   8  192.06    9.37
   1   8  -8  208.23    9.24
  -1   8   8  186.19    8.55
  -1  -8   7  334.41   13.01
  -1   8   7  352.17   14.07
  -1   8   7  307.36   13.30
  -1  -8   7  334.32   15.39
   1  -8  -7  335.51   15.09
   1  -8  -7  336.20   20.90
   1   8  -7  350.37   13.02
   1  -8  -7  284.14   14.31
   1  -8  -7  334.37   13.90
   1  -8  -7  307.83   13.38
  -1   8   7  317.32   13.65
   1   8  -7  359.71   13.76
   1   8  -7  343.10   23.52
   1   8  -7  289.37   15.73
   1   8  -7  342.31   15.12
   1   8  -7  331.14   14.65
  -1   8   6  434.01   19.32
  -1   8   6  447.39   17.62
  -1   8   6  409.46   16.85
   1  -8  -6  473.72   18.76
   1  -8  -6  473.62   24.09
  -1  -8   6  456.87   18.91
  -1   8   6  346.25   16.89
   1  -8  -6  464.76   17.42
   1  -8  -6  429.17   16.92
  -1   8   6  420.13   17.23
   1   8  -6  477.03   17.47
   1   8  -6  411.49   25.95
   1   8  -6  548.72   18.02
   1   8  -6  435.01   18.50
   1   8  -6  429.21   19.49
   1   8  -6  422.91   18.09
  -1  -8   5   14.08    3.24
   1  -8  -5   13.35    3.29
  -1   8   5   16.00    3.81
  -1   8   5   11.21    2.79
  -1   8   5   13.71    3.51
   1  -8  -5   13.05    2.83
   1  -8  -5    9.31    2.42
   1  -8  -5   12.39    6.04
  -1   8   5   10.99    3.10
   1   8  -5   13.35    2.76
   1   8  -5   15.58   11.86
   1   8  -5   17.60    3.34
   1   8  -5   16.20    2.79
   1   8  -5   12.01    2.96
   1   8  -5   10.54    3.17
   1   8  -4    3.65    2.45
   1   8  -4    1.70    2.43
   1   8  -4    0.15    2.01
  -1  -8   4   -1.31    2.67
  -1   8   4   -0.50    2.94
  -1   8   4   -0.26    2.49
  -1   8   4    0.34    3.01
   1  -8  -4   -1.43    2.16
   1  -8  -4    1.03    1.88
   1   8  -4    0.53   12.47
   1   8  -4    2.36    3.51
   1  -8  -4   -1.34    3.65
   1   8  -3   11.97    2.80
   1   8  -3   12.15    2.33
  -1   8   3    7.66    2.43
  -1   8   3    7.87    3.36
  -1   8   3    9.50    2.72
  -1  -8   3    7.24    2.47
   1  -8  -3    7.34    2.02
  -1   8   3    8.67    2.68
   1  -8  -3    8.45    2.04
   1   8  -3    4.57   11.95
   1   8  -3   15.17    3.92
   1   8  -3    7.35    8.18
  -1   8   3   12.22    4.16
  -1   8   3   10.03    2.60
   1  -8  -3    8.87    2.86
  -1   8   2 1263.31   49.58
  -1   8   2 1421.03   49.44
   1  -8  -2 1403.83   52.83
  -1  -8   2 1505.42   50.28
  -1   8   2 1475.08   49.69
  -1   8   2 1284.32   50.37
   1  -8  -2 1460.75   49.10
   1   8  -2 1224.24   49.80
   1   8  -2 1489.99   50.99
  -1   8   2 1507.18   50.17
   1  -8  -2 1497.65   49.59
   1   8  -2 1315.39   53.38
   1   8  -1  967.94   34.09
  -1   8   1  799.75   33.83
  -1  -8   1  946.03   33.84
  -1   8   1 1006.58   33.83
   1  -8  -1  965.45   33.21
   1  -8  -1  936.51   36.55
  -1   8   1  958.81   34.50
   1   8  -1 1026.53   37.61
   1  -8  -1 1026.10   33.57
   1   8  -1  917.76   34.72
  -1   8   1  707.43   36.03
   1   8   0  536.75   20.52
  -1   8   0  463.56   22.20
   1   8   0  548.23   19.82
  -1   8   0  479.93   19.76
   1  -8   0  515.66   19.94
  -1   8   0  561.18   19.53
  -1  -8   0  518.47   21.98
   1  -8   0  537.47   21.97
   1  -8   0  512.10   18.82
  -1   8   0  441.50   20.17
   1   8   0  566.16   22.71
   1  -8   0  573.87   19.24
   1   8   0  478.29   21.04
   1   8   1    9.18    3.83
   1   8   1    5.38    2.31
  -1   8  -1   10.23    4.16
   1   8   1    7.30    3.02
  -1   8  -1    5.35    3.04
   1  -8   1    8.52    2.63
  -1   8  -1    6.62    2.25
  -1  -8  -1    4.75    3.98
   1  -8   1    7.36    3.40
  -1   8  -1   -2.43    9.54
   1  -8   1    8.50    1.99
   1   8   1    1.34    5.05
   1   8   2 1278.25   49.66
  -1   8  -2 1306.98   50.64
  -1   8  -2 1395.93   48.49
   1   8   2 1348.35   48.13
   1  -8   2 1457.63   49.50
  -1  -8  -2 1384.03   51.82
   1   8   2 1138.85   48.13
  -1   8  -2 1313.45   47.78
  -1   8  -2  967.09   52.70
  -1   8  -2 1716.47   49.46
   1   8   2 1477.90   51.20
   1   8   2 1535.93   49.12
   1  -8   2 1355.80   47.60
   1   8   3   16.35    4.21
  -1   8  -3   32.98    4.50
   1   8   3   16.80    3.35
   1  -8   3   22.14    3.71
  -1   8  -3   16.49    2.49
   1   8   3   14.88    3.22
  -1  -8  -3   18.98    5.18
  -1   8  -3   27.94    4.44
  -1   8  -3   19.59   10.49
   1  -8   3   17.74    2.48
   1   8   3   18.81    3.42
   1   8   3   21.61    5.96
   1   8   4   62.44    6.37
  -1   8  -4   67.38    6.03
   1   8   4   62.02    4.95
   1  -8   4   68.93    5.83
  -1  -8  -4   79.59    8.83
  -1   8  -4   73.29    4.36
   1   8   4   72.60    4.92
  -1  -8  -4   75.26    4.52
   1   8   4   75.20    5.30
  -1   8  -4   62.28   12.24
  -1   8  -4   90.93    5.85
   1  -8   4   72.53    4.25
   1   8   5  206.74    9.02
  -1   8  -5  214.93   11.35
  -1   8  -5  202.70   11.80
  -1   8  -5  166.27   11.07
   1  -8   5  204.87    9.27
   1   8   5  175.83    9.15
  -1  -8  -5  234.14   11.92
  -1  -8  -5  236.89   15.38
   1  -8   5  189.92   10.87
   1   8   5  204.76    8.98
  -1   8  -5  212.67    9.01
  -1  -8  -5  193.13    9.06
   1   8   5  205.98    9.69
  -1   8  -5  242.79    9.87
  -1   8  -5  215.23    9.65
  -1   8  -5  173.58   16.60
   1  -8   5  192.71    8.80
   1   8   6  199.83    8.87
  -1   8  -6  225.46   11.43
  -1   8  -6  157.08   11.01
  -1   8  -6  198.95   11.65
   1   8   6  185.42    9.04
   1  -8   6  199.81    9.05
   1  -8   6  196.34   11.17
  -1  -8  -6  193.99   15.93
  -1  -8  -6  230.24   12.30
  -1   8  -6  210.96    8.90
   1   8   6  194.96    8.60
  -1  -8  -6  199.18    9.22
  -1   8  -6  174.57   16.91
   1   8   6  191.21    9.66
  -1   8  -6  204.60    9.36
   1  -8   6  206.02    8.84
   1   8   7   19.17    2.87
  -1   8  -7   20.89    3.99
  -1   8  -7   24.76    4.50
   1  -8   7   20.34    3.24
   1  -8   7   19.02    4.35
  -1  -8  -7   22.97    5.12
  -1  -8  -7   19.43    3.44
  -1  -8  -7   19.70    9.00
   1  -8   7   19.87    2.96
  -1   8  -7   25.54    3.16
   1   8   7   24.16    4.22
  -1   8  -7   17.97   12.14
  -1   8  -7   20.00    2.90
   1   8   8  621.08   23.56
  -1   8  -8  705.47   24.00
   1  -8   8  601.14   23.51
  -1  -8  -8  620.10   24.26
  -1   8  -8  702.15   24.10
  -1   8  -8  556.55   31.18
   1   8   8  721.07   24.88
   1   8   8  571.82   23.33
   1  -8   8  704.83   23.91
   1   8   9   10.25    2.02
  -1   8  -9   10.51    2.42
   1  -8   9   10.28    2.37
  -1  -8  -9    8.75    2.96
   1   8   9   10.51    3.48
   1  -8   9   11.52    2.44
  -1  -8 -10   25.39    2.92
  -1  -8 -10   23.91    2.60
   1  -8  10   28.93    2.54
  -1   8 -10   28.68    2.63
   1  -9 -11    2.75    1.52
   1  -9 -11    3.65    1.45
   1   9 -11    4.39    4.36
   1  -9 -11    3.43    3.56
  -1  -9  11    2.84    1.97
   1   9 -11   -0.86    8.19
   1  -9 -11    3.67    1.51
   1  -9 -10   20.11    2.44
   1  -9 -10   19.16    2.54
   1   9 -10    8.18    7.39
   1   9 -10    3.31   11.02
  -1  -9  10   26.05    3.05
   1  -9 -10   24.41    2.96
  -1   9   9  114.70    6.24
  -1   9   9  152.34    7.04
   1  -9  -9  128.26    6.37
   1  -9  -9  135.27    6.65
   1  -9  -9  133.20    7.18
   1   9  -9  141.84    6.76
   1   9  -9  109.11   15.62
  -1   9   9  125.02    5.81
  -1  -9   8  235.09    9.63
  -1   9   8  222.15   10.13
  -1   9   8  249.67   10.86
   1  -9  -8  264.63   11.48
   1  -9  -8  235.57   10.23
   1  -9  -8  245.00   10.58
   1   9  -8  209.86   19.91
   1   9  -8  249.11   10.64
  -1   9   8  234.74    9.95
  -1  -9   7   43.15    3.58
  -1   9   7   39.22    3.84
  -1   9   7   44.69    4.79
  -1  -9   7   44.82    4.99
   1  -9  -7   44.85    4.99
   1  -9  -7   44.15    9.36
   1  -9  -7   39.80    4.01
   1  -9  -7   44.47    3.79
   1   9  -7   25.42   14.65
   1   9  -7   44.89    4.07
   1   9  -7   45.98    4.70
  -1  -9   6    5.88    2.95
  -1   9   6    2.15    2.74
  -1   9   6    7.87    3.75
  -1  -9   6    5.03    3.07
   1  -9  -6    6.86    2.92
  -1   9   6    5.10    2.83
   1  -9  -6   10.11    6.78
   1  -9  -6    3.34    2.74
   1  -9  -6    4.33    2.48
   1   9  -6    4.35   13.71
   1   9  -6    7.69    3.31
   1   9  -6    8.17    2.83
   1   9  -6    3.37    2.92
   1   9  -5  358.15   15.80
  -1  -9   5  360.32   15.91
   1  -9  -5  372.58   15.65
   1  -9  -5  364.68   19.66
  -1   9   5  357.61   14.93
  -1   9   5  327.79   13.97
   1  -9  -5  339.17   13.89
   1  -9  -5  345.85   13.86
   1   9  -5  302.26   23.77
   1   9  -5  435.13   15.56
   1   9  -5  384.93   14.80
   1   9  -5  245.47   19.23
   1   9  -4   59.28    5.18
  -1  -9   4   62.10    5.11
  -1   9   4   60.35    4.26
  -1   9   4   53.51    4.97
   1  -9  -4   60.41    3.81
   1  -9  -4   62.18    3.87
   1   9  -4   47.59   14.66
   1   9  -4   46.67    9.85
   1  -9  -4   38.54    5.63
  -1   9   3  414.18   16.54
  -1   9   3  431.72   17.36
   1  -9  -3  422.27   16.17
  -1  -9   3  466.99   17.92
   1  -9  -3  441.11   20.92
   1   9  -3  438.54   18.23
   1  -9  -3  430.56   17.57
  -1   9   3  462.64   17.20
   1   9  -3  393.19   21.20
  -1   9   2  198.12    8.70
  -1  -9   2  198.21    9.23
   1  -9  -2  192.17   11.86
   1  -9  -2  194.66    8.19
  -1   9   2  218.16    9.39
   1  -9  -2  223.79    9.12
   1   9  -2  219.94   13.00
   1   9  -2  200.69   10.07
   1   9  -1  972.63   36.62
  -1   9   1  699.80   37.83
   1   9  -1  982.12   35.88
  -1   9   1  875.10   35.71
   1  -9  -1  931.34   38.65
   1  -9  -1  988.94   34.69
  -1   9   1  978.92   35.98
   1   9  -1  943.58   37.11
   1   9  -1 1033.73   39.03
   1  -9  -1 1091.92   35.34
   1   9  -1 1199.13   36.93
  -1   9   1 1006.57   35.47
  -1   9   0   -0.49    3.51
   1   9   0    3.90    3.27
  -1   9   0    0.83    2.11
   1   9   0    2.66    3.44
  -1   9   0   -1.33    3.17
   1  -9   0    1.87    3.75
  -1  -9   0    2.17    3.76
   1  -9   0   -0.31    1.90
   1   9   0    4.42    5.46
  -1   9   0    0.28    3.89
   1   9   0    0.16    2.12
  -1   9  -1  719.57   32.12
   1   9   1  788.25   29.72
  -1   9  -1  754.41   29.80
   1  -9   1  781.70   30.24
  -1   9  -1  836.70   29.32
   1  -9   1  810.85   32.28
  -1  -9  -1  773.46   32.86
  -1   9  -1  879.05   30.55
   1  -9   1  881.96   29.02
   1   9   1  928.40   30.79
   1   9   1  874.01   32.67
  -1   9  -1  596.74   30.06
  -1   9  -2  174.92   11.32
  -1   9  -2  196.90    9.83
   1   9   2  199.32    9.56
   1  -9   2  201.43   10.33
  -1  -9  -2  207.07   12.92
   1   9   2  172.65    9.63
  -1   9  -2  194.05    8.91
   1  -9   2  219.04   11.67
  -1   9  -2  139.38   15.63
  -1   9  -2  247.54   10.71
   1   9   2  241.78   10.33
   1   9   2  225.82   12.43
   1  -9   2  223.00    8.77
  -1   9  -3    4.69    3.53
   1   9   3    5.08    3.47
   1  -9   3    4.50    3.10
   1   9   3    5.03    3.12
  -1   9  -3    4.88    2.35
  -1  -9  -3    5.18    2.04
  -1  -9  -3    5.86    5.19
   1  -9   3    5.84    3.59
  -1   9  -3    4.51   11.03
   1  -9   3    6.37    2.20
   1   9   3    6.37    3.13
   1   9   3    5.78    5.35
  -1   9  -4    3.12    3.58
  -1   9  -4    3.16    3.59
   1   9   4   -0.99    3.41
   1  -9   4    2.51    2.96
   1  -9   4   -0.68    3.21
  -1   9  -4   -0.30    2.40
   1   9   4    1.02    2.82
  -1  -9  -4    4.22    6.22
  -1  -9  -4   -0.73    2.09
  -1   9  -4   13.54   11.93
  -1   9  -4    3.19    3.35
   1  -9   4    0.36    2.01
   1   9   5   45.43    3.95
  -1   9  -5   30.22    5.13
   1   9   5   28.10    4.37
   1  -9   5   43.33    4.06
  -1  -9  -5   48.74    5.90
   1  -9   5   44.23    5.25
   1   9   5   47.15    3.95
  -1   9  -5   48.13    3.71
  -1  -9  -5   40.34    3.77
  -1  -9  -5   53.43    8.69
  -1   9  -5   35.08   12.65
  -1   9  -5   43.24    4.46
  -1   9  -5   48.96    4.35
   1  -9   5   40.97    3.50
   1   9   6    4.69    2.69
  -1   9  -6    3.78    3.24
  -1   9  -6    4.69    3.45
   1   9   6    3.63    2.96
   1  -9   6    6.24    2.87
   1  -9   6    2.76    3.54
  -1  -9  -6    3.61    3.73
  -1  -9  -6    7.56    7.10
  -1  -9  -6    3.96    2.85
   1  -9   6    3.77    2.33
  -1   9  -6    6.34    2.76
  -1   9  -6   13.45   12.20
   1   9   6    3.12    2.16
  -1   9  -6    4.54    2.50
   1   9   7  162.03    7.85
  -1   9  -7  176.62    7.94
   1  -9   7  173.59    7.91
  -1  -9  -7  160.10    8.02
  -1   9  -7  136.59   16.58
  -1   9  -7  195.50    8.41
   1  -9   7  169.24    7.70
   1   9   8   73.22    4.43
  -1   9  -8   84.85    4.79
   1  -9   8   86.20    4.61
  -1  -9  -8   76.63    4.89
  -1  -9  -8   75.46    4.61
  -1   9  -8   83.58    4.78
   1  -9   8   85.30    4.65
  -1   9  -9  810.06   28.41
  -1  -9  -9  787.38   28.53
  -1  -9  -9  777.33   28.31
   1  -9   9  756.30   27.99
   1  -9   9  844.35   28.27
   1   9   9  791.99   28.04
  -1  -9 -10   21.72    2.02
  -1  -9 -10   24.01    2.30
   1  -9  10   27.31    1.95
  -1  -9 -10   28.31    4.96
   1  -9  10   28.04    2.64
   1 -10 -10   80.31    3.94
   1 -10 -10   78.79    3.97
   1 -10  -9   24.85    2.90
   1  10  -9   16.00    6.63
   1 -10  -9   19.63    2.48
   1 -10  -9   19.73    2.36
   1  10  -9   21.67    2.84
  -1  10   9   18.98    2.01
  -1  10   8   24.32    2.73
   1 -10  -8   29.05    3.88
  -1  10   8   21.84    2.91
  -1  10   8   32.90    4.06
  -1 -10   8   22.17    2.51
   1 -10  -8   22.88    2.85
   1 -10  -8   27.45    2.88
   1  10  -8   25.06   13.20
   1  10  -8   25.21    3.17
   1  10  -8    8.26    7.29
  -1  10   7  521.76   19.40
  -1  10   7  536.61   20.02
  -1  10   7  490.38   19.11
  -1 -10   7  500.26   18.93
   1 -10  -7  545.93   20.40
   1 -10  -7  518.22   19.15
   1 -10  -7  513.31   19.07
   1  10  -7  385.59   27.92
   1  10  -7  509.70   19.80
   1  10  -7  407.62   23.82
  -1  10   6  785.33   29.76
  -1  10   6  882.36   30.83
  -1 -10   6  847.73   29.92
  -1 -10   6  837.79   32.19
   1 -10  -6  825.86   37.44
   1 -10  -6  831.58   30.96
  -1  10   6  812.37   30.25
   1 -10  -6  796.06   29.59
   1 -10  -6  790.88   29.56
   1  10  -6  925.68   31.17
   1  10  -6  861.80   30.70
   1  10  -6  715.74   34.90
   1  10  -5  627.75   24.99
  -1  10   5  647.05   23.88
  -1  10   5  605.06   22.85
  -1 -10   5  652.26   25.06
   1 -10  -5  594.61   24.37
  -1  10   5  515.42   23.52
   1 -10  -5  613.24   22.53
   1 -10  -5  615.72   22.62
   1  10  -5  608.91   23.59
   1  10  -5  745.33   24.52
   1  10  -5  576.65   28.11
   1  10  -4    3.27    2.74
  -1  10   4    2.49    3.76
  -1  10   4    2.09    2.52
  -1 -10   4    2.63    2.82
   1  10  -4    1.25    2.57
   1 -10  -4    1.57    1.90
   1  10  -4    1.10    3.87
   1  10  -4    8.92    6.76
  -1  10   3  719.55   26.06
  -1  10   3  725.50   27.07
   1 -10  -3  780.29   31.73
   1 -10  -3  736.04   25.63
   1  10  -3  734.20   27.98
   1  10  -3  635.85   28.69
   1 -10  -3  696.41   27.39
   1  10  -3  769.14   31.03
  -1  10   3  722.69   26.69
  -1  10   2   19.28    2.95
   1  10  -2   16.96    4.89
   1 -10  -2   23.34    5.72
   1 -10  -2   22.24    2.27
  -1 -10   2   20.33    4.60
   1 -10  -2   23.25    3.72
   1  10  -2   25.37    6.60
  -1  10   2   17.47    3.17
   1  10  -2   15.02    3.25
  -1  10   2   15.58    4.93
  -1  10   1  256.84   16.44
   1  10  -1  311.97   15.00
   1  10  -1  360.51   15.05
  -1  10   1  356.60   13.93
  -1  10   1  329.17   14.88
   1 -10  -1  331.19   17.60
   1 -10  -1  358.65   13.36
  -1  10   1  348.93   14.67
   1 -10  -1  382.61   14.15
   1  10  -1  372.07   15.91
   1  10  -1  374.84   17.52
   1  10  -1  429.10   16.16
  -1  10   1  356.93   14.14
  -1  10   0   39.21    5.55
  -1  10   0   50.66    3.85
  -1  10   0   47.22    5.09
   1  10   0   51.68    5.18
   1 -10   0   50.97    6.57
  -1 -10   0   39.94    6.18
   1  10   0   46.98    5.27
   1  10   0   66.32    7.21
   1 -10   0   54.37    3.67
   1  10   0   55.15    5.21
  -1  10   0   52.15    4.70
  -1  10  -1   10.75    4.24
   1  10   1   17.88    4.04
  -1  10  -1   16.72    4.27
  -1  10  -1   15.60    3.98
   1  10   1   12.75    3.80
  -1  10  -1   17.76    2.73
  -1 -10  -1    9.61    5.11
   1 -10   1   19.18    5.00
  -1  10  -1   11.86    4.03
   1  10   1   17.06    5.83
   1  10   1   17.27    3.84
   1 -10   1   17.98    2.46
  -1  10  -2   49.22    5.88
   1  10   2   40.62    4.79
   1 -10   2   53.80    4.90
   1  10   2   39.14    4.88
  -1  10  -2   40.69    5.37
  -1  10  -2   48.40    3.76
  -1 -10  -2   42.50    6.79
   1 -10   2   51.54    6.06
  -1  10  -2   61.71    5.97
   1 -10   2   51.09    3.50
   1  10   2   43.07    6.77
   1  10   2   49.09    4.86
  -1  10  -3 1001.06   49.91
  -1  10  -3 1276.89   50.82
   1  10   3 1207.54   48.25
   1 -10   3 1400.42   50.12
  -1 -10  -3 1453.03   54.07
  -1  10  -3 1374.95   47.87
   1  10   3 1200.17   48.49
   1 -10   3 1413.06   51.57
  -1  10  -3 1712.84   50.48
   1  10   3 1562.27   52.47
   1 -10   3 1445.43   47.54
   1  10   4  427.04   18.54
  -1  10  -4  460.99   21.07
  -1  10  -4  406.13   20.83
   1 -10   4  519.06   18.53
   1  10   4  434.50   18.81
  -1 -10  -4  512.90   24.48
   1 -10   4  505.06   20.92
  -1 -10  -4  530.33   21.51
  -1  10  -4  467.84   18.26
   1  10   4  445.64   18.81
  -1 -10  -4  478.03   17.72
   1 -10   4  515.53   21.68
  -1  10  -4  321.92   25.41
  -1  10  -4  562.15   19.79
   1 -10   4  513.76   18.10
   1  10   5   57.76    4.71
   1 -10   5   71.20    4.61
   1  10   5   60.26    5.17
  -1 -10  -5   71.95    6.50
  -1 -10  -5   72.46    9.47
   1 -10   5   56.70    5.77
  -1 -10  -5   61.29    3.88
   1 -10   5   62.88    4.00
  -1  10  -5   42.98   12.88
  -1  10  -5   68.80    5.07
  -1  10  -5   61.14    4.95
  -1  10  -5   55.14    4.24
   1  10   5   59.53    4.47
   1  10   6  198.28    8.99
  -1  10  -6  189.75    8.72
   1  10   6  213.01    8.73
   1  10   6  170.77    8.76
   1 -10   6  212.22    8.84
  -1 -10  -6  193.45    8.41
  -1 -10  -6  198.96    8.57
  -1  10  -6  207.54    9.40
   1 -10   6  201.05    8.47
   1  10   7  902.64   31.86
  -1  10  -7  831.30   31.57
   1 -10   7  916.03   31.61
  -1 -10  -7  872.93   31.45
  -1 -10  -7  844.66   31.48
  -1  10  -7  895.61   32.10
   1 -10   7  915.49   31.44
   1  10   8   22.39    2.51
  -1  10  -8   16.80    2.39
  -1 -10  -8   20.84    2.34
  -1 -10  -8   21.53    2.47
   1 -10   8   20.14    2.45
  -1  10  -8   20.36    2.46
   1 -10   8   23.90    2.25
  -1 -10  -9    4.55    1.50
  -1 -10  -9    6.21    1.61
   1  10   9    4.37    1.35
  -1 -11   9   43.62    3.14
   1 -11  -9   43.97    2.50
   1 -11  -9   43.61    2.56
  -1  11   9   41.15    2.32
  -1  11   8  923.27   31.69
   1 -11  -8  883.58   31.52
   1 -11  -8  831.53   31.37
  -1  11   8  940.70   32.23
   1  11  -8  925.97   32.35
   1  11  -8  937.00   34.51
  -1  11   7   42.41    3.40
  -1  11   7   41.02    4.31
  -1 -11   7   36.01    3.10
   1 -11  -7   38.20    2.93
   1 -11  -7   32.90    2.72
   1  11  -7   41.37    3.72
   1  11  -7   36.86    6.61
  -1  11   6  138.02    6.69
  -1  11   6  153.45    8.02
  -1 -11   6  158.11    7.02
   1 -11  -6  143.88    6.52
   1 -11  -6  131.90    6.28
  -1  11   6  150.52    7.06
   1  11  -6  169.69    7.80
   1  11  -6  157.33   11.21
  -1  11   5    7.15    2.43
  -1  11   5   11.66    3.96
   1  11  -5   12.30    5.37
  -1  11   5   11.09    3.47
   1 -11  -5    9.84    2.16
   1  11  -5   12.98    3.69
   1  11  -5   13.86    6.88
  -1  11   4  523.15   19.16
  -1  11   4  568.91   20.60
   1 -11  -4  502.34   24.65
   1 -11  -4  510.38   18.76
  -1 -11   4  516.46   23.15
   1  11  -4  486.99   22.02
   1  11  -4  599.09   21.01
   1  11  -4  543.23   20.37
   1  11  -4  458.14   19.35
  -1  11   4  424.16   20.25
   1  11  -3   38.54    4.29
  -1  11   3   49.93    3.80
  -1  11   3   52.18    5.29
  -1 -11   3   52.84    6.38
   1 -11  -3   48.68    3.17
   1 -11  -3   46.81    7.33
   1  11  -3   62.69    5.78
   1  11  -3   51.06    4.67
   1  11  -3   51.96    6.28
   1  11  -3   58.71    8.00
  -1  11   3   42.41    4.16
   1  11  -2    0.75    3.23
   1  11  -2   -3.80    4.37
  -1  11   2    0.71    2.42
   1 -11  -2   -3.34    5.01
  -1 -11   2    0.99    4.27
   1 -11  -2    3.12    1.71
  -1  11   2    0.50    2.52
   1  11  -2    3.22    5.51
  -1  11   2   -2.88    3.95
  -1  11   1    6.41    3.98
  -1  11   1   11.97    2.65
  -1  11   1    9.14    3.98
   1  11  -1    7.51    3.62
   1 -11  -1   10.97    5.06
   1  11  -1    8.94    4.56
   1  11  -1   11.27    5.46
   1  11  -1   12.00    4.11
  -1  11   1    8.66    2.99
  -1  11   0  135.96   10.13
   1 -11   0  171.24   11.62
   1  11   0  170.63    9.37
  -1  11   0  172.95    9.38
  -1  11   0  190.72    8.03
   1  11   0  147.48    9.28
  -1  11   0  176.09    8.13
  -1  11   0  199.10   10.01
   1  11   0  195.84   10.04
   1  11   0  194.06   11.50
  -1  11   0  183.19    9.08
   1  11   0  199.78    9.75
  -1  11  -1   38.81    5.79
  -1  11  -1   46.69    5.40
   1  11   1   49.46    5.41
   1 -11   1   65.49    7.17
  -1 -11  -1   60.42    7.44
   1  11   1   37.28    5.07
  -1  11  -1   58.11    4.00
   1  11   1   54.53    5.74
  -1  11  -1   65.01    6.00
   1  11   1   71.36    7.57
   1  11   1   68.13    5.51
  -1  11  -1   60.00    5.05
   1  11   2   12.78    4.12
   1  11   2   13.35    3.83
  -1  11  -2   11.64    2.52
  -1  11  -2   14.10    3.98
  -1  11  -2   11.13    3.99
   1 -11   2   14.61    5.02
  -1 -11  -2   17.67    5.65
  -1  11  -2   12.62    4.85
   1  11   2   14.11    3.71
   1  11   2   19.33    5.76
  -1 -11  -3   -1.62    5.31
   1 -11   3    2.42    3.85
  -1  11  -3   -0.98    3.70
   1  11   3    0.84    3.88
  -1  11  -3    1.65    2.25
   1  11   3   -1.04    3.41
  -1  11  -3    3.00    4.01
   1  11   4  932.49   35.38
   1  11   4  908.34   35.55
   1 -11   4 1040.19   35.01
  -1  11  -4  994.57   35.83
  -1  11  -4  871.28   35.67
   1 -11   4 1067.09   34.54
  -1  11  -4  770.43   36.38
  -1  11  -4 1033.25   34.86
   1  11   4  958.93   35.54
   1  11   5   18.15    3.28
   1  11   5   24.18    3.17
  -1  11  -5   21.14    2.66
   1 -11   5   20.18    2.99
   1  11   5   16.34    3.71
  -1  11  -5   20.66    3.52
  -1  11  -5   16.33    3.37
   1 -11   5   21.60    2.35
   1  11   6  475.07   17.34
  -1 -11  -6  434.11   16.82
  -1  11  -6  431.64   17.88
   1  11   6  467.84   17.78
  -1 -11  -7    5.39    1.62
   1 -11   7    8.71    2.28
  -1  11  -7    4.71    2.11
   1  11   7    4.99    2.17
   1  11   8   98.89    4.07
  -1 -11  -8   72.91    3.53
   1 -11   8   85.70    3.86
  -1  11  -8   69.72    3.86
  -1  11  -8   58.83    5.18
   1 -12  -8   14.63    1.48
   1  12  -8   16.86    2.23
  -1  12   8   16.41    1.68
   1  12  -7    0.86    3.43
  -1  12   7    2.26    2.82
  -1 -12   7    3.53    1.82
   1 -12  -7    2.62    1.41
   1  12  -7    3.87    2.20
  -1  12   7    1.79    1.82
  -1  12   6  317.45   11.59
  -1  12   6  290.38   11.13
  -1 -12   6  298.86   11.10
  -1  12   6  283.41   11.88
   1 -12  -6  251.81   10.55
   1  12  -6  270.11   11.71
   1  12  -6  298.28   13.54
   1  12  -6  263.85   13.01
  -1  12   5   63.70    4.45
  -1 -12   5   71.64    4.29
  -1  12   5   68.94    5.32
   1 -12  -5   55.83    3.35
   1  12  -5   62.91    5.07
   1  12  -5   72.63    6.93
   1  12  -5   68.82    6.14
  -1  12   4    5.36    3.15
   1  12  -4    6.72    4.28
   1  12  -4    6.94    2.37
  -1  12   4    9.75    3.92
   1 -12  -4    4.81    1.69
   1  12  -4    8.37    3.60
   1  12  -4    5.20    3.01
   1  12  -4   13.51    5.18
  -1  12   3  167.31    9.67
   1  12  -3  173.85    8.92
  -1  12   3  201.66    9.75
   1  12  -3  180.60    9.20
   1  12  -3  202.52    9.98
   1  12  -3  227.35   10.67
   1  12  -3  223.97   11.95
   1  12  -2   88.47    6.24
  -1  12   2   69.87    4.69
   1  12  -2   83.66    7.52
   1  12  -2   56.95    4.99
   1  12  -2   62.62    5.06
   1  12  -2   57.75    3.72
  -1 -12   1  313.32   17.27
  -1  12   1  334.35   14.72
   1  12  -1  282.87   13.91
  -1  12   1  381.19   15.53
   1  12  -1  421.40   16.56
  -1  12   1  354.15   14.09
   1  12  -1  369.44   15.00
   1  12  -1  382.72   16.69
   1  12  -1  273.02   14.13
  -1  12   0    4.26    4.11
  -1  12   0    6.42    4.27
   1  12   0    4.11    4.48
   1  12   0    5.30    4.92
   1  12   0    5.84    3.36
  -1  12   0    5.71    2.83
   1  12   0    5.95    3.74
   1  12   1  137.11    7.58
  -1  12  -1  120.98    7.05
   1  12   1  130.47    8.43
   1  12   1  133.16    9.49
   1  12   1  111.24    6.61
   1  12   2  558.80   22.69
  -1  12  -2  610.39   23.46
   1  12   2  579.48   23.40
   1  12   3   36.62    3.91
   1 -12   3   41.27    3.60
   1  12   3   40.48    4.87
   1  12   3   47.81    5.11
  -1  12  -3   34.58    4.10
  -1  12  -3   50.44    4.70
  -1  12  -3   41.94    4.61
   1  12   3   42.24    4.38
   1  12   4  138.61    7.57
   1 -12   4  173.51    7.34
   1  12   4  147.08    8.06
  -1  12  -4  175.66    8.05
  -1  12  -4  140.88    7.83
   1  12   4  178.48    8.78
  -1  12  -4  165.34    8.76
   1  12   4  164.69    7.83
   1 -12   5   21.32    2.75
  -1  12  -5   23.65    3.14
   1  12   5   21.56    3.70
   1  12   5   27.95    3.18
  -1  12  -5   22.52    3.88
   1  12   5   26.09    2.82
   1  12   6  253.71   10.05
   1 -12   6  268.54    9.73
  -1  12  -6  232.36   10.84
   1  12   6  254.23    9.57
   1  12   7  151.75    6.22
   1 -12   7  158.68    5.97
  -1  12  -7  143.05    6.98
  -1  13   6    8.64    2.76
  -1 -13   6   13.49    1.88
  -1  13   6   14.89    3.01
  -1  13   6   12.22    2.00
  -1  13   6   10.12    1.53
   1  13  -6   14.02    3.11
  -1  13   5  135.19    6.08
  -1 -13   5  129.42    5.71
  -1  13   5  120.71    6.60
  -1  13   5  137.28    6.99
   1  13  -5  128.95    6.97
  -1  13   5  131.29    5.84
  -1 -13   4    3.82    2.36
  -1  13   4    4.74    3.31
   1  13  -4    4.75    2.44
   1  13  -4    4.56    3.01
   1  13  -4    5.67    3.21
  -1  13   4    1.84    2.40
  -1  13   3  662.14   24.58
   1  13  -3  645.54   24.65
   1  13  -3  564.52   24.14
   1  13  -3  754.15   25.25
   1  13  -3  771.35   26.07
  -1  13   3  687.43   24.81
   1  13  -3  589.59   23.67
   1  13  -2   23.07    3.31
  -1  13   2   30.18    4.41
   1  13  -2   32.86    4.04
   1  13  -2   35.36    5.06
   1  13  -2   23.24    3.29
  -1  13   2   27.46    4.01
   1  13  -1  174.89    8.13
  -1  13   1  187.95    9.57
   1  13  -1  163.13    8.87
   1  13  -1  247.83   10.90
   1  13  -1  226.75   10.98
  -1  13   1  267.23   10.94
   1  13  -1  222.42    9.74
  -1  13   1  196.41    8.85
   1  13  -1  192.47    9.27
  -1  13   0   -0.83    2.32
   1  13   0   -4.53    4.48
   1  13   0    2.28    2.97
   1  13   0   -0.43    2.43
  -1  13   0    1.32    4.09
   1  13   0   -0.76    2.24
   1  13   0   -0.89    3.15
  -1  13  -1  509.88   20.57
   1  13   1  701.68   22.94
  -1  13  -1  671.29   22.32
  -1  13  -2   73.78    4.88
   1  13   2   98.12    6.51
  -1  13  -2   85.12    5.51
   1  13   2   79.84    4.81
  -1  13  -2   56.30    4.91
   1  13   2   77.86    5.15
   1  13   3   16.61    2.86
   1 -13   3   17.36    2.49
  -1  13  -3   15.66    2.96
   1  13   3   21.47    4.17
  -1  13  -3   20.52    3.13
  -1  13  -3   19.94    3.00
   1  13   3   18.15    2.97
  -1  13  -3   10.83    2.75
   1 -13   4    7.65    2.12
  -1  13  -4    7.11    2.43
   1  13   4    9.74    3.47
  -1  13  -4   13.07    2.71
   1  13   4    9.49    2.28
   1  13   5   74.47    4.03
   1 -13   5   65.57    3.52
  -1  13  -5   60.02    3.90
  -1  13  -5   69.49    4.25
   1  13   5   68.70    3.64
  -1 -14   4   25.53    2.25
  -1  14   4   28.04    3.45
   1  14  -4   22.04    2.44
   1  14  -4   28.83    2.93
  -1  14   4   25.82    2.26
  -1  14   3   96.59    4.61
  -1 -14   3   92.79    4.43
   1  14  -3   76.23    4.61
   1  14  -3   98.80    5.18
   1  14  -3   78.41    4.09
  -1  14   3  100.30    4.91
   1  14  -2   57.07    4.01
   1  14  -2   44.24    3.43
  -1  14   2   50.21    3.32
  -1  14   2   54.71    3.89
   1  14  -2   46.66    3.30
  -1  14   1  322.71   13.97
   1  14  -1  328.93   13.80
   1  14  -1  435.90   15.01
   1  14  -1  399.49   14.51
   1  14  -1  369.99   14.03
   1  14   0   62.01    3.59
   1 -14   0   69.26    3.88
  -1  14   0   94.56    5.51
   1  14   0   91.39    5.42
  -1  14   0   58.05    4.18
  -1  14   0   72.50    4.11
  -1  14   0   60.59    4.50
   1  14   0   73.76    4.37
   1  14   1   53.73    3.35
   1 -14   1   54.17    3.35
  -1  14  -1   49.15    3.85
   1  14   1   76.50    5.15
  -1  14  -1   66.67    4.38
  -1  14  -1   60.42    3.70
  -1  14  -1   48.04    3.81
  -1  14  -2  691.63   24.91
  -1  14  -2  704.60   25.07
   1  14   2  690.01   24.74
   1  14   2  725.16   25.06
   1  14   3   17.86    2.20
   1  14   3   18.48    2.28
  -1  14  -3   15.37    2.28
   1  14   3   21.35    3.14
  -1  14  -3   14.82    2.17
   1 -14   3   16.59    1.96
  -2   0  14  131.10    5.79
   2   0 -14  110.48    9.01
   2   0 -14  120.22    5.82
  -2   0  14  140.46    5.85
  -2   0  13   -2.19    2.45
   2   0 -13    3.05    6.69
   2   0 -13    0.86    2.42
  -2   0  13    0.77    2.22
   2   0 -12  838.39   30.98
  -2   0  12  853.12   31.07
   2   0 -12  875.80   34.76
  -2   0  12  815.38   30.39
  -2   0  12  858.60   30.71
  -2   0  11    0.10    2.39
   2   0 -11   -0.25    2.71
  -2   0  11    3.89    2.65
   2   0 -11   -0.70    2.40
  -2   0  11    2.28    2.44
   2   0 -11    2.25    6.45
   2   0 -11   -0.43    2.54
   2   0 -10  161.11    8.96
  -2   0  10  155.37    8.21
   2   0 -10  151.10   11.79
   2   0 -10  147.62    7.48
   2   0 -10  129.04    6.99
   2   0 -10  175.38   10.97
  -2   0  10  134.42    6.73
  -2   0  10  153.80    7.11
   2   0  -9    2.49    2.41
  -2   0   9   -0.16    2.24
   2   0  -9   -3.45    5.74
  -2   0   9    1.55    2.57
   2   0  -9    1.07    2.21
  -2   0   9   -0.07    2.05
   2   0  -9    1.86    4.72
   2   0  -9    0.97    2.64
  -2   0   8 1396.10   49.63
  -2   0   8 1375.21   48.07
  -2   0   8 1341.79   49.37
   2   0  -8 1509.43   53.07
   2   0  -8 1392.62   48.71
   2   0  -8 1277.95   48.19
   2   0  -8 1412.42   50.13
  -2   0   8 1333.34   48.00
   2   0  -7   -1.81    2.49
  -2   0   7   -1.40    2.00
   2   0  -7    0.71    4.70
  -2   0   7    0.74    2.54
   2   0  -6   16.29    2.74
  -2   0   6   18.14    3.17
   2   0  -6   17.07    5.03
   2   0  -6    6.17   10.70
  -2   0   5    2.45    2.83
   2   0  -5    2.25    4.13
   2   0  -5    0.36    2.07
   2   0  -4  454.83   17.54
  -2   0   4  416.75   17.09
   2   0  -4  462.16   16.67
  -2   0   3    0.38    3.44
   2   0  -3   -2.90    3.26
   2   0  -3    1.07    1.83
   2   0  -2 1675.75   53.27
   2   0  -2 1544.98   52.38
   2   0  -2 1497.86   52.26
  -2   0   1    0.87    0.79
   2   0  -1    4.74    3.28
   2   0  -1    3.61    1.92
   2   0  -1   -0.46    1.78
  -2   0   1   -0.04    1.87
   2   0   0 2623.18   85.12
  -2   0   0 2539.77   84.60
  -2   0   0 2346.38   84.36
  -2   0  -1    1.57    1.37
  -2   0  -1   -0.16    1.93
  -2   0  -1    0.24    1.31
   2   0   1    0.42    2.47
  -2   0  -1   -0.43    1.90
  -2   0  -2  131.06    5.28
  -2   0  -2  137.78    6.05
  -2   0  -2  134.09    6.33
   2   0   2  133.28    6.45
  -2   0  -3    0.13    1.24
  -2   0  -3    0.49    2.46
  -2   0  -3    0.17    2.02
   2   0   3    1.15    2.64
  -2   0  -3    1.30    2.80
  -2   0  -4 1242.50   43.57
  -2   0  -4 1231.28   44.50
  -2   0  -4 1260.24   44.60
   2   0   4 1282.15   44.97
  -2   0  -4 1258.71   45.43
  -2   0  -5    0.25    2.51
  -2   0  -5   -0.47    1.94
   2   0   5    0.29    2.84
  -2   0  -5    0.98    3.58
  -2   0  -6  351.32   15.22
  -2   0  -6  354.45   14.77
  -2   0  -6  366.78   17.20
   2   0   6  346.22   15.72
   2   0   6  347.25   13.62
  -2   0  -6  356.99   13.87
   2   0   6  388.38   14.17
   2   0   6  354.85   13.69
  -2   0  -7   -1.06    2.12
  -2   0  -7   -0.36    2.73
   2   0   7    1.24    3.19
  -2   0  -7   -0.33    4.39
   2   0   7    1.40    2.05
   2   0   7    0.58    2.62
  -2   0  -7    3.87    4.38
   2   0   7   -0.55    1.88
  -2   0  -7    1.67    2.04
  -2   0  -8  227.96   15.22
  -2   0  -8  295.95   14.03
  -2   0  -8  302.88   13.43
   2   0   8  297.02   11.77
  -2   0  -8  352.30   15.61
   2   0   8  349.18   12.97
   2   0   8  281.54   11.99
  -2   0  -8  306.96   12.30
  -2   0  -9   -0.32    4.00
  -2   0  -9   -0.22    3.02
  -2   0  -9    1.68    2.53
  -2   0  -9    2.62    6.19
   2   0   9    2.61    3.47
   2   0   9    1.71    2.28
   2   0   9   -0.49    2.06
   2   0  10 1409.17   51.85
  -2   0 -10 1437.34   51.97
  -2   0 -10 1535.50   55.78
   2   0  10 1592.15   52.74
   2   0  11    2.14    2.21
  -2   0 -11    1.20    2.17
   2   0  11    3.22    3.28
  -2   0 -11    2.78    6.60
   2   0  12   98.36    4.63
  -2   0 -12   91.61    4.60
   2   0  12   89.59    5.23
  -2   1  14  493.42   17.95
  -2  -1  14  531.09   17.95
   2  -1 -14  490.42   18.05
   2   1 -14  487.26   17.92
  -2  -1  14  513.08   17.86
  -2   1  14  471.22   17.80
   2  -1 -14  442.01   20.29
  -2   1  13  122.70    6.24
  -2  -1  13  136.78    6.20
  -2   1  13  121.16    6.11
  -2  -1  13  132.05    6.07
   2   1 -13  115.24   10.60
   2  -1 -13  129.50   10.02
   2  -1 -13  113.54    6.33
   2   1 -13  127.37    6.28
   2  -1 -12    0.12    3.00
   2   1 -12    2.91    2.57
  -2   1  12    1.26    3.30
   2  -1 -12    0.37    2.30
   2  -1 -12   -1.06    6.33
  -2  -1  12    1.47    2.38
  -2   1  12    0.83    2.61
   2   1 -12   -2.10    7.29
  -2  -1  12   -0.38    2.32
  -2   1  12   -1.65    2.57
   2   1 -11  464.50   20.25
   2  -1 -11  424.43   19.52
  -2   1  11  481.75   18.60
   2  -1 -11  472.84   18.64
   2   1 -11  492.25   18.31
   2  -1 -11  429.50   17.92
   2   1 -11  539.75   22.86
  -2  -1  11  452.02   17.70
  -2   1  11  453.43   17.83
   2  -1 -11  467.61   21.48
  -2  -1  11  490.54   17.99
  -2   1  11  497.68   18.31
   2  -1 -10   73.14    5.67
   2   1 -10   58.30    5.71
  -2   1  10   68.31    5.72
  -2  -1  10   73.17    5.78
   2   1 -10   63.00    9.38
   2  -1 -10   61.25    7.97
   2  -1 -10   71.74    5.19
   2   1 -10   74.41    4.83
  -2   1  10   66.68    5.17
   2  -1 -10   61.94    4.65
   2  -1 -10   68.35    7.42
  -2  -1  10   75.60    4.39
   2   1 -10   85.95    8.84
  -2   1  10   76.43    4.56
  -2  -1  10   76.47    4.50
   2  -1  -9  402.32   16.67
   2   1  -9  365.51   16.84
  -2  -1   9  406.83   15.75
  -2   1   9  385.29   14.76
  -2   1   9  403.23   16.75
   2  -1  -9  385.74   18.81
   2   1  -9  395.33   20.67
  -2   1   9  340.43   15.50
  -2  -1   9  373.00   16.36
   2  -1  -9  369.33   15.42
   2   1  -9  407.16   15.21
   2  -1  -9  364.84   14.98
   2  -1  -9  478.34   18.34
   2   1  -9  477.80   18.72
  -2  -1   9  375.15   14.55
  -2   1   9  365.75   14.63
  -2  -1   9  390.14   14.78
   2   1  -8    7.78    2.79
   2  -1  -8    8.26    2.65
  -2   1   8   10.66    3.26
  -2  -1   8    6.41    2.40
  -2   1   8   10.06    2.33
   2   1  -8    9.98    6.25
   2  -1  -8    6.08    4.36
  -2  -1   8    9.70    2.65
  -2   1   8    6.80    2.02
   2  -1  -8    8.74    2.35
  -2  -1   8    8.61    1.97
   2   1  -8   10.63    4.66
  -2   1   8   10.03    2.05
   2   1  -8    8.17    2.22
   2  -1  -8    8.90    2.67
   2  -1  -7  420.13   17.23
  -2   1   7  362.68   14.92
  -2  -1   7  367.09   15.20
   2   1  -7  386.51   18.65
  -2   1   7  378.54   15.80
  -2  -1   7  390.47   15.11
   2   1  -7  387.85   15.86
   2  -1  -7  383.51   15.51
   2  -1  -6  854.71   29.70
   2   1  -6  793.27   29.90
   2   1  -6  804.07   32.34
   2  -1  -6  851.52   30.74
  -2   1   6  779.75   30.10
  -2  -1   6  837.73   29.49
   2  -1  -5   85.37    4.47
   2   1  -5   72.85    4.73
   2   1  -5   72.70    7.54
   2  -1  -5   86.72    5.55
  -2  -1   5   81.47    4.72
  -2   1   5   78.11    5.26
   2   1  -4  417.08   15.50
   2  -1  -4  418.60   15.21
  -2  -1   4  391.36   15.53
   2  -1  -4  414.31   15.41
   2   1  -4  385.76   17.25
  -2   1   4  390.02   15.88
   2   1  -3    3.96    2.10
   2  -1  -3    5.99    1.87
  -2   1   3    6.91    3.27
  -2  -1   3    7.33    3.35
   2  -1  -3    5.29    1.87
   2  -1  -3    9.73    6.32
  -2   1   2 1372.67   47.57
   2  -1  -2 1402.62   48.66
   2   1  -2 1382.44   46.84
   2   1  -2 1491.48   48.43
   2  -1  -2 1317.02   46.83
  -2   1   2 1264.96   46.72
  -2   1   1 1093.33   38.28
   2  -1  -1 1214.42   39.71
   2  -1  -1  990.36   38.93
   2  -1  -1 1151.73   38.85
   2   1  -1 1194.45   39.83
   2   1  -1 1128.54   38.44
   2  -1  -1 1180.43   38.89
   2  -1  -1 1022.78   38.86
  -2   1   1 1131.94   38.93
   2  -1   0  264.53   10.85
  -2   1   0  266.96   10.31
   2  -1   0  291.74   10.53
   2   1   0  300.70   11.50
   2  -1   0  254.32   10.31
  -2   1   0  274.11   10.62
  -2  -1   0  283.48   10.07
  -2   1  -1   53.80    3.81
  -2  -1  -1   50.32    2.91
  -2  -1  -1   55.72    3.14
   2   1   1   44.53    3.34
  -2   1  -1   51.12    3.58
  -2  -1  -1   52.73    1.98
  -2  -1  -1   52.36    3.13
  -2  -1  -1   52.08    2.33
  -2   1  -1   54.93    3.20
  -2  -1  -2   66.11    3.65
  -2   1  -2   64.63    4.13
  -2  -1  -2   73.53    3.97
  -2   1  -2   68.77    3.79
   2  -1   2   77.03    4.46
  -2   1  -2   76.58    4.82
  -2  -1  -2   70.95    4.12
  -2  -1  -2   74.98    4.31
   2   1   2   72.11    4.22
  -2   1  -3 1743.20   60.09
  -2  -1  -3 1797.90   60.50
  -2  -1  -3 1664.56   60.22
  -2   1  -3 1806.10   60.74
   2  -1   3 1755.99   60.90
  -2  -1  -3 1632.09   60.97
  -2  -1  -3 1736.90   60.99
   2   1   3 1692.60   60.61
  -2   1  -3 1816.79   61.53
  -2   1  -4   60.81    4.36
  -2  -1  -4   53.88    3.98
  -2   1  -4   55.48    3.38
  -2   1  -4   56.24    4.33
  -2  -1  -4   59.68    3.68
   2   1   4   56.24    4.33
  -2   1  -4   61.85    5.47
  -2  -1  -4   58.37    4.86
  -2  -1  -4   52.26    6.15
   2  -1   4   59.46    4.61
  -2   1  -5  115.92    6.64
  -2   1  -5  114.40    6.54
  -2   1  -5  112.98    5.55
  -2  -1  -5  119.03    6.45
  -2  -1  -5  123.32    5.90
  -2   1  -5  123.68    8.38
  -2  -1  -5  126.30    7.78
   2   1   5  114.60    6.69
   2  -1   5  123.06    6.99
  -2  -1  -6  672.11   25.57
  -2   1  -6  637.85   25.50
  -2  -1  -6  650.53   24.98
  -2   1  -6  655.13   25.79
   2   1   6  648.56   25.58
  -2   1  -6  669.48   28.05
  -2  -1  -6  673.15   27.44
   2  -1   6  668.70   26.36
   2  -1   6  660.43   24.04
   2   1   6  615.52   23.86
  -2  -1  -6  641.93   24.13
  -2   1  -6  671.71   24.28
  -2   1  -6  778.93   26.66
   2  -1   6  726.89   24.46
   2   1   6  717.11   24.49
   2  -1   6  641.13   24.07
   2   1   6  630.83   23.95
  -2  -1  -7    4.39    2.09
  -2   1  -7    6.05    2.47
  -2   1  -7    6.39    3.12
  -2  -1  -7    7.74    2.98
   2  -1   7    7.99    3.64
  -2   1  -7    0.69    5.18
  -2  -1  -7    4.94    2.10
  -2   1  -7    8.44    2.25
   2  -1   7    6.00    2.29
   2   1   7    5.26    2.07
  -2  -1  -7    5.41    4.37
   2  -1   7    9.02    2.90
  -2   1  -7    4.15    4.80
   2   1   7    6.09    2.81
   2   1   7    9.12    2.05
   2  -1   7    6.53    2.12
  -2  -1  -8  330.58   15.40
  -2   1  -8  286.49   17.74
  -2  -1  -8  284.98   16.63
  -2   1  -8  346.55   15.25
  -2   1  -8  349.49   15.91
   2   1   8  318.70   13.27
   2  -1   8  346.71   13.47
  -2  -1  -8  350.77   13.87
  -2   1  -8  363.14   13.99
  -2   1  -8  410.72   17.62
   2   1   8  398.39   14.68
  -2  -1  -8  410.41   17.04
   2  -1   8  398.09   14.53
   2  -1   8  341.07   13.73
   2   1   8  339.78   13.63
  -2   1  -9    6.11    3.44
  -2  -1  -9    6.64    3.31
  -2   1  -9    4.19    4.42
  -2  -1  -9    3.93    3.67
  -2   1  -9    3.71    2.65
   2  -1   9    2.80    2.07
   2   1   9    5.25    2.06
  -2  -1  -9   11.24    7.03
   2   1   9    5.71    2.30
   2  -1   9    3.96    2.39
  -2  -1  -9    5.28    2.50
  -2   1  -9    3.42    2.53
   2  -1   9    5.61    3.36
   2   1   9    5.65    3.68
  -2  -1  -9    9.73    6.08
  -2   1  -9    3.79    6.39
   2  -1  10   55.65    4.10
   2   1  10   56.20    4.02
  -2   1 -10   56.81    4.18
  -2  -1 -10   58.10    4.17
  -2  -1 -10   66.01    8.12
   2  -1  10   64.87    5.09
  -2   1 -10   59.28    8.47
   2   1  10   61.81    5.26
   2   1  11  189.80    8.33
   2  -1  11  190.17    8.35
   2  -1  11  198.75    9.10
   2   1  11  220.68    9.48
  -2   1 -11  193.57   12.81
  -2  -1 -11  195.62   12.39
  -2   1 -11  184.42    8.37
  -2  -1 -11  193.83    8.41
  -2  -1 -12   15.40    2.41
   2   1  12   16.54    2.16
   2  -1  12   17.78    2.26
   2  -1  12   11.16    1.52
  -2   1 -12   15.21    2.12
  -2  -1 -12   15.54    2.17
  -2   1 -12   19.87    6.83
   2  -1  12   15.28    2.92
   2   1  12   18.61    3.15
  -2  -2  14   -1.26    1.70
  -2   2  14   -0.31    1.83
   2   2 -14    0.22    1.60
  -2  -2  14   -1.74    1.86
  -2   2  14   -1.45    1.86
   2  -2 -14    0.61    4.48
  -2   2  13  537.60   20.54
  -2  -2  13  610.56   20.44
  -2   2  13  497.21   20.31
   2   2 -13  468.57   24.33
  -2  -2  13  566.61   20.28
   2  -2 -13  592.61   23.67
   2   2 -13  560.08   20.45
   2   2 -12    9.11    2.59
  -2   2  12   14.98    3.53
   2  -2 -12   10.24    2.75
   2  -2 -12   14.15    6.34
  -2  -2  12   13.19    2.68
  -2   2  12    8.40    2.84
   2   2 -12   11.37    8.05
  -2  -2  12    9.80    2.49
  -2   2  12    9.07    2.92
   2   2 -11  271.98   13.77
  -2   2  11  276.80   12.13
  -2   2  11  265.57   13.45
   2   2 -11  281.17   11.60
   2  -2 -11  256.20   11.62
   2  -2 -11  284.37   14.98
  -2   2  11  265.95   11.49
  -2  -2  11  277.71   11.26
   2   2 -11  300.32   16.85
  -2  -2  11  300.58   11.47
   2   2 -10   63.42    5.55
   2  -2 -10   58.99    4.95
  -2   2  10   52.24    4.94
  -2   2  10   46.76    5.34
  -2  -2  10   58.06    5.32
   2   2 -10   62.56    9.97
   2   2 -10   63.80    4.22
  -2   2  10   52.03    4.64
   2  -2 -10   49.25    4.30
   2   2 -10   69.59    8.59
   2  -2 -10   59.13    7.20
  -2   2  10   52.01    4.08
  -2  -2  10   53.96    3.79
  -2  -2  10   58.89    3.88
   2  -2  -9   80.82    5.57
   2   2  -9   80.31    6.17
  -2   2   9   83.91    4.71
  -2   2   9   81.32    6.30
  -2  -2   9   86.56    5.99
   2  -2  -9   87.61    7.45
   2   2  -9   89.61   10.75
   2   2  -9   86.16    4.78
   2  -2  -9   53.89   15.05
   2  -2  -9   74.33    4.95
  -2   2   9   69.72    5.21
  -2  -2   9   71.62    4.29
  -2   2   9   77.45    4.61
   2   2  -9   88.15    8.18
  -2  -2   9   81.61    4.38
   2   2  -8   24.41    3.79
   2  -2  -8   25.74    3.18
  -2  -2   8   20.73    2.53
  -2   2   8   20.89    2.54
  -2   2   8   16.70    2.33
  -2  -2   8   19.88    3.19
   2   2  -8   17.65    7.67
   2  -2  -8   25.24    4.46
  -2   2   8   23.41    4.00
   2   2  -8   22.37    2.54
  -2   2   8   24.41    3.20
   2  -2  -8   20.89    2.78
   2   2  -8   24.84    5.74
  -2  -2   8   20.15    2.32
  -2   2   8   22.53    2.64
  -2  -2   8   21.34    2.23
   2   2  -7 1222.97   47.02
   2  -2  -7 1332.75   43.48
   2  -2  -7  908.96   49.54
  -2   2   7 1054.23   41.32
  -2  -2   7 1241.81   42.33
  -2  -2   7 1214.72   41.48
  -2   2   7 1135.28   42.91
   2  -2  -7 1111.21   41.16
  -2   2   7 1159.44   42.01
   2   2  -7 1122.65   41.03
  -2   2   7 1164.91   40.88
   2  -2  -7 1304.57   42.35
   2   2  -7 1171.82   42.83
   2   2  -7 1281.17   42.47
   2  -2  -6   98.12    6.13
   2   2  -6  110.96   10.09
  -2  -2   6  103.38    5.56
  -2  -2   6  104.65    5.15
  -2   2   6   93.09    6.42
   2  -2  -6  102.77    5.38
   2   2  -6  104.37    5.47
   2   2  -6  102.69    6.14
  -2   2   6   97.84    5.46
   2  -2  -5  243.67   10.02
   2   2  -5  216.04   13.68
  -2  -2   5  241.43    9.61
  -2   2   5  223.11   10.70
   2   2  -5  243.40    9.76
   2  -2  -5  251.18    9.71
   2   2  -5  229.44   10.20
  -2   2   5  229.95    9.76
   2  -2  -4   28.68    2.55
   2   2  -4   25.85    6.82
  -2   2   4   32.76    3.87
  -2  -2   4   30.02    3.27
   2  -2  -4   31.59    2.56
   2   2  -4   36.30    2.55
  -2   2   4   27.15    2.88
   2  -2  -3  371.74   14.49
   2   2  -3  380.26   14.05
   2  -2  -3  386.17   16.54
   2  -2  -3  360.38   13.31
  -2  -2   3  363.81   14.49
   2  -2  -3  366.89   13.85
   2   2  -3  405.99   13.66
  -2   2   2   76.17    4.70
   2  -2  -2   95.68    4.98
   2   2  -2   88.90    7.22
   2  -2  -2   89.90    6.31
   2   2  -2   94.14    3.99
   2   2  -2   94.34    4.80
   2  -2  -2   94.36    4.32
  -2   2   1  576.88   22.37
   2  -2  -1  639.06   21.64
   2   2  -1  617.87   23.56
   2  -2  -1  652.36   22.69
  -2   2   1  651.66   22.66
   2  -2  -1  641.67   22.49
   2  -2  -1  570.72   22.27
   2   2  -1  587.98   22.29
  -2  -2   0   81.23    3.47
  -2   2   0   91.68    4.82
   2   2   0   97.45    6.09
   2  -2   0   96.49    4.06
   2  -2   0   89.56    4.81
   2  -2   0   99.85    4.34
  -2   2   0   78.85    4.94
   2  -2   0   92.37    4.43
   2   2   0   88.11    4.36
  -2  -2  -1  153.48    7.13
  -2   2  -1  174.06    7.23
   2  -2   1  159.77    6.21
   2   2   1  165.60    8.43
   2  -2   1  168.94    7.42
  -2   2  -1  169.48    8.00
  -2   2  -1  156.97    7.64
  -2  -2  -1  165.95    6.02
  -2  -2  -1  184.51    6.75
  -2   2  -1  165.75    7.15
  -2   2  -2   71.02    4.16
  -2   2  -2   70.04    5.25
  -2  -2  -2   63.91    4.49
  -2  -2  -2   64.44    4.14
  -2   2  -2   66.20    4.21
  -2  -2  -2   71.01    3.13
  -2  -2  -2   69.28    3.77
  -2   2  -2   68.10    4.29
  -2  -2  -3    4.34    3.19
   2  -2   3    3.23    2.38
  -2  -2  -3    4.61    2.64
  -2   2  -3    2.72    3.77
  -2  -2  -3    2.48    1.37
  -2  -2  -3    3.66    2.10
  -2   2  -3    4.88    2.08
   2  -2   4    2.44    2.55
   2   2   4    2.64    1.77
  -2   2  -4    0.38    3.95
  -2  -2  -4   -0.29    2.80
  -2  -2  -4    3.28    1.51
  -2   2  -4    4.38    1.97
  -2  -2  -4    4.44    2.24
   2  -2   5 1821.31   62.98
  -2   2  -5 1873.11   65.08
  -2  -2  -5 1847.68   63.74
   2   2   5 1646.45   61.38
  -2  -2  -5 1781.91   62.15
  -2   2  -5 1780.25   61.79
  -2   2  -5 1668.27   62.90
  -2  -2  -5 1872.25   61.71
   2   2   5 1861.38   61.34
   2   2   5 1704.76   60.88
   2  -2   5 1816.68   61.14
   2   2   6   67.74    3.55
  -2  -2  -6   72.89    5.11
  -2   2  -6   71.44    4.54
  -2   2  -6   68.35    5.44
  -2   2  -6   68.62    7.59
   2  -2   6   72.50    5.78
   2  -2   6   74.40    4.24
   2   2   6   71.39    3.97
  -2   2  -6   77.32    4.29
  -2  -2  -6   67.89    4.10
  -2   2  -6   89.14    6.93
   2  -2   6   84.88    4.60
   2   2   6   77.41    4.66
   2   2   6   74.33    3.90
  -2  -2  -7    1.00    2.71
  -2   2  -7    1.70    2.46
   2  -2   7    2.01    3.35
  -2   2  -7    3.11    5.89
   2  -2   7   -0.79    2.25
   2   2   7    1.76    1.98
  -2   2  -7   -1.40    2.21
  -2  -2  -7    1.56    1.99
  -2   2  -7    0.46    5.07
   2  -2   7    0.20    2.66
   2   2   7    2.24    2.94
  -2  -2  -7   -0.94    4.41
   2   2   7   -0.30    1.81
  -2   2  -8   67.59    8.82
  -2  -2  -8   98.17    6.75
  -2  -2  -8   78.28    7.28
  -2   2  -8  102.02    6.87
   2  -2   8  103.15    7.97
  -2   2  -8   96.65   10.93
   2  -2   8  107.05    5.42
   2   2   8   92.76    5.06
  -2  -2  -8  106.82    5.61
  -2   2  -8  108.33    5.72
  -2  -2  -8  144.56    9.06
  -2   2  -8  105.33    9.37
   2  -2   8  114.48    6.18
   2   2   8  116.27    6.62
   2   2   8  104.50    5.40
  -2  -2  -9  244.28   12.66
  -2   2  -9  204.79   14.58
  -2   2  -9  277.06   12.98
   2   2   9  244.00   10.55
   2  -2   9  264.51   10.83
  -2  -2  -9  242.67   16.56
  -2  -2  -9  281.77   11.40
  -2   2  -9  283.99   11.46
   2   2   9  275.68   11.14
  -2  -2  -9  322.79   15.18
  -2   2  -9  283.68   15.66
   2  -2   9  293.69   12.06
   2   2   9  320.01   12.55
  -2   2 -10   21.93    3.07
  -2  -2 -10   17.15    2.81
   2   2  10   19.25    2.81
   2   2  10   24.22    4.32
  -2  -2 -10   29.54    6.90
  -2   2 -10   18.34    7.77
   2  -2  10   24.52    3.91
  -2   2 -11   25.28    2.88
  -2  -2 -11   27.88    2.91
   2  -2  11   24.83    3.69
  -2  -2 -11   29.67    6.80
   2   2  11   24.77    3.98
  -2   2 -11   18.09    7.95
   2   2  11   25.42    2.77
  -2  -2 -12    1.03    2.04
  -2  -2 -12   -0.28    1.65
  -2   2 -12    1.68    1.73
   2  -2  12    5.76    2.57
  -2   2 -12    2.55    6.50
   2   2  12    0.23    2.63
  -2  -2 -12   -2.10    5.44
   2   2  12    0.96    1.66
   2  -3 -13    8.08    1.81
   2  -3 -13    9.70    2.21
   2   3 -13   10.00    2.16
   2  -3 -13    8.71    2.85
   2  -3 -13   10.44    5.45
  -2  -3  13   10.73    2.31
  -2   3  13    8.58    2.54
   2   3 -13    0.59    7.88
  -2  -3  13   10.63    2.25
  -2   3  13    9.60    2.55
  -2   3  12   35.09    3.86
   2  -3 -12   26.15    3.94
   2   3 -12   36.06    3.22
   2  -3 -12   30.99    3.49
  -2   3  12   28.61    3.50
  -2  -3  12   38.78    3.30
   2  -3 -12   23.63    6.35
   2   3 -12   46.30    9.86
  -2  -3  12   31.82    3.11
  -2   3  12   30.06    3.62
  -2   3  11  155.18    7.75
  -2   3  11  126.28    8.90
  -2  -3  11  142.85    8.85
   2  -3 -11  136.09    7.95
   2   3 -11  150.58    7.02
   2  -3 -11  126.66    7.24
  -2  -3  11  137.97    6.76
   2  -3 -11  166.14   10.66
   2   3 -11  151.56   13.10
  -2   3  11  140.61    7.23
  -2  -3  11  155.57    6.89
   2  -3 -10    5.17    3.68
   2   3 -10    4.28    3.37
  -2   3  10    8.71    3.64
  -2   3  10    6.59    2.82
  -2  -3  10    8.22    3.40
  -2   3  10    5.59    3.78
   2   3 -10   14.38    8.44
   2   3 -10    7.14    2.36
   2  -3 -10    3.50    2.98
  -2  -3  10    7.71    2.42
  -2   3  10    3.12    2.89
   2   3 -10   12.36    8.28
  -2  -3  10    6.87    2.12
   2   3  -9  847.31   31.31
  -2   3   9  732.31   30.78
  -2   3   9  792.02   29.09
  -2   3   9  792.59   28.46
   2   3  -9  694.95   35.52
   2  -3  -9  813.04   31.38
  -2  -3   9  838.37   30.54
   2   3  -9  798.07   28.29
   2  -3  -9  753.70   29.47
   2  -3  -9  695.86   28.57
  -2   3   9  746.11   29.42
  -2   3   9  762.41   28.40
  -2  -3   9  773.66   28.02
   2   3  -9  929.20   33.56
  -2  -3   9  811.95   28.08
   2   3  -8  154.67    8.78
   2  -3  -8  158.03    7.62
   2   3  -8  167.41    8.12
  -2   3   8  131.33    8.68
  -2   3   8  135.98    7.38
  -2   3   8  151.14    6.89
   2  -3  -8  157.28    8.82
   2   3  -8  124.01   12.76
  -2  -3   8  169.95    8.26
   2  -3  -8  139.29    7.69
   2   3  -8  154.28    6.66
  -2   3   8  142.00    7.68
   2  -3  -8  152.08    7.24
   2  -3  -8   96.22   15.84
  -2  -3   8  137.22    6.39
   2   3  -8  170.97   10.93
  -2   3   8  142.54    6.79
  -2  -3   8  152.42    6.43
   2  -3  -7   37.20    4.20
   2   3  -7   32.34    8.75
  -2  -3   7   35.82    3.58
  -2   3   7   33.13    4.57
  -2   3   7   31.21    2.83
   2  -3  -7   25.78    3.03
   2  -3  -7   22.96    9.92
  -2   3   7   36.59    3.54
   2   3  -7   34.63    2.65
  -2   3   7   31.65    2.83
   2   3  -7   38.02    3.41
   2  -3  -7   35.05    3.13
  -2   3   6 1054.31   39.62
   2   3  -6 1025.61   44.58
   2  -3  -6 1200.53   40.10
   2  -3  -6  948.47   44.78
  -2   3   6  990.66   40.58
   2  -3  -6 1170.82   39.43
   2   3  -6 1194.84   39.80
  -2  -3   6 1088.49   38.77
   2  -3  -5  387.11   14.40
   2   3  -5  396.13   14.66
  -2  -3   5  371.49   14.07
   2  -3  -5  416.51   14.82
  -2   3   5  355.06   15.71
  -2   3   5  353.20   14.77
   2   3  -4    7.79    1.93
   2   3  -4    8.68    2.54
   2  -3  -4    8.55    1.67
   2   3  -4    8.94    1.70
   2  -3  -4    8.19    1.84
  -2  -3   4   10.17    2.17
  -2   3   4    7.92    2.61
  -2   3   3  258.07   11.30
   2  -3  -3  286.81   12.89
  -2  -3   3  243.75   10.42
   2  -3  -3  258.29   10.92
   2   3  -3  268.96    9.93
   2   3  -3  296.13   11.00
   2   3  -3  267.35   10.17
   2  -3  -3  247.56    9.95
   2   3  -3  278.82    9.90
  -2   3   3  252.54   10.74
  -2   3   2 1383.91   49.20
   2  -3  -2 1469.67   49.77
   2  -3  -2 1444.96   48.88
   2   3  -2 1376.89   47.94
   2   3  -2 1398.81   48.81
   2  -3  -2 1406.94   48.04
   2   3  -2 1355.15   47.62
   2   3  -1  196.99    6.98
   2   3  -1  178.99    7.98
   2  -3  -1  179.83    8.00
   2  -3  -1  198.12    8.59
  -2   3   1  200.09    8.78
   2  -3  -1  190.19    8.12
  -2   3   0   20.17    2.97
  -2   3   0   18.90    4.35
   2  -3   0   19.69    2.74
   2  -3   0   24.27    1.63
   2   3   0   18.44    2.20
   2  -3   0   19.99    2.43
  -2  -3   0   20.93    1.71
  -2   3   0   24.06    3.01
   2  -3   0   20.26    2.59
  -2  -3  -1  182.84    8.16
  -2   3  -1  193.90    7.86
  -2   3  -1  173.36    7.53
  -2  -3  -1  174.19    6.87
  -2   3  -1  162.58    8.42
   2  -3   1  173.32    7.66
  -2   3  -1  152.57    8.81
  -2  -3  -2   30.96    4.24
  -2   3  -2   31.97    3.27
  -2   3  -2   34.08    3.20
  -2   3  -2   27.22    3.42
  -2  -3  -2   32.39    2.52
   2  -3   2   33.22    3.20
  -2   3  -2   27.12    4.78
  -2   3  -3  507.70   20.02
  -2   3  -3  552.64   20.03
  -2  -3  -3  527.72   19.32
  -2   3  -3  538.86   21.73
  -2  -3  -3  508.24   20.18
  -2  -3  -3  507.81   21.03
  -2   3  -4  331.47   13.33
  -2   3  -4  363.44   13.89
  -2  -3  -4  318.32   12.90
  -2   3  -4  321.06   15.64
   2  -3   4  287.43   13.66
  -2  -3  -4  326.52   15.09
  -2  -3  -4  342.17   14.25
  -2   3  -5  146.64    8.71
  -2   3  -5  164.86    7.68
  -2  -3  -5  158.64    7.56
  -2   3  -5  144.75    8.14
   2   3   5  148.76    6.51
   2  -3   5  158.40    6.94
   2  -3   5  154.06    8.34
  -2   3  -5  156.89   10.61
  -2  -3  -5  150.33    8.87
  -2  -3  -5  145.02   10.24
  -2   3  -5  164.13    6.88
   2   3   5  158.95    7.18
  -2   3  -5  186.12    9.72
   2  -3   5  147.32    6.68
   2   3   6   75.23    3.74
  -2   3  -6   72.31    5.66
  -2  -3  -6   74.50    5.02
  -2   3  -6   74.42    4.90
  -2   3  -6   65.75    5.63
   2   3   6   68.52    3.96
   2  -3   6   76.22    4.36
   2  -3   6   71.76    5.74
  -2   3  -6   72.62    8.49
  -2  -3  -6   70.76    4.11
  -2   3  -6   71.78    4.33
  -2  -3  -6   59.65    8.70
  -2   3  -6   93.49    7.91
   2   3   6   80.69    4.95
   2  -3   6   72.07    4.24
   2   3   6   69.18    3.83
   2   3   7    3.03    1.62
   2   3   7    1.33    2.01
   2  -3   7    2.66    2.42
  -2   3  -7    8.12    6.23
   2  -3   7    2.49    3.45
  -2   3  -7    6.23    3.10
  -2  -3  -7    5.44    2.65
  -2   3  -7    2.21    4.77
  -2  -3  -7    5.29    3.30
  -2   3  -7    4.89    2.78
  -2  -3  -7    2.74    2.04
  -2   3  -7    4.22    2.31
   2  -3   7    4.87    2.82
   2   3   7    4.18    3.18
  -2   3  -7    9.04    6.12
   2  -3   7    3.08    2.25
   2   3   7    3.25    1.87
   2   3   8  703.16   26.69
   2  -3   8  745.36   27.10
   2  -3   8  746.06   30.42
  -2   3  -8  699.48   34.10
  -2  -3  -8  659.10   31.91
  -2   3  -8  642.34   31.84
  -2   3  -8  724.01   29.35
  -2  -3  -8  689.48   28.54
  -2   3  -8  767.91   29.90
  -2  -3  -8  743.67   27.26
  -2   3  -8  772.25   27.50
   2   3   8  835.77   28.40
   2  -3   8  798.39   27.84
  -2   3  -8  785.14   31.75
   2  -3   8  713.53   27.23
   2   3   8  721.66   26.97
   2   3   9  140.74   13.12
   2   3   9   90.87    5.31
   2  -3   9  109.53    5.70
  -2   3  -9  116.15   12.32
  -2  -3  -9   99.04   10.52
  -2   3  -9  126.55    6.33
  -2  -3  -9  122.65    6.14
   2   3   9  120.52    5.92
   2  -3   9  118.73    6.18
   2   3   9  131.16    7.49
  -2  -3  -9  145.58    9.77
   2  -3   9  124.01    6.83
  -2   3  -9  123.59   11.25
  -2   3 -10  376.58   14.94
  -2  -3 -10  369.46   14.85
   2  -3  10  363.73   14.84
   2   3  10  371.10   14.71
   2   3  10  422.51   16.19
  -2  -3 -10  401.04   18.44
  -2   3 -10  358.11   19.89
   2  -3  10  412.50   15.52
  -2  -3 -11  431.57   17.16
  -2   3 -11  462.90   17.36
  -2  -3 -11  461.88   20.45
   2   3  11  515.18   18.36
  -2   3 -11  405.07   21.71
   2  -3  11  492.80   17.81
   2   3  11  449.03   17.18
   2  -3  11  468.71   17.37
   2  -4 -13   40.23    3.06
   2  -4 -13   38.40    2.70
   2  -4 -13   42.70    3.69
   2   4 -13   43.88    2.94
  -2   4  13   39.16    3.30
   2  -4 -13   46.27    6.06
  -2  -4  13   46.27    3.19
  -2   4  13   36.05    3.33
  -2  -4  13   45.83    2.98
  -2   4  12  126.54    6.66
   2  -4 -12  128.18    6.60
   2  -4 -12  121.98    7.14
   2   4 -12  135.35    6.28
   2  -4 -12  156.86    9.95
   2   4 -12  110.87   13.42
  -2  -4  12  138.06    6.33
  -2   4  12  122.30    6.58
  -2  -4  12  146.24    6.31
  -2   4  12  117.41    6.71
  -2   4  11  134.76    7.12
   2  -4 -11  108.77    7.33
   2   4 -11  131.98    6.29
   2  -4 -11  112.26    6.69
  -2   4  11  108.59    6.54
  -2  -4  11  119.65    6.14
   2   4 -11  125.51   13.41
  -2  -4  11  137.25    6.20
  -2   4  10  112.95    6.65
  -2   4  10   99.80    8.08
  -2  -4  10  111.89    7.58
   2  -4 -10   91.01    6.89
   2   4 -10  110.59    5.60
   2  -4 -10   99.28    6.40
  -2   4  10  105.24    6.09
   2   4 -10  110.19   12.27
  -2  -4  10  108.33    5.58
  -2  -4  10  113.84    5.48
   2  -4  -9    4.60    3.75
  -2   4   9   10.39    3.57
  -2   4   9    2.75    3.80
  -2  -4   9   10.09    3.26
   2   4  -9    5.27    2.12
   2  -4  -9    4.23    3.12
  -2   4   9    3.95    2.57
   2  -4  -9    4.72   12.92
  -2  -4   9    4.25    2.24
  -2   4   9    3.12    2.81
   2   4  -9    4.59    8.07
  -2  -4   9    8.16    2.00
   2   4  -8  118.15    6.91
  -2   4   8  122.19    8.26
  -2   4   8  126.59    6.80
   2  -4  -8  132.83    7.69
  -2  -4   8  132.04    7.42
   2  -4  -8  101.08   14.15
   2   4  -8  133.87    5.78
   2  -4  -8  102.47    6.96
  -2   4   8  120.38    6.93
   2  -4  -8  115.95    6.50
  -2   4   8  114.57    6.12
   2   4  -8  122.52    5.97
   2   4  -8  133.26   11.40
  -2  -4   8  121.80    5.55
   2  -4  -7   14.96    3.21
  -2   4   7   13.37    4.13
   2   4  -7   12.91    2.53
   2   4  -7   26.95    3.98
   2  -4  -7    4.20    7.74
  -2   4   7   12.81    3.07
   2   4  -7   13.52    2.02
  -2   4   7   11.44    2.51
   2   4  -7   17.51    7.18
  -2   4   7    8.42    3.05
   2  -4  -6   15.60    2.85
   2  -4  -6   12.52    1.89
   2   4  -6   20.35    3.56
   2   4  -6   20.11    2.47
   2  -4  -6   14.01    6.74
  -2   4   6   12.29    2.99
  -2   4   6   17.55    2.47
   2   4  -6   15.15    1.94
  -2   4   6   12.06    2.94
  -2   4   5  838.47   31.58
   2   4  -5  890.48   31.41
   2  -4  -5  797.29   30.47
   2   4  -5  874.42   31.12
   2   4  -5  924.69   32.41
   2  -4  -5  943.51   31.33
  -2  -4   5  864.19   31.46
  -2   4   4 5270.09  183.85
   2   4  -4 5544.03  183.45
   2   4  -4 5452.54  183.14
   2   4  -4 6014.93  184.52
   2  -4  -4 5395.68  182.68
   2  -4  -4 5121.59  183.99
   2   4  -4 4817.09  182.69
  -2  -4   4 5453.46  182.60
   2  -4  -4 6039.71  187.11
   2  -4  -4 5595.25  183.20
  -2   4   4 5065.26  184.42
  -2   4   3  302.63   12.69
   2   4  -3  316.14   11.90
   2   4  -3  332.07   12.79
   2   4  -3  315.73   11.54
   2  -4  -3  303.52   12.54
  -2  -4   3  295.55   11.88
   2  -4  -3  349.95   14.61
  -2   4   3  290.80   12.91
  -2   4   2  125.04    6.66
   2   4  -2  130.74    5.45
   2   4  -2  124.82    6.39
   2   4  -2  127.64    4.93
   2  -4  -2  139.78    6.35
  -2   4   2  118.75    6.59
   2  -4  -2  134.00    7.57
   2  -4  -2  127.27    6.05
   2   4  -2  115.19    8.95
   2   4  -1  183.58    6.71
   2   4  -1  159.94    7.44
   2  -4  -1  168.92    7.63
   2  -4  -1  169.27    7.68
   2  -4  -1  175.57    8.24
  -2   4   1  181.30    8.00
   2  -4   0  141.99    6.66
  -2   4   0  140.86    6.83
  -2  -4   0  136.70    5.28
   2   4   0  143.72    5.19
   2  -4   0  133.49    6.26
  -2   4   0  124.97    6.08
   2   4   0  123.07    8.43
   2  -4   0  132.53    6.56
  -2   4   0  155.17    6.83
  -2  -4  -1  115.22    6.51
  -2   4  -1  108.93    6.02
  -2  -4  -1  118.23    4.71
  -2   4  -1   91.13    6.62
  -2   4  -1  110.52    5.54
   2   4   1   93.07    7.50
  -2   4  -1   99.24    7.83
   2  -4   1  109.13    5.71
  -2   4  -1  118.12    5.42
  -2  -4  -2  118.47    7.68
  -2   4  -2  119.51    8.70
   2  -4   2  122.54    6.45
   2   4   2  110.87    8.15
  -2  -4  -2  136.46    5.56
  -2   4  -2  119.56    7.15
  -2   4  -2  131.47    6.38
  -2   4  -3  286.59   14.28
   2  -4   3  256.18   11.80
  -2  -4  -3  285.79   13.57
  -2  -4  -3  277.96   12.31
   2   4   3  270.91   13.85
  -2  -4  -3  293.17   10.99
  -2   4  -3  280.11   11.84
  -2   4  -3  275.28   12.36
  -2  -4  -4  199.17    8.38
  -2   4  -4  201.04    9.28
  -2   4  -4  193.77    9.25
   2  -4   4  190.82    8.26
   2   4   4  192.43    7.75
   2   4   4  189.39   11.63
  -2  -4  -4  186.03    9.75
  -2  -4  -4  170.28   10.77
  -2   4  -4  186.41   12.02
   2   4   5   63.20    7.78
   2   4   5   66.64    3.49
   2  -4   5   62.94    4.30
   2   4   5   62.09    3.75
  -2  -4  -5   67.33    7.48
  -2   4  -5   64.23    8.00
   2  -4   5   69.46    5.34
  -2   4  -5   72.13    4.94
  -2   4  -5   72.18    5.34
  -2  -4  -5   65.34    4.36
  -2   4  -5   68.92    6.01
   2   4   5   68.35    4.65
  -2   4  -5   69.69    7.52
   2  -4   5   63.35    3.88
   2   4   6 1917.64   66.43
   2   4   6 2292.49   73.74
   2   4   6 1833.82   66.51
   2  -4   6 1946.11   66.93
   2  -4   6 1911.29   69.15
  -2   4  -6 1855.14   72.74
  -2  -4  -6 1690.35   72.56
  -2   4  -6 1972.28   68.90
  -2  -4  -6 1876.75   67.70
  -2   4  -6 1932.76   69.92
  -2   4  -6 2003.87   68.40
  -2   4  -6 1970.32   67.02
  -2  -4  -6 1870.83   66.73
   2   4   6 1982.83   67.56
  -2   4  -6 2057.11   70.91
   2   4   6 1888.36   66.45
   2  -4   6 1934.64   66.91
   2   4   7  372.36   14.32
   2   4   7  482.96   22.45
   2   4   7  359.54   14.40
   2  -4   7  397.47   14.94
  -2   4  -7  345.30   20.79
   2  -4   7  405.34   17.64
  -2  -4  -7  330.44   18.44
  -2   4  -7  381.62   17.03
  -2  -4  -7  366.03   15.80
  -2   4  -7  380.65   16.22
  -2   4  -7  391.66   17.46
  -2   4  -7  282.95   18.69
  -2  -4  -7  358.87   14.71
  -2   4  -7  399.23   15.00
   2   4   7  408.67   15.90
  -2   4  -7  416.73   19.80
   2  -4   7  410.47   15.34
   2   4   7  382.21   14.50
   2  -4   7  383.44   14.91
   2   4   8  431.45   22.89
   2  -4   8  416.88   15.75
  -2   4  -8  358.41   22.63
  -2  -4  -8  352.30   19.94
   2  -4   8  410.87   18.69
  -2   4  -8  403.53   18.16
  -2   4  -8  416.42   18.31
  -2  -4  -8  392.75   15.65
  -2   4  -8  402.78   15.91
   2   4   8  440.99   17.01
  -2   4  -8  387.42   20.76
   2  -4   8  421.14   16.25
   2  -4   8  405.32   15.84
   2   4   8  388.37   15.46
   2   4   9   14.96    7.94
   2  -4   9   15.75    3.00
  -2   4  -9   18.43    8.54
  -2  -4  -9   17.96    6.49
  -2   4  -9   20.48    3.12
  -2  -4  -9   24.08    2.96
   2  -4   9   19.68    3.06
   2   4   9   20.02    2.66
  -2  -4  -9   21.95    6.30
   2  -4   9   22.59    3.91
  -2   4  -9    3.86    8.64
   2   4   9   21.63    4.32
  -2   4 -10  313.59   12.60
  -2  -4 -10  290.53   12.36
   2   4  10  344.18   13.80
  -2  -4 -10  337.34   16.13
  -2   4 -10  285.15   17.70
   2  -4  10  334.16   13.10
   2  -4  10  315.13   12.58
   2   4  10  303.43   12.29
  -2  -4 -11   67.67    4.53
  -2   4 -11   78.28    4.23
  -2  -4 -11   54.55    3.78
  -2  -4 -11   68.70    7.44
   2  -4  11   81.29    4.72
  -2   4 -11   55.12    9.52
   2   4  11   85.22    5.40
   2   4  11   65.49    3.88
   2  -4  11   81.19    4.29
   2  -5 -13  115.36    7.37
  -2   5  13  100.92    5.03
  -2  -5  13  118.61    5.03
   2  -5 -13   98.89    4.84
   2  -5 -13   97.47    4.59
   2  -5 -13  107.66    5.49
  -2   5  12  121.68    6.40
   2  -5 -12  119.66    6.10
   2  -5 -12  135.21    6.60
   2  -5 -12  140.76    7.30
   2   5 -12  137.57    6.11
  -2   5  12  124.76    6.51
   2  -5 -12  149.06    9.34
   2   5 -12  105.12   13.55
  -2  -5  12  139.54    6.30
  -2  -5  12  149.47    6.16
  -2   5  11  381.52   14.63
   2   5 -11  355.92   13.83
   2  -5 -11  319.34   15.07
   2  -5 -11  344.18   14.61
  -2   5  11  329.80   14.27
  -2  -5  11  359.45   13.95
   2   5 -11  304.46   20.91
  -2  -5  11  373.70   13.88
   2   5 -10   -1.12    3.27
   2  -5 -10    1.66    3.58
  -2  -5  10    0.16    2.00
  -2  -5  10    0.71    3.06
  -2   5  10    3.30    3.96
   2   5 -10    1.30    2.06
   2  -5 -10    0.13    3.22
   2   5 -10    8.02   10.69
  -2  -5  10    0.98    2.41
  -2   5  10   -1.67    3.02
   2  -5 -10    1.34    3.94
   2  -5  -9   33.48    4.93
   2   5  -9   42.01    5.31
  -2   5   9   39.71    4.45
  -2  -5   9   43.55    4.73
  -2   5   9   39.72    5.64
   2   5  -9   39.79    3.12
   2  -5  -9   33.75   13.44
  -2   5   9   36.41    4.00
   2   5  -9   36.80    3.36
   2   5  -9   38.60   10.95
  -2  -5   9   36.47    2.99
  -2   5   8  345.55   13.92
   2  -5  -8  269.61   21.84
   2   5  -8  332.78   12.82
   2  -5  -8  286.52   14.27
  -2   5   8  345.64   14.37
  -2   5   8  315.58   13.39
   2   5  -8  333.07   13.29
   2   5  -8  356.27   19.96
   2   5  -8  365.57   16.22
   2   5  -8  374.26   14.71
  -2   5   7  408.26   16.15
   2  -5  -7  434.59   16.89
   2  -5  -7  397.88   23.43
   2   5  -7  409.20   15.05
  -2   5   7  418.27   16.76
   2  -5  -7  367.65   15.89
  -2   5   7  386.03   15.60
   2   5  -7  410.29   15.57
   2   5  -7  457.43   21.94
   2   5  -7  406.51   16.46
   2   5  -7  438.42   18.21
   2  -5  -6  234.00    9.74
  -2  -5   6  208.78    9.79
  -2   5   6  197.54    9.12
  -2   5   6  205.41   10.92
  -2   5   6  179.79    8.58
   2  -5  -6  190.03    8.96
  -2   5   6  222.86    9.96
  -2   5   6  199.44    8.74
   2   5  -6  227.17    8.75
   2   5  -6  229.90   10.95
   2   5  -6  218.44    9.35
   2   5  -6  219.17    9.65
   2   5  -5    7.26    2.92
   2   5  -5    8.04    2.15
   2   5  -5    8.17    1.91
   2  -5  -5    5.49    2.89
  -2   5   5    9.87    2.91
   2  -5  -5    6.84    2.30
  -2  -5   5    7.59    2.34
   2  -5  -5    9.45    2.24
  -2   5   5    8.54    3.68
  -2   5   4   27.28    3.50
   2  -5  -4   36.97    5.37
  -2   5   4   29.41    4.06
  -2  -5   4   27.85    2.92
   2   5  -4   26.48    2.69
   2   5  -4   28.95    2.47
   2   5  -4   24.64    3.65
   2  -5  -4   26.52    3.33
   2  -5  -3   10.92    2.53
   2   5  -3    8.84    1.51
   2   5  -3   15.81    2.94
   2   5  -3    9.57    1.97
  -2   5   3   12.66    3.29
   2  -5  -3   10.38    4.51
  -2   5   3    9.07    3.45
  -2  -5   3   10.17    2.16
  -2   5   2   95.55    5.79
   2  -5  -2  102.31    6.67
  -2   5   2   94.12    5.64
  -2  -5   2  107.15    4.94
   2  -5  -2   93.75    5.05
   2   5  -2  100.67    4.66
   2   5  -2   94.91    5.51
   2   5  -2   92.56    3.95
   2  -5  -2  108.44    5.45
   2   5  -2   87.10    8.58
  -2   5   1  727.92   29.86
   2  -5  -1  830.07   29.59
   2  -5  -1  807.51   30.40
  -2   5   1  858.77   29.63
   2   5  -1  836.54   28.79
   2  -5  -1  816.09   29.59
   2   5  -1  851.47   29.33
   2   5  -1  738.79   31.57
   2  -5   0  629.68   22.86
   2  -5   0  599.22   22.53
  -2   5   0  637.89   22.04
  -2  -5   0  626.64   21.54
   2   5   0  614.45   21.28
   2  -5   0  591.43   22.22
  -2   5   0  553.04   21.81
   2   5   0  557.56   24.31
  -2   5  -1   24.54    3.55
  -2  -5  -1   23.91    3.97
   2  -5   1   16.36    2.75
   2  -5   1   19.07    2.88
  -2   5  -1   21.23    2.08
   2   5   1   13.53    1.03
  -2   5  -1   17.09    4.26
  -2   5  -1   16.63    2.57
   2   5   1   16.66    5.23
  -2  -5  -2   79.66    6.57
  -2  -5  -2   78.32    3.54
  -2   5  -2   75.70    6.02
  -2   5  -2   67.97    4.57
   2   5   2   65.62    6.90
  -2   5  -2   66.41    7.39
   2  -5   2   69.45    4.78
   2   5   3 1066.04   38.62
   2  -5   3 1074.76   39.05
  -2   5  -3 1012.72   42.85
   2  -5   3 1089.26   40.35
  -2  -5  -3 1220.34   42.76
   2   5   3 1135.40   42.41
  -2   5  -3 1087.41   39.85
  -2  -5  -3 1152.28   38.80
  -2   5  -3 1182.53   41.20
   2   5   4   85.58    8.15
   2   5   4   93.05    4.31
  -2   5  -4   87.58    6.06
  -2   5  -4   86.43    5.72
  -2  -5  -4   87.53    4.69
   2  -5   4   86.72    5.07
   2   5   4   90.88    4.57
  -2   5  -4   84.38    9.00
   2  -5   4   77.77    5.87
  -2  -5  -4   93.23    8.16
   2   5   4   96.80    4.34
   2  -5   4   85.44    4.35
   2   5   4   85.50    5.25
  -2   5  -4   81.01    8.56
   2  -5   4   89.30    4.55
   2   5   5   29.62    2.43
   2   5   5   35.37    6.75
  -2  -5  -5   26.55    2.85
  -2   5  -5   24.66    3.74
  -2   5  -5   26.47    4.55
  -2   5  -5   30.57    3.84
   2   5   5   29.29    2.84
   2  -5   5   29.24    3.40
  -2   5  -5   26.00    7.66
   2   5   5   29.05    2.29
  -2  -5  -5   19.46    5.99
  -2   5  -5   21.82    7.36
   2   5   5   25.38    3.70
  -2   5  -5   28.48    2.63
   2  -5   5   28.98    2.77
   2   5   6  430.97   16.00
   2   5   6  492.74   22.40
   2  -5   6  433.59   16.54
  -2  -5  -6  334.51   21.24
  -2   5  -6  415.46   22.85
   2  -5   6  437.41   18.68
  -2   5  -6  443.96   18.17
  -2   5  -6  428.94   19.47
  -2   5  -6  320.30   20.26
  -2   5  -6  402.74   17.99
   2   5   6  457.04   17.30
  -2   5  -6  414.23   21.23
   2   5   6  426.03   15.85
   2  -5   6  438.00   16.41
   2   5   7   40.11    8.41
   2   5   7   36.54    2.97
   2  -5   7   36.83    3.73
   2  -5   7   40.06    5.14
  -2   5  -7   22.85    8.35
  -2  -5  -7   31.00    6.02
  -2   5  -7   34.05    4.67
  -2   5  -7   36.82    4.09
  -2   5  -7   42.23    5.47
  -2   5  -7   29.73    6.69
  -2  -5  -7   34.48    3.18
   2   5   7   42.31    4.93
  -2   5  -7   32.69    9.09
   2  -5   7   38.78    3.45
   2   5   7   34.81    2.98
   2   5   8   77.60    4.30
   2   5   8   76.04   10.22
  -2   5  -8   71.88    6.45
  -2   5  -8   85.42    6.77
  -2   5  -8   53.28    7.74
   2  -5   8   75.21    4.93
  -2  -5  -8   70.43    4.53
   2  -5   8   84.57    7.13
  -2  -5  -8   66.69    8.26
  -2   5  -8   61.17   10.34
   2   5   8   89.35    6.35
  -2   5  -8   82.61   11.01
   2  -5   8   83.71    5.57
   2  -5   8   84.64    4.98
   2   5   8   77.23    4.44
   2  -5   9  150.15    7.13
  -2  -5  -9  147.75    7.14
   2  -5   9  154.17    7.39
   2   5   9  144.69    6.93
  -2  -5  -9  181.27   10.98
   2  -5   9  173.26    8.03
  -2   5  -9  121.61   13.09
   2   5   9  170.71    8.76
  -2  -5 -10   25.49    2.79
  -2   5 -10   20.98    9.52
   2  -5  10   33.78    3.66
   2   5  10   38.70    4.61
  -2  -5 -10   27.55    6.29
   2   5  10   24.70    2.67
   2  -5  10   31.80    3.13
  -2  -5 -11   30.33    5.95
   2  -5  11   33.23    3.20
   2   5  11   38.40    3.92
  -2   5 -11   33.60    8.63
   2  -5  11   41.80    2.99
   2  -6 -13    5.85    1.59
   2  -6 -13    6.26    1.39
   2  -6 -13    8.54    2.10
  -2  -6  13   10.49    1.91
   2  -6 -13    7.78    3.48
  -2   6  13    5.87    1.84
  -2   6  13    6.47    1.83
   2  -6 -12    1.54    2.19
   2  -6 -12    0.97    1.89
   2  -6 -12   -0.11    2.82
  -2  -6  12    0.49    2.15
  -2   6  12    0.55    2.51
   2   6 -12   -6.55    9.86
   2  -6 -12    4.67    4.29
  -2   6  12    0.26    2.37
   2   6 -11  106.56    5.26
   2  -6 -11  109.54    6.84
   2  -6 -11  103.98    5.69
  -2   6  11  105.21    5.94
  -2  -6  11  110.51    5.61
   2   6 -11   85.23   13.67
  -2   6  11  112.42    6.13
  -2  -6  10 1058.05   38.85
   2  -6 -10 1001.06   37.45
   2   6 -10 1022.75   35.62
  -2   6  10 1022.74   36.33
   2   6 -10  896.03   43.73
  -2  -6  10 1009.45   35.82
  -2   6  10  904.00   36.10
  -2   6  10 1010.06   39.48
  -2   6  10 1115.31   36.67
   2   6  -9 2694.13   93.11
  -2   6   9 2736.87   89.91
  -2   6   9 2411.78   89.40
  -2  -6   9 2635.45   91.75
   2  -6  -9 2201.52  101.76
   2   6  -9 2674.78   88.85
   2  -6  -9 2312.49   90.54
   2  -6  -9 2589.34   89.95
  -2   6   9 2637.66   89.54
   2   6  -9 2546.15   89.46
   2   6  -9 2522.05   97.13
   2  -6  -9 2523.40   92.36
   2   6  -8  133.44    8.96
   2   6  -8  126.96    7.20
  -2   6   8  130.87    9.01
  -2   6   8  121.19    6.71
  -2   6   8  136.97    7.24
   2  -6  -8  120.26   15.03
   2  -6  -8  119.81    7.78
   2   6  -8  135.04    5.92
   2  -6  -8  123.52    7.20
   2   6  -8  109.23   13.93
   2   6  -8  130.25    6.50
  -2   6   8  126.55    6.79
   2  -6  -8  122.76    8.49
  -2   6   7   64.90    6.34
  -2   6   7   59.89    4.49
   2  -6  -7   76.32    5.25
  -2  -6   7   68.24    5.24
   2   6  -7   72.76    6.38
   2   6  -7   62.32    4.68
  -2   6   7   73.68    5.17
   2  -6  -7   69.06    4.95
   2  -6  -7   68.08   10.54
  -2   6   7   65.52    4.63
   2   6  -7   79.87   12.16
   2   6  -7   73.43    4.34
   2  -6  -7   73.39    6.11
  -2   6   6  242.85   11.21
  -2   6   6  265.35   11.73
  -2   6   6  264.78   13.37
   2  -6  -6  305.36   12.25
  -2  -6   6  308.11   12.95
   2   6  -6  294.28   14.07
   2   6  -6  280.84   12.30
   2   6  -6  276.67   11.86
  -2   6   6  297.04   12.60
   2  -6  -6  272.87   11.70
  -2   6   6  267.51   11.34
   2   6  -6  309.12   19.52
   2   6  -6  327.18   12.01
   2   6  -6  289.72   11.51
   2  -6  -6  278.28   13.06
   2  -6  -5  269.96   11.80
  -2   6   5  265.38   12.31
  -2   6   5  226.08   10.24
   2  -6  -5  284.74   11.08
  -2  -6   5  271.55   11.39
   2   6  -5  268.75   12.40
   2   6  -5  253.45   10.97
   2   6  -5  271.99   10.73
  -2   6   5  301.72   11.84
   2  -6  -5  238.97   10.18
   2  -6  -5  253.82   10.51
  -2   6   5  244.65   10.33
   2  -6  -5  214.57   11.26
   2   6  -4   29.80    2.92
   2   6  -4   29.89    2.49
   2   6  -4   27.90    3.91
  -2   6   4   28.88    4.07
  -2  -6   4   32.64    3.29
  -2   6   4   24.38    3.14
   2  -6  -4   26.69    2.56
   2  -6  -4   30.86    2.87
   2  -6  -4   25.54    5.40
  -2   6   4   29.11    3.74
  -2   6   4   27.11    2.90
   2   6  -4   39.09    3.28
   2   6  -4   33.71    2.64
   2  -6  -4   29.66    3.30
   2   6  -3  133.35    6.37
   2   6  -3  137.17    7.51
   2   6  -3  132.03    5.80
   2  -6  -3  148.82    6.99
   2  -6  -3  136.29    8.61
  -2   6   3  125.66    7.27
  -2  -6   3  152.23    6.77
  -2   6   3  131.81    7.21
  -2  -6   2  163.14    6.86
   2  -6  -2  166.20    9.00
   2  -6  -2  147.31    6.88
  -2   6   2  145.62    7.29
   2   6  -2  153.70   10.17
   2   6  -2  154.53    7.25
   2   6  -2  136.36    5.70
   2  -6  -2  160.46    7.16
   2   6  -2  146.07    6.53
  -2   6   2  141.64    7.63
   2  -6  -1   26.27    2.92
  -2  -6   1   29.47    2.35
  -2   6   1   29.08    2.97
   2   6  -1   32.31    6.38
   2   6  -1   28.70    2.21
   2  -6  -1   29.24    2.88
   2   6  -1   30.36    2.33
  -2   6   1   23.51    2.21
  -2   6   1   23.68    3.70
   2  -6  -1   24.72    4.13
   2  -6   0 1099.54   39.34
  -2  -6   0 1145.46   38.14
  -2   6   0 1033.53   38.20
   2   6   0 1065.67   41.46
  -2   6   0 1021.41   38.31
   2   6   0 1151.28   38.17
   2  -6   0 1147.16   40.01
  -2   6   0 1083.50   39.84
   2  -6   1 7231.16  237.52
   2   6   1 6627.29  239.26
  -2   6  -1 6586.40  236.41
  -2   6  -1 6700.71  239.35
  -2  -6  -1 7499.94  239.21
   2  -6   1 7184.67  237.60
   2  -6   2 1715.80   59.17
  -2  -6  -2 1804.68   61.40
   2   6   2 1647.82   60.92
  -2   6  -2 1547.17   58.10
  -2   6  -2 1730.31   60.89
   2   6   3  138.23    5.84
   2   6   3  141.99    9.69
  -2   6  -3  124.79    6.71
  -2   6  -3  130.32    8.33
   2  -6   3  131.71    6.46
  -2  -6  -3  150.92   10.15
   2  -6   3  132.64    7.66
   2   6   3  145.05    6.07
  -2   6  -3  125.13    5.94
   2  -6   3  122.30    5.72
   2   6   3  132.63    6.70
  -2   6  -3  111.88   10.72
   2   6   3  159.55   10.21
   2  -6   3  126.19    5.93
   2   6   4  109.40    9.21
   2   6   4  117.65    5.29
  -2   6  -4  109.90    7.41
  -2   6  -4  100.68    6.30
   2  -6   4  104.20    5.88
  -2   6  -4   89.64    9.93
  -2  -6  -4  114.50    9.72
   2  -6   4  101.96    7.03
  -2   6  -4  114.39    5.53
   2   6   4  122.68    5.38
   2  -6   4  102.05    5.16
   2   6   4  113.63    6.28
  -2   6  -4   86.99   10.42
  -2   6  -4  139.71    6.05
   2  -6   4  105.04    5.43
   2   6   5   27.13    2.57
   2   6   5   24.05    6.55
  -2   6  -5   22.04    3.66
  -2   6  -5   30.12    4.21
  -2   6  -5    9.87    5.44
   2  -6   5   26.16    3.45
   2  -6   5   17.19    3.88
  -2   6  -5   22.45    7.43
  -2   6  -5   26.38    2.88
   2   6   5   25.84    2.42
  -2  -6  -5   28.21    7.44
  -2   6  -5   14.66    8.32
   2   6   5   31.54    4.04
  -2   6  -5   28.29    2.91
   2  -6   5   25.04    2.94
   2   6   6  118.35    5.63
   2   6   6  115.94   10.78
   2  -6   6  112.81    6.34
  -2   6  -6   91.05   11.12
  -2  -6  -6   87.92   10.85
  -2  -6  -6  112.13    8.98
  -2   6  -6  119.37    7.71
  -2   6  -6  105.01    7.36
  -2   6  -6   83.27    9.29
   2   6   6  113.18    5.38
  -2   6  -6  115.49    6.06
   2   6   6  119.67    7.09
  -2   6  -6  124.91    6.00
  -2   6  -6  107.13   12.30
   2  -6   6  117.83    6.05
   2   6   7  326.07   17.67
   2   6   7  291.67   11.34
   2  -6   7  280.02   11.75
   2  -6   7  282.98   14.27
  -2  -6  -7  280.85   15.73
  -2   6  -7  211.88   17.12
  -2   6  -7  257.96   13.31
  -2   6  -7  276.61   13.42
  -2   6  -7  209.71   15.24
  -2   6  -7  300.52   11.83
   2   6   7  313.92   13.04
  -2   6  -7  247.48   17.75
   2   6   7  272.30   11.08
   2  -6   7  295.44   11.77
   2   6   8   48.81    8.15
   2   6   8   35.69    3.07
   2  -6   8   42.01    3.86
  -2   6  -8   36.59    3.58
   2  -6   8   36.38    5.37
  -2  -6  -8   39.19    6.78
  -2   6  -8   28.87   10.56
   2   6   8   41.58    5.06
   2  -6   8   42.03    4.20
   2   6   8   39.22    3.12
   2  -6   8   42.37    3.69
  -2   6  -9    2.14    2.45
   2  -6   9    1.69    2.44
   2  -6   9    1.70    2.92
   2   6   9   -1.20    3.89
  -2  -6  -9    3.47    5.71
  -2   6  -9    3.92    9.48
   2  -6   9    0.76    2.40
   2   6   9    2.59    1.87
  -2  -6 -10   13.95    2.93
   2  -6  10   17.76    2.52
   2  -6  10   12.47    2.90
   2   6  10   15.68    3.64
  -2  -6 -10   16.79    5.73
  -2   6 -10   11.86    9.31
  -2   6 -10   11.60    2.39
  -2  -6 -11  386.95   15.73
   2  -6  11  446.36   15.56
  -2  -6 -11  354.31   17.47
   2   6  11  417.27   16.04
   2  -6  11  459.38   15.67
  -2   6 -11  337.15   19.84
  -2   6 -11  437.79   15.61
   2  -7 -12  174.62    7.34
  -2   7  12  179.77    7.67
   2  -7 -12  196.81    9.49
  -2   7  12  161.44    7.52
  -2  -7  12  200.73    7.58
   2  -7 -12  189.51    8.07
   2  -7 -11  176.57    8.08
   2  -7 -11  161.91    7.67
   2  -7 -11  183.25    8.79
  -2   7  11  172.01    7.98
  -2  -7  11  182.68    7.72
  -2   7  11  177.11    7.96
  -2   7  10   -2.87    3.26
  -2   7  10    0.10    2.87
   2  -7 -10   -0.83    3.09
  -2  -7  10   -0.71    2.50
  -2   7  10    0.63    3.02
   2   7 -10   -1.03   12.16
   2  -7 -10    3.15    3.72
  -2   7   9    7.56    3.45
  -2   7   9    5.98    3.16
  -2   7   9    4.14    4.14
   2  -7  -9    3.37   10.95
   2  -7  -9    6.74    3.35
   2   7  -9    4.91    2.41
  -2   7   9   10.08    3.32
   2   7  -9   10.70   13.05
   2  -7  -9    9.64    4.32
  -2   7   8    0.56    2.96
  -2   7   8    5.42    3.49
  -2  -7   8    1.52    3.14
  -2   7   8    1.89    4.01
   2   7  -8    1.16    3.67
   2  -7  -8    0.95    3.08
   2   7  -8    3.90    2.28
   2  -7  -8    0.13    3.25
   2  -7  -8   -5.33    9.50
   2  -7  -8    2.70    2.72
   2   7  -8    1.68    2.28
  -2   7   8    4.15    3.18
   2   7  -8   10.84   12.56
   2  -7  -8    1.94    3.87
  -2   7   7   82.80    5.60
  -2   7   7   70.87    5.11
  -2   7   7   80.97    7.01
   2  -7  -7   83.45   11.45
  -2  -7   7   89.28    6.24
   2   7  -7   88.05    7.26
   2   7  -7   81.68    5.33
   2  -7  -7   89.41    5.65
   2  -7  -7   83.08    5.19
  -2   7   7   84.25    5.33
   2   7  -7   84.49   14.78
   2   7  -7   91.43    5.08
   2  -7  -7   78.63    6.31
  -2   7   6  391.89   16.61
  -2   7   6  424.11   18.92
  -2   7   6  437.84   17.15
   2  -7  -6  462.50   17.63
  -2  -7   6  443.16   18.13
   2   7  -6  424.17   19.24
   2   7  -6  428.80   17.76
   2   7  -6  426.92   17.19
  -2   7   6  454.58   17.82
   2  -7  -6  435.28   17.00
   2  -7  -6  411.44   16.64
  -2   7   6  424.82   16.77
   2   7  -6  465.55   26.14
   2   7  -6  484.90   17.25
   2   7  -6  457.19   16.86
   2  -7  -6  427.14   18.25
   2  -7  -5  205.40    9.98
   2   7  -5  203.50   11.01
   2   7  -5  223.04    9.81
   2   7  -5  219.34    9.15
   2  -7  -5  234.36   13.93
   2  -7  -5  210.60    9.50
  -2  -7   5  220.58   10.09
  -2   7   5  209.23   10.81
  -2   7   5  198.73    8.97
  -2   7   5  228.33   10.20
   2  -7  -5  209.92    9.05
   2  -7  -5  199.26    8.79
  -2   7   5  199.85    8.95
   2   7  -5  200.94   18.57
   2  -7  -5  184.74   10.14
   2   7  -4   13.85    1.78
   2   7  -4   16.27    2.48
   2   7  -4   11.61    3.13
   2  -7  -4   15.29    2.73
  -2   7   4   13.75    2.64
  -2   7   4   10.57    3.48
  -2  -7   4   19.94    2.80
   2  -7  -4   14.14    2.28
  -2   7   4   16.67    3.28
   2  -7  -4   13.44    2.34
   2  -7  -4   13.42    5.09
   2   7  -4   14.24    2.24
   2   7  -4    8.47   12.16
   2   7  -4   18.02    3.14
  -2   7   4   14.63    2.38
   2  -7  -4   16.06    3.05
   2   7  -3  945.51   33.54
   2   7  -3  872.88   34.14
   2  -7  -3  936.82   33.75
  -2   7   3  929.11   33.03
  -2   7   3  878.19   33.18
  -2   7   3  911.74   34.04
   2  -7  -3 1000.72   36.66
  -2  -7   3  947.89   33.77
  -2   7   3  941.32   33.23
  -2   7   3  897.23   34.29
   2  -7  -3  911.34   32.71
   2  -7  -3  923.61   32.74
   2   7  -3  932.14   32.98
   2  -7  -3  959.74   33.14
  -2   7   2  699.76   27.83
  -2   7   2  739.06   28.21
   2  -7  -2  763.54   30.40
  -2  -7   2  798.12   28.18
   2  -7  -2  692.32   27.89
   2   7  -2  784.24   27.98
   2   7  -2  779.26   27.94
   2  -7  -2  796.52   28.32
  -2   7   2  695.70   28.88
   2  -7  -2  784.59   27.43
   2   7  -2  690.49   32.43
   2   7  -1    6.03    5.23
   2   7  -1    2.04    1.39
   2  -7  -1    0.49    1.88
   2   7  -1    1.39    2.46
  -2   7   1    1.12    2.74
  -2   7   1    2.97    1.70
  -2  -7   1    3.91    1.56
   2  -7  -1    2.19    2.00
   2  -7  -1    3.73    1.71
  -2   7   1    0.91    3.12
   2  -7  -1    0.19    3.47
   2   7  -1    4.06    2.45
   2   7  -1   -1.46    6.28
   2   7   0   27.89    5.76
   2   7   0   27.50    2.10
  -2   7   0   21.85    3.30
   2   7   0   29.84    3.01
   2  -7   0   24.30    3.31
   2   7   0   32.71    4.25
   2  -7   0   27.48    2.34
   2  -7   0   26.00    4.06
  -2   7   0   25.57    3.90
  -2   7   0   12.84    8.60
   2   7   0   30.03    6.40
   2   7   1  167.06   10.65
  -2   7  -1  130.57    8.35
  -2   7  -1  171.59    7.92
   2   7   1  194.86    7.56
   2  -7   1  164.78    8.55
  -2   7  -1  155.70    7.34
   2   7   1  178.65    7.64
   2  -7   1  181.32    8.99
  -2  -7  -1  188.28   10.40
   2  -7   1  158.98    6.96
  -2   7  -1  137.43   12.85
   2   7   1  211.22   11.71
   2   7   1  186.98    8.55
   2  -7   1  170.74    7.26
   2   7   2   13.51    5.62
  -2   7  -2   13.80    4.37
  -2   7  -2   14.20    2.18
  -2   7  -2   13.07    3.76
   2   7   2   14.16    2.54
  -2   7  -2   17.48    3.38
   2  -7   2   12.02    3.22
  -2   7  -2   12.86    2.21
   2   7   2   14.59    2.40
   2  -7   2   15.16    2.03
  -2  -7  -2   13.70    4.51
   2  -7   2   14.01    3.34
  -2   7  -2   15.39    3.27
  -2   7  -2   22.32    8.76
   2   7   2   12.56    3.05
   2  -7   2   12.34    2.15
   2   7   2   21.44    5.94
   2   7   3  183.38   11.65
   2   7   3  205.23    8.08
  -2   7  -3  192.82   10.74
  -2   7  -3  160.99    8.39
  -2   7  -3  159.87   10.58
   2  -7   3  218.11    8.68
   2  -7   3  186.26    9.89
  -2  -7  -3  236.78   13.00
   2   7   3  213.71    8.37
  -2   7  -3  191.82    8.23
   2  -7   3  172.82    7.77
   2   7   3  191.74    8.84
  -2   7  -3  155.02   13.75
   2   7   3  261.20   13.39
   2  -7   3  173.39    8.04
   2   7   4  465.75   16.73
   2   7   4  458.12   21.22
  -2   7  -4  469.02   19.85
  -2   7  -4  357.24   17.24
  -2   7  -4  341.03   19.65
   2  -7   4  448.74   17.07
  -2  -7  -4  525.80   23.13
   2  -7   4  442.85   18.97
  -2   7  -4  438.57   16.86
   2   7   4  478.79   16.83
   2  -7   4  425.12   16.41
   2   7   4  446.45   17.52
  -2   7  -4  373.57   22.22
  -2   7  -4  514.56   17.49
   2  -7   4  426.88   16.73
   2   7   5  607.03   26.33
   2   7   5  607.97   21.34
  -2   7  -5  609.56   24.34
  -2   7  -5  469.65   22.13
  -2   7  -5  550.34   25.28
  -2   7  -5  431.83   24.62
   2  -7   5  549.03   21.54
  -2  -7  -5  574.50   27.63
  -2  -7  -5  558.22   24.79
   2  -7   5  603.39   24.04
  -2   7  -5  608.94   21.59
   2   7   5  602.21   21.25
   2   7   5  629.15   22.43
  -2   7  -5  493.58   27.52
  -2   7  -5  610.50   21.87
   2  -7   5  552.57   21.40
   2   7   6   78.75    8.77
   2   7   6   81.75    4.56
  -2   7  -6   74.14    6.26
  -2   7  -6   78.82    7.31
  -2   7  -6   55.02    7.53
   2  -7   6   68.16    5.01
   2  -7   6   61.17    6.35
  -2  -7  -6   85.06    7.85
   2   7   6   74.16    4.22
  -2   7  -6   74.53    4.80
  -2  -7  -6   54.69    9.19
   2   7   6   81.68    6.09
  -2   7  -6   78.78    4.80
  -2   7  -6   61.35   11.97
   2  -7   6   76.89    4.81
   2   7   7   36.11    7.17
   2   7   7   34.00    3.18
   2  -7   7   32.12    3.68
  -2  -7  -7   34.86    6.07
  -2   7  -7   34.60    4.56
  -2   7  -7   37.59    5.33
   2   7   7   38.26    5.04
  -2   7  -7   31.51   11.33
   2  -7   7   39.07    3.58
  -2   7  -7   39.88    3.62
   2   7   8  279.01   11.53
  -2   7  -8  312.28   12.09
   2  -7   8  266.57   11.75
  -2   7  -8  255.77   19.01
   2  -7   8  268.24   12.07
   2  -7   8  301.38   12.01
   2   7   9  284.29   11.48
   2  -7   9  294.22   11.78
  -2  -7  -9  275.74   12.27
  -2   7  -9  310.15   12.14
   2   7   9  339.27   13.18
  -2  -7  -9  309.56   15.21
  -2   7  -9  256.69   18.57
   2  -7   9  301.34   12.25
   2  -7   9  318.62   12.11
  -2  -7 -10    0.96    2.25
  -2   7 -10    3.71    1.98
   2  -7  10    1.44    2.29
   2   7  10    1.53    2.91
  -2   7 -10   -1.61    8.58
  -2  -7 -10    1.77    4.97
   2  -7  10    2.57    1.95
   2  -8 -12   22.23    2.07
   2  -8 -12   28.08    2.46
   2  -8 -12   25.62    3.74
  -2  -8  12   27.34    2.32
  -2   8  12   20.12    2.13
   2  -8 -11   63.35    4.38
  -2  -8  11   56.33    3.66
  -2   8  11   47.39    3.70
   2  -8 -11   57.07    3.78
   2  -8 -10  277.58   11.75
  -2   8  10  240.09   10.72
  -2  -8  10  248.39   10.41
  -2   8  10  247.40   10.65
  -2   8  10  262.71   10.91
   2  -8 -10  276.11   10.98
   2  -8 -10  246.72   10.53
   2  -8  -9   88.69    6.61
   2  -8  -9   86.56    5.26
   2  -8  -9   93.75    5.72
  -2   8   9   79.81    5.44
   2   8  -9   80.02    5.12
   2   8  -9   76.07   15.40
  -2   8   9   86.10    5.37
  -2   8   9   88.21    5.75
  -2   8   8   13.39    3.18
  -2   8   8   13.90    3.76
  -2  -8   8   15.45    3.44
  -2   8   8   14.62    4.40
   2   8  -8    8.47    4.01
   2  -8  -8   11.71    3.20
   2  -8  -8   12.29    2.99
   2  -8  -8   10.16    3.34
   2  -8  -8    9.17    8.83
   2   8  -8   11.44    2.67
  -2   8   8   12.19    3.43
   2   8  -8   -2.45   14.72
   2  -8  -8   10.84    4.20
  -2   8   7   56.90    4.50
  -2   8   7   63.44    5.13
  -2   8   7   62.67    6.20
  -2  -8   7   61.05    5.47
   2   8  -7   51.28    6.10
   2  -8  -7   56.56    4.70
   2  -8  -7   61.35    4.45
  -2   8   7   58.50    4.72
   2   8  -7   59.46   15.33
   2   8  -7   68.57    4.50
   2  -8  -7   57.83    5.18
  -2   8   6    9.47    3.94
  -2  -8   6   13.40    3.29
  -2   8   6    8.64    2.88
  -2   8   6    9.33    3.42
   2  -8  -6    8.84    2.74
   2  -8  -6    8.46    2.60
   2   8  -6    8.91    2.44
  -2   8   6    7.96    3.00
   2   8  -6    6.79   14.01
   2   8  -6   11.55    3.20
   2   8  -6    6.75    3.58
   2   8  -6   10.35    2.78
   2  -8  -6    7.17    2.74
   2   8  -5 1202.98   43.55
   2   8  -5 1196.94   44.81
   2  -8  -5 1133.62   43.31
  -2   8   5 1160.26   42.45
  -2   8   5 1205.18   44.36
  -2  -8   5 1227.34   43.95
   2  -8  -5 1239.42   48.35
   2  -8  -5 1221.69   43.22
   2  -8  -5 1203.39   42.26
   2  -8  -5 1250.49   42.41
  -2   8   5 1177.13   43.51
   2   8  -5 1017.57   51.79
   2  -8  -5 1133.22   44.08
   2  -8  -4 1863.02   66.92
   2   8  -4 1930.52   67.12
   2   8  -4 1801.39   67.68
  -2   8   4 1876.50   66.18
  -2   8   4 1901.68   67.62
   2  -8  -4 2162.90   71.76
  -2  -8   4 2030.91   67.52
   2   8  -4 1649.30   65.71
  -2   8   4 1922.68   67.57
   2  -8  -4 1913.83   65.92
   2  -8  -4 1883.95   65.89
   2   8  -4 2055.59   66.47
   2   8  -4 1612.54   74.57
   2   8  -4 2408.25   67.58
   2  -8  -4 1957.43   67.02
  -2   8   4 1921.32   66.34
   2   8  -4 1214.23   70.80
   2   8  -3  743.56   27.07
   2  -8  -3  707.36   26.83
  -2   8   3  722.50   26.36
  -2   8   3  696.91   26.71
  -2   8   3  710.54   27.12
   2  -8  -3  768.25   30.52
  -2  -8   3  768.51   27.27
   2   8  -3  620.91   26.10
  -2   8   3  731.74   26.59
   2  -8  -3  719.32   25.97
   2  -8  -3  727.99   26.01
  -2   8   3  720.82   27.82
   2   8  -3  784.18   26.58
  -2   8   3  753.55   26.56
   2  -8  -3  799.03   26.70
   2   8  -3  556.55   34.58
   2   8  -3  673.60   32.42
   2   8  -2   51.45    3.59
   2  -8  -2   48.35    3.58
  -2   8   2   45.36    3.42
  -2   8   2   50.90    4.27
  -2  -8   2   48.58    3.61
   2  -8  -2   49.58    5.99
  -2   8   2   44.90    3.55
   2   8  -2   39.53    3.44
  -2   8   2   47.26    4.76
   2  -8  -2   48.79    3.04
   2  -8  -2   48.42    3.10
   2  -8  -2   49.03    3.46
  -2   8   2   44.83    3.68
   2   8  -2   48.81    6.39
   2   8  -2   46.81    8.78
   2   8  -1  427.19   20.00
  -2   8   1  348.58   19.93
   2   8  -1  461.62   16.99
  -2   8   1  404.53   17.16
   2   8  -1  475.31   17.25
   2  -8  -1  429.72   19.61
   2  -8  -1  418.12   17.39
  -2   8   1  457.88   17.01
   2   8  -1  393.55   16.94
  -2   8   1  403.25   18.35
   2  -8  -1  459.73   16.51
   2   8  -1  584.97   18.12
  -2   8   1  445.57   17.40
   2   8  -1  492.64   19.06
   2  -8  -1  450.64   16.69
  -2   8   0   30.88    5.85
  -2   8   0   47.02    4.28
   2   8   0   53.08    4.04
   2  -8   0   48.76    4.18
  -2   8   0   49.03    3.62
  -2  -8   0   51.13    5.79
   2  -8   0   46.65    3.06
   2  -8   0   52.76    5.53
   2  -8   0   44.07    3.22
   2   8   0   57.65    5.17
  -2   8   0   34.36    4.23
   2   8   0   63.53    7.89
   2   8   0   46.96    6.42
   2   8   1   82.73    7.82
   2   8   1   86.11    5.05
  -2   8  -1   81.81    5.50
   2  -8   1   80.63    5.84
   2   8   1   93.41    5.17
  -2   8  -1   78.42    4.76
   2  -8   1   78.68    4.24
   2  -8   1   88.15    6.64
  -2  -8  -1   97.38    7.95
  -2   8  -1   60.08   11.08
   2  -8   1   78.40    4.48
   2   8   1  103.39    8.67
   2   8   1  103.79    6.13
   2   8   2  281.48   15.30
   2   8   2  312.76   12.35
  -2   8  -2  301.94   12.85
   2  -8   2  312.87   14.24
  -2  -8  -2  318.23   16.46
   2   8   2  336.22   12.70
  -2   8  -2  274.00   12.16
   2  -8   2  301.98   14.13
   2  -8   2  296.17   11.74
  -2   8  -2  214.89   18.00
  -2   8  -2  378.93   13.76
   2  -8   2  283.87   11.98
   2   8   2  366.72   16.88
   2   8   2  318.81   13.38
   2   8   3   20.10    2.62
   2   8   3   20.92    5.90
  -2   8  -3   23.18    4.55
   2   8   3   23.33    3.20
   2  -8   3   23.78    3.30
   2  -8   3   17.19    3.84
  -2   8  -3   21.53    2.90
   2   8   3   23.92    2.95
  -2  -8  -3   24.35    6.12
   2  -8   3   20.62    2.41
   2  -8   3   17.55    3.53
  -2   8  -3   26.07   10.26
  -2   8  -3   23.82    4.19
   2  -8   3   17.54    2.61
   2   8   3   24.34    6.45
   2   8   4  115.78    9.47
   2   8   4  127.55    6.16
   2  -8   4  121.09    6.48
  -2  -8  -4  126.74   11.32
   2  -8   4  111.73    8.15
  -2  -8  -4  124.71    9.01
  -2   8  -4  120.24    8.60
  -2   8  -4   90.74    8.00
  -2   8  -4  120.01    6.22
   2   8   4  131.03    6.27
   2   8   4  121.96    6.97
  -2   8  -4  112.34   14.12
  -2   8  -4  133.18    6.84
   2  -8   4  112.95    6.07
   2   8   5  149.99    7.02
   2   8   5  141.55   10.61
   2  -8   5  149.32    7.29
   2  -8   5  141.73    9.30
  -2  -8  -5  152.96   12.72
  -2  -8  -5  134.53    9.91
  -2   8  -5  157.25    9.54
  -2   8  -5  127.76    9.98
  -2   8  -5  114.14    9.22
  -2   8  -5  144.89    7.12
   2   8   5  149.08    6.85
   2   8   5  135.07    8.02
  -2   8  -5  129.41   14.94
  -2   8  -5  143.55    7.44
   2  -8   5  139.63    6.98
   2   8   6  608.14   21.78
   2   8   6  550.19   25.86
  -2   8  -6  416.30   23.95
  -2   8  -6  612.90   24.51
  -2   8  -6  551.36   25.29
   2  -8   6  566.14   21.73
  -2  -8  -6  524.14   28.98
   2  -8   6  575.14   24.52
  -2  -8  -6  619.17   26.22
   2  -8   6  585.94   21.73
   2   8   6  654.27   23.05
  -2   8  -6  493.92   29.13
  -2   8  -6  605.85   21.99
  -2   8  -6  613.09   21.96
   2   8   6  545.55   21.30
   2   8   7 1058.50   40.06
  -2   8  -7 1184.88   40.51
   2  -8   7 1098.25   40.20
  -2  -8  -7 1116.06   40.51
   2   8   7 1259.46   41.44
  -2   8  -7  948.70   47.18
  -2   8  -7 1122.27   40.21
   2  -8   7 1150.94   40.33
   2   8   8   64.66    4.12
  -2   8  -8   81.19    4.68
   2  -8   8   68.47    4.48
  -2  -8  -8   63.40    4.73
   2   8   8   78.65    5.66
  -2   8  -8   63.95   12.36
   2  -8   8   73.95    4.85
   2  -8   8   72.05    4.46
   2   8   9   21.83    2.28
  -2   8  -9   26.79    2.81
   2  -8   9   24.68    2.70
  -2  -8  -9   20.02    2.89
  -2  -8  -9   23.78    5.82
   2  -8   9   29.36    3.21
   2  -8   9   27.05    2.73
  -2  -8 -10    5.38    1.68
  -2  -8 -10    4.43    1.94
   2  -8  10    7.84    1.67
   2  -8  10    8.27    1.97
  -2   8 -10    4.87    7.61
  -2  -8 -10    5.86    4.18
  -2   8 -10    5.15    1.82
   2  -9 -11   28.42    2.41
   2  -9 -11   27.28    2.29
  -2   9  11   24.78    2.42
   2   9 -11   19.58    7.07
   2  -9 -11   35.20    4.25
  -2  -9  11   30.92    2.61
   2  -9 -11   33.99    2.80
   2  -9 -10    0.86    2.82
  -2   9  10   -1.09    2.66
  -2   9  10    1.71    2.32
   2  -9 -10    1.26    2.14
   2  -9 -10    2.26    2.02
  -2  -9  10    1.27    2.34
   2   9 -10   -2.11   11.06
   2   9 -10    4.59    8.86
  -2   9   9  114.44    6.31
  -2   9   9  109.49    5.85
   2  -9  -9  113.56    5.97
   2  -9  -9  111.82    5.77
   2  -9  -9  116.29    6.91
   2   9  -9  108.89    5.96
  -2   9   9   99.74    5.04
  -2   9   8 1226.76   44.45
  -2   9   8 1269.08   44.90
   2  -9  -8 1324.37   45.86
   2  -9  -8 1263.91   44.42
   2  -9  -8 1268.09   44.59
   2   9  -8 1232.04   44.76
  -2   9   8 1250.19   44.14
   2  -9  -7  299.47   12.34
   2  -9  -7  297.55   12.21
  -2   9   7  274.11   12.26
  -2   9   7  317.59   13.01
  -2   9   7  318.30   14.63
  -2  -9   7  306.19   11.87
   2   9  -7  301.40   12.62
  -2  -9   7  281.87   13.93
   2   9  -6   97.92    6.45
   2  -9  -6   85.84   10.53
  -2  -9   6   93.97    6.61
  -2   9   6   89.44    5.54
  -2   9   6  101.16    7.04
  -2   9   6   97.26    6.29
   2  -9  -6   97.76    5.41
   2  -9  -6   90.72    5.25
   2   9  -6   84.16   17.45
   2   9  -6  104.05    6.39
   2   9  -5    7.26    2.48
  -2   9   5    9.05    2.92
  -2  -9   5    9.91    3.10
  -2   9   5   15.53    3.46
   2  -9  -5    7.78    2.35
   2  -9  -5    3.76    6.06
   2  -9  -5    9.84    2.38
   2   9  -5    9.76    2.73
   2  -9  -5    5.79    4.65
   2   9  -5    5.17   10.08
   2   9  -4   57.77    4.48
  -2   9   4   52.84    4.16
  -2   9   4   57.67    4.73
   2  -9  -4   50.96    7.43
  -2  -9   4   63.71    4.77
   2   9  -4   54.08    3.71
  -2   9   4   49.34    4.73
   2  -9  -4   53.39    3.57
   2  -9  -4   55.10    3.66
   2   9  -4   64.03    4.33
   2   9  -4   50.32   10.42
   2  -9  -4   50.61    5.10
   2   9  -3   25.81    3.07
  -2   9   3   21.24    3.10
  -2   9   3   25.77    3.91
  -2  -9   3   25.56    3.06
   2  -9  -3   29.06    2.67
  -2   9   3   26.43    3.98
   2  -9  -3   29.54    2.56
   2  -9  -3   29.83    5.98
   2   9  -3   21.43    8.61
   2  -9  -3   26.36    3.29
  -2   9   3   26.98    3.08
   2   9  -3   25.27    3.00
   2   9  -3   38.87    4.69
   2   9  -3   26.21    3.04
   2   9  -3   27.39    6.27
  -2   9   2   -1.92    4.47
   2   9  -2    0.63    1.68
  -2   9   2   -0.96    3.31
   2   9  -2    1.00    2.35
   2   9  -2    0.22    4.23
  -2   9   2    0.40    2.22
   2  -9  -2    0.21    1.77
  -2   9   2   -0.19    3.09
   2  -9  -2   -0.30    3.99
   2   9  -2    1.62    2.18
   2   9  -2   -0.64    3.67
  -2   9   2   -0.96    2.42
   2   9  -2    4.49    7.26
   2  -9  -2   -0.37    2.27
  -2   9   1  166.36   12.84
   2   9  -1  235.32   10.53
  -2   9   1  204.67   10.40
   2  -9  -1  219.20   12.87
   2   9  -1  214.36   10.23
  -2   9   1  226.12   10.01
   2  -9  -1  231.26    9.46
  -2  -9   1  245.69   13.11
   2   9  -1  312.46   11.64
  -2   9   1  236.09   10.47
   2  -9  -1  250.83    9.81
   2   9  -1  285.03   15.10
   2   9  -1  290.54   12.47
   2   9   0 1044.19   42.95
  -2   9   0  913.81   43.54
  -2   9   0 1018.26   40.58
   2   9   0 1193.11   40.65
   2  -9   0 1080.46   41.13
   2  -9   0 1148.21   43.55
   2   9   0 1021.93   40.49
  -2   9   0 1121.67   40.23
   2  -9   0 1114.22   39.62
  -2  -9   0 1131.72   43.99
   2   9   0 1412.52   41.63
  -2   9   0 1061.19   40.90
   2   9   0 1251.94   44.71
   2  -9   0 1154.17   39.91
   2   9   0 1349.50   42.33
   2   9   1    5.37    4.54
  -2   9  -1    3.75    4.29
   2   9   1    4.50    3.12
  -2   9  -1    5.19    3.50
   2  -9   1    3.79    2.88
   2   9   1    5.36    2.81
  -2   9  -1    3.18    2.28
  -2   9  -1    1.14    3.35
   2  -9   1    4.10    3.57
   2  -9   1    3.19    1.77
  -2  -9  -1    5.32    5.03
  -2   9  -1    5.10    3.30
   2   9   1    7.02    3.49
   2  -9   1    9.28    2.11
   2   9   1    7.70    6.29
   2   9   2  572.51   20.30
   2   9   2  504.51   23.02
  -2   9  -2  512.27   20.84
   2   9   2  550.49   20.55
   2  -9   2  536.86   22.34
  -2  -9  -2  549.01   25.22
   2   9   2  607.69   20.96
  -2   9  -2  483.22   20.14
   2  -9   2  486.36   19.56
   2  -9   2  568.44   23.09
  -2   9  -2  362.11   25.98
  -2   9  -2  679.14   22.24
   2  -9   2  511.25   19.91
   2   9   2  601.64   25.07
   2   9   2  601.75   21.84
   2  -9   3  215.70    9.31
   2   9   3  207.13    9.41
   2  -9   3  186.04   11.14
  -2  -9  -3  232.86   14.72
  -2   9  -3  179.90    9.09
   2   9   3  232.59    9.74
   2   9   3  237.88   14.11
  -2   9  -3  160.06   17.00
  -2   9  -3  264.63   11.02
   2  -9   3  195.81    8.92
   2   9   4  350.49   13.42
  -2   9  -4  314.63   16.07
  -2   9  -4  251.31   16.01
   2  -9   4  341.75   13.34
   2  -9   4  320.16   15.92
  -2  -9  -4  361.00   16.92
  -2  -9  -4  375.60   20.08
   2   9   4  352.11   13.49
  -2   9  -4  300.81   13.18
  -2   9  -4  254.01   20.68
  -2   9  -4  348.99   13.87
   2  -9   4  305.75   12.97
   2   9   5    0.32    2.58
  -2   9  -5    2.97    3.34
  -2   9  -5   -1.32    3.93
   2  -9   5   -0.81    2.95
   2  -9   5    3.89    3.75
  -2  -9  -5    5.25    4.36
  -2  -9  -5   -0.39    2.40
  -2  -9  -5    6.35    6.60
   2  -9   5   -0.10    2.45
  -2   9  -5   -1.04    2.67
  -2   9  -5    3.09   11.28
   2   9   5    1.03    2.25
  -2   9  -5    0.78    2.53
   2   9   6   79.98    4.92
  -2   9  -6   77.49    5.01
   2   9   6   74.51    4.46
   2  -9   6   83.24    5.03
  -2  -9  -6   72.39    4.86
  -2   9  -6   72.11   14.04
  -2   9  -6   82.18    5.11
   2  -9   6   76.75    4.75
   2   9   7   39.95    3.42
  -2   9  -7   38.29    3.59
   2  -9   7   44.19    3.65
  -2  -9  -7   36.37    3.61
  -2   9  -7   38.66    3.29
  -2   9  -7   36.69   12.03
   2  -9   7   42.58    3.46
   2   9   8   99.73    5.10
  -2   9  -8  106.09    5.35
   2  -9   8  102.18    5.25
  -2  -9  -8   92.49    5.06
  -2  -9  -8   95.39    5.32
  -2   9  -8   88.20   12.97
   2  -9   8  112.51    5.56
   2  -9   8  111.70    5.23
   2   9   9  124.61    5.26
  -2   9  -9  124.51    5.65
   2  -9   9  118.54    5.35
  -2  -9  -9  117.10    5.42
  -2  -9  -9  121.80    5.63
  -2  -9  -9  135.53    8.26
   2  -9   9  141.24    5.82
   2  -9   9  137.86    5.55
   2 -10 -10  396.93   14.45
  -2  10  10  366.84   14.23
   2 -10 -10  383.82   14.01
   2 -10 -10  368.83   14.02
  -2 -10  10  401.37   14.22
  -2  10   9   41.44    2.75
   2 -10  -9   45.06    4.13
   2 -10  -9   48.53    3.27
   2 -10  -9   47.95    3.31
  -2  10   9   38.78    3.34
  -2  10   9   48.95    3.99
   2  10  -9   50.56    3.78
   2  10  -9   36.93    8.77
   2 -10  -8    0.41    3.34
  -2  10   8   -1.41    1.93
  -2  10   8    1.48    2.50
  -2  10   8    1.30    3.21
   2  10  -8   -1.93    2.56
   2  10  -8    4.15    9.09
   2 -10  -8   -2.10    2.21
   2 -10  -8   -1.39    2.15
  -2  10   7  293.90   12.28
  -2 -10   7  282.68   11.14
  -2  10   7  275.11   11.52
   2 -10  -7  272.23   11.29
   2 -10  -7  273.52   11.33
   2  10  -7  295.86   12.10
   2 -10  -6  227.09   16.07
  -2 -10   6  259.40   12.11
  -2  10   6  205.67   10.56
   2 -10  -6  253.88   10.13
   2 -10  -6  250.35   10.20
  -2  10   6  263.98   11.24
  -2  10   6  249.25   10.50
   2  10  -6  218.62   17.04
   2  10  -5  115.91    7.08
  -2  10   5  116.29    6.31
  -2 -10   5  128.79    7.49
   2 -10  -5  117.14   10.79
   2 -10  -5  116.71    5.76
   2 -10  -5  118.64    5.89
   2  10  -5  125.52    6.72
   2  10  -5  129.45   12.89
   2  10  -4   92.78    5.94
  -2  10   4   90.04    5.34
   2 -10  -4   81.91    8.94
   2 -10  -4   89.21    4.62
   2 -10  -4   93.93    4.86
   2  10  -4  106.39   11.39
   2  10  -4   85.48    8.60
   2 -10  -4   90.78    6.71
   2  10  -4   93.55    5.66
   2  10  -4   96.01    5.10
  -2  10   3   32.21    6.27
  -2  10   3   50.36    3.95
  -2  10   3   44.03    4.78
   2  10  -3   45.32    3.91
   2  10  -3   41.43    6.23
   2 -10  -3   46.48    3.26
   2 -10  -3   35.98    6.63
   2  10  -3   63.17    5.87
   2  10  -3   43.39    4.00
  -2  10   3   42.53    3.82
   2 -10  -3   48.68    4.55
   2  10  -3   53.31    9.44
   2  10  -2  105.61    5.08
  -2  10   2   76.08    8.25
  -2  10   2  105.00    6.65
  -2  10   2  106.27    5.70
   2 -10  -2  112.60    9.19
   2  10  -2  107.52    6.11
  -2  10   2  102.33    5.68
  -2 -10   2  108.50    8.69
   2 -10  -2  101.59    5.11
   2  10  -2  112.01    6.01
   2  10  -2  135.48    8.57
   2 -10  -2  106.25    5.82
  -2  10   2   99.91    5.82
   2  10  -2  114.87   10.60
   2  10  -1  433.14   16.41
  -2  10   1  352.43   20.22
  -2  10   1  411.79   17.52
   2 -10  -1  440.25   20.72
  -2  10   1  435.13   16.82
   2  10  -1  423.90   17.40
   2 -10  -1  409.14   16.12
  -2 -10   1  403.08   20.32
   2  10  -1  425.82   16.95
   2 -10  -1  448.93   16.69
  -2  10   1  408.09   17.05
   2  10  -1  515.27   19.31
   2  10  -1  476.97   21.29
   2  10   0   51.97    3.74
  -2  10   0   38.06    6.34
   2  10   0   53.89    4.90
  -2  10   0   47.46    4.99
   2 -10   0   53.91    6.60
   2  10   0   48.44    4.62
  -2  10   0   65.73    4.18
  -2 -10   0   45.15    6.53
   2 -10   0   45.69    3.27
   2  10   0   62.73    5.47
   2  10   0   67.23    5.75
   2  10   0   54.77    7.79
   2 -10   0   62.69    3.82
  -2  10   0   54.77    4.56
   2  10   1   34.22    3.26
  -2  10  -1   26.23    5.21
  -2  10  -1   33.21    4.71
   2  10   1   30.25    4.23
   2  10   1   36.00    4.04
  -2  10  -1   32.81    3.38
  -2 -10  -1   37.32    6.40
   2 -10   1   29.27    2.69
   2 -10   1   37.69    5.62
   2  10   1   38.63    4.60
  -2  10  -1   33.80    4.78
   2  10   1   42.53    4.94
  -2  10  -1   35.35    4.37
   2  10   1   42.74    7.46
   2 -10   1   48.95    3.34
   2  10   2  424.97   15.96
   2  10   2  396.35   16.21
   2 -10   2  410.12   17.79
  -2 -10  -2  407.44   20.84
   2 -10   2  397.32   18.71
  -2  10  -2  328.25   18.28
   2  10   2  422.13   16.44
  -2  10  -2  396.92   15.78
  -2  10  -2  521.67   18.32
   2 -10   2  398.23   15.39
   2  10   2  431.26   20.29
  -2  10  -2  317.22   16.78
   2 -10   3   74.51    4.81
   2  10   3   65.17    5.20
  -2 -10  -3   76.72    9.02
   2 -10   3   81.81    6.63
  -2  10  -3   66.81    6.85
   2  10   3   77.50    5.25
  -2  10  -3   70.59    4.82
  -2  10  -3   84.24    5.91
   2  10   3   82.91    9.22
   2 -10   3   71.55    4.42
   2  10   4  352.61   14.01
  -2 -10  -4  392.78   17.66
  -2 -10  -4  365.46   20.22
   2 -10   4  337.46   16.39
   2 -10   4  349.76   13.69
  -2  10  -4  335.88   14.11
   2 -10   4  342.33   13.47
   2  10   4  332.70   13.91
  -2  10  -4  327.68   13.77
   2  10   5   18.33    3.15
  -2  10  -5   18.21    2.98
   2  10   5   16.51    2.80
   2 -10   5   19.36    3.19
  -2  10  -5   13.80    3.15
  -2  10  -5   25.34   12.41
   2 -10   5   20.29    2.77
   2  10   6  170.52    8.01
   2  10   6  182.46    7.74
  -2  10  -6  166.29    7.94
   2 -10   6  194.72    8.02
  -2 -10  -6  178.85    7.47
  -2  10  -6  157.62    7.97
   2 -10   6  178.88    7.73
   2  10   7  149.08    6.78
  -2  10  -7  147.73    6.76
   2 -10   7  153.10    6.64
  -2 -10  -7  147.65    6.47
  -2 -10  -7  145.58    6.30
  -2  10  -7  127.29    6.42
   2 -10   7  151.72    6.47
   2  10   8    5.38    1.80
  -2  10  -8    3.74    1.80
   2 -10   8    3.38    1.92
  -2 -10  -8    2.31    1.56
  -2 -10  -8    2.75    1.51
   2 -10   8    4.97    2.08
  -2  10  -8    0.32    8.50
   2 -10   8    3.47    1.60
  -2  11   9    1.82    1.13
   2 -11  -9   -0.57    1.87
   2  11  -9   -5.44    4.13
  -2  11   9    3.45    2.31
   2 -11  -9    0.65    1.35
   2 -11  -9    0.30    1.44
  -2 -11   9    1.32    2.03
   2  11  -9    3.77    4.88
  -2  11   8   73.07    3.87
  -2  11   8   76.10    4.82
  -2  11   8   69.01    4.01
   2 -11  -8   67.01    3.75
   2 -11  -8   75.14    3.91
   2 -11  -8   77.37    4.77
   2  11  -8   74.94    4.57
   2  11  -8   56.97    6.66
   2  11  -8   65.20    8.41
   2 -11  -7  230.65    9.56
   2 -11  -7  240.95    9.72
   2 -11  -7  264.95   10.95
  -2  11   7  261.55   10.80
  -2  11   7  236.63    9.89
  -2 -11   7  241.81    9.63
   2  11  -7  211.62   12.80
   2  11  -7  265.01   15.13
   2 -11  -6    1.53    1.78
   2 -11  -6    0.15    1.92
  -2  11   6    1.92    2.54
   2  11  -6    4.28    5.54
  -2  11   6    1.83    3.43
  -2 -11   6    2.05    2.55
  -2  11   6   -0.09    2.38
   2  11  -6    4.30    7.01
  -2  11   5  599.68   20.89
   2 -11  -5  509.39   20.10
   2 -11  -5  549.16   20.41
   2  11  -5  571.57   21.58
   2  11  -5  658.98   27.09
   2  11  -5  606.55   24.51
  -2  11   4   24.90    3.09
   2  11  -4   23.93    2.81
   2  11  -4   27.36    5.84
   2 -11  -4   27.07    6.64
   2 -11  -4   21.70    2.48
  -2 -11   4   22.16    5.05
   2  11  -4   20.14    3.35
   2 -11  -4   14.69    5.00
  -2  11   3 1555.66   56.40
  -2  11   3 1558.48   57.30
   2 -11  -3 1588.41   62.04
   2  11  -3 1586.21   56.73
   2 -11  -3 1497.21   55.91
   2  11  -3 2061.82   58.89
   2  11  -3 1630.05   57.21
   2  11  -3 1856.13   61.90
   2  11  -3 1930.69   60.09
   2 -11  -3 1464.26   57.24
   2  11  -2   13.83    2.15
  -2  11   2    6.40    4.43
  -2  11   2   13.99    2.77
  -2  11   2   14.30    4.12
   2  11  -2   10.57    3.00
   2  11  -2   13.84    4.66
  -2 -11   2   13.26    5.15
   2 -11  -2   13.04    5.53
   2 -11  -2    9.01    2.00
   2  11  -2   10.06    2.85
   2  11  -2   16.95    4.74
  -2  11   2    9.58    2.65
   2 -11  -2    4.91    2.89
   2  11  -2   15.63    6.93
   2  11  -1  129.17    6.28
  -2  11   1   89.16    8.93
  -2  11   1  127.96    6.49
  -2  11   1  123.10    7.57
   2 -11  -1  145.27   10.56
   2  11  -1  131.44    7.29
  -2  11   1  123.79    6.51
   2 -11  -1  123.42    5.83
  -2 -11   1  140.19   10.54
   2  11  -1  183.80    9.49
   2  11  -1  138.35    6.91
  -2  11   1  133.86    6.83
   2 -11  -1  132.40    6.51
   2  11  -1  152.80    8.64
   2  11  -1  151.55   10.73
   2  11   0   90.54    5.18
  -2  11   0   75.22    7.61
  -2  11   0   92.16    6.52
   2 -11   0   99.99    8.59
   2  11   0   90.88    6.03
  -2  11   0   87.26    5.20
  -2 -11   0   85.10    8.41
  -2  11   0  104.18    6.94
   2  11   0  113.22    7.40
   2  11   0   87.82    5.29
   2 -11   0   94.15    5.07
   2  11   0  113.85    7.12
  -2  11   0   88.86    5.67
   2  11   0   91.49    8.76
   2  11   1   73.43    4.64
  -2  11  -1   63.98    5.81
   2 -11   1   68.38    7.21
  -2 -11  -1   70.66    8.26
  -2  11  -1   56.85    6.75
  -2  11  -1   68.35    4.50
   2  11   1   69.55    5.26
   2  11   1   80.96    6.30
  -2  11  -1   86.87    6.44
   2 -11   1   64.82    4.09
  -2  11  -1   70.09    5.22
   2  11   1   72.59    8.41
   2  11   1   79.43    6.07
   2  11   2   89.90    5.37
  -2 -11  -2   89.36    9.20
   2  11   2   83.22    5.97
   2  11   2  105.81    9.44
   2  11   2   94.87    6.56
  -2  11  -2   86.67    6.05
   2 -11   2   92.90    4.83
  -2  11  -2   87.05    5.09
   2  11   2   78.61    5.71
   2  11   3    7.63    3.20
   2 -11   3    4.76    2.71
   2  11   3    5.85    3.59
  -2  11  -3   10.73    3.43
   2 -11   3    9.38    2.15
   2  11   3    9.65    2.99
  -2  11  -3    2.02    3.58
  -2  11  -3    5.82    2.42
   2  11   4   11.43    3.12
   2 -11   4   14.21    2.86
  -2  11  -4   13.91    3.25
   2  11   4   15.86    3.47
  -2  11  -4   19.62    3.15
   2 -11   4   14.19    2.29
   2  11   4   18.37    2.97
  -2  11  -4   20.04    2.68
  -2  11  -4   13.26    3.92
   2  11   5  737.28   27.60
   2 -11   5  819.65   27.27
  -2  11  -5  666.42   27.58
   2 -11   5  793.23   26.99
  -2  11  -5  625.84   28.44
  -2  11  -5  793.68   27.34
   2  11   5  756.25   27.43
   2  11   6   12.41    2.59
   2 -11   6   12.87    2.43
  -2  11  -6    6.49    2.14
   2 -11   6   12.51    1.92
   2  11   6   13.30    2.06
  -2  11  -6    9.22    3.55
  -2  11  -6   13.96    2.28
   2  11   7   68.53    3.74
  -2  11  -7   61.58    3.36
   2 -11   7   69.55    3.54
  -2  11  -7   50.74    3.19
   2 -11   7   64.35    3.13
  -2  11  -7   50.95    4.50
  -2  12   8   27.39    2.04
   2 -12  -8   25.90    1.94
  -2  12   8   24.06    2.84
   2  12  -8   30.47    2.69
   2  12  -8   33.97    3.99
   2  12  -8   27.31    4.32
  -2  12   7  174.05    7.94
   2  12  -7  193.09    9.28
  -2  12   7  179.14    7.34
  -2  12   6  280.28   11.46
   2 -12  -6  304.85   12.05
  -2  12   6  309.38   12.30
  -2  12   6  283.11   11.22
  -2 -12   6  302.36   11.41
   2 -12  -6  273.88   11.04
   2  12  -6  279.86   12.05
   2  12  -6  331.24   13.95
   2  12  -6  346.06   15.25
  -2  12   5   24.45    3.25
   2  12  -5   29.13    5.06
  -2  12   5   26.91    2.80
   2 -12  -5   27.45    2.34
   2  12  -5   25.93    3.27
   2  12  -5   29.67    6.52
   2  12  -4  619.20   22.71
  -2  12   4  629.53   22.66
   2 -12  -4  579.17   22.30
   2  12  -4  608.54   23.51
   2  12  -3    3.48    2.41
  -2  12   3    1.81    3.69
  -2  12   3    3.36    2.30
   2 -12  -3    4.59    1.72
   2  12  -3    3.22    2.56
   2  12  -3    2.99    3.44
   2  12  -3    3.85    4.18
   2  12  -3    2.91    5.81
   2 -12  -3    3.48    4.08
   2  12  -2  334.81   13.31
   2  12  -2  348.40   14.32
  -2  12   2  341.97   13.63
  -2  12   2  347.48   14.91
   2 -12  -2  337.06   13.18
  -2  12   2  379.32   15.41
   2  12  -2  440.14   16.07
   2  12  -2  350.92   14.40
   2 -12  -2  337.44   14.74
   2  12  -2  412.96   16.15
  -2  12   2  358.09   14.10
   2  12  -2  403.24   17.94
   2  12  -1  479.75   19.03
  -2  12   1  478.29   20.16
  -2  12   1  505.03   19.09
  -2  12   1  589.73   21.09
   2  12  -1  639.44   21.99
   2  12  -1  467.22   19.57
   2  12  -1  590.80   21.34
  -2  12   1  533.25   19.70
   2  12  -1  544.74   23.16
   2 -12  -1  518.01   19.77
   2  12  -1  479.23   19.88
   2  12   0    9.56    2.53
  -2  12   0   16.76    3.22
  -2  12   0   19.55    5.28
   2  12   0    9.37    2.18
  -2  12   0   22.38    5.06
  -2  12   0   16.47    3.31
   2 -12   0   11.85    3.00
   2  12   0   11.29    6.01
   2  12   0    8.29    3.29
   2  12   1   19.08    2.97
  -2  12  -1   22.14    2.67
   2 -12   1   21.57    3.02
   2  12   1   29.83    5.23
   2  12   1   17.91    6.08
  -2  12  -1   21.50    3.17
   2 -12   1   22.21    2.56
  -2  12  -1   19.76    2.63
   2 -12   2  189.08    7.85
  -2  12  -2  186.05    8.83
   2  12   2  213.88   10.14
  -2  12  -2  216.06    9.48
   2  12   2  161.97    8.36
   2  12   2  171.20    8.78
  -2  12  -2  183.47    8.00
   2  12   3   51.44    4.17
   2 -12   3   58.82    3.85
   2  12   3   62.25    5.33
  -2  12  -3   57.08    4.28
  -2  12  -3   51.17    4.44
   2 -12   3   59.89    3.46
  -2  12  -3   54.16    4.53
  -2  12  -3   55.99    3.60
   2  12   3   51.74    4.24
   2 -12   4  367.12   13.79
  -2  12  -4  332.45   14.41
  -2  12  -4  385.14   14.87
   2 -12   4  372.68   13.47
  -2  12  -4  348.57   13.63
   2  12   4  366.71   14.26
   2  12   5  126.09    6.28
   2 -12   5  142.75    5.94
  -2  12  -5  137.97    6.77
   2 -12   5  128.51    5.44
   2  12   5  141.12    6.11
   2  12   6  614.06   21.59
   2  12   6  603.52   21.11
   2 -12   6  619.08   21.22
  -2  12  -6  633.86   21.92
  -2  13   6   10.86    1.86
  -2  13   6    9.00    1.49
  -2 -13   6   10.93    1.77
  -2  13   6    8.89    2.74
   2 -13  -6    9.35    1.32
   2  13  -6    9.08    2.20
   2  13  -6   11.10    3.06
   2  13  -6   11.91    3.73
  -2  13   5   34.07    2.86
  -2  13   5   37.71    3.80
  -2 -13   5   42.79    2.98
   2 -13  -5   33.94    2.16
   2  13  -5   33.39    3.12
   2  13  -5   40.98    4.26
   2  13  -5   42.95    5.25
   2  13  -4    1.25    2.12
  -2  13   4    1.94    2.99
   2  13  -4    1.22    2.80
   2  13  -4    3.54    3.14
   2  13  -4   -1.47    4.35
  -2  13   4   -0.59    2.49
  -2  13   3   81.79    5.55
   2  13  -3   72.92    4.78
  -2  13   3   93.56    5.86
   2  13  -3   90.85    5.62
   2  13  -3  100.80    6.06
   2  13  -3   98.51    7.44
  -2  13   3   76.80    5.37
   2  13  -3   78.08    4.43
  -2  13   2   99.82    6.01
  -2  13   2  115.20    6.47
   2  13  -2   90.68    5.85
   2  13  -2   80.37    5.02
   2  13  -2  107.20    7.94
   2  13  -2   87.12    5.03
   2  13  -1   63.31    3.82
   2 -13  -1   76.19    4.21
  -2  13   1   92.35    6.02
   2  13  -1   74.42    5.46
   2  13  -1   88.92    7.35
  -2  13   1   68.60    4.24
   2  13  -1   68.74    4.73
   2  13   0  611.80   25.12
   2 -13   0  715.86   25.24
   2  13   0  837.99   28.89
   2  13   0  805.90   26.94
  -2  13   0  735.45   25.63
   2  13   0  653.65   25.84
   2  13   1    3.90    2.23
   2 -13   1    6.33    2.21
   2  13   1    4.95    3.65
  -2  13  -1    4.66    3.00
  -2  13  -1    5.92    2.23
  -2  13  -2  545.16   19.67
  -2  13  -2  551.68   19.83
  -2  13  -2  462.28   19.86
   2  13   2  489.44   19.49
   2  13   2  507.88   19.84
  -2  13  -3  121.83    5.78
  -2  13  -3  127.40    5.77
  -2  13  -3  102.86    5.90
   2  13   3  120.23    5.84
   2  13   3  120.52    5.92
   2 -13   4  549.41   19.50
  -2  13  -4  493.97   19.85
  -2  13  -4  563.10   19.90
   2  13   4  560.86   19.85
  -2 -14   4   68.83    3.42
   2  14  -4   67.33    4.59
  -2  14   4   72.94    4.34
   2  14  -4   70.51    4.22
  -2  14   4   59.47    3.46
   2  14  -3   36.90    2.89
  -2  14   3   51.98    4.01
   2  14  -3   48.79    4.54
   2  14  -3   44.82    3.67
  -2  14   3   43.48    3.21
   2  14  -2  253.31   10.91
   2 -14  -2  260.64    9.98
   2  14  -2  248.58   10.23
  -2  14   2  240.24   10.77
   2  14  -1  241.60    9.93
   2 -14  -1  234.48    9.03
   2  14  -1  228.94    9.40
  -2  14   0    9.78    2.25
  -2  14   0   10.46    2.62
   2  14   0    7.79    2.60
   2 -14   0    6.43    1.80
   2  14   0    8.19    2.11
  -2  14   0    7.41    2.46
   2  14   1  464.24   17.52
   2 -14   1  497.27   17.46
   2  14   1  521.78   18.22
  -2  14  -1  548.17   18.08
  -2  14  -1  494.97   17.63
  -2  14  -2   64.24    3.32
  -2  14  -2   57.08    3.70
  -2  14  -2   68.29    3.59
   2  14   2   68.51    3.54
  -2  14  -2   51.48    3.44
   2  14   2   75.84    3.85
  -3   0  14   -1.10    1.85
   3   0 -14    1.86    1.98
  -3   0  14    0.97    1.79
   3   0 -13  507.77   20.10
  -3   0  13  527.69   19.74
   3   0 -13  538.46   23.21
  -3   0  13  565.51   20.06
  -3   0  13  547.90   20.36
   3   0 -12   -0.81    2.81
  -3   0  12   -0.08    2.34
   3   0 -12   -7.90    6.58
  -3   0  12   -0.39    2.40
  -3   0  11 1223.81   41.16
   3   0 -11 1152.22   41.47
   3   0 -11 1127.22   40.64
  -3   0  11 1090.43   42.53
   3   0 -11 1201.08   44.53
  -3   0  11 1134.50   40.70
   3   0 -11 1113.85   43.17
   3   0 -10   -1.55    2.72
  -3   0  10    3.47    2.77
  -3   0  10    0.56    2.91
   3   0 -10   -0.74    2.21
  -3   0  10    2.24    2.20
   3   0 -10   -3.29    5.71
   3   0 -10    1.06    2.67
  -3   0   9  479.14   19.59
  -3   0   9  484.44   17.72
  -3   0   9  417.15   19.04
   3   0  -9  466.03   18.34
   3   0  -9  474.22   17.94
   3   0  -9  516.54   20.51
  -3   0   9  481.26   17.58
   3   0  -9  483.58   19.90
   3   0  -8    3.13    2.46
  -3   0   8    3.66    3.04
  -3   0   8    0.86    2.37
   3   0  -8   -1.56    3.77
  -3   0   8   -1.47    1.84
   3   0  -8    1.02    2.08
  -3   0   8   -0.76    1.81
   3   0  -8    3.76   11.93
   3   0  -8   -0.48    2.24
   3   0  -7  168.87    8.35
   3   0  -7  171.98    9.64
  -3   0   7  165.29    8.78
   3   0  -6    0.35    2.10
   3   0  -6    1.66    3.48
  -3   0   6    0.98    3.13
   3   0  -5    9.70    2.43
   3   0  -5    4.82    2.65
  -3   0   5    8.48    3.49
   3   0  -4    0.65    2.26
   3   0  -4   -0.83    2.66
  -3   0   4    2.51    3.48
  -3   0   3 1177.92   42.92
  -3   0   3 1233.26   43.83
   3   0  -3 1221.59   43.41
   3   0  -3 1302.23   44.74
   3   0  -3 1260.35   43.65
  -3   0   2    0.31    2.12
  -3   0   2    0.31    0.67
   3   0  -2    1.68    2.18
   3   0  -2    0.95    2.40
   3   0  -2   -0.11    4.17
  -3   0   1   55.78    3.81
  -3   0   1   55.32    2.64
   3   0  -1   50.40    3.38
   3   0  -1   56.36    3.86
   3   0  -1   57.46    4.94
  -3   0   0    3.40    2.66
  -3   0   0    1.28    2.29
   3   0   0    2.85    3.80
  -3   0  -1 2181.26   75.33
   3   0   1 2363.82   76.71
  -3   0  -1 2145.94   75.12
  -3   0  -1 2216.40   75.99
  -3   0  -1 2299.11   75.80
  -3   0  -2    0.29    2.49
  -3   0  -2    0.33    1.20
   3   0   2   -0.12    2.96
  -3   0  -2   -0.73    2.75
  -3   0  -3   27.16    1.94
  -3   0  -3   25.04    3.32
  -3   0  -3   22.41    2.95
  -3   0  -3   28.03    3.74
   3   0   3   21.34    3.59
  -3   0  -4   -0.41    2.67
  -3   0  -4    0.74    1.95
   3   0   4   -2.32    3.31
  -3   0  -4   -2.92    3.27
   3   0   4   -1.34    2.19
   3   0   5  218.53    8.92
   3   0   5  228.94    9.42
  -3   0  -5  213.85   11.95
   3   0   5  226.60   11.44
  -3   0  -5  224.03   10.81
  -3   0  -5  223.37   10.29
  -3   0  -5  226.86    9.18
   3   0   5  238.22    9.57
   3   0   5  216.44    9.01
   3   0   6    2.01    1.81
  -3   0  -6    1.30    2.84
  -3   0  -6    1.80    2.17
   3   0   6    2.79    3.25
  -3   0  -6    0.30    4.29
   3   0   6    0.17    2.37
  -3   0  -6    3.65    1.93
   3   0   6    4.15    2.87
  -3   0  -6    2.60    4.26
   3   0   6    1.50    1.84
  -3   0  -7   16.95    3.02
  -3   0  -7   26.22    4.16
  -3   0  -7   24.52    6.26
   3   0   7   21.16    3.02
  -3   0  -7   25.52    2.80
   3   0   7   21.09    3.63
  -3   0  -7   24.44    5.86
   3   0   7   24.39    2.72
  -3   0  -8    5.17    3.48
  -3   0  -8    3.22    4.46
   3   0   8   -0.27    2.50
  -3   0  -8   -1.27    2.24
  -3   0  -8   -2.12    6.02
  -3   0  -8   -0.24    5.95
   3   0   8    0.39    3.48
   3   0   8    0.73    2.19
   3   0   9  560.11   21.41
  -3   0  -9  633.96   25.55
   3   0   9  612.62   22.72
   3   0   9  582.95   21.68
  -3   0  -9  581.04   21.76
   3   0  10    1.10    1.94
   3   0  10    2.97    3.51
  -3   0 -10   -4.67    6.43
   3   0  10    1.21    2.15
  -3   0 -10   -0.16    2.07
   3   0  11   88.70    5.31
   3   0  11   93.31    4.56
  -3   0 -11   96.45    4.60
   3   0  11   88.04    4.26
  -3  -1  14  176.71    7.32
  -3   1  14  171.60    7.31
  -3   1  14  187.84    7.61
  -3  -1  14  193.56    7.46
   3   1 -14  175.83    7.48
   3  -1 -14  183.95    7.72
  -3   1  13   68.36    4.83
  -3  -1  13   79.28    5.06
   3  -1 -13   66.41    4.66
   3   1 -13   73.31    4.43
  -3   1  13   68.49    4.26
   3   1 -13   54.95    8.56
   3  -1 -13   53.75    7.29
  -3  -1  13   72.28    4.17
  -3   1  13   72.31    4.43
  -3  -1  13   79.85    4.38
  -3   1  12   20.25    3.84
   3  -1 -12   16.38    3.36
   3   1 -12   23.38    3.20
   3  -1 -12   20.77    2.51
  -3  -1  12   21.50    2.81
  -3   1  12   21.17    3.00
   3  -1 -12   28.23    6.58
   3   1 -12   18.11    7.29
  -3  -1  12   18.39    2.87
  -3   1  12   17.23    3.02
   3   1 -11   14.60    3.51
   3  -1 -11   15.84    3.32
  -3  -1  11   12.55    2.64
  -3   1  11   10.24    3.63
   3   1 -11   11.03    2.88
  -3   1  11   10.82    3.23
   3  -1 -11    9.95    2.59
  -3  -1  11   16.10    2.65
   3  -1 -11   12.68    6.00
  -3   1  11   14.92    2.82
   3   1 -11   14.30    7.02
   3  -1 -11    9.84    3.29
   3   1 -10  142.61    8.81
   3  -1 -10  161.09    8.77
  -3   1  10  156.88    7.12
  -3   1  10  123.16    8.46
  -3  -1  10  140.38    8.41
   3   1 -10  157.04    7.39
   3  -1 -10  143.06    7.77
   3  -1 -10  141.45    7.05
  -3   1  10  144.19    8.32
   3  -1 -10  141.74    9.93
  -3  -1  10  146.76    6.71
  -3   1  10  152.31    6.94
   3   1 -10  160.08   10.86
  -3  -1  10  156.85    7.05
  -3  -1   9  553.02   21.39
  -3   1   9  567.85   20.08
  -3   1   9  494.50   22.07
  -3   1   9  489.36   20.98
   3   1  -9  470.28   23.62
  -3  -1   9  528.52   21.65
   3   1  -9  546.38   20.37
   3  -1  -9  540.52   20.88
   3  -1  -9  495.88   20.09
  -3   1   9  562.78   21.74
   3   1  -9  640.49   23.54
   3  -1  -9  631.81   22.90
  -3  -1   9  533.60   19.71
  -3   1   9  538.41   19.87
   3   1  -9  547.33   22.23
   3  -1  -9  562.87   21.99
   3   1  -8   42.56    4.15
   3  -1  -8   39.71    4.02
  -3  -1   8   35.18    2.67
  -3   1   8   41.13    3.02
  -3  -1   8   37.24    3.93
  -3   1   8   32.84    4.54
   3   1  -8   34.32    5.98
  -3  -1   8   32.61    3.80
  -3   1   8   32.27    3.53
   3   1  -8   40.51    3.30
   3  -1  -8   41.17    3.76
   3  -1  -8   36.05    3.22
  -3  -1   8   38.23    2.73
  -3   1   8   37.93    2.84
   3  -1  -8   40.32   13.65
   3   1  -7    4.10    2.44
   3  -1  -7    4.45    2.24
  -3   1   7    3.10    3.44
   3   1  -7    2.25    4.54
   3  -1  -7    7.07    3.15
  -3  -1   7    3.29    2.79
   3   1  -6  911.56   32.25
   3  -1  -6  924.85   31.99
  -3  -1   6  858.73   32.17
   3  -1  -6  828.11   31.70
  -3   1   6  842.75   32.76
   3   1  -5    5.56    2.43
   3  -1  -5    6.17    2.26
   3   1  -5    8.15    2.78
   3  -1  -5    6.24    2.86
   3  -1  -5   12.64    9.50
  -3  -1   5    3.82    3.32
  -3   1   5    3.13    3.62
   3  -1  -5    2.82    1.82
  -3   1   4  275.67   11.39
   3  -1  -4  243.48   16.99
  -3   1   4  312.61   12.85
  -3  -1   4  284.86   12.57
   3   1  -4  291.93   11.86
   3  -1  -4  280.56   11.53
   3   1  -4  311.45   12.04
   3  -1  -4  283.58   12.07
  -3   1   3  119.70    5.94
  -3   1   3  122.21    6.95
   3   1  -3  136.83    8.61
   3   1  -3  128.13    6.32
   3  -1  -3  131.47    6.01
   3   1  -3  122.40    6.17
  -3   1   2  393.52   15.58
  -3  -1   2  409.82   15.10
   3  -1  -2  425.43   15.64
   3   1  -2  407.89   15.34
   3   1  -2  422.46   17.16
   3  -1  -2  421.83   16.12
  -3   1   1 1136.95   40.51
  -3  -1   1 1157.54   40.03
  -3   1   1 1141.28   39.61
   3   1  -1 1110.22   39.95
   3   1  -1 1221.57   41.64
   3  -1  -1 1153.43   40.54
  -3  -1   0    1.75    1.91
  -3   1   0    2.10    2.76
  -3  -1   0    2.08    1.59
  -3   1   0    0.98    1.91
   3  -1   0    1.28    2.74
   3   1   0    3.96    3.83
  -3   1  -1    5.27    2.28
  -3  -1  -1    3.61    1.22
  -3  -1  -1    7.74    1.29
   3  -1   1    4.44    3.14
   3   1   1    6.73    3.97
   3  -1   1    0.78    2.88
  -3  -1  -1    3.86    2.15
  -3   1  -1    2.80    2.42
  -3   1  -1    3.99    2.49
  -3  -1  -1    3.79    2.32
  -3   1  -1    3.38    2.37
  -3  -1  -1    2.71    0.42
   3   1   2  108.65    7.02
  -3   1  -2   94.74    5.48
  -3  -1  -2   94.92    5.14
  -3  -1  -2   82.75    4.63
  -3   1  -2   90.37    4.61
  -3   1  -2   89.96    5.71
  -3  -1  -2   97.38    5.47
   3  -1   2   98.12    6.00
  -3   1  -3  542.14   20.45
  -3  -1  -3  518.07   20.00
  -3   1  -3  547.85   19.30
  -3  -1  -3  504.98   19.52
   3  -1   3  521.65   20.97
  -3   1  -3  528.83   20.88
  -3  -1  -3  527.93   20.52
   3   1   3  512.83   20.37
  -3   1  -4 1168.69   41.66
  -3   1  -4 1157.16   40.20
  -3   1  -4 1091.86   41.61
  -3  -1  -4 1105.65   40.56
  -3  -1  -4 1149.52   41.24
   3  -1   4 1166.60   42.34
  -3   1  -4 1112.17   42.49
  -3  -1  -4 1149.86   42.17
   3   1   4 1130.65   41.65
   3  -1   4 1168.75   40.19
   3   1   4 1123.74   39.99
   3   1   5   26.82    2.31
   3  -1   5   30.87    2.60
   3   1   5   31.99    2.95
   3  -1   5   26.52    3.07
   3  -1   5   29.94    4.63
  -3  -1  -5   24.51    4.67
  -3   1  -5   27.90    5.27
   3   1   5   24.70    3.72
  -3   1  -5   29.84    4.00
  -3  -1  -5   33.16    3.84
  -3   1  -5   31.23    3.69
  -3  -1  -5   26.73    2.86
  -3   1  -5   32.09    2.75
  -3  -1  -5   28.65    2.50
  -3   1  -5   38.02    5.14
  -3  -1  -5   37.13    4.53
   3  -1   5   31.87    3.26
   3   1   5   31.56    3.22
   3  -1   5   29.09    2.53
   3   1   5   31.77    2.43
   3   1   6  371.77   14.67
   3   1   6  390.29   15.03
   3  -1   6  404.26   15.32
   3  -1   6  420.35   18.15
  -3   1  -6  394.90   19.17
  -3  -1  -6  382.60   18.68
  -3   1  -6  390.82   17.06
  -3  -1  -6  369.58   16.58
  -3   1  -6  397.87   16.68
  -3  -1  -6  379.16   15.75
  -3   1  -6  381.00   15.07
  -3  -1  -6  373.69   14.87
  -3   1  -6  462.09   18.15
  -3  -1  -6  486.89   17.60
   3  -1   6  418.00   15.51
   3   1   6  430.88   15.72
   3   1   6  373.06   14.74
   3  -1   6  377.83   14.93
   3  -1   7  102.75    5.73
   3   1   7  102.19    5.49
  -3   1  -7   89.06    9.46
  -3  -1  -7  112.30    9.70
   3  -1   7   77.65    7.60
  -3   1  -7  106.15    7.42
  -3  -1  -7   98.26    6.79
  -3   1  -7   97.45    6.49
  -3   1  -7   99.33    5.36
  -3  -1  -7  105.12    5.37
  -3  -1  -7  109.62    8.18
   3  -1   7  108.50    6.08
   3   1   7  111.22    6.44
  -3   1  -7  114.07    9.01
   3  -1   7   96.34    5.35
   3   1   7   97.56    5.09
   3   1   8  282.52   17.02
  -3   1  -8  239.69   12.71
  -3  -1  -8  244.05   12.33
  -3   1  -8  167.05   13.91
  -3  -1  -8  166.44   13.01
  -3   1  -8  255.35   12.03
   3  -1   8  256.54   10.61
   3   1   8  259.25   10.43
  -3   1  -8  249.70   10.56
  -3  -1  -8  240.46   10.40
  -3   1  -8  225.82   15.71
  -3  -1  -8  264.19   15.82
  -3  -1  -8  295.57   14.02
   3  -1   8  283.96   11.52
  -3   1  -8  304.15   14.71
   3   1   8  282.75   11.76
   3  -1   8  254.22   10.56
   3   1   8  244.22   10.34
   3   1   9  185.42    8.26
   3  -1   9  191.13    8.44
   3   1   9  209.28    9.86
  -3  -1  -9  207.36   12.13
  -3   1  -9  214.12   12.98
   3  -1   9  197.19    9.48
   3  -1   9  188.89    8.55
   3   1   9  192.51    8.46
  -3  -1  -9  201.98    8.59
  -3   1  -9  192.73    8.58
   3  -1  10    6.24    2.05
   3  -1  10    6.20    3.41
   3   1  10    5.70    3.66
  -3   1 -10   15.59    7.05
  -3  -1 -10    3.52    6.15
   3  -1  10   10.10    2.41
   3   1  10    7.41    2.21
  -3  -1 -10    8.15    2.25
  -3   1 -10    6.27    2.25
   3  -1  11  375.80   14.90
   3   1  11  376.22   15.01
  -3   1 -11  348.62   18.05
  -3  -1 -11  342.39   17.35
   3  -1  11  403.86   14.55
   3   1  11  403.98   14.45
  -3   1 -11  413.34   14.57
  -3  -1 -11  398.12   14.45
   3  -1  11  368.25   14.02
  -3  -2  14    3.80    1.72
  -3   2  14    6.55    1.85
  -3  -2  14    8.46    1.67
  -3   2  14    5.63    1.88
   3   2 -14    4.66    1.67
   3  -2 -14    5.37    2.08
  -3   2  13    1.33    2.74
   3  -2 -13   -1.26    2.67
   3   2 -13    2.01    2.07
  -3  -2  13    3.28    2.10
  -3   2  13    1.35    2.25
   3  -2 -13   -4.32    5.16
  -3  -2  13    1.31    1.92
  -3   2  13   -1.51    2.32
  -3   2  12    7.96    3.40
   3   2 -12    9.39    2.64
   3  -2 -12    5.61    3.22
   3  -2 -12    5.98    1.82
   3  -2 -12   12.71    2.56
   3  -2 -12   12.87    5.84
  -3  -2  12    6.43    2.32
  -3   2  12    7.77    2.77
   3   2 -12    6.39    7.64
  -3  -2  12    6.95    2.33
  -3   2  12    8.21    2.93
   3  -2 -11  763.08   35.25
   3   2 -11  894.02   35.45
  -3   2  11  870.82   33.35
  -3   2  11  837.82   35.05
  -3  -2  11  860.03   34.92
   3  -2 -11  844.64   33.71
   3   2 -11  961.46   33.04
   3  -2 -11  905.30   32.92
  -3   2  11  842.78   34.25
  -3   2  11  946.70   32.88
   3  -2 -11 1081.49   36.37
   3   2 -11  963.85   37.73
  -3  -2  11  919.77   32.50
  -3  -2  11  982.07   32.79
   3  -2 -10    8.01    3.51
   3   2 -10    6.23    3.19
   3  -2 -10    9.12    2.94
  -3   2  10    7.48    2.73
  -3  -2  10   13.92    3.53
  -3   2  10    5.37    3.92
   3   2 -10    6.57    2.45
   3  -2 -10    8.57    2.76
  -3   2  10   10.49    3.09
   3  -2 -10    8.94    5.22
  -3  -2  10    6.05    2.22
  -3   2  10    7.25    2.63
   3   2 -10    5.34    6.92
  -3  -2  10    6.25    2.13
   3  -2  -9  332.46   14.89
   3   2  -9  350.48   15.58
  -3   2   9  328.48   15.72
  -3   2   9  347.05   13.53
  -3  -2   9  356.45   15.24
   3   2  -9  333.86   13.44
   3  -2  -9  325.35   14.40
   3  -2  -9  311.01   13.51
  -3   2   9  350.47   15.00
  -3  -2   9  336.09   13.03
  -3   2   9  344.60   13.38
  -3  -2   9  365.18   13.22
   3  -2  -8  980.74   51.66
   3   2  -8 1302.34   45.56
   3  -2  -8 1304.36   45.03
  -3  -2   8 1267.91   44.29
  -3   2   8 1247.14   43.44
  -3   2   8 1210.76   45.85
  -3   2   8 1016.38   43.90
  -3  -2   8 1315.32   45.16
   3   2  -8 1284.80   43.42
   3  -2  -8 1172.51   44.23
   3  -2  -8 1142.31   43.53
  -3   2   8 1266.65   44.97
  -3  -2   8 1201.11   42.94
   3   2  -8 1487.56   46.95
  -3   2   8 1251.80   43.26
  -3  -2   8 1286.86   43.13
  -3   2   7  288.00   10.80
  -3   2   7  274.25   12.01
   3  -2  -7  254.95   10.91
  -3   2   7  259.32   12.84
  -3  -2   7  297.00   11.81
   3   2  -7  279.27   12.44
   3  -2  -7  297.63   11.99
   3   2  -7  299.09   20.14
   3   2  -6  492.18   18.44
   3  -2  -6  471.33   17.87
  -3   2   6  476.50   18.07
  -3   2   6  498.04   19.25
   3  -2  -6  427.42   17.21
  -3  -2   6  471.07   17.93
   3  -2  -5    0.85    1.93
   3   2  -5    0.84    2.40
   3   2  -5    0.77    2.63
   3  -2  -5   -4.67    8.83
  -3  -2   5    3.43    3.22
  -3   2   5    2.54    3.58
   3  -2  -4 1520.59   64.34
  -3   2   4 1873.46   61.86
  -3  -2   4 1645.48   61.25
   3   2  -4 1761.06   60.76
   3  -2  -4 1761.76   60.53
  -3   2   3    7.86    2.75
   3  -2  -3    0.68    5.96
   3  -2  -3    8.59    2.65
   3   2  -3    5.37    2.13
   3  -2  -3    7.45    2.13
   3   2  -3    8.77    5.94
  -3   2   2  132.93    6.75
   3  -2  -2  141.66    8.97
  -3   2   2  129.96    7.18
   3  -2  -2  138.27    6.35
   3   2  -2  134.76    6.95
   3  -2  -2  128.95    6.77
   3   2  -2  143.91    5.77
   3   2  -2  139.69    8.92
   3  -2  -2  158.84    6.69
  -3   2   1 4565.16  154.85
  -3  -2   1 4680.12  153.92
  -3   2   1 4020.50  154.08
   3  -2  -1 5054.17  155.68
   3  -2  -1 4992.86  155.19
   3   2  -1 4649.93  155.01
   3  -2  -1 4063.46  154.66
   3  -2  -1 4422.73  154.17
   3   2  -1 4813.32  156.28
  -3   2   0   10.81    2.95
  -3  -2   0   12.71    1.61
   3  -2   0   10.44    2.82
  -3   2   0   15.20    2.86
   3  -2   0   12.02    2.46
  -3   2  -1  377.62   14.09
  -3   2  -1  367.70   14.45
  -3  -2  -1  372.09   13.82
  -3  -2  -1  347.14   12.69
  -3   2  -1  368.25   14.60
  -3  -2  -1  364.28   13.64
   3   2   1  395.77   15.82
  -3   2  -2  166.34    7.89
   3   2   2  189.34    9.99
   3  -2   2  166.28    8.57
  -3   2  -2  181.64    8.92
  -3  -2  -2  165.68    7.95
  -3  -2  -2  176.49    7.66
  -3  -2  -2  172.06    7.68
  -3  -2  -2  171.95    6.80
  -3   2  -2  178.64    8.02
   3   2   3  643.10   24.62
  -3   2  -3  573.69   21.75
  -3  -2  -3  588.28   21.93
  -3  -2  -3  566.87   20.99
   3  -2   3  602.20   22.91
  -3   2  -3  583.03   23.42
  -3  -2  -3  590.66   22.63
  -3  -2  -4  555.33   21.38
  -3   2  -4  587.55   21.08
  -3   2  -4  505.88   22.11
  -3  -2  -4  568.09   20.53
   3  -2   4  577.11   22.60
  -3   2  -4  554.25   23.26
  -3  -2  -4  575.56   22.51
   3  -2   4  559.21   20.58
   3   2   4  544.98   20.30
   3   2   5    8.59    1.70
   3   2   5    7.51    2.32
   3  -2   5    8.32    2.72
   3  -2   5    6.31    3.45
  -3   2  -5   13.60    5.04
  -3  -2  -5    9.55    4.25
  -3  -2  -5    9.24    2.71
  -3   2  -5   10.67    2.20
  -3   2  -5    8.63    3.05
  -3  -2  -5    9.59    1.90
   3   2   5    9.66    1.71
  -3  -2  -5   10.36    1.82
  -3   2  -5   11.80    2.15
   3  -2   5   12.66    2.82
   3   2   5   11.72    2.87
  -3   2  -5   11.39    4.88
   3  -2   5   10.88    2.12
   3   2   5    7.79    1.66
   3   2   6 1002.78   36.56
   3  -2   6 1083.90   37.25
   3   2   6 1012.74   36.81
   3  -2   6 1069.73   40.06
  -3   2  -6  971.72   41.51
  -3  -2  -6 1045.14   40.88
  -3  -2  -6  981.61   38.31
  -3   2  -6 1017.35   39.22
  -3   2  -6 1045.74   37.05
  -3  -2  -6  999.62   36.67
   3  -2   6 1054.80   37.33
  -3   2  -6 1194.79   40.46
   3   2   6 1114.27   37.70
   3  -2   6 1015.35   36.93
   3   2   6  960.99   36.49
   3   2   7    5.59    6.88
   3   2   7    2.45    1.90
   3  -2   7    5.47    2.98
   3   2   7    3.98    2.58
   3  -2   7    0.80    3.78
  -3   2  -7   -1.62    5.68
  -3  -2  -7    6.68    5.24
  -3   2  -7    4.02    2.56
  -3  -2  -7    4.11    2.85
  -3   2  -7    3.65    2.24
  -3  -2  -7    3.48    2.03
  -3  -2  -7    1.59    4.42
   3  -2   7    1.14    3.09
   3   2   7    1.04    3.47
  -3   2  -7    5.25    6.07
   3  -2   7    4.26    2.42
   3   2   7    2.49    1.92
   3   2   8   83.48   10.73
  -3  -2  -8   80.66    6.23
  -3   2  -8   66.39    8.73
  -3   2  -8   88.27    6.32
   3  -2   8   84.35    5.20
   3   2   8   84.20    4.86
  -3   2  -8   88.41    5.11
  -3  -2  -8   83.18    4.80
  -3   2  -8   85.67   10.29
  -3  -2  -8   83.58    9.47
   3   2   8  104.78    6.66
  -3   2  -8   79.53    9.06
  -3  -2  -8   95.14    8.10
   3  -2   8   88.37    5.80
   3  -2   8   85.42    5.02
   3   2   8   81.75    4.68
   3  -2   9  680.01   25.32
   3   2   9  634.68   24.99
   3   2   9  754.77   26.80
  -3  -2  -9  798.50   29.00
  -3   2  -9  698.83   29.68
   3  -2   9  734.62   26.18
   3  -2   9  690.26   25.49
   3   2   9  700.63   25.28
  -3   2  -9  699.39   25.59
  -3  -2  -9  687.66   25.33
   3  -2  10  178.72    8.07
   3  -2  10  185.89    7.88
  -3   2 -10  205.28    8.61
  -3  -2 -10  210.66    8.42
   3  -2  10  199.35    8.56
   3   2  10  211.70    8.42
   3   2  10  205.82    9.74
  -3   2 -10  187.52   13.03
  -3  -2 -10  221.98   12.15
   3  -2  10  214.93    9.22
  -3  -2 -11    9.59    1.79
  -3   2 -11   15.22    2.15
   3  -2  11   15.11    2.18
   3   2  11   15.23    2.00
  -3   2 -11    5.38    6.45
   3  -2  11   12.60    2.60
  -3  -2 -11   10.39    5.55
   3  -3 -14   58.17    3.50
  -3  -3  14   51.87    2.91
  -3   3  14   55.32    3.28
   3  -3 -13  231.83    9.62
   3   3 -13  248.55    9.78
  -3   3  13  230.29    9.85
  -3  -3  13  251.22    9.71
   3  -3 -13  250.27   12.34
  -3  -3  13  257.80    9.73
  -3   3  13  248.26   10.22
  -3   3  12  168.53    8.09
   3   3 -12  162.60    7.40
   3  -3 -12  152.04    7.05
   3  -3 -12  162.21    7.44
  -3   3  12  155.15    7.58
   3  -3 -12  185.41   10.54
   3   3 -12  131.60   12.73
  -3  -3  12  168.52    7.24
  -3  -3  12  170.45    7.30
  -3   3  11  441.03   21.88
  -3   3  11  508.97   19.87
  -3   3  11  504.48   20.18
  -3  -3  11  500.87   21.91
   3   3 -11  536.61   19.66
   3  -3 -11  497.91   19.78
  -3   3  11  501.73   19.69
   3  -3 -11  631.38   22.92
   3   3 -11  480.29   24.82
  -3  -3  11  520.55   19.29
  -3  -3  11  575.63   19.53
   3  -3 -10   16.14    4.16
   3   3 -10   29.75    4.33
  -3   3  10   25.42    4.00
  -3   3  10   26.83    3.41
  -3  -3  10   33.82    4.32
  -3   3  10   21.77    4.53
   3   3 -10   27.36    2.91
  -3   3  10   22.07    3.73
   3  -3 -10   23.44    3.35
  -3   3  10   28.35    3.37
   3  -3 -10   37.85    6.04
  -3  -3  10   26.99    2.82
   3   3 -10   34.44    8.92
  -3  -3  10   25.71    2.74
   3   3  -9  285.70   13.39
  -3   3   9  277.54   13.79
  -3   3   9  254.51   11.62
  -3   3   9  267.50   11.20
  -3  -3   9  291.75   12.94
   3   3  -9  272.50   10.86
   3  -3  -9  236.20   12.07
  -3   3   9  275.30   12.54
   3  -3  -9  251.39   11.29
  -3   3   9  283.02   11.17
   3   3  -9  301.88   16.25
  -3  -3   9  252.72   10.54
  -3  -3   9  287.81   10.69
  -3   3   8   15.69    2.78
  -3  -3   8   22.26    3.26
  -3   3   8   13.40    4.41
   3   3  -8   24.61    2.38
   3  -3  -8   18.76    2.95
  -3   3   8   24.54    3.70
  -3   3   8   21.81    2.88
   3   3  -8   27.82    7.33
  -3  -3   8   22.77    2.25
   3  -3  -8   17.95    2.89
   3   3  -8   18.64    3.52
   3  -3  -7  433.36   16.75
  -3  -3   7  453.37   16.31
  -3  -3   7  459.90   17.31
  -3   3   7  437.43   18.44
  -3   3   7  417.35   15.88
  -3   3   7  419.84   17.19
   3  -3  -7  390.87   15.99
  -3   3   7  418.84   15.70
   3   3  -7  421.40   16.00
   3  -3  -7  377.08   17.62
  -3  -3   6  332.44   12.64
   3  -3  -6  281.94   18.54
  -3   3   6  341.25   14.63
   3  -3  -6  295.51   13.59
   3   3  -6  332.35   13.22
  -3   3   6  310.74   13.22
   3  -3  -6  306.20   12.22
   3   3  -6  301.71   11.99
   3  -3  -6  310.85   12.63
  -3   3   5   85.26    5.48
  -3  -3   5   87.34    5.28
   3  -3  -5   89.96   10.60
   3  -3  -5   86.36    5.65
   3   3  -5   97.30    5.38
   3   3  -5   88.34    5.74
   3  -3  -5   90.84    4.82
   3  -3  -4  456.10   20.74
  -3  -3   4  428.34   17.25
   3  -3  -4  419.71   16.37
   3   3  -4  458.54   17.49
   3   3  -4  444.44   16.34
   3  -3  -4  443.67   17.34
   3  -3  -3    6.62    5.12
  -3   3   3   10.64    3.64
   3  -3  -3   12.08    2.03
   3  -3  -3   11.12    2.73
   3   3  -3    8.92    2.85
   3   3  -3   14.06    1.53
   3   3  -3   10.49    6.12
  -3   3   2   89.51    5.47
   3  -3  -2   91.93    6.63
  -3   3   2   86.28    5.81
   3   3  -2   88.74    5.41
   3  -3  -2   93.39    5.49
   3   3  -2   93.40    8.20
  -3   3   1 2027.98   73.33
  -3  -3   1 2222.74   72.07
  -3   3   1 2060.78   73.27
   3  -3  -1 2422.85   73.76
   3  -3  -1 2260.52   73.62
   3  -3  -1 2047.04   73.23
   3   3  -1 1904.93   73.11
   3   3  -1 2153.09   75.12
   3  -3  -1 1994.42   71.87
  -3  -3   0  226.52    9.03
  -3   3   0  290.51   11.31
   3  -3   0  301.56   11.53
  -3   3   0  243.78   11.61
   3  -3   0  360.75   10.80
   3  -3   0  290.70   10.88
  -3  -3   0  291.42   10.25
   3  -3   0  304.44   10.05
   3   3   0  298.10   13.21
  -3   3  -1   18.88    3.20
  -3  -3  -1   18.76    2.83
   3  -3   1   18.40    3.40
  -3   3  -1   15.02    3.97
  -3  -3  -1   20.91    2.34
  -3   3  -1   16.80    3.79
  -3   3  -1   19.66    3.19
   3  -3   1   24.74    2.76
   3   3   1   25.47    5.60
  -3   3  -2  535.09   20.09
  -3  -3  -2  525.70   20.26
  -3   3  -2  531.43   21.18
  -3  -3  -2  515.11   19.99
  -3   3  -2  495.89   20.04
  -3  -3  -2  527.76   19.30
  -3   3  -2  508.67   20.34
   3   3   2  515.89   22.05
  -3   3  -3  623.70   25.94
  -3  -3  -3  648.16   24.82
  -3  -3  -3  681.51   24.88
   3  -3   3  632.39   24.84
   3  -3   3  628.56   22.95
  -3   3  -3  686.52   24.51
  -3   3  -3  637.94   24.63
  -3  -3  -3  661.89   23.75
   3   3   3  641.68   22.95
   3  -3   3  608.88   23.26
   3   3   4  222.70    8.84
   3   3   4  226.27    9.14
   3  -3   4  218.61    9.50
  -3   3  -4  215.18   12.32
  -3  -3  -4  230.08   11.34
   3  -3   4  217.42   10.99
  -3   3  -4  231.65   10.96
  -3   3  -4  241.74   10.34
  -3  -3  -4  210.33    9.86
  -3   3  -4  233.74    9.26
   3   3   4  232.52    9.62
  -3   3  -4  244.65   12.01
   3  -3   4  223.85    9.16
   3   3   5    0.90    1.49
   3   3   5   -1.04    2.17
   3  -3   5   -0.56    2.59
   3  -3   5    0.21    3.16
  -3   3  -5    2.56    5.05
  -3  -3  -5    0.94    3.71
  -3   3  -5   -0.38    3.15
  -3  -3  -5    0.82    2.27
  -3   3  -5   -0.69    2.03
  -3   3  -5    2.06    3.21
   3   3   5    0.81    1.43
  -3   3  -5    1.96    2.00
   3  -3   5    4.32    2.54
   3   3   5    0.10    2.89
  -3   3  -5   -3.16    5.96
   3   3   5    2.15    1.38
   3  -3   5    3.70    2.01
   3   3   6  132.21    5.85
   3  -3   6  138.58    6.78
   3   3   6  122.64    6.07
   3  -3   6  126.39    8.67
  -3   3  -6  118.63   10.30
  -3  -3  -6  120.33    9.22
  -3   3  -6  127.47    8.29
  -3  -3  -6  116.92    6.93
  -3   3  -6  129.88    6.99
  -3   3  -6  119.66    8.25
  -3   3  -6  132.02    6.35
  -3  -3  -6  118.40    5.75
   3   3   6  132.55    7.18
   3  -3   6  136.37    6.68
  -3   3  -6  132.36   10.05
   3  -3   6  123.76    6.19
   3   3   6  118.05    5.60
   3   3   7    8.02    2.10
  -3   3  -7    4.53    3.81
  -3  -3  -7    7.34    3.01
  -3   3  -7    9.30    3.44
   3   3   7    6.62    2.55
   3  -3   7    6.95    3.10
  -3  -3  -7    7.83    2.12
  -3   3  -7    8.00    2.57
   3  -3   7    6.97    4.02
  -3  -3  -7    1.79    4.87
  -3   3  -7    7.41    6.30
  -3  -3  -7   14.84    4.97
   3  -3   7    8.68    3.32
   3   3   7    8.91    3.89
  -3   3  -7    6.52    6.87
   3  -3   7    4.93    2.47
   3   3   7    5.48    1.98
   3   3   8  525.66   20.42
   3  -3   8  570.23   21.01
  -3   3  -8  575.33   20.97
  -3  -3  -8  534.00   20.45
   3  -3   8  516.21   23.83
  -3   3  -8  463.48   26.77
  -3  -3  -8  452.55   25.43
   3   3   8  600.30   22.19
  -3  -3  -8  664.50   24.08
  -3   3  -8  578.73   25.76
   3  -3   8  583.32   21.33
   3  -3   8  551.11   20.85
   3   3   8  540.27   20.36
   3  -3   9  166.30    7.65
   3   3   9  172.82    9.13
  -3  -3  -9  178.57   10.83
  -3   3  -9  158.79   12.55
   3  -3   9  176.89    8.27
   3  -3   9  162.00    7.67
   3   3   9  169.94    7.37
  -3   3  -9  178.65    7.83
   3  -3   9  151.50    6.84
  -3  -3  -9  170.08    7.46
   3  -3  10   24.06    2.64
  -3   3 -10   27.39    2.82
  -3  -3 -10   23.15    2.47
   3  -3  10   27.24    2.95
   3   3  10   26.27    2.60
  -3  -3 -10   26.81    6.18
  -3   3 -10   16.68    7.99
   3   3  10   27.44    4.25
   3  -3  10   28.41    3.54
  -3   3 -11  229.13    8.77
  -3   3 -11  169.68   12.28
  -3  -3 -11  169.14   10.85
   3  -3  11  235.47    8.79
  -3   4  13  273.97   10.70
   3  -4 -13  264.44   12.35
  -3   4  13  256.49   10.48
  -3  -4  13  276.42   10.33
  -3   4  13  267.49   10.82
   3  -4 -13  257.24   10.31
   3   4 -12   53.90    3.52
   3  -4 -12   51.01    3.86
   3  -4 -12   51.39    3.52
   3   4 -12   39.42   10.40
  -3   4  12   46.59    3.92
   3  -4 -12   53.27    6.35
  -3  -4  12   54.36    3.55
  -3  -4  12   59.45    3.58
  -3   4  11  463.27   18.95
  -3   4  11  490.94   19.21
  -3   4  11  479.13   21.57
  -3  -4  11  499.56   21.20
   3   4 -11  514.23   18.52
   3  -4 -11  465.36   18.54
   3  -4 -11  476.58   19.02
  -3   4  11  476.92   18.85
   3   4 -11  426.19   24.66
  -3  -4  11  479.84   18.32
  -3  -4  11  532.28   18.44
  -3   4  10   23.12    3.97
  -3   4  10   23.27    3.47
  -3  -4  10   28.50    4.17
  -3   4  10   24.84    4.95
   3   4 -10   26.72    2.77
   3  -4 -10   15.66   14.97
   3  -4 -10   25.74    3.74
  -3   4  10   18.53    3.69
  -3   4  10   26.14    3.46
   3   4 -10   21.19   10.07
  -3  -4  10   26.40    2.77
   3  -4 -10   33.04    5.06
  -3   4   9  148.46    9.63
  -3   4   9  131.38    7.54
  -3   4   9  143.19    7.21
  -3  -4   9  154.58    8.65
   3   4  -9  156.95    6.62
  -3   4   9  133.79    8.09
   3  -4  -9  149.05    7.46
  -3   4   9  143.79    7.11
   3   4  -9  148.36   13.32
  -3  -4   9  143.17    6.49
   3  -4  -9  148.58    9.42
  -3   4   8    7.40    4.07
  -3  -4   8    5.97    2.77
  -3   4   8    3.59    2.56
   3  -4  -8    3.52    2.67
  -3   4   8    5.46    2.94
   3   4  -8   14.80    8.45
   3   4  -8    4.43    2.09
  -3   4   8    5.10    2.50
   3   4  -8    5.50    3.26
   3  -4  -8    6.03    3.54
   3   4  -7   65.54    5.23
  -3   4   7   51.82    5.70
  -3   4   7   44.50    3.63
  -3   4   7   50.06    4.64
   3  -4  -7   52.99    3.97
  -3   4   7   52.49    3.69
   3   4  -7   53.81    3.53
   3  -4  -7   59.88    5.25
  -3   4   6 2454.05   87.18
  -3   4   6 2419.89   87.42
   3  -4  -6 2809.24   95.43
  -3  -4   6 2693.65   88.57
   3   4  -6 2469.96   87.77
   3  -4  -6 2573.47   89.16
   3   4  -6 2876.29   89.58
   3  -4  -6 2585.00   87.47
  -3   4   6 2609.85   88.63
   3  -4  -6 2388.04   86.98
   3  -4  -5  351.17   18.69
  -3  -4   5  367.25   13.64
  -3   4   5  358.20   15.49
   3  -4  -5  331.40   14.60
   3   4  -5  364.41   15.09
   3   4  -5  350.28   13.15
   3  -4  -5  335.41   13.32
  -3   4   5  349.85   14.59
   3  -4  -4  895.71   31.63
   3  -4  -4  800.18   26.43
  -3   4   4  846.15   29.10
  -3  -4   4  774.34   27.93
   3  -4  -4  802.35   28.40
   3  -4  -4  766.12   27.03
   3   4  -4  862.96   29.03
   3   4  -4  685.71   26.09
  -3   4   4  785.36   28.27
   3  -4  -3  918.54   34.15
   3  -4  -3  994.69   35.91
  -3   4   3 1018.52   34.75
   3  -4  -2 1012.24   36.81
  -3   4   2 1065.87   37.19
   3  -4  -2 1129.49   38.04
   3   4  -1   22.04    2.78
   3  -4  -1   19.44    2.96
   3  -4  -1   20.24    3.17
  -3   4   1   21.75    3.53
  -3   4   1   18.08    3.52
   3  -4  -1   27.18    3.70
  -3  -4   0  112.68    4.94
  -3   4   0  101.85    5.88
   3  -4   0  108.49    6.28
  -3   4   0  103.99    5.85
  -3   4   0  102.20    6.27
   3  -4   1 2167.28   77.59
  -3   4  -1 1923.81   78.19
   3  -4   1 2391.46   76.33
  -3   4  -1 2186.38   76.76
   3  -4   1 2194.38   76.08
  -3   4  -1 2115.71   77.12
  -3  -4  -1 2242.28   76.20
  -3   4  -1 2006.83   78.60
  -3   4  -1 2293.49   77.58
  -3  -4  -1 2313.41   78.13
   3  -4   2   56.07    5.02
  -3   4  -2   69.49    6.88
  -3  -4  -2   72.70    5.88
  -3  -4  -2   75.44    5.09
  -3   4  -2   71.03    4.97
  -3  -4  -2   71.81    4.01
  -3   4  -2   64.38    5.62
  -3   4  -3    5.02    2.87
  -3  -4  -3    3.05    2.02
  -3   4  -3    0.66    2.58
   3  -4   3    2.95    2.55
   3   4   3    2.32    1.86
  -3   4  -3    0.52    4.80
  -3  -4  -3    3.84    3.14
  -3   4  -3    2.64    1.83
  -3  -4  -3    0.19    3.75
   3  -4   3    1.94    1.75
   3   4   3    4.11    1.46
   3  -4   4 2098.03   79.18
   3   4   4 2254.88   78.90
   3  -4   4 2232.02   81.17
  -3   4  -4 2126.79   83.17
  -3  -4  -4 2378.42   81.72
  -3   4  -4 2474.71   81.01
  -3   4  -4 2298.42   80.97
  -3  -4  -4 2264.78   79.63
  -3   4  -4 2417.17   79.23
   3   4   4 2276.77   78.66
   3   4   4 2341.20   79.53
  -3   4  -4 2282.35   82.43
   3  -4   4 2353.85   79.49
   3   4   4 2121.67   83.56
   3   4   4 2274.50   78.72
   3  -4   5    4.53    2.83
   3   4   5    6.72    2.40
   3  -4   5    8.10    3.48
  -3   4  -5   -1.80    5.53
  -3  -4  -5    3.06    3.80
  -3   4  -5    5.15    3.28
  -3  -4  -5    4.13    2.29
  -3   4  -5    8.13    2.66
  -3   4  -5    5.34    3.59
   3   4   5    5.74    1.67
  -3   4  -5    3.11    2.18
   3   4   5    5.08    3.34
  -3   4  -5   -0.84    6.55
   3   4   5    5.71    6.45
   3   4   5    2.83    1.66
   3   4   6  193.78    7.97
   3   4   6  160.88   13.84
   3   4   6  184.44    8.20
   3  -4   6  186.33    8.72
   3  -4   6  178.72   10.75
  -3   4  -6  178.19   13.63
  -3  -4  -6  177.20   11.63
  -3   4  -6  178.63   10.30
  -3  -4  -6  167.65    8.86
  -3   4  -6  188.61    9.48
  -3   4  -6  189.75   11.01
  -3   4  -6  212.17    8.63
   3   4   6  208.65    9.60
  -3   4  -6  199.90   13.25
   3  -4   6  187.97    8.69
   3   4   6  175.31    7.61
   3   4   7   -5.39    7.42
   3   4   7    4.08    2.03
   3  -4   7    2.78    3.11
   3   4   7    1.89    2.52
   3  -4   7    5.58    4.06
  -3  -4  -7   -1.84    5.54
  -3   4  -7    5.80    6.90
  -3   4  -7    3.63    3.80
  -3   4  -7    0.43    5.44
  -3   4  -7    1.07    3.28
  -3   4  -7    0.53    2.54
   3  -4   7    3.09    3.20
  -3   4  -7    2.02    7.76
   3   4   7    0.45    3.98
  -3  -4  -7    2.68    4.77
   3   4   7    4.38    1.85
   3   4   8  567.48   29.24
   3   4   8  564.02   21.17
   3  -4   8  589.92   21.81
  -3   4  -8  585.81   21.75
   3  -4   8  539.85   24.65
  -3   4  -8  478.79   27.77
   3   4   8  623.41   23.07
  -3  -4  -8  693.43   24.72
  -3   4  -8  558.40   26.89
   3  -4   8  581.13   21.92
   3   4   8  546.68   21.00
   3  -4   9  312.01   12.42
   3   4   9  344.73   13.92
  -3  -4  -9  338.50   15.45
   3  -4   9  308.30   12.79
  -3   4  -9  308.90   17.88
   3   4   9  299.53   12.01
  -3   4  -9  302.80   12.54
  -3   4 -10   17.07    2.56
  -3   4 -10   15.80    8.01
  -3  -4 -10   18.60    5.54
   3  -4  10   18.37    2.97
   3   4  10   12.10    3.75
   3  -4  10   17.52    2.25
  -3   5  13    3.29    2.14
   3  -5 -13    3.60    1.43
   3  -5 -13    3.74    1.72
   3  -5 -13    5.42    2.44
  -3  -5  13    4.38    1.80
  -3   5  13    2.08    1.95
  -3   5  13    5.61    2.18
   3  -5 -12  227.37   10.13
   3  -5 -12  240.95   11.24
  -3   5  12  201.95    9.03
  -3  -5  12  209.02    8.65
  -3   5  12  217.70    9.30
   3  -5 -12  212.01    9.04
   3  -5 -12  202.92    8.70
   3  -5 -11  104.36    7.28
   3   5 -11  113.62    5.34
   3  -5 -11  107.64    5.78
   3  -5 -11  107.93    6.17
  -3   5  11  107.26    6.09
  -3  -5  11  113.16    5.48
  -3   5  11  104.11    6.13
   3   5 -10  131.51    8.77
  -3   5  10  142.84    9.30
  -3   5  10  124.95    6.97
  -3   5  10  113.34    6.57
  -3  -5  10  123.97    7.96
   3  -5 -10  127.14    8.08
   3  -5 -10  114.04    6.26
   3  -5 -10  113.28    6.72
   3   5 -10  111.68   13.73
  -3   5  10  129.10    6.66
  -3  -5  10  120.53    5.79
   3  -5 -10  115.62    8.63
   3   5  -9  134.20    8.86
  -3   5   9  130.59    7.19
  -3   5   9  121.93    6.68
  -3   5   9  127.45    8.97
  -3  -5   9  137.29    8.22
  -3   5   9  128.60    7.64
   3  -5  -9  126.24    6.50
   3  -5  -9  123.24    6.97
   3  -5  -9  114.99   17.20
   3  -5  -9  141.08    9.12
  -3   5   9  133.39    6.77
   3   5  -9  130.08   14.34
  -3  -5   9  120.58    5.90
   3  -5  -9  120.28    7.98
  -3   5   8  263.24   11.44
   3   5  -8  301.10   14.05
  -3   5   8  289.55   12.83
   3  -5  -8  265.57   11.24
  -3   5   8  267.91   11.32
   3   5  -8  277.21   11.39
   3   5  -8  271.86   18.60
   3  -5  -8  275.30   13.73
  -3   5   7  281.36   12.10
   3  -5  -7  304.43   19.87
  -3  -5   7  299.32   13.39
   3   5  -7  339.55   14.78
  -3   5   7  329.95   13.74
   3  -5  -7  293.02   12.01
   3  -5  -7  289.77   12.35
   3   5  -7  318.38   12.19
  -3   5   7  302.15   12.08
   3   5  -7  317.90   19.17
   3  -5  -7  295.61   14.21
   3  -5  -6 1751.46   60.64
  -3   5   6 1639.50   58.57
  -3   5   6 1687.70   58.82
   3  -5  -6 1834.14   65.93
  -3   5   6 1840.19   61.38
  -3  -5   6 1770.36   59.94
   3   5  -6 1877.71   61.38
  -3   5   6 1758.04   60.22
   3  -5  -6 1611.07   58.40
   3  -5  -6 1676.38   58.72
  -3   5   6 1651.46   58.37
   3  -5  -6 1429.94   59.76
   3  -5  -5  140.01    7.55
  -3   5   5  128.07    6.33
  -3   5   5  118.43    6.39
  -3   5   5  135.64    8.20
   3  -5  -5  160.95   11.54
  -3  -5   5  139.69    7.06
   3  -5  -5  126.85    6.87
  -3   5   5  139.07    7.58
   3  -5  -5  133.24    6.26
   3   5  -5  147.21    6.34
   3   5  -5  140.46    6.11
   3   5  -5  154.20    8.29
   3   5  -4   73.12    5.91
   3  -5  -4   83.08    5.47
  -3   5   4   74.16    6.09
   3  -5  -4   87.22    8.07
   3  -5  -4   80.42    3.93
  -3   5   4   76.89    5.61
   3  -5  -3  811.48   29.31
  -3   5   3  811.93   27.78
   3   5  -3  605.25   29.99
   3   5  -3  654.16   27.52
   3  -5  -3  735.88   27.18
  -3   5   3  720.41   27.45
   3  -5  -2  745.05   27.13
  -3   5   2  749.30   26.29
   3  -5  -2  655.70   25.79
   3  -5  -2  682.49   25.93
   3   5  -2  689.26   26.15
   3   5  -2  639.23   28.72
  -3   5   1  309.89   11.93
   3  -5  -1  306.15   12.35
   3  -5  -1  263.08   11.63
   3   5  -1  244.74   14.55
   3   5  -1  283.25   11.33
   3  -5  -1  256.91   11.52
  -3  -5   1  267.20   10.13
   3  -5   0  124.14    6.43
   3  -5   0  122.19    6.65
  -3   5   0  143.06    6.47
   3   5   0  109.34    9.17
  -3  -5   0  119.31    4.94
  -3   5   0   96.99    5.95
  -3   5   0  109.00    6.84
   3  -5   1   20.62    3.55
   3  -5   1   23.84    2.71
  -3   5  -1   22.25    2.75
  -3  -5  -1   23.30    4.27
  -3   5  -1   21.06    3.79
   3   5   1   14.90    5.79
  -3   5  -1   27.01    3.44
  -3  -5  -1   23.39    2.00
  -3   5  -1   19.63    4.73
   3   5   2    1.42    1.48
   3   5   2    0.83    5.20
  -3   5  -2   -0.13    2.64
  -3   5  -2   -0.43    3.51
  -3  -5  -2    2.10    1.60
   3   5   2   -0.19    1.99
   3  -5   2    1.11    2.84
  -3   5  -2    0.97    1.77
  -3   5  -2    0.77    4.75
  -3   5  -2    2.32    1.72
   3   5   2    1.70    1.41
  -3  -5  -2    0.46    3.80
   3  -5   2    0.59    1.75
   3  -5   2    1.23    1.77
   3   5   3  370.41   19.25
   3   5   3  407.34   14.54
  -3   5  -3  380.20   16.22
  -3   5  -3  414.34   17.32
   3   5   3  396.25   14.74
   3  -5   3  371.78   15.02
   3  -5   3  326.75   16.64
  -3   5  -3  356.79   18.87
  -3  -5  -3  383.19   18.01
  -3  -5  -3  410.63   17.09
  -3   5  -3  411.49   14.94
   3   5   3  402.07   14.54
   3  -5   3  382.68   14.74
   3   5   3  385.71   15.24
  -3   5  -3  329.22   18.44
   3  -5   3  377.51   14.79
   3   5   4  573.05   20.37
   3   5   4  564.55   26.02
   3   5   4  556.79   20.53
   3  -5   4  532.10   20.89
  -3   5  -4  484.35   25.14
  -3  -5  -4  465.62   23.58
  -3  -5  -4  556.40   23.49
  -3   5  -4  577.09   22.90
  -3   5  -4  533.89   22.31
  -3   5  -4  587.23   20.88
   3   5   4  564.44   20.31
   3   5   4  596.80   21.38
  -3   5  -4  526.28   24.84
   3  -5   4  565.57   20.80
   3   5   5  467.31   17.46
   3   5   5  472.40   23.96
   3   5   5  466.71   17.65
   3  -5   5  434.21   18.01
   3  -5   5  447.14   20.18
  -3   5  -5  397.78   23.08
  -3  -5  -5  449.50   21.05
  -3   5  -5  496.68   19.86
  -3   5  -5  457.05   19.74
  -3   5  -5  446.81   21.32
  -3   5  -5  511.37   18.14
   3   5   5  466.44   17.35
   3   5   5  487.67   18.78
  -3   5  -5  468.43   22.75
   3  -5   5  491.41   18.02
   3   5   6   50.39    9.37
   3   5   6   53.21    3.56
   3   5   6   50.06    3.86
   3  -5   6   45.77    4.40
   3  -5   6   43.92    5.52
  -3   5  -6   39.92    8.44
  -3  -5  -6   42.51    6.50
  -3   5  -6   51.83    5.30
  -3   5  -6   49.08    4.71
  -3   5  -6   51.95    6.19
  -3   5  -6   54.92    4.12
   3   5   6   50.58    3.39
   3   5   6   65.00    5.49
  -3   5  -6   48.57    9.84
   3  -5   6   52.17    4.10
   3   5   7  249.55   10.39
   3   5   7  268.16   18.16
   3  -5   7  258.27   11.15
   3  -5   7  244.24   13.37
  -3   5  -7  212.26   16.54
  -3   5  -7  243.80   12.84
  -3   5  -7  248.84   13.59
   3   5   7  289.08   12.33
  -3   5  -7  230.49   16.42
   3  -5   7  264.97   11.19
   3  -5   7  264.90   11.00
  -3   5  -7  275.48   11.07
   3   5   8  238.21   10.13
  -3   5  -8  256.13   10.73
   3   5   8  279.11   12.05
  -3  -5  -8  306.63   13.63
  -3   5  -8  199.35   15.94
   3  -5   8  237.06   10.73
   3  -5   8  248.68   10.66
   3  -5   8  240.06   10.71
  -3   5  -9  126.32    6.18
   3   5   9  126.66    7.33
  -3  -5  -9  134.18    9.07
  -3   5  -9  112.77   12.12
   3  -5   9  116.00    6.22
   3  -5   9  122.67    6.13
   3  -5   9  113.71    5.97
  -3   5 -10   21.94    2.55
   3  -5  10   20.00    2.30
  -3  -5 -10   15.21    5.37
   3  -5  10   21.92    2.75
   3   5  10   14.88    3.42
  -3   5 -10   23.05    8.30
   3  -5  10   20.62    2.51
  -3  -6  13    1.31    1.50
   3  -6 -13    0.05    1.45
   3  -6 -13    0.20    1.22
   3  -6 -13    1.56    2.06
  -3   6  12   -0.32    2.48
  -3  -6  12    2.98    1.97
  -3   6  12   -3.23    2.54
   3  -6 -12   -2.31    4.01
   3  -6 -12    0.68    2.88
   3  -6 -12   -0.31    2.11
   3  -6 -12    0.07    1.76
  -3   6  11   17.51    3.31
   3  -6 -11   22.93    2.81
   3  -6 -11   16.20    3.00
  -3   6  11   15.69    3.12
  -3  -6  11   24.12    2.71
   3  -6 -11   20.88    4.29
  -3  -6  10  199.67   10.56
   3  -6 -10  184.99    8.53
  -3   6  10  189.68    8.96
  -3   6  10  186.78    8.71
   3   6 -10  166.78   17.05
  -3  -6  10  182.69    8.01
   3  -6 -10  186.29   10.13
   3  -6  -9  323.64   15.76
   3  -6  -9  316.88   14.83
   3  -6  -9  329.94   13.32
  -3   6   9  337.64   13.35
   3   6  -9  308.92   13.24
   3   6  -9  286.92   21.73
   3   6  -9  334.58   16.22
  -3   6   8  459.85   20.67
  -3  -6   8  456.49   19.47
   3   6  -8  473.21   20.86
  -3   6   8  457.09   19.10
   3  -6  -8  449.22   17.75
   3  -6  -8  468.84   18.18
   3   6  -8  463.44   17.82
  -3   6   8  469.61   17.79
   3   6  -8  438.36   26.05
   3  -6  -8  453.41   20.31
  -3   6   7  106.25    7.74
  -3  -6   7  106.71    6.61
   3  -6  -7   93.85   12.23
   3   6  -7  117.40    7.99
  -3   6   7   97.51    6.50
   3  -6  -7   97.50    5.73
   3   6  -7   88.82    5.19
  -3   6   7   99.56    5.47
   3   6  -7   86.18   14.20
   3  -6  -7  102.13    7.04
  -3   6   6   23.90    4.40
  -3  -6   6   27.28    3.42
   3   6  -6   20.42    4.26
   3  -6  -6   25.16    3.73
   3  -6  -6   32.98    7.60
   3  -6  -6   20.10    2.93
  -3   6   6   25.54    3.89
  -3   6   6   24.14    2.94
   3   6  -6   16.49   11.92
   3   6  -6   25.65    2.64
   3  -6  -6   21.94    4.69
   3   6  -5  674.62   27.37
   3  -6  -5  697.51   27.13
  -3   6   5  663.71   25.83
   3  -6  -5  789.37   31.56
  -3  -6   5  717.26   26.79
  -3   6   5  781.00   28.15
   3   6  -5  708.63   28.23
   3  -6  -5  719.43   25.57
   3  -6  -5  693.88   25.65
  -3   6   5  710.10   27.34
  -3   6   5  651.31   25.43
   3   6  -5  783.63   25.95
   3   6  -5  717.17   25.66
   3  -6  -5  715.78   26.45
  -3   6   4  600.21   24.32
  -3   6   4  722.88   26.32
   3  -6  -4  719.47   28.53
  -3  -6   4  668.19   25.13
   3   6  -4  616.35   26.36
   3  -6  -4  661.31   25.50
   3  -6  -4  646.11   24.17
  -3   6   4  665.28   25.85
   3  -6  -4  656.17   24.10
   3   6  -4  759.45   24.59
   3   6  -4  685.50   24.21
   3  -6  -4  690.01   24.58
   3   6  -3  138.66   11.66
  -3   6   3  144.66    7.11
   3  -6  -3  169.03   10.01
  -3   6   3  170.54    8.53
  -3  -6   3  156.46    7.39
   3   6  -3  144.56    8.29
   3  -6  -3  161.61    7.91
  -3   6   3  156.50    8.41
   3  -6  -3  155.66    6.77
   3  -6  -3  158.44    6.84
   3   6  -3  156.97    6.73
   3  -6  -3  158.06    6.96
   3  -6  -2  462.09   18.47
  -3   6   2  471.71   17.26
   3  -6  -2  395.59   16.80
  -3  -6   2  430.54   16.29
  -3   6   2  390.31   16.00
   3  -6  -2  442.07   15.79
  -3   6   2  411.90   17.48
   3   6  -2  378.79   20.04
   3   6  -2  447.97   16.97
   3  -6  -2  442.79   17.02
   3  -6  -1  175.79    7.40
   3  -6  -1  193.18    9.48
  -3   6   1  200.90    8.46
  -3  -6   1  186.07    7.61
   3  -6  -1  172.84    8.76
   3   6  -1  182.85   12.00
   3  -6  -1  183.71    8.49
  -3   6   1  153.89    7.77
   3  -6   0  115.89    5.69
   3  -6   0  136.57    7.27
   3  -6   0  138.75    7.19
  -3   6   0  143.88    6.21
   3  -6   0  122.27    5.65
   3   6   0  114.91   10.17
  -3   6   0  119.12    6.26
  -3   6  -1  125.20    7.09
  -3   6  -1  136.74    9.53
   3  -6   1  160.99    6.81
   3  -6   1  139.97    7.99
   3  -6   1  149.30    7.40
   3   6   1  169.90    6.54
  -3   6  -1  160.16    8.57
   3  -6   1  128.36    6.30
  -3  -6  -1  182.09    9.92
   3  -6   1  133.55    6.44
   3   6   1  194.33   11.43
   3   6   1  150.60    6.21
   3   6   1  141.10   10.79
  -3   6  -2  102.24    6.22
  -3   6  -2  106.54    8.10
   3  -6   2  106.44    5.41
   3   6   2  136.77   10.22
   3  -6   2  113.58    7.24
  -3  -6  -2  124.95    9.04
   3   6   2  126.55    5.31
   3  -6   2  107.21    5.31
   3   6   2  103.57    5.88
  -3   6  -2   93.25   10.34
   3   6   2  105.75    9.63
  -3   6  -3  555.02   23.79
  -3   6  -3  635.66   25.71
   3  -6   3  604.01   22.73
   3  -6   3  609.90   24.86
  -3  -6  -3  623.83   26.86
  -3  -6  -3  573.63   25.07
   3   6   3  686.61   22.55
   3  -6   3  595.89   22.54
   3   6   3  581.28   23.06
  -3   6  -3  513.09   27.14
   3   6   3  641.15   22.42
   3   6   3  625.90   27.81
   3   6   4  343.30   18.39
   3   6   4  326.70   12.22
   3  -6   4  297.28   12.66
   3  -6   4  300.83   14.59
  -3   6  -4  245.69   16.93
  -3  -6  -4  301.75   15.22
  -3  -6  -4  269.14   16.16
  -3   6  -4  328.12   15.03
  -3   6  -4  283.16   13.77
   3   6   4  333.26   12.22
   3   6   4  338.93   13.32
  -3   6  -4  272.82   17.74
   3  -6   4  310.49   12.57
   3   6   5  135.46   12.13
   3   6   5  120.09    5.79
   3  -6   5  107.49    6.40
  -3   6  -5  109.68   10.82
  -3  -6  -5  118.33    9.10
  -3   6  -5  122.07    7.93
  -3   6  -5  108.41    7.40
  -3   6  -5  114.22    9.20
   3   6   5  123.77    5.74
   3   6   5  127.96    7.35
  -3   6  -5   95.45   11.94
   3  -6   5  128.18    6.41
   3   6   6  954.34   32.65
   3   6   6 1035.96   41.03
   3  -6   6  909.44   33.10
   3  -6   6  890.26   35.86
  -3   6  -6  713.37   38.18
  -3   6  -6  767.55   34.38
  -3   6  -6  951.32   35.22
  -3   6  -6  955.95   37.37
  -3   6  -6  573.52   36.12
   3   6   6  924.93   32.49
   3   6   6 1045.63   34.28
  -3   6  -6  859.98   39.19
   3  -6   6  980.85   33.22
   3   6   7  533.66   20.33
   3   6   7  599.83   28.23
   3  -6   7  507.46   20.74
   3   6   7  610.40   22.13
  -3   6  -7  496.35   26.97
   3  -6   7  528.26   20.76
   3  -6   7  601.98   20.98
   3  -6   7  505.34   23.43
   3   6   8   22.80    2.72
   3  -6   8   18.26    3.35
   3  -6   8   21.72    3.07
   3  -6   8   20.33    3.33
  -3  -6  -8   18.98    5.62
   3   6   8   24.13    4.47
  -3   6  -8   16.91    9.65
   3  -6   9    1.84    2.42
   3  -6   9    4.87    2.32
   3  -6   9    3.99    2.51
   3   6   9    6.02    3.63
  -3  -6  -9    2.04    5.09
  -3   6  -9    9.12    8.92
  -3  -6 -10   12.19    2.45
  -3  -6 -10   11.06    4.56
   3  -6  10   11.48    2.08
  -3   6 -10    5.18    7.53
   3  -6  10   11.42    2.09
   3  -7 -12  594.58   22.41
   3  -7 -12  650.29   23.87
  -3  -7  12  634.05   22.40
  -3   7  12  592.71   22.64
   3  -7 -11  406.33   15.19
  -3   7  11  367.45   15.19
  -3  -7  11  399.54   14.89
  -3   7  11  384.37   15.39
  -3   7  10   29.60    3.91
   3  -7 -10   32.36    3.59
   3  -7 -10   28.48    3.26
  -3   7  10   25.98    3.55
  -3  -7  10   26.16    2.93
   3  -7 -10   23.16    4.56
  -3  -7   9   92.80    6.65
   3  -7  -9   95.30    6.94
   3  -7  -9   91.32    5.76
   3   7  -9   82.70    5.22
  -3   7   9   79.82    5.37
   3   7  -9   92.25   15.38
  -3   7   9   92.60    7.30
  -3   7   9   81.13    5.78
  -3   7   8  212.67   11.68
  -3   7   8  195.80    9.62
  -3  -7   8  205.16   10.77
   3   7  -8  185.99   11.86
   3  -7  -8  218.06    9.77
   3   7  -8  203.14    9.27
  -3   7   8  218.45    9.39
   3   7  -8  189.05   19.10
   3  -7  -8  221.66   11.32
   3  -7  -7  160.16    9.06
  -3   7   7  164.37    9.81
   3  -7  -7  150.90   14.16
  -3  -7   7  155.89    8.70
   3   7  -7  154.10   10.12
  -3   7   7  143.43    8.38
   3  -7  -7  166.75    7.81
  -3   7   7  147.77    7.43
   3   7  -7  156.31   17.91
   3   7  -7  137.31   19.94
  -3   7   6  272.14   11.60
  -3   7   6  278.98   11.88
  -3   7   6  299.83   13.89
   3  -7  -6  309.16   17.93
  -3  -7   6  271.40   12.71
   3  -7  -6  284.79   13.05
   3   7  -6  273.66   14.23
  -3   7   6  290.57   12.96
   3  -7  -6  289.01   11.60
   3  -7  -6  289.12   11.42
  -3   7   6  266.74   11.38
   3   7  -6  287.82   11.54
   3  -7  -6  254.42   13.30
   3   7  -5  300.11   14.09
   3   7  -5  267.98   14.32
   3  -7  -5  295.17   13.34
  -3   7   5  330.46   14.34
  -3   7   5  303.64   12.29
  -3   7   5  295.97   12.49
   3  -7  -5  315.73   17.12
  -3  -7   5  304.75   13.23
  -3   7   5  307.54   13.73
   3  -7  -5  303.87   12.09
   3  -7  -5  291.76   11.92
   3   7  -5  344.69   12.56
   3   7  -5  316.53   12.19
   3  -7  -5  298.21   13.02
   3   7  -4  161.04    9.45
   3   7  -4  167.47    9.46
   3  -7  -4  163.66    8.57
  -3   7   4  172.88    7.83
  -3   7   4  163.58    8.02
   3  -7  -4  184.77   11.73
  -3  -7   4  190.73    8.61
  -3   7   4  187.52    9.36
   3   7  -4  178.21    7.13
  -3   7   4  171.58    7.93
   3  -7  -4  176.70    7.51
   3  -7  -4  160.44    7.49
  -3   7   4  173.73    9.22
   3   7  -4  207.35    8.16
   3   7  -4  175.99    7.61
   3  -7  -4  167.04    7.91
   3  -7  -3   43.11    3.88
   3   7  -3   58.28    4.45
  -3   7   3   46.41    3.91
   3  -7  -3   49.81    6.03
  -3   7   3   46.64    4.49
  -3  -7   3   50.66    3.75
  -3   7   3   44.14    3.58
   3   7  -3   51.70    3.09
  -3   7   3   53.73    4.79
   3  -7  -3   49.98    3.25
   3  -7  -3   47.70    3.25
   3   7  -3   65.34    4.17
   3   7  -3   51.03    3.21
   3  -7  -3   47.97    3.42
   3   7  -3   52.35   11.29
   3   7  -2  211.07   13.64
   3   7  -2  222.41    9.30
   3  -7  -2  231.10    9.98
  -3   7   2  204.22    9.26
   3  -7  -2  223.91   11.59
  -3  -7   2  220.37    9.27
  -3   7   2  225.51    9.78
   3   7  -2  224.72    8.81
  -3   7   2  195.94    9.10
   3  -7  -2  216.64    8.79
  -3   7   2  197.58   10.59
   3  -7  -2  212.34    8.71
   3   7  -2  223.14    8.77
   3  -7  -2  216.23    8.88
   3   7  -2  212.93   10.91
   3   7  -1  716.53   25.61
   3   7  -1  748.30   31.00
  -3   7   1  643.14   26.05
   3  -7  -1  737.40   27.05
  -3   7   1  651.31   26.27
   3  -7  -1  767.72   28.61
  -3   7   1  737.19   26.46
   3  -7  -1  690.33   27.36
   3   7  -1  793.60   26.21
  -3   7   1  682.73   26.26
   3  -7  -1  710.75   25.93
  -3   7   1  672.02   27.85
   3  -7  -1  692.93   25.81
   3  -7  -1  691.85   25.99
   3   7  -1  804.53   27.72
   3   7   0  490.98   23.07
   3   7   0  526.19   18.08
  -3   7   0  450.04   18.58
  -3   7   0  390.81   21.63
  -3   7   0  434.26   18.60
   3  -7   0  535.50   20.40
   3  -7   0  475.92   19.94
  -3   7   0  440.15   18.46
   3  -7   0  500.16   18.27
  -3  -7   0  588.91   22.24
   3  -7   0  480.64   18.10
   3   7   0  642.13   19.00
   3   7   0  581.81   19.82
   3  -7   0  467.89   18.28
   3   7   1    4.64    6.08
   3   7   1   -0.07    1.62
  -3   7  -1    3.77    4.29
  -3   7  -1    4.48    1.98
  -3   7  -1    0.85    2.82
   3  -7   1    0.55    2.29
   3  -7   1    1.97    2.99
   3   7   1   -0.08    1.68
  -3   7  -1    2.56    2.27
   3  -7   1    2.27    1.90
   3  -7   1    3.41    2.44
  -3  -7  -1    1.15    4.44
  -3   7  -1   -3.89    8.45
   3   7   1    1.38    2.00
  -3   7  -1    2.22    2.70
   3  -7   1    2.23    1.97
   3   7   1   -0.73    2.67
   3   7   2  778.85   33.23
  -3   7  -2  699.80   28.60
  -3   7  -2  707.94   31.22
  -3   7  -2  756.32   28.30
   3  -7   2  857.03   28.25
  -3  -7  -2  950.87   33.72
   3  -7   2  817.34   30.42
   3   7   2  878.56   28.13
  -3   7  -2  772.26   28.23
   3  -7   2  735.10   27.85
  -3   7  -2  624.27   32.87
   3  -7   2  729.68   27.97
  -3   7  -3  183.22   11.22
  -3   7  -3  162.95    8.92
   3  -7   3  186.61    8.43
   3  -7   3  186.44   10.43
  -3  -7  -3  222.80   13.34
  -3  -7  -3  201.38   11.26
   3   7   3  204.54    8.18
  -3   7  -3  182.47    8.48
   3  -7   3  190.22    8.22
   3   7   3  181.08    8.93
  -3   7  -3  150.40   14.27
   3   7   3  194.28   13.28
   3   7   3  196.68    8.09
   3   7   4   45.07    8.41
   3   7   4   47.59    3.41
  -3   7  -4   50.08    5.62
  -3   7  -4   34.23    4.16
   3  -7   4   49.75    4.14
   3  -7   4   38.21    5.22
  -3  -7  -4   47.22    6.10
   3   7   4   47.52    3.34
  -3  -7  -4   42.01    7.49
   3   7   4   45.10    4.89
  -3   7  -4   41.51   10.65
   3  -7   4   49.09    3.90
   3   7   5  192.47    8.13
   3   7   5  196.34   13.98
   3  -7   5  182.46    8.60
   3  -7   5  165.32   10.53
  -3  -7  -5  180.27   11.82
  -3   7  -5  183.04   10.56
   3  -7   5  183.66    8.52
   3   7   5  192.00    9.33
  -3   7  -5  168.40   15.68
  -3   7  -5  185.68    8.41
   3   7   5  184.27    7.99
   3   7   6    2.25    2.36
   3   7   6    0.89    6.96
   3   7   6   -0.09    1.98
   3  -7   6   -0.22    3.10
   3   7   6    3.18    4.01
  -3   7  -6   -3.25   10.90
   3  -7   6    3.25    2.70
  -3   7  -6    3.29    3.07
  -3   7  -6    0.66    3.83
   3   7   7    1.71    2.16
   3  -7   7    0.71    2.76
   3   7   7    7.28    4.19
  -3   7  -7    0.44   10.58
   3  -7   7    0.42    2.57
   3  -7   7    3.53    2.98
   3   7   8  142.70    6.96
   3  -7   8  151.05    7.35
   3   7   8  159.99    8.35
  -3  -7  -8  164.52    9.99
   3  -7   8  168.28    7.37
   3  -7   8  172.01    7.43
   3  -7   9   30.79    2.90
  -3  -7  -9   36.78    3.34
  -3   7  -9   28.05    9.69
  -3  -7  -9   20.26    5.28
   3  -7   9   39.58    3.05
   3  -7   9   41.96    3.09
   3  -8 -12   51.66    3.32
   3  -8 -12   45.00    2.62
   3  -8 -12   42.25    2.75
  -3   8  12   41.40    2.98
  -3  -8  12   45.16    2.59
  -3   8  11    0.78    2.50
  -3   8  11    4.56    2.29
   3  -8 -11    5.00    1.94
   3  -8 -11    6.09    2.24
  -3  -8  11    4.32    2.01
   3  -8 -11    8.42    2.96
   3  -8 -10  924.12   32.33
  -3  -8  10  871.90   31.71
  -3   8  10  890.35   32.23
  -3   8  10  908.80   32.37
  -3   8   9    9.57    3.30
  -3   8   9    2.84    2.84
   3  -8  -9    3.81    2.71
   3   8  -9    3.92    2.47
   3   8  -9   -5.33   12.41
   3  -8  -9    1.99    4.02
  -3  -8   8   38.67    4.62
  -3   8   8   46.32    5.42
  -3   8   8   43.97    4.47
  -3   8   8   43.86    4.06
   3  -8  -8   42.21    3.80
   3  -8  -8   41.15    3.94
   3  -8  -8   32.49   10.18
   3   8  -8   42.17    3.81
   3   8  -8   31.05   15.25
   3  -8  -8   43.24    4.61
   3   8  -8   40.00    5.76
  -3  -8   7  496.58   20.73
   3  -8  -7  474.35   26.57
  -3   8   7  519.88   21.46
  -3   8   7  487.36   19.08
   3  -8  -7  519.62   19.20
   3  -8  -7  525.57   19.04
   3   8  -7  439.83   21.88
   3  -8  -7  487.76   20.59
   3   8  -6  533.76   24.03
   3  -8  -6  552.21   22.61
   3  -8  -6  576.69   28.09
  -3  -8   6  571.17   22.82
  -3   8   6  574.00   21.42
  -3   8   6  578.90   21.70
  -3   8   6  617.69   23.64
  -3   8   6  546.97   22.58
   3  -8  -6  572.52   21.23
   3  -8  -6  580.18   21.16
   3   8  -6  449.36   30.02
   3   8  -6  604.19   21.48
   3  -8  -6  487.16   22.81
   3   8  -6  450.74   31.97
   3   8  -5   84.97    6.79
   3  -8  -5   88.41    5.97
  -3   8   5  108.36    6.94
  -3   8   5   96.79    5.55
  -3   8   5   89.59    5.85
   3  -8  -5  110.92   10.12
  -3  -8   5  100.79    6.23
  -3   8   5   94.80    6.53
   3  -8  -5   92.18    5.14
   3  -8  -5   97.51    5.16
   3   8  -5  114.06    5.88
   3   8  -5   93.90    5.32
   3  -8  -5   92.40    6.44
   3  -8  -4   19.38    2.98
  -3   8   4   15.92    3.26
  -3   8   4   22.66    3.07
  -3   8   4   13.49    3.38
  -3  -8   4   18.06    2.94
   3   8  -4   15.36    2.00
  -3   8   4   18.30    3.67
   3  -8  -4   14.94    2.36
   3  -8  -4   18.77    2.47
   3  -8  -4   17.15    5.67
   3   8  -4   18.94    2.50
   3   8  -4   21.25    3.18
   3   8  -4   14.26   11.05
   3  -8  -4   17.06    3.01
   3  -8  -3  156.88    7.90
  -3   8   3  151.88    7.91
  -3   8   3  144.85    7.57
   3  -8  -3  159.33   10.61
  -3  -8   3  156.49    7.65
   3   8  -3  159.17    6.89
  -3   8   3  149.81    7.34
   3  -8  -3  142.66    6.74
  -3   8   3  155.57    8.80
   3  -8  -3  151.12    6.83
   3   8  -3  162.60    7.09
   3  -8  -3  155.73    7.17
   3   8  -3  146.65    9.85
   3   8  -3  151.36   13.76
   3   8  -2  174.04    7.11
   3  -8  -2  174.44    8.39
  -3   8   2  167.86    8.23
   3  -8  -2  186.20   10.72
   3   8  -2  189.23    7.76
  -3   8   2  157.98    7.86
   3  -8  -2  173.69    7.49
   3  -8  -2  174.59    7.42
  -3   8   2  163.89    9.41
   3   8  -2  184.37    7.65
   3  -8  -2  179.53    7.71
   3   8  -2  203.59   14.29
   3   8  -2  197.50   10.27
   3   8  -1  178.70    7.24
   3   8  -1  176.08   12.23
  -3   8   1  168.47    8.25
   3  -8  -1  171.15   10.02
   3  -8  -1  155.57    8.59
   3   8  -1  181.26    7.78
  -3   8   1  159.92    7.82
   3  -8  -1  169.89    7.50
  -3   8   1  173.89    9.70
   3  -8  -1  164.12    7.31
   3   8  -1  184.49    7.44
   3  -8  -1  158.01    7.48
   3   8  -1  203.10    9.71
   3   8  -1  212.50   13.68
   3   8   0  903.21   36.90
   3   8   0  924.02   31.63
  -3   8   0  731.95   35.46
  -3   8   0  819.48   32.24
   3  -8   0  828.10   33.54
   3  -8   0  910.30   34.38
  -3   8   0  834.75   32.09
  -3  -8   0  966.51   36.34
   3  -8   0  872.43   31.73
   3   8   0 1196.16   33.09
   3   8   0  981.56   33.55
   3  -8   0  849.01   31.81
  -3   8   0  769.81   32.37
   3   8   0 1136.66   38.40
   3   8   1  391.24   20.51
   3   8   1  441.84   15.87
  -3   8  -1  343.78   19.37
   3   8   1  427.80   16.00
   3  -8   1  443.54   16.11
  -3   8  -1  371.66   16.36
   3  -8   1  401.23   18.03
   3   8   1  459.22   16.27
  -3   8  -1  379.94   16.20
  -3  -8  -1  488.59   21.19
   3  -8   1  394.95   15.79
  -3   8  -1  269.02   20.97
   3   8   1  535.19   16.87
  -3   8  -1  437.30   16.93
   3  -8   1  386.89   15.93
   3   8   1  480.06   21.41
   3   8   1  433.96   17.29
   3   8   2 1023.52   35.48
   3   8   2  932.42   40.45
  -3   8  -2  901.08   39.38
   3  -8   2 1005.31   35.63
  -3  -8  -2 1129.84   41.75
   3  -8   2  994.43   38.22
  -3   8  -2  898.13   35.76
   3   8   2 1083.96   35.85
   3  -8   2  908.55   35.31
  -3   8  -2  704.22   40.60
   3   8   2 1093.19   36.05
  -3   8  -2 1285.12   37.52
   3  -8   2  896.26   35.48
   3   8   2 1193.14   41.90
  -3   8  -3  474.77   22.75
   3  -8   3  496.24   19.56
   3  -8   3  507.34   22.28
  -3  -8  -3  563.71   25.72
  -3  -8  -3  519.41   23.12
  -3   8  -3  515.66   19.91
   3   8   3  558.56   19.64
   3  -8   3  508.00   19.36
   3   8   3  509.57   24.69
   3   8   3  547.57   19.51
   3   8   4  364.34   20.17
   3   8   4  416.01   15.09
   3  -8   4  408.67   15.27
   3  -8   4  340.91   17.55
  -3  -8  -4  352.82   18.41
  -3  -8  -4  375.39   20.96
  -3   8  -4  378.49   18.13
  -3   8  -4  380.97   15.43
   3   8   4  395.66   14.99
  -3   8  -4  319.23   22.06
   3  -8   4  359.91   15.08
   3   8   5   45.38    3.63
   3   8   5   40.65    8.19
   3  -8   5   45.53    4.13
   3  -8   5   39.46    5.45
  -3   8  -5   46.06    5.41
  -3   8  -5   42.41    6.28
  -3   8  -5   31.33   12.02
  -3   8  -5   39.18    3.64
   3  -8   5   38.36    3.86
  -3   8  -5   43.68    4.05
   3   8   5   43.55    3.49
   3   8   6    3.58    2.45
   3   8   6    0.26    2.02
  -3   8  -6   -0.57    2.66
   3  -8   6    1.71    2.91
  -3   8  -6   -8.57   11.41
   3  -8   6    0.75    2.67
   3   8   7   30.29    3.05
  -3   8  -7   25.53    3.76
   3  -8   7   20.60    3.38
  -3  -8  -7   27.95    3.35
  -3   8  -7   24.09   11.44
   3  -8   7   34.20    3.50
   3  -8   7   28.31    3.43
   3   8   8   72.28    4.18
  -3   8  -8   76.62    4.56
   3  -8   8   76.86    4.48
  -3  -8  -8   69.82    4.49
  -3  -8  -8   69.24    6.79
  -3   8  -8   70.22   11.52
   3  -8   8   84.71    4.38
   3  -8   8   69.86    4.28
  -3   8  -9  182.45    7.47
  -3  -8  -9  169.17    7.41
   3  -8   9  168.33    7.06
  -3  -8  -9  137.14    8.95
  -3   8  -9  119.57   11.71
   3  -8   9  195.17    7.13
   3  -8   9  190.37    7.29
   3  -9 -11   18.48    2.63
  -3   9  11   15.04    2.45
   3  -9 -11   14.74    1.98
  -3  -9  11   14.58    1.87
   3  -9 -11   15.85    3.31
   3   9 -11   10.90    8.14
  -3   9  10   43.92    3.43
  -3   9  10   37.40    3.59
   3  -9 -10   38.32    3.27
   3  -9 -10   38.72    3.09
   3  -9 -10   44.26    4.09
  -3  -9  10   42.50    3.12
   3   9 -10   29.44   11.45
   3  -9  -9  219.66   10.24
   3  -9  -9  215.10    8.97
   3  -9  -9  200.69    9.01
  -3   9   9  206.73    9.05
  -3   9   9  206.13    9.34
   3   9  -9  197.52    9.25
  -3   9   8   21.16    3.63
  -3   9   8   19.42    3.19
   3  -9  -8   19.50    3.05
   3  -9  -8   22.19    2.98
   3  -9  -7 1059.14   36.75
   3  -9  -7 1059.09   36.65
  -3  -9   7 1019.80   38.58
   3  -9  -7  867.45   43.94
  -3   9   7  979.02   36.70
  -3   9   7 1090.11   38.97
   3   9  -7  792.61   45.31
  -3   9   6   88.35    5.41
  -3   9   6   93.93    5.99
  -3   9   6   94.01    6.60
   3  -9  -6   95.45    5.17
   3  -9  -6   87.50    5.08
   3  -9  -6   91.26   10.65
  -3  -9   6   93.44    6.38
   3   9  -6   94.30    5.45
   3   9  -6   85.91   14.68
   3  -9  -6   70.39    7.32
  -3   9   5    7.08    2.81
  -3   9   5    5.76    3.45
  -3   9   5   11.27    3.19
  -3  -9   5    9.37    2.82
   3  -9  -5   13.58    6.31
  -3   9   5   13.47    3.30
   3  -9  -5    9.03    2.33
   3  -9  -5   10.30    2.42
   3   9  -5   12.00    2.64
   3   9  -5   11.22    3.06
   3  -9  -5   10.01    4.20
   3   9  -5    8.06   11.36
  -3   9   4    1.18    3.28
  -3   9   4    0.29    2.51
  -3  -9   4   -1.09    2.10
   3   9  -4   -0.45    1.73
   3   9  -4    2.44    5.47
   3  -9  -4    2.61    5.19
   3  -9  -4    0.33    1.95
   3  -9  -4   -2.30    1.99
  -3   9   4   -0.39    3.11
   3   9  -4   -0.51    2.16
   3   9  -4    0.62    2.86
   3   9  -4   -6.87   10.20
   3  -9  -4   -0.98    2.85
  -3   9   3  641.45   25.02
  -3   9   3  639.35   25.48
   3  -9  -3  696.07   29.51
   3   9  -3  717.76   24.88
  -3   9   3  628.01   25.21
   3  -9  -3  657.44   24.67
  -3   9   3  665.07   26.95
   3  -9  -3  637.02   24.50
   3   9  -3  909.71   26.60
   3   9  -3  710.90   25.11
   3  -9  -3  693.39   25.30
   3   9  -3  576.41   35.09
   3   9  -3  828.85   33.48
  -3   9   3  660.21   24.87
   3   9  -3  752.44   28.44
   3   9  -2   28.73    2.30
  -3   9   2   28.15    3.79
   3   9  -2   28.68    2.90
   3   9  -2   29.45    5.16
  -3   9   2   24.41    3.00
  -3   9   2   20.85    5.83
   3  -9  -2   22.06    5.23
   3  -9  -2   28.32    2.71
  -3   9   2   30.40    4.48
   3  -9  -2   22.68    2.43
   3   9  -2   43.34    4.30
   3   9  -2   24.63    2.67
  -3   9   2   29.34    2.90
   3  -9  -2   28.26    2.93
   3   9  -1   22.78    2.37
   3   9  -1   32.16    7.49
  -3   9   1   12.54    5.32
  -3   9   1   20.93    3.79
   3   9  -1   26.16    2.95
  -3   9   1   21.43    2.95
  -3  -9   1   30.28    5.74
   3  -9  -1   21.86    2.55
   3  -9  -1   29.03    5.12
   3   9  -1   38.36    4.81
   3   9  -1   23.79    2.44
   3   9  -1   33.18    9.04
   3   9  -1   26.10    4.99
  -3   9   1   24.02    2.99
   3   9  -1   20.57   11.84
   3  -9  -1   20.82    2.61
   3   9   0  262.26   10.24
   3   9   0  244.48   14.72
  -3   9   0  233.82   11.08
   3  -9   0  248.94   13.09
   3  -9   0  220.64   11.67
  -3   9   0  243.04   10.70
   3   9   0  257.88   10.76
  -3  -9   0  279.62   15.14
   3  -9   0  244.19   10.16
   3  -9   0  242.11   10.31
  -3   9   0  223.03   10.84
   3   9   0  291.37   15.87
   3   9   0  279.44   12.17
   3   9   1  144.51    6.63
   3   9   1  152.16   11.11
  -3   9  -1  123.93   10.24
  -3   9  -1  128.46    7.59
   3  -9   1  147.86    6.91
   3  -9   1  139.06    8.70
  -3  -9  -1  148.12   11.36
   3   9   1  154.76    7.19
  -3   9  -1  125.88    6.99
   3  -9   1  136.29    6.51
   3   9   1  190.42    7.99
  -3   9  -1  155.70    8.13
   3  -9   1  140.19    6.78
  -3   9  -1  117.72    7.51
   3   9   1  158.15    8.48
   3   9   1  176.20   12.33
   3   9   2    7.33    5.88
   3   9   2    8.71    2.39
  -3   9  -2    6.22    4.08
   3  -9   2    8.51    2.80
   3  -9   2    8.22    3.59
   3   9   2    6.60    2.59
  -3   9  -2    8.43    2.81
  -3  -9  -2    6.52    5.70
   3   9   2    9.14    2.86
   3  -9   2    6.79    2.11
   3  -9   2    6.66    2.36
   3   9   2    3.82    7.39
  -3   9  -3  108.16    8.56
   3  -9   3  110.11    5.88
   3  -9   3  103.71    8.21
  -3  -9  -3  133.29   11.34
  -3  -9  -3  110.86    8.79
   3   9   3  124.96    6.09
  -3   9  -3  107.30    6.27
   3  -9   3  100.84    5.55
  -3   9  -3   77.78   13.83
  -3   9  -3  113.43    6.31
   3   9   3  130.88   12.18
   3   9   3  112.28   10.08
   3   9   4   77.05    4.75
   3  -9   4   57.65    6.62
   3  -9   4   69.50    4.74
  -3   9  -4   55.10   13.15
   3  -9   4   75.27    4.74
  -3   9  -4   69.19    4.97
   3   9   4   74.13    4.65
   3   9   5  740.10   26.11
  -3   9  -5  705.85   26.36
   3   9   5  697.77   25.86
   3  -9   5  761.07   26.07
  -3   9  -5  564.60   32.79
  -3   9  -5  623.92   25.92
   3  -9   5  736.58   26.07
   3   9   6   36.54    3.33
  -3   9  -6   35.94    3.59
   3   9   6   29.67    2.95
   3  -9   6   35.06    3.49
  -3  -9  -6   29.98    3.19
  -3   9  -6   32.14   11.59
   3  -9   6   34.59    3.34
   3   9   7   48.10    3.61
  -3   9  -7   51.34    3.89
   3  -9   7   56.90    3.86
  -3  -9  -7   46.15    3.37
  -3  -9  -7   48.56    3.66
  -3   9  -7   42.96   11.23
   3  -9   7   55.56    3.63
   3  -9   7   55.28    3.69
   3   9   8   23.37    2.41
  -3   9  -8   23.73    2.63
   3  -9   8   23.91    2.58
  -3  -9  -8   23.43    2.49
  -3  -9  -8   21.40    2.20
  -3  -9  -8   20.55    4.64
  -3   9  -8   22.05    8.65
   3  -9   8   30.19    2.37
   3  -9   8   25.56    2.34
   3 -10 -10   51.69    3.65
  -3  10  10   55.46    3.58
  -3  10  10   43.69    3.04
   3 -10 -10   48.44    3.01
   3 -10 -10   51.04    3.00
  -3 -10  10   44.81    2.90
   3  10 -10   41.55    8.17
   3  10 -10   37.21    5.15
   3 -10  -9   58.17    4.47
  -3  10   9   50.07    3.57
  -3  10   9   55.44    4.09
   3 -10  -9   48.85    3.43
   3 -10  -9   54.89    3.38
  -3  10   9   43.97    2.82
   3  10  -9   44.43   10.41
   3 -10  -8   89.40    4.99
   3 -10  -8   98.17    5.07
   3 -10  -8  100.02    6.32
  -3  10   8   96.40    5.25
  -3  10   8   96.81    5.80
   3  10  -8   88.15   12.83
  -3  10   7   25.67    3.23
   3 -10  -7   25.90    2.92
   3 -10  -7   22.97    2.81
   3  10  -7   24.22    3.19
   3  10  -7   23.79   10.92
  -3  10   6    8.82    2.80
  -3  10   6    6.82    3.52
  -3 -10   6   11.42    3.02
   3  10  -6   15.20    6.71
   3 -10  -6    8.79    2.34
   3 -10  -6    7.02    6.66
   3 -10  -6    7.67    2.41
   3  10  -6    9.17    2.56
   3  10  -6   14.62   10.80
  -3  10   5 1236.57   44.84
  -3  10   5 1256.51   45.43
   3 -10  -5 1139.45   50.77
   3 -10  -5 1235.41   44.54
   3 -10  -5 1189.16   44.40
   3  10  -5 1525.12   46.07
   3  10  -5 1337.60   45.30
   3 -10  -5 1153.18   46.40
   3  10  -5 1301.75   48.79
   3  10  -5 1405.08   53.30
  -3  10   4    9.94    2.81
  -3  10   4   18.07    3.70
   3  10  -4   16.08    2.26
   3  10  -4   15.87    5.78
   3 -10  -4    8.33    2.17
   3 -10  -4   10.29    2.04
   3 -10  -4   10.65    5.93
  -3  10   4    9.20    3.48
   3  10  -4   10.07    2.58
   3  10  -4   13.59    3.28
   3 -10  -4   10.00    3.46
   3  10  -4   10.09    9.72
  -3  10   3  208.49   14.35
  -3  10   3  254.27   11.14
  -3  10   3  257.72   11.92
   3 -10  -3  282.36   15.86
   3  10  -3  288.88   11.13
   3 -10  -3  259.65   10.77
   3 -10  -3  254.78   10.56
   3  10  -3  344.37   12.59
   3  10  -3  289.61   11.43
   3 -10  -3  265.64   11.49
  -3  10   3  262.46   11.06
   3  10  -3  321.40   14.33
   3  10  -2  862.63   31.52
  -3  10   2  699.74   35.82
  -3  10   2  807.99   32.02
  -3  10   2  852.84   32.73
   3 -10  -2  922.45   36.85
   3  10  -2  970.02   32.44
  -3  10   2  832.60   32.24
   3 -10  -2  851.51   31.72
  -3 -10   2  928.60   36.90
   3  10  -2  932.20   32.25
  -3  10   2  873.66   32.13
   3 -10  -2  870.80   32.14
   3  10  -2  976.95   34.70
   3  10  -2 1016.34   38.81
   3  10  -1  565.84   20.36
  -3  10   1  466.61   24.50
  -3  10   1  519.96   21.33
   3 -10  -1  566.83   24.66
   3  10  -1  581.68   21.03
  -3  10   1  525.62   20.82
   3 -10  -1  541.39   20.33
  -3 -10   1  581.64   25.60
   3  10  -1  560.64   20.54
   3 -10  -1  548.08   20.60
   3  10  -1  625.79   23.02
  -3  10   1  535.63   20.80
   3  10  -1  659.58   27.05
   3  10   0    4.00    2.06
   3 -10   0    3.40    2.40
  -3  10   0    2.06    3.53
  -3  10   0    3.44    2.38
   3  10   0    5.00    2.71
  -3  10   0    3.90    2.51
  -3  10   0    9.12    4.50
   3 -10   0    6.01    2.09
  -3 -10   0    9.66    5.50
  -3  10   0    7.68    3.55
   3  10   0    7.22    3.75
   3  10   0   10.29    4.00
   3 -10   0    6.06    2.14
   3  10   0    2.73    6.79
   3  10   1   28.01    3.02
  -3  10  -1   25.70    4.18
   3 -10   1   24.79    3.12
   3  10   1   32.79    3.49
  -3  10  -1   27.07    3.26
  -3  10  -1   26.20    3.74
   3 -10   1   27.46    2.81
  -3 -10  -1   34.75    6.84
   3  10   1   38.86    4.42
  -3  10  -1   36.83    4.59
   3 -10   1   27.53    2.91
   3  10   1   34.95    8.32
   3  10   2   39.65    3.46
  -3  10  -2   28.99    5.34
   3 -10   2   36.80    3.51
   3 -10   2   29.33    4.60
   3  10   2   39.52    3.74
  -3  10  -2   37.17    3.66
   3 -10   2   39.30    3.13
  -3 -10  -2   42.21    7.58
   3  10   2   44.32    4.22
  -3  10  -2   50.16    4.79
   3 -10   2   36.04    3.25
  -3  10  -2   38.01    4.45
   3  10   2   39.35    8.73
   3  10   3  129.36    6.48
  -3  10  -3  113.29    6.34
   3 -10   3  118.82    6.00
  -3  10  -3   99.94    7.20
  -3  10  -3  126.46    6.35
   3 -10   3  106.04    8.05
  -3 -10  -3  132.18   11.69
   3  10   4  189.23    8.39
   3 -10   4  186.85    8.10
   3 -10   4  184.03    8.04
  -3  10  -4  184.46    8.45
   3  10   4  173.44    8.21
   3  10   5   80.97    4.89
   3 -10   5   83.90    4.77
  -3  10  -5   65.46    4.56
   3 -10   5   84.39    4.64
  -3  10  -5   79.62    4.93
   3  10   5   77.86    4.67
   3 -10   6    5.89    2.43
   3 -10   6    2.48    2.02
   3  10   6    1.93    2.32
   3  10   6    1.18    1.91
  -3  10  -6    3.17    2.31
   3  10   7  702.28   25.36
  -3  10  -7  736.93   25.38
   3 -10   7  785.96   25.27
   3 -10   7  783.08   25.11
   3 -10   7  762.77   25.13
   3 -11  -9   12.21    2.38
   3  11  -9   12.19    3.63
  -3  11   9   14.38    2.59
  -3  11   9   10.93    1.90
   3 -11  -9   13.78    1.81
   3 -11  -9   13.14    1.75
  -3 -11   9   11.81    1.91
   3  11  -9   13.59    6.27
   3 -11  -8  214.41    9.08
  -3  11   8  195.82    8.18
  -3  11   8  208.94    8.83
   3 -11  -8  202.07    8.11
   3 -11  -8  182.40    7.89
   3  11  -8  192.71   10.49
  -3  11   8  193.48    7.92
  -3  11   7    4.11    2.34
   3 -11  -7    1.12    1.82
   3 -11  -7    1.60    1.74
   3  11  -7    0.20    4.60
   3  11  -7    2.94    2.27
  -3  11   6    2.72    2.31
   3 -11  -6    3.05    2.02
   3 -11  -6    4.06    1.80
  -3  11   6    5.15    2.50
   3  11  -6    4.31    5.17
   3  11  -6    4.42    2.43
   3  11  -6   12.13    8.33
  -3  11   5    0.61    2.46
  -3  11   5   -3.00    3.66
   3 -11  -5    0.46    1.67
   3 -11  -5    2.17    1.90
   3  11  -5   -3.39    4.92
   3  11  -5   -0.45    2.47
   3  11  -5   -3.12    3.30
   3 -11  -5    2.16    4.26
  -3  11   4  418.90   17.02
  -3  11   4  393.10   16.11
   3 -11  -4  390.56   15.77
  -3 -11   4  433.70   20.68
   3  11  -4  420.05   15.85
   3  11  -4  491.24   17.39
   3  11  -4  434.73   16.62
   3 -11  -4  375.56   17.26
   3  11  -4  527.46   23.26
   3  11  -4  518.50   19.65
  -3  11   3    2.66    3.46
  -3  11   3    0.90    2.47
   3  11  -3    4.83    2.07
   3 -11  -3   -0.37    5.16
  -3 -11   3    6.66    4.44
   3 -11  -3    3.74    1.89
   3  11  -3    5.33    2.36
   3  11  -3    5.38    3.15
   3 -11  -3    3.57    3.08
   3  11  -3   -2.02    4.42
   3  11  -3    3.98    7.66
   3  11  -2  522.98   19.82
  -3  11   2  516.98   20.30
  -3  11   2  547.70   21.21
   3 -11  -2  497.19   24.66
   3 -11  -2  503.44   19.91
  -3 -11   2  551.19   25.32
   3 -11  -2  534.63   20.63
   3  11  -2  660.83   23.20
   3  11  -2  627.94   26.25
  -3  11   2  529.07   20.36
   3  11  -2  661.07   21.88
   3  11  -2  547.66   20.50
   3  11  -2  580.61   20.75
   3  11  -1    4.96    1.96
   3 -11  -1    4.74    2.37
  -3  11   1    6.16    3.71
  -3  11   1    6.45    2.58
   3  11  -1    9.88    2.69
  -3  11   1    6.63    2.41
   3 -11  -1    5.84    1.97
  -3 -11   1    7.23    5.48
   3  11  -1    7.52    1.82
  -3  11   1    1.82    3.33
   3  11  -1   10.24    4.01
   3 -11  -1    7.03    2.41
   3  11  -1    6.54    7.09
   3  11  -1    6.36    3.91
  -3  11   1    3.69    2.13
   3  11   0  556.27   21.16
  -3  11   0  546.05   21.94
   3 -11   0  562.27   21.06
  -3 -11   0  571.24   26.80
   3 -11   0  529.22   20.77
   3 -11   0  565.36   21.12
  -3  11   0  582.92   21.54
   3  11   0  623.94   23.39
   3  11   0  667.64   27.08
  -3  11   0  679.01   22.85
   3  11   0  594.38   21.86
  -3  11   0  548.50   21.34
  -3  11  -1   45.32    3.69
   3 -11   1   44.62    3.52
   3 -11   1   40.74    3.08
   3 -11   1   47.01    3.42
  -3  11  -1   44.65    3.94
   3  11   1   52.23    8.21
   3  11   1   44.76    3.65
   3  11   2  292.75   12.55
   3 -11   2  288.42   12.19
   3  11   2  399.22   14.01
  -3  11  -2  364.07   13.40
   3  11   2  380.22   18.20
   3 -11   2  287.20   12.14
  -3  11  -2  299.14   12.93
  -3  11  -2  303.95   12.53
   3  11   2  293.16   12.81
  -3  11  -3   11.24    2.51
   3 -11   3   10.84    2.28
  -3  11  -3   11.28    2.56
   3  11   3    9.60    2.82
  -3  11  -3    7.18    2.96
   3  11   4   44.01    3.75
   3 -11   4   47.28    3.46
  -3  11  -4   37.78    3.61
   3 -11   4   49.07    3.23
  -3  11  -4   38.04    4.12
   3  11   4   44.01    3.61
  -3  11  -4   47.03    3.54
   3  11   5   59.65    4.10
   3 -11   5   69.60    3.93
  -3  11  -5   53.97    3.73
   3 -11   5   71.99    3.71
  -3  11  -5   60.84    4.45
  -3  11  -5   69.49    4.01
   3  11   5   62.96    3.95
   3  11   6   25.70    2.66
  -3  11  -6   18.41    2.48
   3  11   6   22.21    2.19
  -3  11  -6   24.41    2.32
   3 -11   6   25.87    2.43
   3 -11   6   24.86    2.22
   3 -11   6   24.62    2.05
   3  12  -8   13.12    3.12
  -3  12   8   10.06    2.38
  -3  12   8    5.46    1.49
   3 -12  -8    9.90    1.50
   3  12  -8   10.30    4.84
   3 -12  -8   10.77    2.02
  -3  12   8   10.37    1.40
   3 -12  -7   62.11    4.05
  -3  12   7   54.83    3.39
   3 -12  -7   59.44    3.27
   3  12  -7   61.89    3.97
   3  12  -7   81.03    5.56
   3  12  -7   73.55    7.42
  -3  12   6   19.65    2.52
   3  12  -6   33.42    4.56
  -3  12   6   25.37    2.52
  -3 -12   6   23.48    2.55
   3 -12  -6   25.16    2.23
   3  12  -6   19.89    2.71
   3  12  -6   35.02    7.06
  -3  12   5  215.30   11.24
  -3  12   5  292.78   11.87
  -3  12   5  281.67   10.93
   3 -12  -5  272.93   10.68
   3  12  -5  282.71   11.50
   3  12  -5  374.46   16.70
   3  12  -5  359.99   13.72
   3  12  -4   11.26    1.88
  -3  12   4   11.14    2.35
  -3  12   4   11.84    3.42
   3 -12  -4    9.96    1.89
   3  12  -4   10.51    2.50
   3  12  -4   15.95    3.27
   3  12  -4   14.18    4.27
   3 -12  -4   10.54    4.12
   3  12  -4   15.28    6.91
   3  12  -3   19.59    2.55
  -3  12   3   16.07    2.61
  -3  12   3   19.88    3.78
   3 -12  -3   20.53    2.43
   3 -12  -3   17.96    2.12
   3  12  -3   22.69    3.62
   3  12  -3   21.35    2.79
   3  12  -3   24.77    4.64
   3 -12  -3   16.28    3.65
   3  12  -3   27.46    7.14
   3  12  -2  306.64   12.03
  -3  12   2  283.38   11.64
   3 -12  -2  307.34   11.58
  -3  12   2  282.82   12.53
   3 -12  -2  275.56   11.23
  -3  12   2  343.24   13.16
   3  12  -2  337.51   12.95
   3  12  -2  271.27   11.70
   3 -12  -2  267.15   12.20
   3  12  -2  353.47   14.09
   3  12  -2  334.21   16.64
   3  12  -1    9.48    2.04
   3 -12  -1    9.89    2.39
  -3  12   1    8.45    2.40
  -3  12   1    6.81    3.58
  -3  12   1   10.90    3.37
   3  12  -1    9.79    3.25
   3 -12  -1    7.51    1.75
   3 -12  -1    8.16    2.49
   3  12  -1    8.28    6.65
  -3  12   1    7.04    2.13
   3  12  -1    9.34    3.82
   3  12  -1    9.69    2.66
   3  12   0  237.29   10.56
  -3  12   0  254.23   10.58
   3 -12   0  261.08   10.55
  -3  12   0  363.41   12.87
   3  12   0  313.37   12.14
   3 -12   0  256.40   10.69
   3  12   0  315.05   15.75
  -3  12   0  266.51   10.81
   3  12   0  253.22   11.24
  -3  12   0  248.73   10.68
   3  12   1   72.37    4.52
   3 -12   1   77.81    4.39
   3  12   1   80.79    5.28
   3  12   1   91.75    9.10
   3 -12   1   74.76    4.28
  -3  12  -1   79.58    4.56
  -3  12  -1   76.02    4.46
   3  12   2  147.50    7.24
   3 -12   2  150.38    6.89
  -3  12  -2  164.73    7.26
   3 -12   2  157.78    6.77
  -3  12  -2  173.41    7.34
  -3  12  -2  158.83    7.00
   3  12   2  147.10    7.39
   3 -12   3  222.35    8.56
  -3  12  -3  237.54    9.06
  -3  12  -3  198.29    9.21
   3  12   3  189.10    9.01
  -3  12  -3  211.72    8.69
   3  12   3  208.40    9.17
   3 -12   4   18.09    2.31
  -3  12  -4   20.13    2.43
  -3  12  -4   20.81    2.39
   3 -12   4   24.48    2.06
   3  12   4   19.41    2.55
  -3  12  -4   21.42    2.27
   3  12   5   13.24    2.26
  -3  12  -5   11.88    1.66
   3  12   5   11.29    1.91
   3 -12   5   10.94    1.82
  -3  12  -5   10.94    1.58
   3 -12   5   10.60    1.46
   3 -13  -6  108.97    4.47
   3  13  -6  154.17    6.33
   3  13  -6  152.98    8.00
   3  13  -6  104.71    5.13
  -3  13   6  102.27    4.52
   3 -13  -6   90.02    4.77
  -3  13   5  133.53    6.52
  -3  13   5  151.90    7.09
  -3 -13   5  166.39    6.47
   3 -13  -5  142.69    5.96
   3  13  -5  128.53    6.60
  -3  13   5  165.32    7.43
   3  13  -5  196.01    8.03
   3  13  -5  177.12    9.71
  -3  13   4   18.32    2.83
  -3  13   4   19.76    2.10
  -3  13   4   27.29    3.44
   3 -13  -4   19.91    1.83
   3  13  -4   20.55    2.50
  -3  13   4   26.49    3.31
   3  13  -4   28.51    3.66
   3  13  -4   32.91    5.72
   3  13  -3  357.29   14.11
  -3  13   3  374.66   14.92
  -3  13   3  374.06   14.00
   3 -13  -3  341.95   13.68
  -3  13   3  438.20   15.44
   3  13  -3  399.03   15.10
   3  13  -3  488.42   16.17
   3  13  -3  444.34   18.03
  -3  13   2   -0.33    1.76
   3 -13  -2    1.25    1.71
  -3  13   2    0.19    2.94
   3  13  -2   -1.90    2.66
  -3  13   2    1.02    2.94
   3 -13  -2   -0.93    2.85
   3  13  -2    0.78    3.14
   3  13  -2    3.33    5.46
   3  13  -2   -1.16    1.85
   3 -13  -1    2.70    1.86
  -3  13   1    2.13    1.79
  -3  13   1    2.83    3.14
   3  13  -1   -0.49    2.64
   3 -13  -1    0.08    2.33
   3  13  -1   -2.88    5.53
   3  13  -1    8.20    2.31
   3  13   0   22.26    2.39
  -3  13   0   24.54    2.34
   3 -13   0   24.24    2.43
  -3  13   0   36.56    3.63
   3 -13   0   23.34    2.73
   3  13   0   25.66    5.94
   3  13   0   25.23    2.91
   3  13   1   79.50    4.54
  -3  13  -1   88.46    4.33
   3 -13   1   97.89    4.50
  -3  13  -1  104.76    4.90
   3 -13   1   85.98    4.57
   3  13   2    5.90    2.10
   3 -13   2    6.72    1.83
  -3  13  -2    6.34    2.15
  -3  13  -2    9.22    1.77
   3 -13   2    6.05    1.68
   3  13   2    5.14    2.24
   3 -13   3    8.02    1.52
  -3  13  -3    6.43    1.79
   3  13   3    7.12    2.08
   3  13   3    7.70    2.06
  -3  14   3   52.86    3.75
   3  14  -3   50.47    4.96
  -3  14   3   38.85    3.04
   3  14  -2    1.88    3.55
   3  14  -2    1.21    1.41
  -3  14   2   -0.73    1.97
  -3  14   1  269.36    9.86
   3 -14  -1  246.72    9.07
  -3  14   0  502.29   16.49
   3 -14   0  488.48   16.15
   3  14   0  485.33   16.65
  -4   0  14   81.85    4.13
   4   0 -14   80.65    4.25
  -4   0  13    3.86    2.98
  -4   0  13    1.53    2.09
   4   0 -13    0.90    2.30
  -4   0  13    0.43    2.07
  -4   0  12    1.19    2.29
  -4   0  12    0.83    2.10
   4   0 -12    0.22    2.62
   4   0 -11    0.23    3.01
   4   0 -11    0.69    2.73
  -4   0  11    0.48    2.23
  -4   0  11    1.90    3.04
  -4   0  11    0.55    2.10
   4   0 -11    2.16    2.77
   4   0 -10  233.79   11.96
  -4   0  10  219.61   11.73
  -4   0  10  208.07   11.21
   4   0 -10  240.41   10.52
   4   0 -10  245.73    9.66
  -4   0  10  242.34   11.84
  -4   0  10  245.16    9.62
   4   0 -10  208.71   11.66
  -4   0   9    1.50    2.05
  -4   0   9    2.89    3.46
  -4   0   9   -3.09    2.87
   4   0  -9    0.39    1.88
  -4   0   9   -1.34    3.09
   4   0  -9    0.56    2.57
   4   0  -9    5.52   13.81
   4   0  -9   -0.21    2.63
   4   0  -9    1.67    2.91
  -4   0   8 7671.27  253.80
  -4   0   8 6722.40  256.07
   4   0  -8 7263.47  254.50
   4   0  -8 7875.15  254.02
   4   0  -8 7450.91  256.05
   4   0  -8 6667.83  264.93
   4   0  -8 7041.95  255.95
  -4   0   7    0.73    3.31
   4   0  -7    1.23   14.13
   4   0  -7    1.93    2.40
   4   0  -7   -0.17    2.73
  -4   0   6  143.74    7.27
  -4   0   6  145.72    8.19
   4   0  -6  144.74    7.58
   4   0  -6  121.28    7.26
  -4   0   5    1.08    2.26
  -4   0   5    0.66    3.57
   4   0  -5    0.26    2.35
   4   0  -5    2.68    2.54
  -4   0   4   41.03    3.60
  -4   0   4   34.76    4.46
   4   0  -4   43.41    4.12
   4   0  -4   37.59    3.55
  -4   0   3    1.83    2.56
   4   0  -3    1.85    4.84
   4   0  -3    2.31    2.51
   4   0  -3    1.03    2.45
  -4   0   2  160.78    7.25
  -4   0   2  141.14    5.57
   4   0  -2  155.57    8.54
   4   0  -2  148.72    7.43
   4   0  -2  155.83    7.19
   4   0  -1    4.53    3.95
  -4   0   1    1.03    2.87
  -4   0   1    0.75    1.53
   4   0   0   17.38    4.05
  -4   0   0   19.12    2.83
  -4   0   0   17.36    2.39
  -4   0  -1    2.45    1.96
   4   0   1   -0.75    3.69
  -4   0  -1    0.11    2.38
  -4   0  -1   -0.25    2.82
  -4   0  -1    0.99    1.35
  -4   0  -2 9630.98  329.15
  -4   0  -2 9999.00  329.21
   4   0   2 9609.74  329.85
   4   0   2 9447.54  327.67
   4   0   3    2.38    1.75
  -4   0  -3    1.57    2.92
  -4   0  -3    0.55    2.26
   4   0   3   -1.00    3.84
   4   0   3   -0.92    1.65
  -4   0  -3   -0.36    3.22
   4   0   3   -0.19    3.21
   4   0   4  775.42   26.50
  -4   0  -4  711.03   28.70
   4   0   4  661.92   28.27
  -4   0  -4  759.99   28.17
  -4   0  -4  697.50   27.25
   4   0   4  690.77   26.02
  -4   0  -4  706.16   25.74
   4   0   4  711.54   25.69
   4   0   4  728.54   25.95
   4   0   4  814.24   29.70
   4   0   5   -2.82    5.14
   4   0   5    0.08    1.93
   4   0   5    0.62    2.86
  -4   0  -5   -1.69    4.23
  -4   0  -5    2.04    3.05
  -4   0  -5    2.05    2.16
  -4   0  -5    0.76    1.72
  -4   0  -5    5.49    4.42
   4   0   5    2.56    2.49
   4   0   5    0.87    1.77
   4   0   6  360.12   13.98
   4   0   6  378.13   18.61
   4   0   6  377.29   14.53
  -4   0  -6  352.03   18.23
  -4   0  -6  347.93   16.21
  -4   0  -6  340.33   13.67
   4   0   6  340.57   14.27
  -4   0  -6  408.33   16.97
   4   0   6  340.45   13.65
   4   0   7    0.35    5.67
  -4   0  -7    0.23    3.33
   4   0   7    3.02    3.08
  -4   0  -7    2.02    2.04
  -4   0  -7    1.55    5.33
   4   0   7    2.01    3.21
  -4   0  -7    3.95    5.46
   4   0   7    0.34    2.06
   4   0   8   13.19    3.15
   4   0   8   16.83    3.55
  -4   0  -8    8.97    6.06
   4   0   8   14.88    2.48
  -4   0  -8   13.83    2.45
   4   0   9   -0.23    2.41
  -4   0  -9    4.02    5.98
   4   0   9   -1.56    2.03
  -4   0  -9    0.07    1.90
   4   0  10   14.95    2.12
  -4   0 -10   15.21    5.79
   4   0  10   19.18    2.19
  -4   0 -10   18.87    2.15
   4   0  10   18.36    2.16
  -4  -1  14    2.29    2.44
  -4   1  14    2.51    2.23
  -4  -1  14    0.92    1.45
  -4   1  14    1.42    1.72
   4  -1 -14    1.64    1.83
  -4   1  13  363.15   14.01
  -4  -1  13  345.53   13.13
  -4   1  13  338.53   13.19
  -4  -1  13  351.97   13.38
  -4   1  13  370.59   13.66
   4   1 -13  331.72   13.46
   4  -1 -13  352.79   13.93
  -4   1  12    2.09    3.28
   4  -1 -12    2.77    2.77
   4   1 -12    0.30    2.38
  -4  -1  12    0.28    2.01
  -4   1  12    1.02    2.28
  -4  -1  12    2.77    2.14
  -4   1  12   -0.49    2.40
   4   1 -11  186.44   10.51
   4  -1 -11  195.24   10.96
   4   1 -11  183.74   10.75
   4  -1 -11  186.75   10.45
  -4   1  11  184.98   10.63
  -4  -1  11  196.57   10.50
   4  -1 -11  195.42    9.56
   4   1 -11  201.85    9.03
   4  -1 -11  202.03    8.48
  -4   1  11  205.94   10.67
  -4  -1  11  208.55   10.59
  -4   1  11  201.03    8.61
  -4  -1  11  200.45    8.38
  -4  -1  11  207.73    8.69
   4  -1 -10  449.17   20.60
   4   1 -10  477.13   20.50
   4   1 -10  506.94   20.91
   4  -1 -10  452.21   20.30
  -4   1  10  441.03   20.59
  -4   1  10  492.43   18.35
  -4  -1  10  461.58   19.76
  -4  -1  10  445.16   20.14
   4   1 -10  485.77   18.59
   4  -1 -10  459.92   19.13
  -4   1  10  490.48   20.48
   4  -1 -10  491.67   18.26
  -4  -1  10  498.70   17.92
  -4   1  10  503.26   18.16
  -4  -1  10  510.68   18.29
  -4   1   9   58.38    3.80
  -4  -1   9   50.35    5.04
  -4   1   9   45.73    5.57
  -4  -1   9   54.38    4.92
  -4   1   9   52.78    4.66
   4   1  -9   60.01    4.08
   4  -1  -9   57.64    4.67
  -4   1   9   60.06    5.37
   4  -1  -9   52.29    3.75
   4   1  -9   68.73    5.48
   4  -1  -9   54.59    5.34
   4  -1  -9   45.61   16.68
   4   1  -9   56.49    5.15
   4  -1  -9   57.48    5.09
  -4   1   8    1.37    2.00
   4  -1  -8    6.04    2.16
  -4   1   8    1.40    3.04
  -4   1   8    3.84    3.80
  -4  -1   8    1.81    3.29
   4  -1  -8    2.28    2.67
   4  -1  -8    7.55   15.22
   4   1  -8    5.11   14.03
   4   1  -8    3.30    2.13
   4   1  -8    3.21    2.49
   4  -1  -8    7.30    3.09
   4   1  -8    3.09    3.03
   4  -1  -8    3.21    2.64
   4  -1  -7    1.70    1.93
  -4   1   7    0.97    3.63
  -4  -1   7    3.58    3.25
   4  -1  -7    3.84   14.70
   4   1  -7   -2.16    6.55
   4   1  -7    1.80   13.30
   4  -1  -7    2.19    2.41
   4   1  -7    1.68    2.56
   4   1  -7    0.81    2.65
   4  -1  -7    0.69    2.76
  -4   1   6  445.31   17.47
  -4   1   6  452.57   18.47
  -4  -1   6  447.92   18.17
   4  -1  -6  450.76   17.84
   4   1  -6  470.25   17.84
   4   1  -6  415.50   17.57
  -4   1   5  734.38   27.69
  -4   1   5  788.19   28.94
  -4  -1   5  741.34   28.66
   4  -1  -5  795.17   28.23
   4   1  -5  694.54   28.00
   4  -1  -5  711.89   27.65
   4   1  -5  789.89   28.19
  -4   1   4  199.61    8.86
  -4  -1   4  201.57    8.51
  -4   1   4  175.71    9.63
  -4  -1   4  184.95    9.57
   4   1  -4  185.05    9.16
   4  -1  -4  215.13    9.42
   4  -1  -4  196.18    8.83
   4   1  -4  186.05    8.97
  -4  -1   3    3.21    2.16
  -4   1   3    3.12    2.61
  -4   1   3    0.77    3.06
  -4  -1   3    4.35    0.98
   4  -1  -3   -0.64    4.04
   4   1  -3    5.92    5.12
   4  -1  -3    3.26    2.32
   4   1  -3    2.01    2.64
   4  -1  -3    2.92    2.73
   4   1  -3    0.80    2.33
  -4  -1   2   16.63    2.76
  -4   1   2   13.94    3.05
  -4  -1   2   12.12    1.45
   4  -1  -2   13.95    3.93
   4   1  -2   11.99    4.93
   4  -1  -2   15.55    2.85
   4   1  -2   13.56    2.43
   4  -1  -2   11.29    2.52
   4   1  -1 1609.51   55.51
   4  -1  -1 1497.13   54.23
  -4  -1   1 1483.80   53.62
  -4   1   1 1445.98   54.12
  -4   1   1 1482.82   53.06
  -4  -1   1 1668.01   53.23
  -4  -1   0  162.95    7.13
  -4   1   0  153.56    7.79
  -4   1   0  167.89    7.55
  -4  -1   0  175.27    7.36
   4  -1   0  163.32    8.46
   4   1   0  176.03    9.47
  -4  -1   0  177.35    8.24
  -4   1  -1  115.88    6.29
  -4  -1  -1  117.03    5.25
   4  -1   1  123.42    7.15
   4   1   1  139.54    8.26
  -4   1  -1  124.25    6.73
  -4  -1  -1  137.26    6.47
   4  -1   1  126.65    7.55
  -4   1  -1  124.02    6.23
  -4   1  -1  124.82    7.11
  -4  -1  -1  135.40    6.81
  -4   1  -2  302.10   13.12
  -4  -1  -2  302.97   12.75
   4  -1   2  307.66   13.58
  -4   1  -2  302.88   13.12
  -4   1  -2  297.18   11.63
  -4  -1  -2  304.40   12.72
  -4  -1  -2  284.61   11.79
   4   1   2  289.77   14.08
   4  -1   2  310.84   13.36
   4   1   2  292.32   11.53
   4  -1   2  279.31   11.62
   4   1   3  168.62    7.37
  -4   1  -3  186.65    9.54
  -4  -1  -3  184.81    9.05
  -4  -1  -3  165.65    7.92
   4  -1   3  174.44    7.54
   4   1   3  184.21   10.77
   4  -1   3  189.26    9.82
   4   1   3  186.22    7.41
  -4   1  -3  182.39    9.81
  -4  -1  -3  178.01    9.36
   4  -1   3  183.96    9.98
   4   1   4  949.46   32.79
   4  -1   4  957.07   33.03
  -4   1  -4  956.03   35.81
  -4  -1  -4  953.29   35.31
   4  -1   4  960.70   35.45
  -4   1  -4  964.24   34.86
  -4  -1  -4  941.38   34.30
  -4   1  -4  884.11   34.49
  -4   1  -4  921.53   32.35
   4   1   4  885.52   32.38
   4  -1   4  884.23   32.26
   4   1   4  841.19   31.96
   4   1   4 1021.42   36.92
   4  -1   4  891.88   32.47
   4   1   4  883.66   32.29
   4  -1   4 1016.01   35.66
   4  -1   5  120.67    6.01
   4   1   5  129.06   10.09
   4   1   5  123.29    5.82
   4  -1   5  144.09    9.28
   4  -1   5  124.68    6.62
   4   1   5  132.68    6.51
  -4   1  -5  126.66    9.25
  -4  -1  -5  127.73    8.94
   4  -1   5  113.40    8.39
  -4   1  -5  132.83    8.13
  -4  -1  -5  126.11    7.63
  -4   1  -5  112.61    7.26
  -4   1  -5  114.84    5.77
  -4  -1  -5  111.50    5.49
   4   1   5  113.13    5.95
  -4  -1  -5  135.79    8.06
   4  -1   5  115.52    6.03
  -4   1  -5  138.13    8.90
   4   1   5  115.11    6.22
   4  -1   5  120.22    5.78
   4   1   5  111.64    5.42
   4   1   6   -0.37    5.83
   4   1   6    2.12    2.08
   4  -1   6   -0.87    4.86
   4  -1   6    2.50    2.46
   4  -1   6    2.17    3.22
   4   1   6    1.15    2.92
  -4   1  -6    0.70    5.07
  -4  -1  -6    4.20    4.83
   4  -1   6    1.03    3.75
  -4   1  -6    1.55    2.43
  -4   1  -6   -0.23    3.51
  -4  -1  -6    1.26    3.08
  -4   1  -6   -1.50    2.13
  -4  -1  -6    0.93    1.86
   4  -1   6    0.41    2.81
   4   1   6    3.66    3.15
  -4  -1  -6    0.20    4.59
  -4   1  -6   -5.19    5.75
   4  -1   6    1.23    2.11
   4   1   6    1.13    1.75
   4   1   7  366.79   19.42
   4   1   7  346.47   13.65
   4  -1   7  387.83   18.34
  -4   1  -7  337.20   16.16
  -4  -1  -7  333.31   15.66
   4   1   7  371.82   14.06
   4  -1   7  373.75   14.28
  -4   1  -7  339.69   13.55
  -4  -1  -7  328.59   13.24
  -4   1  -7  296.12   18.38
  -4  -1  -7  308.07   18.12
   4   1   7  339.81   14.37
  -4  -1  -7  379.77   16.48
  -4   1  -7  370.17   17.43
   4  -1   7  334.59   14.01
   4  -1   7  338.23   13.51
   4   1   7  324.11   13.24
   4  -1   8  213.85    9.36
   4   1   8  206.28    9.11
   4   1   8  192.82    9.57
  -4   1  -8  206.26   12.79
  -4  -1  -8  225.79   12.08
   4  -1   8  196.57    9.37
   4  -1   8  201.74    8.77
   4   1   8  196.91    8.58
  -4   1  -8  207.10    8.82
  -4  -1  -8  211.82    8.66
   4   1   9  220.25    9.27
   4  -1   9  218.30    9.35
  -4   1  -9  210.93   13.14
  -4  -1  -9  221.96   12.33
   4  -1   9  223.24    9.27
   4   1   9  216.65    9.06
  -4   1  -9  229.79    9.30
  -4  -1  -9  239.91    9.16
   4  -1   9  223.97    9.01
   4  -1  10    0.34    1.74
  -4   1 -10   -2.96    5.88
  -4  -1 -10    2.23    5.06
   4  -1  10    1.14    1.73
   4  -1  10    1.22    1.56
   4   1  10   -0.23    1.79
  -4   1 -10    0.18    1.71
  -4  -1 -10   -0.52    1.53
  -4  -2  14  105.41    5.18
  -4   2  14   95.09    4.69
   4  -2 -14   99.11    4.91
  -4   2  13  813.05   28.40
   4  -2 -13  836.10   28.67
   4   2 -13  718.72   27.71
  -4   2  13  760.43   27.68
  -4  -2  13  758.80   27.64
  -4   2  13  844.90   28.28
  -4   2  12   61.00    4.70
   4  -2 -12   47.47    4.67
   4   2 -12   49.39    3.67
   4  -2 -12   54.22    3.53
  -4   2  12   50.94    3.76
  -4  -2  12   52.03    3.41
  -4  -2  12   46.81    3.50
   4  -2 -11  341.71   16.69
   4   2 -11  379.53   17.00
  -4   2  11  367.05   14.48
  -4   2  11  314.27   16.37
  -4  -2  11  339.11   16.29
   4   2 -11  388.42   14.43
   4  -2 -11  346.94   15.31
  -4   2  11  353.56   16.25
   4  -2 -11  350.82   13.71
   4  -2 -11  372.56   14.21
  -4   2  11  376.42   14.33
  -4  -2  11  362.44   13.86
  -4  -2  11  394.23   14.16
   4   2 -10   46.53    4.80
   4  -2 -10   50.22    5.46
   4   2 -10   51.49    5.29
   4  -2 -10   46.20    4.80
  -4   2  10   47.90    3.95
  -4   2  10   37.47    5.21
  -4  -2  10   51.19    5.05
   4  -2 -10   39.83    4.69
   4   2 -10   53.08    3.74
  -4   2  10   49.66    5.20
   4  -2 -10   49.69    3.24
   4  -2 -10   50.00    3.71
  -4   2  10   47.06    3.75
  -4  -2  10   51.38    3.33
  -4  -2  10   47.99    3.39
  -4   2   9    9.58    2.53
  -4  -2   9    7.04    2.78
  -4   2   9    8.87    3.87
  -4  -2   9    8.39    3.17
  -4   2   9    3.52    2.40
   4   2  -9    7.26    2.28
   4  -2  -9    5.56    1.96
   4  -2  -9    5.43    2.28
  -4   2   9    7.28    3.40
   4  -2  -9   12.04   15.09
   4  -2  -9    5.69    3.14
   4  -2  -9    5.78    2.82
   4   2  -9    5.09    2.90
   4  -2  -9    5.23    3.31
   4   2  -9    4.27    2.90
  -4   2   8   66.39    4.21
  -4   2   8   76.11    5.73
   4  -2  -8   63.48    3.72
   4  -2  -8   75.18    4.28
  -4   2   8   72.25    6.43
  -4  -2   8   65.01    5.16
   4   2  -8   78.95    5.67
   4  -2  -8   73.98    5.87
   4   2  -8   89.27   15.73
   4   2  -8   65.40    5.50
   4  -2  -8   68.36    5.25
  -4   2   7    0.42    2.00
   4  -2  -7    1.07    1.58
   4  -2  -7    0.54    1.95
  -4   2   7    2.25    2.84
   4  -2  -7    4.80   13.12
  -4   2   7    2.45    3.77
  -4  -2   7    2.17    2.96
   4   2  -7   -4.36    6.90
   4   2  -7    2.90   12.89
   4  -2  -7   -1.96    2.34
   4   2  -7    1.79    2.59
   4  -2  -7    0.18    2.79
   4   2  -7    2.71    2.69
   4  -2  -6    0.49    1.93
  -4   2   6    2.19    3.43
  -4  -2   6   -0.32    3.18
   4   2  -6    0.82    2.63
   4  -2  -6    0.13    2.13
   4  -2  -6    0.16    2.54
   4   2  -6    3.71    2.78
  -4   2   5    3.73    2.96
   4  -2  -5    0.52   10.68
  -4   2   5    0.17    3.58
  -4  -2   5    1.66    3.52
   4  -2  -5    1.39    1.90
   4   2  -5   -0.99    2.44
  -4   2   4  106.31    6.16
  -4  -2   4  121.90    6.90
   4   2  -4  108.90    9.39
   4  -2  -4  104.38    5.62
   4   2  -4  100.97    5.61
  -4   2   3 6635.94  238.20
  -4  -2   3 6921.78  237.39
   4   2  -3 7754.41  240.73
   4  -2  -3 7043.11  238.00
   4   2  -3 7374.94  237.53
  -4  -2   2  354.00   13.14
  -4   2   2  332.15   13.89
  -4   2   2  297.76   13.77
   4  -2  -2  303.86   13.29
   4   2  -2  364.61   16.36
   4   2  -2  325.16   14.28
   4   2  -2  378.17   13.01
  -4  -2   1    3.29    2.06
  -4   2   1    5.86    3.28
  -4   2   1    1.63    2.15
  -4  -2   1    3.26    1.37
   4  -2  -1    4.06    2.81
   4   2  -1    8.52    5.04
   4  -2  -1    4.42    2.49
  -4  -2   0  265.93   11.53
  -4  -2   0  314.60   11.05
  -4   2   0  288.58   12.59
  -4   2   0  276.55   12.22
  -4  -2   0  313.27   11.94
   4   2   0  322.34   14.59
   4  -2   0  299.13   12.34
  -4  -2   0  322.65   12.51
  -4   2  -1  604.82   23.81
   4  -2   1  647.95   23.85
   4   2   1  624.37   25.93
  -4   2  -1  622.18   24.21
  -4  -2  -1  634.51   23.62
  -4  -2  -1  662.14   23.74
  -4   2  -1  614.60   24.17
  -4   2  -2   35.75    4.61
  -4  -2  -2   33.98    3.76
   4  -2   2   30.50    4.16
  -4  -2  -2   30.45    3.49
  -4   2  -2   33.05    3.45
   4  -2   2   30.07    4.02
   4   2   2   31.09    5.42
   4  -2   2   29.13    3.07
   4   2   3   73.73    4.29
  -4   2  -3   71.19    6.37
  -4  -2  -3   68.70    5.47
   4  -2   3   62.94    5.97
  -4  -2  -3   65.01    4.93
  -4   2  -3   71.57    4.39
  -4   2  -3   67.34    3.77
   4   2   3   65.02    3.67
   4  -2   3   66.20    3.80
   4   2   3   63.96    3.65
   4  -2   3   66.96    5.60
   4   2   3   69.46    7.48
   4  -2   3   70.70    4.13
   4   2   4   48.84    3.24
   4  -2   4   48.11    3.72
   4   2   4   54.62    7.59
   4  -2   4   58.50    5.55
   4   2   4   55.07    4.01
   4  -2   4   54.51    4.29
  -4   2  -4   45.33    6.29
  -4  -2  -4   49.81    5.43
   4  -2   4   55.50    5.83
  -4  -2  -4   54.38    4.64
  -4   2  -4   43.96    4.99
  -4   2  -4   52.16    3.43
   4   2   4   44.15    3.18
  -4   2  -4   57.67    6.53
   4  -2   4   49.09    3.40
   4   2   5   55.23    8.11
   4  -2   5   47.34    3.85
   4   2   5   50.24    3.39
   4   2   5   49.35    4.06
   4  -2   5   51.45    4.62
  -4  -2  -5   47.83    6.22
  -4   2  -5   43.05    6.67
   4  -2   5   44.94    5.72
  -4  -2  -5   50.72    4.77
  -4   2  -5   47.59    5.06
   4   2   5   43.60    3.43
  -4   2  -5   49.59    3.56
   4   2   5   51.18    4.24
  -4  -2  -5   59.29    5.43
  -4   2  -5   51.80    6.89
   4  -2   5   48.53    3.79
   4  -2   5   50.38    3.58
   4   2   5   43.98    2.92
   4  -2   6   38.02    5.70
   4  -2   6   27.28    3.48
   4   2   6   29.40    2.97
   4   2   6   40.23    8.12
   4  -2   6   33.44    4.18
   4   2   6   36.95    3.70
  -4   2  -6   29.31    6.80
  -4  -2  -6   29.70    5.74
   4  -2   6   26.42    5.25
  -4  -2  -6   33.05    4.18
  -4   2  -6   38.15    4.57
  -4   2  -6   36.32    3.23
   4   2   6   34.14    4.12
  -4  -2  -6   34.25    5.22
  -4   2  -6   43.52    7.29
   4  -2   6   30.49    3.63
   4  -2   6   32.28    3.19
   4   2   6   31.59    2.63
   4   2   7 1050.31   43.16
   4   2   7 1039.87   36.08
   4  -2   7 1031.97   39.99
  -4  -2  -7  939.54   37.85
  -4   2  -7 1028.08   38.42
   4   2   7 1044.91   36.31
   4  -2   7 1077.17   36.74
  -4   2  -7 1035.84   36.17
  -4  -2  -7  970.91   35.66
  -4   2  -7  889.66   41.50
  -4  -2  -7  951.30   41.06
   4   2   7  989.60   36.84
  -4  -2  -7 1162.70   38.89
  -4   2  -7 1053.75   40.39
   4  -2   7  936.67   36.22
   4  -2   7 1007.87   36.12
   4   2   7  971.24   35.63
  -4   2  -8  241.44    9.86
  -4  -2  -8  228.60    9.35
   4  -2   8  227.34    9.32
  -4  -2  -8  261.75   12.80
   4   2   8  211.92   10.51
  -4   2  -8  223.41   14.03
   4  -2   8  225.39   10.03
   4  -2   8  235.74    9.81
   4   2   8  221.75    9.34
   4  -2   8  240.13   10.26
   4   2   8  234.36    9.89
  -4   2  -9  539.52   19.60
   4  -2   9  519.82   19.09
  -4   2  -9  481.74   23.12
  -4  -2  -9  510.12   22.00
   4  -2   9  539.03   19.57
   4  -2   9  535.78   19.65
   4   2   9  528.19   19.42
   4   2  10   27.50    2.62
  -4   2 -10   32.64    2.59
  -4   2 -10   25.60    6.45
  -4  -2 -10   22.90    5.57
   4  -2  10   34.04    2.60
   4  -2  10   25.35    2.40
  -4   3  14    8.87    1.98
   4  -3 -14    4.75    1.91
   4  -3 -13   10.58    2.85
  -4   3  13   12.58    2.85
   4  -3 -13    9.45    1.74
  -4   3  13    6.59    2.06
  -4   3  13   10.26    2.47
  -4   3  12   45.85    4.38
   4   3 -12   34.69    2.81
   4  -3 -12   37.11    3.16
   4  -3 -12   37.87    2.62
  -4   3  12   37.91    3.59
  -4  -3  12   37.30    2.89
   4  -3 -12   33.00    4.44
  -4   3  11    2.20    3.39
  -4   3  11    1.66    2.71
  -4   3  11   -1.47    3.67
  -4  -3  11    0.46    3.07
   4   3 -11   -0.92    2.00
   4  -3 -11    0.64    2.24
   4  -3 -11    1.56    1.85
  -4  -3  11    0.41    1.92
  -4   3  11   -0.27    2.51
   4  -3 -11    3.35    4.27
   4  -3 -11    1.69    3.49
   4   3 -10  343.17   16.40
  -4   3  10  359.42   16.85
  -4   3  10  352.19   14.13
  -4  -3  10  361.67   16.23
   4   3 -10  352.46   13.61
   4  -3 -10  340.90   15.40
  -4   3  10  351.17   15.98
   4  -3 -10  355.27   13.62
   4  -3 -10  337.13   13.91
  -4   3  10  353.74   13.90
   4  -3 -10  421.36   16.22
  -4  -3  10  340.99   13.30
   4  -3 -10  336.87   16.43
  -4   3   9   73.54    5.42
  -4   3   9   82.63    4.98
  -4  -3   9   79.08    6.10
  -4   3   9   83.02    7.06
   4  -3  -9   69.87    5.77
   4  -3  -9   75.68    4.33
   4  -3  -9   79.71    4.75
  -4   3   9   76.44    6.19
   4  -3  -9   46.40   16.02
   4  -3  -9   52.96   16.43
   4   3  -9   81.10    6.43
  -4   3   8  692.40   26.54
  -4  -3   8  697.91   25.40
  -4   3   8  596.87   23.73
  -4   3   8  617.08   23.33
  -4   3   8  658.25   25.43
   4  -3  -8  619.53   23.00
   4  -3  -8  643.45   23.43
   4   3  -8  699.93   25.07
   4   3  -8  622.35   25.54
   4  -3  -8  653.99   24.68
   4  -3  -7  347.14   25.77
  -4   3   7  444.83   18.09
  -4  -3   7  401.92   16.12
  -4   3   7  381.48   15.43
  -4   3   7  371.68   14.98
   4  -3  -7  388.62   14.77
   4  -3  -7  398.57   15.13
  -4   3   7  418.33   16.96
   4   3  -7  433.43   25.94
   4   3  -7  348.77   18.26
   4   3  -7  430.78   16.49
   4  -3  -7  409.54   16.14
   4   3  -6 1269.87   44.86
   4  -3  -6 1306.33   44.80
   4  -3  -6 1101.99   52.84
  -4   3   6 1406.61   46.57
  -4  -3   6 1378.46   45.51
  -4   3   6 1205.54   43.76
  -4   3   6 1207.81   44.01
   4  -3  -6 1291.96   43.87
   4  -3  -6 1329.34   43.62
   4  -3  -6 1145.85   45.41
   4   3  -6 1421.45   54.32
   4   3  -6 1045.98   45.96
   4  -3  -6 1096.34   44.75
   4  -3  -5  332.59   12.72
   4  -3  -5  334.61   20.41
  -4  -3   5  355.03   14.73
   4  -3  -5  351.07   14.30
   4  -3  -5  318.17   13.31
   4   3  -5  329.43   14.57
   4   3  -5  320.25   13.13
  -4   3   4  101.00    6.24
   4  -3  -4   91.49   10.56
  -4   3   4   98.70    6.66
  -4  -3   4  110.96    6.66
   4   3  -4  102.86    9.83
   4  -3  -4   99.77    5.39
   4   3  -4   99.75    6.50
   4  -3  -4  101.32    6.09
   4   3  -4  101.86    4.88
  -4   3   3  183.72    9.17
   4  -3  -3  175.67   12.51
  -4   3   3  185.12    9.51
   4   3  -3  223.96   12.67
   4  -3  -3  207.93    9.42
   4   3  -3  195.07    9.67
  -4   3   2  156.07    7.93
  -4  -3   2  154.57    6.57
   4  -3  -2  124.40    9.44
  -4   3   2  141.14    7.70
   4   3  -2  152.81   10.40
   4   3  -2  148.99    7.93
   4  -3  -2  143.92    7.70
  -4  -3   1  791.34   27.60
  -4   3   1  764.32   29.04
   4  -3  -1  794.16   29.37
  -4   3   1  752.88   28.79
   4   3  -1  846.31   31.52
   4  -3  -1  740.28   28.84
  -4   3   0  588.53   23.02
  -4  -3   0  604.06   22.74
  -4   3   0  504.40   22.87
  -4  -3   0  656.86   22.51
   4  -3   0  651.72   23.81
   4  -3   0  575.86   22.03
   4   3   0  662.01   25.76
  -4   3   0  553.98   22.98
  -4  -3   0  655.34   22.50
   4   3   1  204.78    8.65
  -4   3  -1  213.22   10.72
  -4  -3  -1  224.36    9.79
  -4   3  -1  219.10   10.12
   4   3   1  219.20   12.48
   4  -3   1  234.48    9.63
  -4   3  -1  209.77   10.28
  -4  -3  -1  223.44    9.45
  -4   3  -1  204.40   10.79
   4  -3   2  158.00    7.62
  -4   3  -2  168.71   10.02
  -4  -3  -2  170.98    8.68
  -4   3  -2  179.56    7.37
   4   3   2  166.95    7.05
   4  -3   2  176.32    7.46
   4   3   2  181.32    7.15
   4  -3   2  167.66    7.71
   4  -3   2  184.64    8.59
   4   3   2  175.40   11.37
  -4   3  -2  170.92    9.19
  -4  -3  -2  178.29    8.23
  -4   3  -2  184.87    9.24
   4   3   3    3.20    2.33
   4  -3   3    5.77    3.33
  -4  -3  -3    2.94    2.94
  -4   3  -3    4.54    4.50
  -4   3  -3    5.00    3.24
  -4  -3  -3    3.26    2.37
  -4   3  -3    4.18    2.63
   4   3   3    2.38    1.60
   4  -3   3    4.16    1.76
  -4   3  -3    4.97    1.94
   4  -3   3    4.36    2.02
   4  -3   3    3.41    2.42
   4   3   3    3.91    1.67
   4   3   3    2.46    5.90
   4  -3   3    1.96    3.02
   4   3   4  878.47   37.98
   4   3   4  869.79   32.05
   4  -3   4  893.44   32.71
   4  -3   4 1037.09   34.68
   4   3   4  938.54   32.50
   4  -3   4  830.79   32.71
   4  -3   4  946.94   35.24
  -4   3  -4  895.76   36.47
  -4  -3  -4  945.22   35.21
  -4   3  -4  936.84   34.90
  -4  -3  -4  907.59   33.55
  -4   3  -4  975.67   33.64
  -4   3  -4  924.36   32.44
   4  -3   4  881.98   31.99
   4   3   4  890.11   32.09
  -4   3  -4  998.80   36.35
   4  -3   4  822.21   32.11
   4  -3   4  922.54   32.40
   4   3   5   61.32    3.81
   4  -3   5   58.53    4.45
   4   3   5   64.90    9.14
   4   3   5   67.87    4.46
   4  -3   5   53.18    4.78
   4  -3   5   61.62    6.31
  -4  -3  -5   60.72    6.41
  -4   3  -5   46.04    7.45
  -4   3  -5   68.81    6.15
  -4  -3  -5   56.39    4.86
  -4   3  -5   56.35    6.03
   4   3   5   56.19    3.83
  -4   3  -5   68.26    4.25
   4  -3   5   60.13    3.73
   4   3   5   54.39    4.66
  -4  -3  -5   76.23    5.82
  -4   3  -5   62.19    8.51
   4  -3   5   59.07    4.19
   4  -3   5   58.16    4.04
   4   3   6   14.83    2.48
   4   3   6    5.95    7.13
   4  -3   6   16.29    4.68
   4  -3   6   15.01    3.68
   4   3   6   11.09    3.03
   4  -3   6   14.31    4.34
  -4   3  -6   10.79    6.27
  -4  -3  -6   14.76    5.32
  -4   3  -6   10.29    4.08
  -4  -3  -6   16.38    3.25
  -4   3  -6   10.61    3.61
  -4   3  -6   14.11    2.75
   4   3   6   14.50    2.65
   4  -3   6   13.58    2.33
   4  -3   6   12.39    2.99
   4   3   6   13.86    3.82
  -4   3  -6   12.55    7.39
  -4  -3  -6   20.90    4.76
   4  -3   6   13.51    2.72
   4   3   7  114.90   12.08
   4   3   7  116.12    5.97
  -4   3  -7   90.10   10.64
  -4  -3  -7  125.48   10.34
   4  -3   7  101.17    8.53
   4  -3   7  124.41    6.87
   4   3   7  125.24    6.36
   4   3   7  116.44    7.17
  -4  -3  -7  135.45    8.44
  -4   3  -7  126.53   11.30
   4  -3   7  113.57    6.25
   4  -3   7  123.00    6.21
   4   3   7  111.30    5.38
  -4   3  -7  113.60    6.13
   4  -3   7  117.53    5.59
   4   3   8  135.03    6.45
   4  -3   8  131.89    6.98
   4   3   8  131.29    6.57
  -4  -3  -8  140.49    8.92
   4   3   8  125.15    7.31
  -4   3  -8  125.21   11.51
   4  -3   8  131.73    6.67
   4  -3   8  139.38    6.60
  -4   3  -8  133.92    6.60
   4  -3   8  131.24    5.88
   4   3   9  236.65   15.33
   4  -3   9  248.81   10.03
  -4  -3  -9  222.68   12.05
   4  -3   9  248.18    9.90
  -4   3  -9  248.36    9.93
   4  -3  10   39.88    2.75
  -4   3 -10   51.46    3.10
   4   3  10   52.24    3.28
  -4  -3 -10   36.76    5.30
  -4   3 -10   31.82    6.71
   4  -3  10   56.02    3.15
   4  -4 -13  152.93    6.70
   4  -4 -13  178.72    7.82
  -4   4  13  160.49    7.28
  -4   4  13  167.59    7.30
   4  -4 -12  221.89    9.83
   4  -4 -12  198.82    8.40
   4  -4 -12  189.69    7.99
  -4   4  12  194.20    8.44
  -4  -4  12  194.41    7.97
  -4   4  12  203.82    8.99
  -4   4  11    5.95    3.90
  -4   4  11    3.14    3.24
  -4   4  11    1.58    2.83
   4  -4 -11    1.51    2.32
   4  -4 -11    0.77    1.95
  -4  -4  11    2.24    1.86
  -4   4  11    2.33    2.46
   4  -4 -11    2.99    4.02
   4  -4 -11    0.16    3.79
   4  -4 -10   16.51    4.16
  -4   4  10   21.47    3.46
  -4   4  10   19.31    4.44
  -4  -4  10   28.07    4.12
   4  -4 -10   20.17    2.61
  -4   4  10   24.30    4.09
   4  -4 -10   22.99    3.19
  -4   4  10   22.13    3.13
   4  -4 -10   31.94    5.04
  -4  -4  10   22.85    2.46
   4  -4 -10   23.64    4.49
  -4   4   9  236.13   12.43
  -4   4   9  216.99   10.20
  -4   4   9  215.80    9.76
  -4  -4   9  234.95   11.55
   4  -4  -9  202.91   10.96
  -4   4   9  222.18   11.41
   4  -4  -9  209.19    9.25
   4  -4  -9  223.04    9.71
  -4   4   9  241.21    9.60
   4  -4  -9  230.10   12.12
   4  -4  -8  135.86   18.15
  -4   4   8  188.15   10.35
   4   4  -8  178.60    9.82
  -4   4   8  158.76    9.08
   4  -4  -8  158.16    7.11
   4  -4  -8  158.47    7.47
  -4   4   8  156.55    8.00
  -4   4   8  153.36    7.53
   4  -4  -8  169.52    9.49
   4  -4  -7  104.25   14.06
   4   4  -7  125.99    7.77
  -4   4   7  109.71    7.09
   4  -4  -7  109.34    5.66
   4  -4  -7  116.46    5.43
  -4   4   7  112.39    5.79
  -4   4   7  107.60    6.23
   4  -4  -7  112.33    7.29
   4   4  -7  100.80    9.52
   4  -4  -6  791.59   29.81
  -4   4   6  758.09   27.94
  -4   4   6  745.03   28.12
   4  -4  -6  802.70   36.52
  -4  -4   6  815.21   28.88
   4  -4  -6  795.79   28.38
   4   4  -6  816.72   30.54
  -4   4   6  766.25   29.72
   4  -4  -6  779.11   27.67
   4   4  -6  793.19   28.05
   4  -4  -6  707.20   28.89
  -4   4   5  480.20   18.32
  -4   4   5  450.51   18.35
  -4   4   5  542.01   20.62
   4  -4  -5  514.19   25.18
  -4  -4   5  503.82   19.92
   4  -4  -5  520.82   18.82
   4  -4  -5  504.55   18.11
   4   4  -5  503.03   18.29
   4  -4  -5  486.13   18.65
   4   4  -5  497.92   20.69
   4  -4  -5  506.51   19.93
  -4   4   4  467.23   18.36
   4  -4  -4  440.25   21.66
  -4  -4   4  472.88   18.16
   4   4  -4  425.33   21.69
   4   4  -4  440.26   18.63
   4  -4  -4  426.17   17.80
   4  -4  -4  435.67   16.38
   4  -4  -4  433.97   16.17
  -4   4   3  205.32    9.93
   4  -4  -3  207.55   12.31
   4   4  -3  204.91   13.21
   4   4  -3  203.70   10.12
   4  -4  -3  194.48    9.61
  -4   4   3  203.20    9.88
  -4   4   2    0.14    3.06
   4   4  -2    0.58    6.08
   4   4  -2    0.45    2.49
   4  -4  -2    0.68    2.48
  -4  -4   2   -0.52    1.58
  -4   4   2   -1.15    3.10
   4  -4  -2   -1.64    4.50
  -4   4   1    6.47    2.95
   4   4  -1    8.75    6.36
  -4  -4   1    7.72    2.23
   4  -4  -1    5.59    2.58
   4  -4  -1    6.06    3.52
  -4   4   1    5.53    2.97
   4  -4   0  458.38   17.84
  -4   4   0  431.10   16.91
   4  -4   0  374.35   15.69
  -4   4   0  423.59   17.45
   4  -4   0  405.69   15.68
  -4  -4   0  484.99   17.86
   4   4   0  456.05   20.39
  -4  -4   0  481.34   16.28
  -4   4   0  392.76   17.00
  -4   4  -1   38.47    4.15
  -4  -4  -1   40.36    3.24
  -4   4  -1   28.67    4.85
   4   4   1   35.18    2.95
   4  -4   1   35.55    3.14
   4  -4   1   24.56    4.03
  -4  -4  -1   33.01    3.95
  -4  -4  -1   39.72    3.86
  -4   4  -1   36.02    5.29
  -4   4  -1   36.33    2.83
   4   4   1   35.91    2.45
   4  -4   1   34.17    2.90
  -4   4  -1   36.37    4.17
   4  -4   1   34.06    2.77
   4  -4   1   35.97    3.39
   4   4   1   33.54    6.70
   4   4   1   35.09    2.45
   4   4   2   30.99    8.71
   4   4   2   41.24    2.83
   4  -4   2   42.05    3.65
  -4   4  -2   44.08    4.57
  -4  -4  -2   49.51    3.65
  -4   4  -2   42.92    4.98
   4  -4   2   42.31    3.67
  -4  -4  -2   45.68    4.34
  -4   4  -2   33.73    5.84
  -4   4  -2   47.59    3.26
   4   4   2   46.12    2.87
   4  -4   2   43.25    3.30
   4  -4   2   46.40    3.24
   4   4   3  446.09   16.59
   4  -4   3  431.17   17.29
  -4   4  -3  488.78   19.08
  -4   4  -3  453.66   19.03
  -4  -4  -3  442.04   17.53
   4   4   3  457.59   16.95
   4  -4   3  423.02   19.02
  -4   4  -3  391.49   20.37
  -4  -4  -3  472.51   19.26
  -4   4  -3  482.85   17.12
   4  -4   3  440.92   16.44
   4   4   3  441.89   16.57
   4  -4   3  437.97   17.02
  -4   4  -3  421.62   20.62
   4  -4   3  461.09   16.99
   4   4   4   57.66    3.66
   4  -4   4   68.75    4.54
   4   4   4   58.05    4.27
   4  -4   4   57.54    4.61
   4  -4   4   60.90    5.94
  -4  -4  -4   58.35    6.15
  -4   4  -4   46.26    7.23
  -4   4  -4   59.01    5.65
  -4   4  -4   73.72    5.36
  -4  -4  -4   61.96    4.54
  -4   4  -4   70.74    4.32
   4   4   4   60.78    3.69
   4  -4   4   66.42    3.67
   4   4   4   54.34    4.45
  -4   4  -4   56.71    8.56
   4  -4   4   66.87    4.21
   4   4   5  252.27   10.59
   4  -4   5  258.23   11.17
   4   4   5  275.86   11.12
   4  -4   5  250.64   11.40
   4  -4   5  257.99   13.67
  -4   4  -5  237.14   15.70
  -4  -4  -5  277.24   14.33
  -4   4  -5  250.49   13.23
  -4  -4  -5  241.38   11.57
  -4   4  -5  248.70   14.28
  -4   4  -5  285.85   11.22
   4  -4   5  268.50   10.37
   4   4   5  263.86   10.64
   4   4   5  265.58   11.53
  -4   4  -5  273.66   16.17
   4  -4   5  249.85   10.84
   4  -4   5  275.50   11.13
   4   4   6  886.39   33.24
   4   4   6  945.16   33.61
   4  -4   6  895.94   34.05
  -4   4  -6  796.44   38.96
  -4  -4  -6  888.91   37.65
   4  -4   6  938.51   36.83
  -4   4  -6  877.57   36.14
  -4   4  -6  925.34   36.98
  -4   4  -6  997.09   33.88
   4  -4   6  909.40   32.87
   4   4   6  944.88   33.42
   4   4   6  924.25   34.23
  -4   4  -6  903.17   38.55
   4  -4   6  892.75   33.46
   4  -4   6  954.84   33.76
   4   4   7  164.03    7.55
  -4  -4  -7  155.93   11.80
   4   4   7  167.80    7.78
   4  -4   7  168.75    8.37
   4   4   7  162.16    8.58
  -4  -4  -7  188.82    9.97
  -4   4  -7  150.54   13.19
   4  -4   7  156.50    7.69
   4  -4   7  167.46    7.83
  -4   4  -7  169.26    7.86
   4   4   8    2.36    8.93
   4   4   8    2.00    2.16
   4  -4   8    2.81    2.99
  -4   4  -8    0.33    7.87
   4  -4   8    1.92    2.30
  -4  -4  -8    0.37    4.66
   4  -4   8    2.63    2.37
  -4   4  -8    0.19    2.35
   4  -4   9   17.25    2.80
  -4   4  -9   23.80    2.69
  -4   4  -9   13.13    7.54
  -4  -4  -9   16.62    5.01
   4  -4   9   17.84    2.52
  -4   5  13  498.34   18.65
  -4   5  13  536.33   18.85
   4  -5 -13  499.73   18.35
   4  -5 -12  314.09   11.92
   4  -5 -12  296.66   11.54
  -4   5  12  302.56   12.25
  -4   5  12  296.09   11.76
   4  -5 -11  276.57   11.43
   4  -5 -11  277.60   11.08
  -4   5  11  261.33   11.27
   4  -5 -11  310.31   12.97
  -4  -5  11  268.22   10.70
  -4   5  11  293.32   11.75
  -4   5  10  259.51   13.14
  -4   5  10  249.90   10.70
  -4  -5  10  259.30   12.57
   4  -5 -10  240.24   10.45
   4  -5 -10  245.01   10.12
   4   5 -10  239.01   13.05
  -4   5  10  248.80   10.37
  -4  -5  10  232.54    9.59
   4  -5 -10  245.07   12.84
   4   5  -9   11.95    4.04
   4  -5  -9   11.94    3.93
   4  -5  -9   25.52   12.92
   4  -5  -9   13.51    2.91
   4  -5  -9   11.15    2.50
  -4   5   9   16.87    3.79
  -4   5   9    9.55    2.80
  -4   5   9   11.54    3.56
  -4   5   9   16.11    3.22
  -4  -5   8    3.23    2.94
   4   5  -8   10.35    3.96
   4  -5  -8    8.54    3.49
   4  -5  -8   20.61   11.77
   4  -5  -8    7.25    2.31
  -4   5   8    8.03    3.34
  -4   5   8    9.08    2.58
  -4   5   8    6.29    3.21
  -4   5   8    5.77    2.79
   4  -5  -7  260.10   12.50
  -4   5   7  264.58   10.73
  -4   5   7  251.01   10.97
   4  -5  -7  239.18   18.68
  -4   5   7  286.01   13.32
  -4  -5   7  272.12   12.09
   4   5  -7  277.22   13.40
  -4   5   7  258.61   12.33
   4  -5  -7  254.81   10.32
   4   5  -7  251.85   10.61
   4   5  -6   50.77    7.52
   4   5  -6   56.71    5.49
   4  -5  -6   44.97    4.61
  -4   5   6   50.93    5.42
  -4   5   6   45.48    3.61
  -4   5   6   41.66    3.90
  -4   5   6   50.00    4.84
   4  -5  -6   44.61    9.51
   4  -5  -6   43.63    3.42
   4  -5  -6   45.68    3.20
   4   5  -6   54.63    3.42
   4  -5  -6   38.64    4.45
   4   5  -5  579.94   22.94
   4  -5  -5  544.84   21.64
  -4   5   5  531.50   20.08
  -4   5   5  512.43   20.07
  -4   5   5  607.19   22.45
   4  -5  -5  515.75   25.38
  -4   5   5  551.94   21.88
   4  -5  -5  529.55   19.75
   4  -5  -5  535.39   19.96
   4   5  -5  562.74   19.97
   4  -5  -5  539.92   20.38
   4  -5  -4  716.28   27.00
   4   5  -4  698.47   28.02
  -4   5   4  638.27   25.38
   4  -5  -4  702.39   29.94
  -4   5   4  775.45   27.51
  -4  -5   4  746.93   27.01
  -4   5   4  691.35   25.68
   4  -5  -4  698.80   25.40
   4  -5  -4  704.50   25.27
   4   5  -4  699.17   25.25
   4  -5  -4  753.66   25.53
  -4   5   3  106.43    5.57
   4  -5  -3  131.85    9.22
  -4   5   3  114.98    7.00
  -4   5   3  120.08    5.78
   4  -5  -3  120.53    5.43
   4  -5  -3  121.06    5.57
   4  -5  -3  129.47    6.88
   4   5  -3  117.83    7.35
  -4   5   2  868.32   33.64
   4  -5  -2  864.75   31.90
   4   5  -2  927.50   33.72
   4  -5  -2  893.84   33.44
   4  -5  -2  989.60   34.70
  -4   5   2  925.84   33.42
   4  -5  -1 1310.59   43.87
  -4   5   1 1280.58   43.45
   4  -5  -1 1249.50   43.82
  -4   5   1 1120.53   42.12
  -4   5   1 1228.03   43.98
   4  -5  -1 1161.36   41.95
   4  -5  -1 1158.40   42.04
   4  -5  -1 1175.91   41.93
   4  -5  -1 1292.02   43.65
  -4   5   1 1112.49   43.10
  -4  -5   1 1247.67   42.06
  -4   5   0   64.57    4.97
  -4  -5   0   71.00    3.78
   4  -5   0   68.70    3.94
  -4   5   0   66.83    4.75
   4  -5   0   60.77    5.20
  -4   5   0   60.84    3.92
   4  -5   0   64.79    3.91
  -4   5   0   60.69    5.33
   4  -5   0   59.58    3.78
  -4  -5   0   74.09    5.80
   4   5   0   70.86    3.47
   4  -5   0   63.61    3.75
   4   5   0   82.78    8.28
  -4   5  -1   63.30    5.29
  -4   5  -1   78.72    7.14
   4   5   1   86.14    4.51
   4  -5   1   83.27    4.55
   4  -5   1   75.36    6.00
  -4  -5  -1   89.99    5.89
  -4   5  -1   74.09    4.86
  -4   5  -1   74.17    4.39
   4   5   1   80.87    3.97
  -4   5  -1   79.15    6.03
  -4  -5  -1   70.26    6.27
   4  -5   1   64.97    4.22
   4   5   1  106.90    8.99
   4  -5   1   71.54    4.22
   4   5   1   78.88    8.67
   4   5   1   85.36    4.00
   4   5   2  223.09   13.65
  -4   5  -2  214.55   11.10
  -4   5  -2  225.00   12.21
   4  -5   2  238.43    9.88
   4  -5   2  207.44   11.55
  -4   5  -2  180.03   12.49
  -4  -5  -2  257.68   11.73
  -4   5  -2  248.05    9.90
   4   5   2  241.76    9.36
   4  -5   2  225.20    9.72
  -4   5  -2  208.58   14.13
   4  -5   2  240.14    9.75
   4   5   3  158.00   13.11
   4   5   3  186.35    7.77
   4   5   3  162.19   12.71
  -4   5  -3  181.57   10.17
  -4   5  -3  171.36    9.71
   4   5   3  191.02    8.22
  -4   5  -3  159.90   11.93
  -4  -5  -3  197.79   10.53
  -4   5  -3  197.93    8.41
   4   5   3  178.15    7.68
   4  -5   3  185.70    8.25
  -4   5  -3  149.59   12.79
   4  -5   3  188.27    8.26
   4   5   4  279.35   18.64
   4   5   4  327.23   12.57
   4   5   4  288.56   17.75
   4   5   4  337.61   13.01
   4  -5   4  301.43   13.20
   4  -5   4  337.79   15.72
  -4   5  -4  285.15   17.48
  -4  -5  -4  344.52   16.10
  -4   5  -4  336.35   15.01
  -4   5  -4  283.75   14.64
  -4   5  -4  369.76   13.43
   4   5   4  322.68   12.52
   4   5   4  292.21   13.10
  -4   5  -4  289.04   18.04
   4  -5   4  323.58   13.07
  -4   5  -5  161.24    9.79
  -4   5  -5  175.97    9.43
  -4   5  -5  162.13   11.19
   4  -5   5  170.83   10.38
  -4   5  -5  161.06   12.85
  -4  -5  -5  167.19   10.98
   4   5   5  183.07    8.15
   4  -5   5  153.02    8.34
  -4   5  -5  194.91    8.40
   4   5   5  179.29    7.66
   4   5   5  163.60    8.50
  -4   5  -5  174.23   13.99
   4  -5   5  166.74    7.85
   4   5   5  159.08   13.49
   4   5   5  150.15   14.24
   4   5   5  169.68    7.62
  -4   5  -6   51.57    5.58
  -4   5  -6   45.22    6.03
   4  -5   6   45.85    4.57
  -4   5  -6   53.44    4.30
   4   5   6   45.22    3.62
   4  -5   6   46.67    5.74
  -4  -5  -6   49.87    6.79
  -4   5  -6   39.27    8.18
  -4   5  -6   42.54   10.31
   4   5   6   52.91    5.03
  -4  -5  -6   66.70    6.03
   4  -5   6   55.40    4.08
   4   5   6   54.05    9.99
   4   5   6   50.24    3.66
   4   5   6   50.99   10.30
  -4   5  -7  237.25    9.99
   4   5   7  202.58   10.25
  -4  -5  -7  250.07   11.78
  -4   5  -7  180.02   15.29
   4  -5   7  228.60    9.56
   4   5   7  220.21    9.48
   4  -5   7  221.36   10.12
  -4   5  -8    4.41    2.50
  -4  -5  -8    2.90    4.40
  -4   5  -8   -4.33    8.56
   4   5   8    5.14    2.25
   4  -5   8    4.13    2.99
  -4   5  -9  112.26    5.23
  -4   5  -9   80.83    9.80
  -4  -5  -9   87.03    7.02
   4  -5   9  102.52    5.13
  -4   6  13   98.11    4.81
  -4   6  13  103.18    4.96
   4  -6 -13  109.48    4.62
  -4   6  12   22.54    2.97
   4  -6 -12   23.04    2.20
   4  -6 -12   26.65    2.63
   4  -6 -11  665.80   23.85
   4  -6 -11  645.78   23.48
  -4   6  11  615.03   23.52
  -4  -6  11  613.29   23.03
  -4   6  11  670.39   24.00
  -4   6  11  627.69   23.97
   4  -6 -10  304.55   11.91
  -4   6  10  314.78   12.42
  -4   6  10  308.63   12.07
  -4  -6  10  274.41   11.24
  -4   6   9   31.67    5.01
  -4  -6   9   29.27    4.22
  -4   6   9   31.49    3.70
  -4   6   9   28.95    4.21
   4  -6  -9   29.58    3.14
   4  -6  -9   29.57   12.77
  -4   6   9   26.54    3.32
  -4  -6   9   27.90    2.55
   4  -6  -9   35.46    4.75
   4   6  -9   28.29    5.03
   4   6  -8  184.58   11.12
  -4  -6   8  176.98    9.65
  -4   6   8  190.97   10.71
  -4   6   8  177.06    8.32
  -4   6   8  180.83    9.81
   4  -6  -8  164.63    8.16
   4  -6  -8  183.87    8.05
  -4   6   8  172.14    7.94
   4  -6  -8  191.92   10.36
  -4   6   7  209.77   11.12
  -4  -6   7  198.96   10.03
   4  -6  -7  167.73   15.57
  -4   6   7  201.42    8.79
  -4   6   7  200.92   10.44
   4  -6  -7  200.39    8.72
   4  -6  -7  189.47    8.40
   4   6  -7  189.88    8.61
  -4   6   7  175.36    8.25
   4   6  -7  216.86   11.87
   4  -6  -7  201.65   10.54
   4   6  -6   35.52    5.13
   4  -6  -6   33.80    4.22
  -4   6   6   39.80    5.10
  -4  -6   6   38.93    3.87
  -4   6   6   37.25    3.54
  -4   6   6   44.10    3.91
   4  -6  -6   40.64    8.78
  -4   6   6   37.39    4.58
   4  -6  -6   34.71    3.29
   4  -6  -6   40.65    3.12
   4   6  -6   38.41    3.12
   4   6  -6   43.83    7.19
   4   6  -5  387.98   18.37
   4  -6  -5  402.67   17.02
  -4   6   5  389.26   15.56
  -4   6   5  390.86   15.66
   4  -6  -5  407.54   21.00
  -4   6   5  453.45   17.93
  -4  -6   5  422.21   16.71
  -4   6   5  425.13   17.47
   4  -6  -5  393.44   15.41
   4   6  -5  422.36   15.42
   4   6  -5  376.15   17.83
   4   6  -4  101.71    7.27
   4  -6  -4  103.68    6.36
  -4   6   4   96.27    5.45
  -4   6   4  105.52    5.52
   4  -6  -4  109.01    9.12
  -4   6   4  113.24    6.89
  -4   6   4   94.87    5.44
   4   6  -4  104.05    4.57
  -4   6   4  106.84    6.81
   4  -6  -4  100.63    5.13
   4   6  -4  105.29    5.00
   4   6  -4  119.90    5.35
   4   6  -4   91.01    7.09
   4   6  -3  332.92   19.35
   4   6  -3  353.63   15.67
   4  -6  -3  366.56   15.15
  -4   6   3  324.11   13.74
   4  -6  -3  353.96   17.02
  -4   6   3  387.10   15.41
   4   6  -3  368.59   13.29
  -4   6   3  337.05   13.91
   4  -6  -3  351.70   13.57
   4  -6  -3  346.87   13.65
   4   6  -3  355.32   13.40
   4   6  -3  409.39   13.79
   4   6  -3  344.76   21.57
   4   6  -2  122.09    8.99
   4   6  -2  120.08   11.31
   4  -6  -2  146.27    7.48
   4   6  -2  142.18    7.37
  -4   6   2  125.72    6.80
  -4   6   2  124.16    6.30
   4  -6  -2  133.04    5.84
   4  -6  -2  142.88    8.51
  -4   6   2  142.72    7.39
   4   6  -2  135.59    5.81
  -4   6   2  129.57    6.39
   4  -6  -2  132.31    6.12
   4  -6  -2  132.55    6.18
   4   6  -2  158.46    6.24
   4   6  -2  165.85   13.67
  -4   6   1  348.82   15.15
   4  -6  -1  394.61   14.16
  -4   6   1  347.42   14.36
   4  -6  -1  425.28   16.41
  -4   6   1  397.41   15.37
   4  -6  -1  363.32   16.04
   4   6  -1  397.85   14.13
  -4   6   1  361.58   14.56
  -4   6   1  358.85   16.26
   4  -6  -1  366.23   14.29
   4  -6  -1  361.31   14.32
   4   6  -1  338.80   19.52
   4   6  -1  385.23   13.90
   4   6  -1  380.02   16.80
  -4   6   0  495.89   21.15
  -4   6   0  441.13   23.34
   4  -6   0  590.13   20.17
  -4   6   0  586.77   20.92
   4  -6   0  570.79   22.29
  -4   6   0  501.62   20.35
   4  -6   0  527.85   20.15
  -4   6   0  526.14   22.22
   4  -6   0  513.64   20.14
  -4  -6   0  629.22   23.94
   4   6   0  617.89   20.70
   4   6   0  687.74   26.12
   4   6   0  477.06   25.21
   4   6   0  543.23   22.59
   4   6   0  555.00   19.83
   4   6   1  945.02   32.37
   4   6   1  884.17   35.02
   4   6   1  779.45   37.63
  -4   6  -1  829.44   33.79
  -4   6  -1  815.58   36.11
   4  -6   1  992.72   32.76
   4  -6   1  974.55   35.11
  -4   6  -1  888.66   32.91
   4   6   1  972.15   32.52
  -4  -6  -1  965.82   36.63
  -4   6  -1  887.50   35.00
   4  -6   1  878.06   32.64
  -4   6  -1  708.02   36.42
   4   6   1 1078.87   38.23
  -4   6  -2  303.73   14.62
  -4   6  -2  339.27   16.65
   4  -6   2  371.33   13.61
   4  -6   2  353.79   15.78
  -4  -6  -2  365.89   15.92
  -4   6  -2  362.65   13.80
   4   6   2  353.97   13.18
   4  -6   2  302.85   13.32
  -4   6  -2  307.30   18.80
   4   6   2  389.89   18.87
   4   6   2  301.64   18.68
   4   6   2  323.92   16.50
   4   6   3   45.15    7.69
   4   6   3   38.51    8.68
   4   6   3   44.61    3.13
   4  -6   3   37.54    4.96
  -4  -6  -3   42.48    5.35
  -4   6  -3   44.89    3.75
   4   6   3   39.63    3.07
   4  -6   3   37.51    3.60
   4   6   3   40.85    3.81
  -4   6  -3   30.96    9.24
  -4   6  -3   34.42    5.18
  -4   6  -3   37.83    4.46
  -4   6  -4   13.10    3.67
  -4   6  -4    8.49    3.61
  -4  -6  -4    5.85    4.22
   4  -6   4   13.29    3.32
   4   6   4   11.38    2.23
  -4   6  -4   10.11    2.91
   4   6   4   10.19    3.27
  -4   6  -4   18.21    9.69
   4   6   4   14.82    2.34
   4   6   4    9.72    8.06
  -4   6  -5  312.53   16.60
  -4   6  -5  399.65   17.49
  -4   6  -5  369.73   19.36
   4  -6   5  391.06   15.61
  -4   6  -5  450.00   16.01
   4   6   5  401.34   15.09
   4  -6   5  354.33   17.80
  -4  -6  -5  374.03   18.95
   4   6   5  365.68   15.73
  -4   6  -5  368.84   21.96
   4   6   5  403.53   15.08
   4   6   5  414.52   22.98
   4  -6   6    7.95    3.24
   4   6   6    5.73    2.28
  -4   6  -6   10.43    3.04
   4  -6   6    5.41    3.54
  -4  -6  -6    3.93    4.83
   4  -6   6   10.07    2.71
   4   6   6    3.50    3.36
  -4   6  -6   -5.38    9.95
   4   6   6    9.36    2.43
   4   6   6   17.61    8.36
   4  -6   7  508.72   20.77
  -4  -6  -7  595.64   22.44
  -4   6  -7  450.80   25.96
   4  -6   7  562.22   20.30
   4   6   7  529.92   20.43
  -4   6  -7  598.43   21.01
   4  -6   8  187.30    8.35
  -4   6  -8  206.31    8.49
  -4  -6  -8  184.51    9.98
  -4   6  -8  167.45   13.62
   4   6   8  181.06    8.04
  -4   6  -9  118.02    5.23
   4   6   9  109.95    5.23
  -4   6  -9   84.36    9.09
  -4  -6  -9   72.13    6.19
   4  -6   9  106.96    4.94
  -4  -6  -9  110.52    5.43
   4  -7 -12  245.68    9.93
  -4   7  12  221.33    9.26
   4  -7 -12  228.91    9.09
   4  -7 -12  225.31    8.83
   4  -7 -11  149.64    7.80
  -4   7  11  139.44    6.74
  -4   7  11  130.88    6.80
   4  -7 -11  148.37    6.41
   4  -7 -10  105.38    7.20
  -4  -7  10  104.95    5.05
  -4   7  10  113.15    6.07
   4  -7 -10  111.91    5.64
  -4  -7   9  334.16   15.27
   4  -7  -9  350.46   13.51
   4  -7  -9  349.08   13.24
  -4  -7   9  306.05   12.42
  -4   7   9  334.03   15.63
  -4   7   9  338.31   13.50
  -4   7   8  170.41    9.39
   4  -7  -8  173.39    8.19
   4  -7  -8  181.29    7.99
   4   7  -8  168.19   10.98
   4  -7  -8  175.59    9.86
  -4  -7   8  172.85    9.56
   4  -7  -8  158.06   16.87
  -4   7   8  184.64   10.29
  -4   7   8  169.29    8.21
  -4   7   8  165.93    8.46
  -4   7   7  895.51   33.21
  -4   7   7 1010.72   35.95
  -4   7   7  926.64   33.46
  -4  -7   7  965.11   35.04
   4  -7  -7  864.52   41.75
   4   7  -7  905.37   36.90
   4  -7  -7  953.46   35.27
  -4   7   7  963.68   35.06
   4  -7  -7  941.84   33.20
   4   7  -7  921.93   33.23
  -4   7   6  255.73   10.79
  -4   7   6  238.88   10.90
  -4   7   6  275.83   12.89
  -4  -7   6  268.16   12.05
   4  -7  -6  247.37   16.70
   4   7  -6  237.67   13.60
   4  -7  -6  255.10   12.22
  -4   7   6  248.85   12.29
   4  -7  -6  255.95   10.62
   4   7  -6  261.46   10.66
   4  -7  -6  252.27   12.22
   4   7  -5    7.06    6.09
   4   7  -5    1.84    3.56
   4  -7  -5    1.23    2.46
  -4   7   5    0.10    2.70
  -4   7   5    1.51    2.49
  -4   7   5    0.19    3.15
  -4  -7   5    0.65    2.34
   4  -7  -5    1.29    2.07
  -4   7   5   -0.38    3.11
   4  -7  -5   -0.16    1.97
   4  -7  -5    3.66    5.91
   4   7  -5    0.71    1.75
   4  -7  -5   -0.59    2.80
   4   7  -4   55.34    6.67
   4  -7  -4   54.83    4.60
   4   7  -4   51.87    5.11
  -4   7   4   46.84    3.80
  -4   7   4   49.19    4.02
  -4   7   4   54.13    4.84
  -4  -7   4   47.41    3.95
   4   7  -4   49.35    2.89
  -4   7   4   45.50    3.78
   4  -7  -4   50.57    7.31
  -4   7   4   51.90    5.20
   4  -7  -4   50.46    3.44
   4  -7  -4   50.10    3.40
   4   7  -4   50.13    3.29
   4   7  -4   61.25    3.79
   4  -7  -4   41.98    3.59
   4   7  -4   52.63    5.80
   4   7  -3    8.90    7.54
   4   7  -3   15.17    2.80
  -4   7   3   13.55    2.19
   4  -7  -3   13.27    2.76
  -4   7   3   12.97    2.86
  -4   7   3   15.93    3.34
  -4  -7   3   14.31    2.27
  -4   7   3   10.63    2.49
   4   7  -3   12.20    1.80
   4   7  -3   12.22    3.78
   4  -7  -3   13.31    2.20
   4  -7  -3   11.10    2.17
  -4   7   3   17.50    3.72
   4  -7  -3   14.81    4.99
   4   7  -3   13.08    1.85
   4   7  -3   16.52    2.45
   4   7  -3   22.51   10.86
   4  -7  -3   12.29    2.33
   4   7  -2  255.67    9.94
   4   7  -2  256.71   16.38
   4  -7  -2  266.20   11.79
  -4   7   2  233.70   10.86
  -4   7   2  251.01   10.81
   4  -7  -2  253.94   10.13
   4  -7  -2  277.05   13.49
  -4   7   2  264.95   11.51
  -4  -7   2  259.39   10.90
   4   7  -2  269.82   10.30
  -4   7   2  243.72   10.74
  -4   7   2  238.10   12.38
   4  -7  -2  264.43   10.48
   4  -7  -2  259.70   10.45
   4   7  -2  321.65   10.86
   4  -7  -2  247.93   10.44
   4   7  -2  294.32   11.74
   4   7  -2  325.64   18.52
  -4   7   1   40.66    3.45
   4  -7  -1   42.57    3.08
  -4   7   1   43.68    3.73
   4  -7  -1   35.14    4.15
   4   7  -1   47.02    2.99
  -4   7   1   38.66    3.48
   4  -7  -1   37.80    3.11
   4  -7  -1   42.14    3.21
   4   7  -1   50.97    8.99
   4   7  -1   39.75    6.03
   4   7  -1   41.44    2.68
   4   7  -1   45.23    4.03
   4  -7  -1   40.48    3.22
  -4   7   0  160.07    8.22
  -4   7   0  140.76   10.90
   4  -7   0  176.43    7.51
  -4   7   0  155.88    7.76
   4  -7   0  177.47    9.54
  -4   7   0  151.54    7.84
   4  -7   0  177.66    7.56
  -4   7   0  165.02    9.68
   4  -7   0  173.37    7.62
  -4  -7   0  206.12   11.66
   4   7   0  199.84    8.43
   4  -7   0  163.21    7.58
   4   7   0  235.54   14.31
   4   7   0  180.56   13.47
   4   7   0  179.16    7.25
   4   7   1  616.85   21.94
   4   7   1  591.98   28.55
  -4   7  -1  581.71   23.23
  -4   7  -1  521.21   25.72
   4  -7   1  651.18   22.25
  -4  -7  -1  667.22   27.25
   4  -7   1  609.14   24.72
  -4   7  -1  556.20   22.51
   4   7   1  644.87   22.15
   4  -7   1  591.15   22.26
  -4   7  -1  435.85   26.64
   4  -7   1  575.01   22.29
   4   7   1  770.89   29.09
   4   7   2   -5.43    7.93
  -4   7  -2    1.96    2.48
  -4   7  -2    4.99    4.28
   4  -7   2    2.43    2.56
   4  -7   2    0.69    3.15
  -4  -7  -2    1.79    3.42
   4   7   2    3.55    1.92
  -4   7  -2    0.57    2.57
  -4   7  -2    5.71    9.00
   4  -7   2    7.04    2.46
   4  -7   2    3.85    2.38
   4   7   2    6.53    7.47
  -4   7  -3  237.39   13.09
  -4   7  -3  217.45   11.22
   4  -7   3  237.68   10.39
   4  -7   3  238.33   12.77
  -4  -7  -3  222.41   12.92
  -4   7  -3  260.07   10.80
   4   7   3  253.94   10.01
   4  -7   3  223.41   10.21
  -4   7  -3  209.02   16.82
   4   7   3  255.41   17.07
   4   7   3  243.59    9.93
   4   7   4  254.17   17.34
   4   7   4  249.45   10.48
   4  -7   4  256.26   10.90
   4  -7   4  235.87   13.24
  -4  -7  -4  235.28   13.98
  -4   7  -4  237.58   13.11
  -4   7  -4  272.71   11.34
   4   7   4  265.15   10.56
  -4   7  -4  213.70   17.78
   4  -7   4  250.97   10.99
   4   7   5  743.29   34.34
   4   7   5  717.82   26.35
  -4  -7  -5  607.38   30.04
   4  -7   5  692.41   26.66
  -4   7  -5  635.94   32.99
   4  -7   5  743.41   26.87
  -4   7  -5  788.29   27.16
   4   7   5  725.55   26.32
   4   7   6  380.29   15.08
   4  -7   6  374.17   15.33
  -4   7  -6  349.59   21.94
   4  -7   6  414.87   14.94
   4  -7   6  390.48   15.45
  -4   7  -6  427.11   15.76
   4   7   6  351.31   14.91
   4   7   7  183.56    8.18
  -4   7  -7  204.96    8.72
   4  -7   7  169.05    8.40
  -4  -7  -7  197.01   10.02
  -4   7  -7  159.13   14.41
   4  -7   7  192.88    8.40
   4   7   8   20.81    2.49
  -4   7  -8   20.29    2.77
   4   7   8   19.74    2.78
   4  -7   8   20.80    2.79
  -4  -7  -8   21.69    2.87
  -4  -7  -8   13.82    4.23
  -4   7  -8   15.89    8.03
   4  -7   8   22.15    2.59
   4  -8 -12  211.69    8.05
  -4   8  12  207.51    8.39
   4  -8 -12  229.21    8.84
   4  -8 -11   12.86    2.29
   4  -8 -11   13.56    2.09
  -4   8  11   10.22    2.71
   4  -8 -11   13.91    3.10
   4  -8 -10   50.96    4.91
   4  -8 -10   45.05    3.68
   4  -8 -10   44.13    3.37
  -4  -8   9  372.80   14.44
   4  -8  -9  418.61   15.45
   4  -8  -8   21.66    3.12
   4  -8  -8   12.45    8.94
  -4   8   8   22.59    3.71
   4   8  -8   18.79    2.91
  -4   8   8   17.58    3.86
  -4  -8   8   20.71    3.58
  -4   8   7    3.87    3.32
  -4  -8   7    0.81    2.70
  -4   8   7    0.35    3.08
   4  -8  -7    1.51    2.36
  -4   8   7    3.94    2.94
   4  -8  -7   -2.98    7.78
   4   8  -7    0.98    2.12
   4   8  -7   -2.13    3.85
   4  -8  -7   -1.60    2.74
   4  -8  -6  378.29   16.53
  -4  -8   6  394.32   16.57
   4  -8  -6  355.22   21.28
  -4   8   6  425.03   17.20
  -4   8   6  370.07   15.42
  -4   8   6  377.24   16.72
   4  -8  -6  386.85   15.02
   4  -8  -6  389.78   14.92
   4   8  -6  396.16   15.17
   4  -8  -6  346.97   16.45
   4   8  -6  336.82   27.20
   4  -8  -5  502.06   21.57
  -4   8   5  539.05   20.76
  -4   8   5  576.78   22.22
   4  -8  -5  531.19   26.37
  -4  -8   5  560.28   21.76
  -4   8   5  534.58   22.23
   4  -8  -5  531.08   20.22
   4  -8  -5  540.55   20.20
   4   8  -5  567.41   20.44
   4  -8  -5  565.64   21.34
   4   8  -5  510.13   23.44
   4   8  -4    8.06    5.44
   4  -8  -4    8.67    2.71
  -4   8   4   13.76    3.12
  -4   8   4   11.66    3.06
  -4  -8   4   11.66    2.60
   4   8  -4   10.36    1.67
   4   8  -4   10.95    4.67
   4  -8  -4    3.83    4.86
   4  -8  -4    9.96    2.27
   4  -8  -4    9.30    2.23
  -4   8   4   10.06    3.46
   4   8  -4   12.22    2.05
   4   8  -4   13.98    2.68
   4  -8  -4    8.95    2.61
   4   8  -3   78.01    6.99
   4  -8  -3   77.93    5.34
  -4   8   3   74.36    4.95
   4  -8  -3   75.29    3.94
   4  -8  -3   67.16    7.28
   4   8  -3   81.27    4.13
   4  -8  -3   81.54    4.45
  -4   8   3   75.51    6.18
   4  -8  -3   72.53    4.31
   4   8  -3   74.71    4.17
   4   8  -3   89.44    4.86
   4  -8  -3   76.89    4.61
   4   8  -3   84.92    6.37
   4   8  -2   68.76    9.75
   4   8  -2   64.21    3.42
  -4   8   2   64.60    4.66
   4  -8  -2   62.64    3.68
   4  -8  -2   51.30    6.02
   4   8  -2   65.16    3.74
  -4   8   2   62.41    5.75
   4  -8  -2   62.70    3.90
   4  -8  -2   64.01    3.92
   4   8  -2   82.26    4.45
   4  -8  -2   53.50    3.87
   4   8  -2   74.39    5.52
   4   8  -1  197.59   14.21
   4   8  -1  179.02    7.78
  -4   8   1  152.10   11.78
  -4   8   1  176.47    8.66
   4  -8  -1  188.50    7.99
   4   8  -1  196.62    8.19
   4  -8  -1  191.72    8.15
  -4  -8   1  221.73   12.70
  -4   8   1  168.95   10.22
   4  -8  -1  192.45    8.26
   4   8  -1  237.90    8.72
   4  -8  -1  179.54    8.18
   4   8  -1  204.59    9.48
  -4   8   0  451.92   22.95
   4  -8   0  502.40   18.66
  -4   8   0  472.67   19.15
   4  -8   0  450.60   20.77
   4  -8   0  517.67   18.74
   4  -8   0  514.42   18.89
  -4  -8   0  586.74   24.34
   4   8   0  530.17   25.52
   4   8   0  502.28   18.55
   4  -8   0  472.42   18.83
   4   8   0  542.29   20.01
   4   8   0  658.71   26.59
  -4   8  -1   21.43    5.50
   4  -8   1   28.65    3.09
   4  -8   1   31.47    4.75
   4   8   1   33.83    3.02
   4  -8   1   29.90    3.14
  -4  -8  -1   33.44    6.78
   4  -8   1   33.15    3.23
   4   8   1   31.62    2.80
   4   8   1   36.02    8.72
   4   8   2  180.29   13.89
   4   8   2  155.56    7.14
  -4   8  -2  138.06   10.21
   4  -8   2  166.12    7.44
  -4  -8  -2  147.18   10.17
   4  -8   2  139.30    9.65
   4   8   2  166.78    7.32
   4  -8   2  156.59    7.44
  -4   8  -2  121.33   13.97
   4  -8   2  154.66    7.57
  -4   8  -3  300.86   16.18
   4  -8   3  352.89   13.79
  -4  -8  -3  286.00   16.49
   4  -8   3  326.29   16.42
   4   8   3  369.33   13.53
   4  -8   3  329.33   13.53
  -4   8  -3  267.75   20.14
   4   8   3  368.99   20.60
   4  -8   4    0.78    3.46
  -4  -8  -4   -0.67    4.29
   4  -8   4    3.82    2.78
  -4   8  -4   -0.47   10.81
   4   8   4    3.84    7.47
   4   8   4    0.29    2.17
   4   8   4    0.78    2.22
   4   8   4    3.54    2.14
   4   8   5   64.14    4.28
   4  -8   5   62.60    4.67
   4  -8   5   67.53    4.70
   4   8   5   67.32    4.20
   4   8   5   52.95    3.97
   4   8   6  431.62   15.78
   4   8   6  344.00   15.24
   4   8   6  391.94   15.50
   4  -8   6  431.18   15.82
  -4   8  -6  340.65   22.00
   4  -8   6  437.49   15.27
   4  -8   6  421.73   15.82
   4   8   7  278.28   11.20
  -4  -8  -7  263.67   11.16
   4  -8   7  309.26   11.34
  -4  -8  -7  253.60   12.38
   4  -8   7  304.59   11.28
   4   8   8   98.53    4.62
  -4  -8  -8   80.49    4.59
   4  -8   8   98.76    4.62
  -4   8  -8   67.03    8.68
   4  -8   8  107.52    4.63
  -4   9  11    2.10    2.03
  -4   9  11    2.52    1.70
   4  -9 -11    0.88    1.52
   4  -9 -11   -0.39    1.40
   4  -9 -11    0.47    2.22
   4   9 -11    0.99    8.59
   4   9 -10   12.04    4.35
   4  -9 -10   17.15    2.42
  -4   9  10   16.83    2.52
   4  -9 -10   23.75    3.47
   4  -9  -9    5.63    2.42
  -4   9   9    9.25    2.59
   4   9  -9    8.93   13.07
   4  -9  -9    2.14    3.45
  -4   9   8   62.39    4.92
  -4   9   8   65.94    4.51
   4  -9  -8   72.87    4.44
   4  -9  -8   77.92    4.41
   4   9  -8   62.55    4.48
   4   9  -8   39.30   14.38
   4   9  -8   52.31    7.56
  -4   9   7   93.84    6.60
  -4   9   7   98.03    5.98
  -4   9   7   95.79    5.52
   4  -9  -7   73.11   11.49
   4  -9  -7   98.87    5.38
   4  -9  -7   97.14    5.25
  -4  -9   7  100.33    6.59
   4   9  -7   99.77    5.59
   4   9  -7  103.14   17.03
   4   9  -7   84.18    8.69
  -4   9   6   65.11    4.63
  -4   9   6   59.37    5.27
  -4   9   6   75.57    5.20
  -4  -9   6   74.97    5.48
  -4   9   6   57.76    5.41
   4  -9  -6   74.69    4.46
   4  -9  -6   49.02    9.12
   4  -9  -6   74.70    4.44
   4   9  -6   78.83    4.69
   4   9  -6   79.74   15.32
   4  -9  -6   72.91    6.66
   4   9  -6   63.01    7.39
  -4   9   5   42.12    3.83
  -4   9   5   45.38    4.40
  -4  -9   5   42.01    4.14
   4   9  -5   45.55    6.54
   4  -9  -5   47.76    3.49
  -4   9   5   43.60    4.73
   4  -9  -5   41.10    3.37
   4  -9  -5   36.37    7.45
   4   9  -5   49.48    3.60
   4   9  -5   63.94   14.09
   4  -9  -5   44.08    4.83
  -4   9   4  554.05   22.28
  -4   9   4  576.09   22.73
   4  -9  -4  554.21   27.33
   4  -9  -4  580.80   22.13
  -4   9   4  590.94   24.39
   4  -9  -4  597.76   22.05
   4   9  -4  785.22   33.89
   4  -9  -4  559.55   22.66
   4   9  -4  638.33   24.83
   4   9  -4  609.10   22.28
   4   9  -4  730.60   23.01
   4   9  -4  605.73   21.78
   4   9  -3    3.31    1.76
  -4   9   3    2.53    2.38
   4  -9  -3    1.64    1.71
  -4   9   3    5.68    3.07
  -4   9   3    1.25    2.58
   4  -9  -3    2.78    1.92
  -4   9   3    5.61    3.41
   4  -9  -3    4.12    2.01
   4  -9  -3    1.69    4.69
   4   9  -3    3.03    1.78
   4   9  -3    1.56    2.43
   4  -9  -3    3.40    2.33
   4   9  -3    3.42    3.99
   4   9  -2  498.91   18.49
   4  -9  -2  479.17   18.57
  -4   9   2  495.60   19.51
   4   9  -2  520.15   19.00
  -4   9   2  477.67   19.40
  -4   9   2  476.56   21.36
   4  -9  -2  498.51   18.92
   4  -9  -2  501.29   18.79
  -4  -9   2  563.33   24.25
   4  -9  -2  489.14   19.08
   4   9  -2  541.70   20.78
   4   9  -1   46.47    8.72
   4   9  -1   53.60    3.29
  -4   9   1   40.66    6.69
   4  -9  -1   48.64    3.51
  -4   9   1   52.60    4.49
   4   9  -1   56.28    3.70
  -4   9   1   43.30    3.93
   4  -9  -1   49.15    3.40
   4  -9  -1   50.71    3.62
  -4  -9   1   58.19    7.58
   4   9  -1   64.93    4.21
   4   9  -1   50.11    5.00
   4  -9  -1   49.91    3.67
   4   9   0  355.71   13.35
   4   9   0  364.83   19.70
  -4   9   0  289.70   17.28
  -4   9   0  334.09   14.00
   4  -9   0  346.58   13.33
   4  -9   0  307.49   15.28
  -4   9   0  327.13   13.93
  -4  -9   0  388.15   19.51
   4  -9   0  348.49   13.53
  -4   9   0  407.90   14.68
   4  -9   0  323.48   13.49
  -4   9  -1   90.11    8.43
   4  -9   1   97.84    5.28
   4  -9   1   88.18    7.11
  -4   9  -1   97.11    5.83
   4   9   1  104.34    5.56
   4  -9   1  103.31    5.43
   4   9   1  104.96    5.27
   4   9   1  108.70   11.02
   4  -9   1  101.12    5.50
  -4   9  -2  178.17   11.84
   4  -9   2  201.94    8.80
  -4  -9  -2  186.83   11.98
   4  -9   2  180.90   11.18
  -4   9  -2  204.40    9.43
   4   9   2  211.22    9.01
   4  -9   2  205.42    8.88
   4  -9   2  206.01    9.02
   4   9   2  182.82   13.94
   4   9   2  208.29    8.85
   4   9   3    5.17    2.36
  -4   9  -3    4.69    3.07
   4  -9   3    5.86    2.60
   4   9   3    3.02    6.89
  -4  -9  -3    7.25    4.81
   4  -9   3    4.81    3.85
   4  -9   4   14.14    2.94
  -4   9  -4    8.96    2.45
  -4   9  -4   12.09   10.40
   4   9   4   13.81    2.76
   4   9   4   16.50    2.79
  -4   9  -4    8.48    3.16
   4   9   5   11.49    2.70
   4  -9   5   11.24    2.68
  -4   9  -5    8.59   10.18
   4  -9   5   11.40    2.65
   4   9   5    6.90    2.33
  -4   9  -5    7.67    2.82
   4   9   6  136.97    6.59
   4  -9   6  145.59    6.53
  -4   9  -6  134.37    6.72
   4   9   6  134.18    6.35
   4  -9   6  149.37    6.54
  -4   9  -7    1.79    1.95
   4  -9   7    1.83    1.97
   4   9   7    1.44    1.96
   4  -9   7   -0.06    1.65
   4 -10 -10  168.11    6.84
   4 -10 -10  171.07    6.90
   4 -10 -10  180.22    7.59
  -4  10  10  159.64    6.87
  -4  10  10  166.80    7.26
   4  10 -10  181.40   13.37
   4 -10  -9  330.69   12.36
   4 -10  -9  316.60   12.35
   4 -10  -9  339.21   13.32
  -4  10   9  311.55   12.39
   4  10  -9  305.40   14.05
   4 -10  -8   33.00    2.92
   4 -10  -8   33.48    2.96
   4  10  -8   31.67    5.17
  -4  10   8   34.00    3.72
  -4  10   8   31.99    3.10
   4  10  -8   39.00   11.61
  -4  10   7   14.20    3.39
  -4  10   7   13.63    2.66
   4 -10  -7   16.55    2.52
   4 -10  -7   15.37    2.51
   4  10  -7   15.89    5.04
   4  10  -7   13.64    2.69
   4  10  -7   22.89   12.23
  -4  10   6  139.39    6.78
  -4  10   6  142.18    7.34
   4 -10  -6  150.36    6.68
   4 -10  -6  134.53    6.45
   4  10  -6  145.03    6.98
   4 -10  -6  106.76    8.48
   4  10  -6  153.29    9.47
   4  10  -6  187.97   16.77
  -4  10   5  155.44    7.51
  -4  10   5  175.60    8.20
   4 -10  -5  138.40   12.77
   4 -10  -5  165.29    7.29
   4 -10  -5  151.07    7.07
   4  10  -5  170.95    7.65
   4  10  -5  215.09   17.19
   4 -10  -5  142.24    8.71
   4  10  -5  182.01   10.07
  -4  10   4  608.31   24.60
  -4  10   4  673.36   25.24
   4 -10  -4  594.54   29.67
   4  10  -4  694.43   24.24
   4 -10  -4  644.05   24.41
   4 -10  -4  636.31   24.26
   4  10  -4  697.63   24.76
   4  10  -4  766.78   25.37
   4 -10  -4  664.63   25.50
   4  10  -4  777.80   27.39
  -4  10   3  205.64    9.17
   4 -10  -3  201.33    8.39
  -4  10   3  224.14    9.83
   4  10  -3  225.87    8.88
  -4  10   3  157.96   12.20
  -4  10   3  193.05   11.05
   4 -10  -3  196.22    8.75
  -4 -10   3  271.41   14.40
   4 -10  -3  202.02    8.61
   4  10  -3  210.33    8.87
   4  10  -3  248.55    9.75
   4 -10  -3  194.56    9.20
   4  10  -3  225.89   11.03
   4  10  -3  267.29   17.16
   4  10  -2  579.23   20.94
   4 -10  -2  543.55   20.95
  -4  10   2  573.30   22.03
   4  10  -2  606.04   21.49
  -4  10   2  521.57   21.67
  -4  10   2  464.94   25.30
   4 -10  -2  564.94   21.26
  -4 -10   2  644.97   27.39
   4 -10  -2  556.09   21.00
   4  10  -2  695.92   22.20
   4  10  -2  599.54   23.25
   4 -10  -2  599.01   21.68
   4  10  -2  766.02   30.48
   4  10  -1    4.00    1.88
   4 -10  -1    4.96    2.15
  -4  10   1    2.64    3.29
  -4  10   1    3.48    2.46
   4  10  -1    5.56    2.19
  -4 -10   1    7.33    5.44
   4 -10  -1    3.69    2.04
  -4  10   1    4.06    3.07
   4  10  -1    2.62    2.38
   4 -10  -1    2.44    2.25
   4  10  -1    2.45    3.45
   4  10  -1    1.20    8.58
   4  10   0  211.01   14.56
   4  10   0  235.94    9.79
  -4  10   0  222.75   10.46
   4 -10   0  222.47    9.65
  -4 -10   0  251.18   15.54
  -4  10   0  224.61   10.27
   4  10   0  246.02   10.18
   4 -10   0  236.72    9.82
  -4  10   0  294.34   11.29
   4 -10   0  239.42    9.94
   4  10   0  280.96   16.90
   4  10   1    7.09    2.17
   4 -10   1    4.99    2.36
  -4 -10  -1    3.52    4.18
   4 -10   1    3.66    2.20
   4 -10   1    4.90    2.21
  -4  10  -1    0.76    2.53
   4  10   1    3.11    2.45
   4  10   2   37.58    3.54
  -4  10  -2   35.07    3.70
   4 -10   2   36.44    3.25
   4 -10   2   32.60    3.10
   4 -10   2   36.70    3.25
   4  10   2   37.29    3.37
   4 -10   3  460.43   17.26
  -4  10  -3  437.13   17.66
   4  10   3  459.00   17.45
   4 -10   4   88.90    4.66
   4  10   4   86.62    4.84
   4  10   4   79.04    4.74
  -4  10  -4   90.44    5.15
   4  10   5   14.14    2.41
  -4  10  -5   18.60    2.71
   4  10   5   14.17    2.62
   4 -10   5   17.92    2.42
   4 -10   5   17.70    2.57
   4  10   6    4.80    1.83
  -4  10  -6    3.99    1.96
   4 -10   6    2.93    1.94
   4  10   6    2.42    2.15
   4 -10   6    4.89    1.70
   4 -11  -9   49.21    3.47
  -4  11   9   42.69    2.75
   4 -11  -9   52.94    2.83
   4 -11  -9   46.63    2.71
   4 -11  -8   23.82    2.26
   4 -11  -8   23.31    2.16
  -4  11   8   19.94    3.00
  -4  11   8   22.75    2.44
   4 -11  -8   21.50    3.10
   4  11  -8   20.96    3.67
  -4  11   7  483.36   18.19
  -4  11   7  466.67   17.60
   4 -11  -7  475.15   17.52
   4 -11  -7  443.08   17.34
   4  11  -7  485.94   18.08
   4 -11  -6    1.02    1.68
   4 -11  -6    0.85    1.82
  -4  11   6    0.61    2.18
  -4  11   6   -0.51    2.96
   4  11  -6   -0.10    2.14
   4  11  -6    3.65    3.86
  -4  11   5   -1.31    2.29
  -4  11   5    2.15    3.17
   4 -11  -5   -0.57    1.69
   4 -11  -5   -0.80    1.82
   4  11  -5    0.67    2.07
   4 -11  -5    2.89    3.72
   4  11  -5    3.79    3.92
   4  11  -5    3.22    8.65
   4  11  -4   10.83    1.87
  -4  11   4    9.98    2.55
  -4  11   4    4.75    3.24
   4 -11  -4    9.59    1.92
   4 -11  -4    9.08    2.06
   4  11  -4   12.65    2.33
   4 -11  -4    4.33    3.14
   4  11  -4    8.28    4.05
   4  11  -3   74.32    4.10
  -4  11   3   70.05    4.43
   4 -11  -3   70.90    3.70
  -4  11   3   71.13    5.17
   4 -11  -3   65.99    3.99
   4  11  -3   64.21    3.85
   4  11  -3   78.23    4.88
   4  11  -3   87.57   10.70
   4 -11  -3   59.77    4.71
   4  11  -3   86.11    6.25
   4  11  -2   13.39    1.94
   4  11  -2   14.32    2.39
  -4  11   2   20.65    3.63
  -4  11   2   12.95    2.79
   4 -11  -2   20.32    2.33
   4 -11  -2   17.74    2.35
  -4  11   2   20.16    3.39
   4  11  -2   17.84    2.94
   4 -11  -2   13.04    2.68
   4  11  -2   17.86    8.42
   4  11  -2   17.32    4.07
   4  11  -1    1.97    1.84
   4 -11  -1    2.38    2.09
  -4  11   1    2.39    3.34
  -4  11   1    3.57    3.13
   4  11  -1    2.94    2.18
   4 -11  -1    2.92    1.98
   4 -11  -1    0.98    2.35
   4  11  -1    0.36    7.59
   4  11  -1    2.48    2.20
  -4  11   1    1.74    2.44
   4  11   0    6.90    2.10
  -4  11   0    4.14    2.37
   4  11   0    7.31    2.49
   4 -11   0    3.38    2.14
   4 -11   0    3.96    1.98
   4 -11   0    5.86    2.19
   4  11   0   12.20    7.82
   4  11   1  383.74   14.84
  -4  11  -1  370.40   15.05
   4 -11   1  383.36   14.54
   4 -11   1  383.28   14.53
   4 -11   1  379.26   14.72
   4 -11   2    2.24    2.07
   4 -11   2    5.23    2.05
   4  11   2    3.93    2.32
  -4  11  -2    3.22    2.23
   4  11   2    2.78    2.30
   4  11   3   19.40    2.78
   4 -11   3   19.89    2.59
  -4  11  -3   16.91    2.57
   4 -11   3   17.51    2.32
  -4  11  -3   20.84    2.72
   4  11   3   15.33    2.74
  -4  11  -4    5.57    1.64
  -4  11  -4    4.80    2.02
   4  11   4    4.36    2.23
   4 -11   4    5.50    1.87
  -4  11  -5  480.95   17.31
   4  11   5  472.77   17.42
   4 -11   5  474.55   17.17
   4  11   5  427.45   17.45
   4 -11   5  500.36   17.12
   4 -12  -8  228.08    8.35
  -4  12   8  202.41    7.82
   4 -12  -8  235.85    7.91
   4 -12  -8  188.63    7.54
  -4  12   8  188.34    7.59
   4 -12  -7  172.33    6.79
  -4  12   7  185.51    7.59
  -4  12   7  166.93    6.84
   4 -12  -7  182.14    7.54
   4  12  -7  196.37    7.98
   4 -12  -6    5.81    1.63
  -4  12   6    4.37    2.68
  -4  12   6    5.06    1.82
   4  12  -6    4.50    3.00
   4  12  -6    8.09    6.69
  -4  12   6    4.97    1.78
  -4  12   5  172.54    7.85
  -4  12   5  156.41    6.97
   4  12  -5  159.52    7.25
   4 -12  -5  158.40    6.82
   4 -12  -4  349.47   13.54
  -4  12   4  356.35   13.77
  -4  12   4  381.60   14.50
   4  12  -4  443.46   15.66
   4 -12  -4  294.63   14.79
   4  12  -4  491.50   20.28
   4  12  -3   53.17    3.33
  -4  12   3   48.77    3.46
  -4  12   3   53.40    4.33
   4 -12  -3   49.19    3.12
  -4  12   3   54.85    4.29
   4 -12  -3   42.78    4.23
   4  12  -3   57.68    4.97
   4  12  -2  327.07   12.70
  -4  12   2  317.14   13.11
  -4  12   2  302.23   12.48
   4 -12  -2  324.23   12.14
   4 -12  -2  301.39   12.20
  -4  12   2  384.89   13.65
   4  12  -2  350.21   13.00
   4 -12  -2  291.49   12.83
   4  12  -2  357.23   14.17
   4  12  -1   35.14    2.67
   4  12  -1   35.01    3.17
  -4  12   1   36.22    3.10
   4 -12  -1   36.77    2.82
   4 -12  -1   35.34    2.65
   4 -12  -1   34.64    3.19
   4  12   0   45.59    3.13
  -4  12   0   45.41    3.31
   4  12   0   45.16    3.53
  -4  12   0   42.50    3.29
   4 -12   0   43.41    3.01
   4 -12   0   36.70    2.73
  -4  12   0   49.80    3.57
   4 -12   0   44.12    3.30
   4 -12   1  221.99    8.62
   4 -12   1  220.74    8.83
   4  12   1  207.82    8.85
  -4  12  -1  207.08    8.87
   4  12   2  160.08    7.47
   4 -12   2  185.96    7.23
  -4  12  -2  153.77    7.49
   4 -12   2  188.34    7.34
   4  12   2  174.24    7.80
  -4  12  -2  177.40    7.44
   4  12   3  810.00   30.35
  -4  12  -3  917.49   30.22
   4  12   3  859.62   30.50
   4 -12   3  933.47   30.03
   4 -12   3  895.41   30.01
   4 -12   4   19.78    1.72
   4  12   4   17.77    2.21
  -4  12  -4   17.11    1.85
  -4  13   5    1.02    1.58
  -4  13   5    2.27    2.24
  -4  13   5    2.27    1.43
  -4  13   5    1.85    2.11
   4  13  -5    2.85    2.15
   4  13  -5    4.66    5.06
   4 -13  -5    3.41    1.21
  -4  13   4  210.25    8.80
  -4  13   4  197.65    8.10
   4 -13  -4  191.01    7.92
  -4  13   4  236.02    9.07
   4  13  -4  280.72   12.66
   4  13  -4  244.87    9.41
   4  13  -3    6.61    1.53
  -4  13   3    7.42    1.76
  -4  13   3    5.25    2.53
  -4  13   3    9.57    2.63
   4 -13  -3    6.72    1.38
   4  13  -3    7.31    5.56
   4 -13  -3    4.42    2.90
   4 -13  -2  277.20   10.62
   4  13  -2  289.93   11.11
  -4  13   2  299.48   10.94
   4 -13  -2  265.04   11.53
   4  13  -1    8.10    1.96
  -4  13   1    7.48    1.81
  -4  13   1    5.07    1.96
   4 -13  -1    7.08    2.39
   4  13  -1    7.15    5.36
   4  13   0   62.98    3.87
   4 -13   0   60.36    3.64
  -4  13   0   66.90    3.50
   4 -13   0   74.53    3.44
   4  13   1   41.01    2.77
  -4  13  -1   42.74    2.61
  -4  13  -1   35.59    2.85
   4 -13   1   40.53    2.84
   4  13   2  185.62    7.38
   4 -13   2  204.95    7.13
  -4  13  -2  178.60    6.98
   4  13   2  195.22    7.66
   4 -13   2  179.65    7.12
  -5   0  14   -0.69    2.21
   5   0 -13   49.66    3.43
  -5   0  13   50.53    3.18
   5   0 -12    0.19    2.34
  -5   0  12    1.10    2.09
   5   0 -11  155.64    7.83
  -5   0  11  173.06    7.56
  -5   0  10    0.45    3.31
  -5   0  10    0.62    2.74
   5   0 -10    3.96    2.62
   5   0 -10    4.92    3.17
   5   0 -10   -0.21    2.81
  -5   0   9   98.29    4.90
  -5   0   9   96.80    7.28
   5   0  -9   90.64    5.56
   5   0  -9   86.61    6.49
   5   0  -9   86.10    6.67
   5   0  -9   98.31    4.85
  -5   0   9  102.82    7.14
  -5   0   8    0.44    3.32
   5   0  -8   -1.05    6.30
   5   0  -8    5.57   16.24
   5   0  -8    0.82    2.49
   5   0  -8    0.20    2.76
   5   0  -8    0.19    2.72
  -5   0   8    0.39    3.13
   5   0  -8    0.99    1.87
  -5   0   7 1278.74   45.39
   5   0  -7 1276.88   45.51
   5   0  -7 1158.13   44.56
   5   0  -7 1325.00   44.92
   5   0  -7 1176.96   42.56
  -5   0   7 1288.25   44.68
  -5   0   6    0.20    3.41
   5   0  -6    0.38    6.30
   5   0  -6   -0.51    2.49
   5   0  -6    1.33    2.66
  -5   0   6   -0.15    2.77
   5   0  -6    3.46    2.08
  -5   0   5    3.43    3.74
   5   0  -5    3.57    2.58
   5   0  -5    0.95    2.60
  -5   0   5   -0.28    2.67
  -5   0   4    1.20    3.46
   5   0  -4    0.44    2.26
   5   0  -4   -0.15    2.58
  -5   0   4    1.30    2.61
  -5   0   3 3338.16  112.76
   5   0  -3 3365.85  113.22
   5   0  -3 3018.65  112.75
   5   0  -3 3299.15  113.87
   5   0  -2   -1.84    4.28
  -5   0   2    2.51    2.89
   5   0  -1  238.27   11.71
  -5   0   1  230.48   10.30
   5   0   0    0.96    2.29
  -5   0   0   -1.36    2.30
   5   0   0    0.58    1.85
   5   0   0   -0.30    1.73
  -5   0   0    0.81    2.30
   5   0   0    2.10    4.00
  -5   0   0    4.63    3.39
  -5   0  -1   18.45    3.44
   5   0   1   18.08    2.96
   5   0   1   15.87    2.20
   5   0   1   19.40    2.51
   5   0   1   17.70    4.61
   5   0   1   20.94    2.49
  -5   0  -1   21.75    3.96
  -5   0  -2    2.02    3.21
   5   0   2    1.42    2.76
   5   0   2   -0.41    1.81
   5   0   2    0.69    2.01
   5   0   2    1.17    1.99
   5   0   2    1.81    4.08
  -5   0  -2    0.38    3.15
  -5   0  -2   -0.16    2.34
  -5   0  -3  341.57   16.19
   5   0   3  337.82   13.15
   5   0   3  340.83   13.47
   5   0   3  361.34   13.84
   5   0   3  388.26   17.22
  -5   0  -3  393.59   16.34
  -5   0  -4    4.80    3.50
  -5   0  -4   -2.22    4.26
   5   0   4    3.22    3.30
   5   0   4    0.28    4.65
   5   0   4    1.48    2.41
   5   0   4    3.80    1.73
  -5   0  -5  385.07   17.43
   5   0   5  420.63   15.74
  -5   0  -5  366.63   14.17
  -5   0  -5  366.11   18.57
   5   0   5  362.55   18.63
   5   0   5  374.75   14.83
   5   0   5  352.19   14.13
   5   0   6   -2.86    3.56
   5   0   6   -3.21    2.42
  -5   0  -6   -0.31    1.87
  -5   0  -6   -0.70    4.83
   5   0   6    2.82    2.57
   5   0   6    1.31    4.96
   5   0   6    0.55    1.97
   5   0   7 1282.10   42.19
   5   0   7 1104.88   41.59
  -5   0  -7 1173.56   41.12
   5   0   7 1160.84   41.28
   5   0   7 1151.43   41.10
   5   0   8   -0.14    2.02
  -5   0  -8   -0.06    1.73
   5   0   8   -0.06    1.81
   5   0   8    0.36    2.89
   5   0   9  344.98   12.59
   5   0   9  326.77   12.77
  -5   1  14   28.72    2.17
  -5  -1  14   36.48    3.11
  -5   1  14   32.44    2.97
   5  -1 -13  139.31    6.64
  -5   1  13  142.08    6.36
   5  -1 -12  153.08    7.36
   5   1 -12  137.42    6.62
  -5   1  12  145.47    6.89
   5  -1 -11    0.14    1.61
   5   1 -11    1.04    2.23
   5  -1 -11    3.35    2.96
  -5   1  11    4.32    3.29
  -5  -1  11   -0.64    2.93
  -5   1  10  903.79   32.20
  -5  -1  10  873.11   34.31
  -5   1  10  932.95   35.38
  -5  -1  10  841.56   34.44
  -5   1  10  800.93   33.86
   5   1 -10  912.62   32.42
   5  -1 -10  837.60   32.89
  -5   1  10  952.93   35.29
   5  -1 -10  938.61   32.06
  -5  -1  10  979.23   35.11
   5  -1 -10  899.54   46.79
   5   1 -10  933.38   34.46
   5  -1 -10  888.94   34.63
   5   1 -10  851.85   34.85
   5  -1 -10  877.47   34.67
  -5   1   9   30.55    3.01
  -5   1   9   33.57    5.14
  -5  -1   9   31.69    4.66
   5  -1  -9   30.88    3.90
  -5  -1   9   29.69    4.48
   5  -1  -9   31.89    2.94
   5  -1  -9   40.12   18.69
   5   1  -9   26.35   17.46
   5   1  -9   29.93    4.35
   5  -1  -9   26.01    3.98
   5  -1  -9   29.94    4.12
   5   1  -9   31.13    4.06
  -5   1   8  237.50    9.78
  -5   1   8  261.38   12.71
  -5  -1   8  241.79   12.17
   5  -1  -8  211.98   10.48
  -5   1   8  251.25   12.21
   5  -1  -8  254.82    9.96
  -5  -1   8  257.66   11.94
   5   1  -8  268.94   14.22
   5   1  -8  200.25   23.57
   5  -1  -8  248.14   11.90
   5   1  -8  221.18   11.78
   5  -1  -8  243.72   11.82
   5   1  -8  255.51   11.83
  -5   1   7   13.63    3.96
  -5  -1   7   14.66    3.94
  -5   1   7   16.08    2.26
  -5  -1   7   18.04    3.49
   5  -1  -7   15.74    2.39
  -5   1   7   14.70    3.59
   5  -1  -7   11.85    6.06
   5   1  -7   17.76    7.08
   5   1  -7    4.37   15.54
   5   1  -7   17.95    3.43
   5  -1  -7   11.98    2.96
   5  -1  -7   16.19    3.37
   5   1  -7   11.89    3.29
   5  -1  -6  322.93   13.51
  -5   1   6  335.10   14.70
   5  -1  -6  336.72   13.09
  -5  -1   6  356.64   14.46
  -5   1   6  346.73   15.40
  -5  -1   6  363.78   15.64
   5   1  -6  332.83   16.44
   5   1  -6  337.01   14.90
   5  -1  -6  350.24   14.94
   5   1  -6  359.05   14.86
   5  -1  -6  316.89   14.47
   5   1  -5 1708.76   61.11
   5  -1  -5 1814.55   61.22
  -5   1   5 1824.86   63.29
  -5  -1   5 1704.14   63.13
   5   1  -5 1762.14   63.61
   5  -1  -5 1708.71   62.28
   5  -1  -5 1937.81   62.95
   5   1  -5 1674.31   62.30
   5   1  -5 1794.00   62.85
  -5   1   5 1736.54   62.35
   5  -1  -5 1677.69   60.83
  -5  -1   5 1795.05   62.05
  -5   1   4   31.26    4.54
  -5  -1   4   39.99    4.68
   5   1  -4   40.66    6.33
   5   1  -4   31.27    3.86
   5  -1  -4   40.17    3.73
   5  -1  -4   37.40    4.27
   5   1  -4   32.39    3.75
  -5  -1   4   34.24    3.77
  -5   1   4   39.88    4.10
   5  -1  -3   14.21    4.16
   5   1  -3   16.69    5.33
   5   1  -3   20.44    3.24
   5  -1  -3   16.73    3.39
   5   1  -3   21.27    2.93
  -5  -1   3   19.45    3.13
  -5   1   3   21.42    3.58
   5   1  -2   37.75    5.89
   5  -1  -2   33.35    4.48
   5  -1  -2   36.12    3.89
  -5  -1   2   37.92    3.69
  -5   1   2   38.05    4.16
   5  -1  -1  497.69   18.80
  -5  -1   1  516.86   19.37
  -5   1   1  460.87   19.72
   5   1  -1  508.12   21.65
   5  -1  -1  491.78   20.43
   5   1   0  859.11   31.35
   5  -1   0  830.69   31.34
  -5   1   0  881.12   32.37
  -5  -1   0  949.14   32.35
   5  -1   0  853.43   31.16
   5   1   0  846.98   31.13
  -5   1   0  876.65   32.48
   5  -1   0  900.53   31.38
   5   1   0  934.35   35.40
   5  -1   0  906.86   33.38
   5   1   0  897.72   34.42
   5   1   0  983.19   31.46
  -5   1   0  851.53   32.45
  -5   1   0  866.28   33.37
  -5  -1   0  913.59   33.26
   5   1   1   42.31    3.54
   5  -1   1   40.27    3.60
  -5   1  -1   55.35    4.78
  -5  -1  -1   45.51    4.21
   5  -1   1   44.10    3.06
   5   1   1   46.05    3.22
  -5   1  -1   45.39    3.88
   5   1   1   48.03    5.99
   5  -1   1   46.21    5.06
   5  -1   1   49.12    3.50
   5   1   1   44.90    3.14
  -5   1  -1   46.19    4.92
  -5  -1  -1   48.42    4.79
   5   1   2   30.90    3.43
   5  -1   2   32.97    3.62
  -5   1  -2   27.56    4.47
  -5  -1  -2   27.79    4.04
  -5  -1  -2   32.11    4.10
  -5   1  -2   30.23    4.53
   5   1   2   29.06    2.82
   5  -1   2   28.92    2.66
   5  -1   2   30.38    3.06
   5   1   2   28.95    5.52
   5   1   2   29.00    2.71
   5  -1   2   35.05    4.85
   5  -1   2   27.64    2.43
  -5   1  -3   91.11    7.49
  -5  -1  -3   92.18    7.00
  -5   1  -3  103.42    7.44
  -5  -1  -3  112.21    7.17
  -5   1  -3   85.04    6.73
  -5   1  -3   97.15    4.77
   5   1   3   87.14    5.14
   5  -1   3   95.22    4.96
   5   1   3   99.54    8.35
   5  -1   3   98.02    7.60
   5  -1   3  101.13    5.42
   5   1   3   98.08    5.13
   5  -1   3   92.87    4.72
   5   1   4 1056.99   35.93
  -5   1  -4  967.95   38.96
  -5  -1  -4  947.96   38.15
  -5   1  -4 1027.06   38.22
  -5  -1  -4 1029.91   37.69
  -5   1  -4  974.89   34.89
   5  -1   4  955.96   34.95
   5   1   4  943.78   35.27
   5   1   4 1051.93   40.02
   5  -1   4  994.43   38.37
   5  -1   4 1003.16   35.51
   5   1   4  985.54   35.21
   5  -1   4  943.14   34.82
   5  -1   5   39.78    4.69
   5   1   5   53.45    4.70
  -5   1  -5   44.33    6.76
  -5  -1  -5   43.17    6.11
  -5   1  -5   51.83    5.81
  -5  -1  -5   40.51    5.10
  -5   1  -5   43.73    3.32
   5  -1   5   43.84    3.53
   5   1   5   41.87    7.40
   5  -1   5   46.30    6.29
   5   1   5   47.66    3.71
   5  -1   5   47.81    4.01
   5  -1   5   44.40    3.34
   5   1   5   44.56    3.01
  -5   1  -6   30.65    6.42
  -5  -1  -6   25.02    5.99
   5   1   6   38.34    4.36
   5  -1   6   33.34    4.45
   5  -1   6   31.42    3.05
   5   1   6   33.52    2.72
   5  -1   6   26.79    3.50
   5   1   6   30.85    3.44
   5   1   6   32.29    7.14
   5  -1   6   24.13    5.67
  -5   1  -6   34.31    3.05
   5  -1   6   30.26    3.13
   5   1   7  118.46    6.41
   5  -1   7  129.27    7.05
   5   1   7  139.18    7.00
  -5   1  -7  115.57    9.64
   5  -1   7  121.32    5.93
   5   1   7  118.56    5.62
  -5   1  -7  129.62    5.99
   5  -1   7  125.80    5.99
   5   1   7  117.91    6.02
   5  -1   8    5.57    2.98
   5   1   8    4.94    2.94
   5  -1   8    6.63    1.99
   5  -1   8    5.76    1.99
   5   1   8    5.89    2.19
  -5   1  -8    5.20    1.95
   5   1   9  268.27   16.05
  -5   1  -9  283.92   11.02
   5  -1   9  306.60   11.03
   5   1   9  310.41   11.28
   5  -1   9  287.46   11.32
   5   1   9  285.99   11.28
   5  -2 -14    0.80    1.50
  -5   2  14    1.07    1.40
  -5  -2  14   -1.10    2.27
  -5   2  14   -0.85    2.05
   5  -2 -13    1.66    2.36
  -5   2  13   -1.00    2.07
   5  -2 -12  548.50   20.47
   5  -2 -12  518.05   19.19
   5  -2 -11   84.96    4.57
   5  -2 -11   77.58    5.72
  -5  -2  11   76.51    6.23
  -5   2  11   80.92    6.73
  -5   2  11   84.14    5.84
  -5   2  11   81.71    4.87
  -5   2  10  193.87    9.63
  -5   2  10  204.18    8.85
  -5   2  10  199.13   11.40
  -5  -2  10  214.40   11.00
   5  -2 -10  190.06    9.72
  -5   2  10  208.35   11.32
   5  -2 -10  209.49    8.65
  -5  -2  10  212.19   10.93
   5  -2 -10  195.63   10.82
   5  -2 -10  192.19   23.05
   5   2 -10  170.09   10.66
  -5   2   9  450.27   17.28
  -5   2   9  502.39   20.65
  -5  -2   9  450.49   19.04
   5  -2  -9  405.36   18.14
  -5   2   9  475.64   20.02
   5  -2  -9  454.53   17.19
   5  -2  -9  457.32   16.70
  -5  -2   9  501.32   19.67
   5  -2  -9  461.04   19.67
   5   2  -9  424.68   19.65
   5  -2  -9  468.53   19.35
   5   2  -9  471.30   19.12
  -5  -2   8  811.73   30.95
  -5   2   8  852.86   31.95
  -5   2   8  787.87   28.83
   5  -2  -8  810.63   28.88
   5  -2  -8  810.14   28.39
   5   2  -8  782.94   42.04
   5  -2  -8  786.62   31.04
   5   2  -8  798.55   32.58
   5   2  -8  742.86   31.21
   5   2  -8  879.35   30.92
   5  -2  -8  808.46   30.82
  -5   2   7  112.65    7.48
  -5  -2   7  103.65    7.04
  -5   2   7   96.97    5.06
  -5   2   7  104.92    7.01
   5  -2  -7   98.31    5.10
   5  -2  -7  102.73    4.74
   5   2  -7   89.79    9.41
   5   2  -7   94.20    6.74
   5  -2  -7   97.51    6.54
   5   2  -7   95.96    6.29
   5  -2  -7  101.60    6.30
   5   2  -6  612.62   24.22
   5  -2  -6  616.39   24.00
   5   2  -6  581.21   23.34
   5  -2  -6  608.10   23.45
  -5   2   6  609.27   24.43
  -5  -2   6  687.94   24.89
  -5   2   6  596.59   21.88
  -5   2   6  616.09   24.04
   5  -2  -6  628.91   22.15
   5  -2  -6  654.18   21.76
  -5  -2   6  636.03   23.36
   5   2  -6  531.80   33.18
   5   2  -6  597.73   25.40
   5  -2  -6  617.44   22.48
   5  -2  -5 1561.13   54.57
   5  -2  -5 1654.94   55.33
   5   2  -5 1458.27   54.27
  -5   2   5 1602.14   55.63
  -5  -2   5 1563.87   55.73
  -5   2   5 1426.36   53.14
  -5   2   5 1642.67   55.15
   5  -2  -5 1598.95   53.36
  -5  -2   5 1585.26   54.29
   5   2  -5 1580.10   56.39
   5   2  -5 1368.09   53.31
   5  -2  -5 1649.17   53.60
  -5  -2   4    2.80    3.33
   5   2  -4    5.80    5.72
   5  -2  -4    1.30    2.09
   5  -2  -4    0.16    2.72
   5   2  -4    1.27    2.11
  -5  -2   4   -0.57    2.30
  -5   2   4    2.87    3.05
   5  -2  -4    1.81    2.03
  -5   2   3   30.78    4.17
   5   2  -3   55.36    7.21
   5   2  -3   39.15    3.35
  -5  -2   3   43.43    3.76
  -5   2   3   46.03    4.48
   5  -2  -3   39.60    3.15
   5  -2  -2  599.48   23.85
  -5  -2   2  669.72   24.54
  -5   2   2  712.59   25.58
  -5  -2   2  712.04   23.86
  -5   2   2  640.68   25.44
   5   2  -2  689.13   27.65
   5  -2  -2  625.34   24.83
  -5   2   1   33.99    4.15
   5  -2  -1   28.76    4.03
   5   2  -1   39.03    6.40
  -5  -2   1   39.52    3.12
   5   2   0  259.02   10.40
   5  -2   0  239.94   10.41
  -5  -2   0  294.76   11.42
   5  -2   0  254.84   10.20
   5   2   0  259.94   10.19
  -5   2   0  239.58   11.64
   5  -2   0  260.15   10.48
   5  -2   0  260.55   11.84
   5   2   0  274.22   14.21
   5  -2   0  272.35   10.87
   5   2   0  286.34   10.39
  -5   2   0  248.95   12.17
  -5  -2   0  283.65   12.10
  -5  -2  -1  198.09    9.27
  -5   2  -1  181.33    8.80
   5   2   1  180.08    7.84
   5  -2   1  162.74    7.87
  -5   2  -1  159.14    9.21
  -5  -2  -1  182.46    8.87
  -5   2  -1  176.53    7.46
   5  -2   1  176.57    7.47
   5   2   1  165.01    7.35
   5   2   1  196.23    7.64
  -5   2  -1  182.17    8.93
   5  -2   1  178.63    7.81
   5  -2   1  197.33    9.49
   5  -2   1  187.67    8.06
   5   2   1  193.99   11.37
   5  -2   1  164.40    7.32
   5   2   2 2373.72   80.58
   5  -2   2 2155.68   80.59
  -5   2  -2 2192.19   83.03
  -5  -2  -2 2393.53   82.29
  -5  -2  -2 2498.19   82.28
  -5   2  -2 2282.06   80.14
   5   2   2 2288.40   80.29
   5  -2   2 2393.35   80.16
   5   2   2 2421.63   84.90
   5  -2   2 2373.59   82.35
   5  -2   2 2282.56   80.72
   5   2   2 2389.98   80.27
   5  -2   2 2253.40   80.06
   5  -2   3  299.28   13.35
  -5   2  -3  320.35   16.04
  -5  -2  -3  314.96   15.11
   5  -2   3  319.22   15.56
  -5  -2  -3  336.22   14.64
  -5   2  -3  329.79   12.65
   5  -2   3  353.36   12.73
   5   2   3  322.28   12.79
   5  -2   3  316.73   14.89
   5  -2   3  326.94   13.28
   5   2   3  305.34   12.63
   5   2   3  356.35   17.53
   5  -2   3  311.03   12.55
   5   2   4    1.13    3.12
  -5   2  -4    3.48    4.65
  -5  -2  -4   -2.10    4.04
  -5  -2  -4    0.80    2.88
  -5   2  -4    1.26    3.09
   5   2   4    3.29    2.27
   5  -2   4    3.36    2.23
  -5   2  -4    2.64    2.03
   5  -2   4    0.68    2.69
   5   2   4    1.64    2.13
   5   2   4    1.82    5.80
   5  -2   4    3.01    3.84
   5  -2   4    3.55    2.16
   5  -2   5  781.84   30.72
   5   2   5  902.20   30.73
  -5   2  -5  685.99   33.98
  -5  -2  -5  802.77   33.67
  -5  -2  -5  823.05   32.13
  -5   2  -5  861.79   29.95
   5  -2   5  856.91   29.84
   5   2   5  809.73   30.12
   5  -2   5  778.28   32.79
   5   2   5  833.21   36.04
   5  -2   5  777.80   30.28
   5   2   5  850.56   30.09
   5  -2   5  832.29   29.87
  -5  -2  -6  178.34   12.25
   5  -2   6  194.45    9.63
   5   2   6  207.11    9.43
   5  -2   6  195.19    8.56
   5   2   6  207.49   14.37
   5  -2   6  173.66    8.78
   5   2   6  195.86    8.70
  -5   2  -6  212.23    8.64
   5  -2   6  199.82    8.45
   5   2   7    3.79    2.50
   5  -2   7    2.07    3.51
   5   2   7    1.47    3.05
  -5   2  -7    6.05    6.48
   5  -2   7    3.29    2.21
   5  -2   7    1.05    2.06
   5   2   7   -1.27    2.36
  -5   2  -7    1.20    2.08
   5   2   8   25.72    3.51
   5  -2   8   16.78    3.21
   5  -2   8   16.94    2.39
   5   2   8   15.56    2.87
   5  -2   8   17.11    2.22
  -5   2  -8   17.99    2.37
   5  -2   9   15.17    2.40
   5   2   9   16.97    2.21
  -5   2  -9   13.06    1.87
   5  -2   9   11.44    1.61
   5  -2   9   11.57    1.84
   5  -3 -14   84.85    3.94
  -5   3  14   69.52    3.60
  -5  -3  14   80.44    4.27
  -5   3  14   78.73    4.00
   5  -3 -13  233.18    9.60
  -5   3  13  217.92    9.17
   5  -3 -12   -0.61    1.81
   5  -3 -12    4.09    3.06
   5  -3 -11   30.17    2.91
   5  -3 -11   28.10    2.20
   5  -3 -11   28.90    4.26
  -5   3  11   26.44    3.97
  -5   3  11   31.28    3.42
  -5   3  10  563.43   21.42
  -5   3  10  560.10   20.79
  -5   3  10  584.96   23.81
  -5  -3  10  558.59   23.22
   5  -3 -10  554.66   21.98
  -5   3  10  593.09   23.56
   5  -3 -10  539.00   20.48
   5  -3 -10  533.71   19.98
   5  -3 -10  554.24   34.15
   5  -3 -10  544.19   23.04
   5   3 -10  518.51   23.27
  -5   3   9   72.81    5.40
  -5   3   9   73.19    4.59
  -5   3   9   80.75    6.77
  -5  -3   9   71.85    5.93
   5  -3  -9   63.51    5.60
  -5   3   9   69.36    6.17
   5  -3  -9   66.25    4.25
   5  -3  -9   69.23    3.83
   5  -3  -9   59.67    5.75
   5  -3  -9   53.77   19.04
   5   3  -9   60.16    5.86
  -5   3   8  274.91   13.33
  -5   3   8  253.63   11.23
  -5   3   8  249.21   10.58
  -5   3   8  265.67   12.97
   5  -3  -8  257.70   10.07
   5  -3  -8  258.28   10.49
   5   3  -8  240.59   14.90
   5  -3  -8  254.97   12.55
   5  -3  -8  255.87   11.83
  -5   3   7   52.92    5.73
  -5  -3   7   51.23    4.95
  -5   3   7   53.00    3.74
  -5   3   7   47.27    4.22
   5  -3  -7   47.68    3.54
   5  -3  -7   55.19    3.25
   5   3  -7   53.29    8.37
   5   3  -7   49.83   15.65
   5  -3  -7   51.50    4.23
   5  -3  -6    8.43    2.31
   5   3  -6    9.90    2.29
  -5  -3   6   11.67    3.82
  -5   3   6    7.92    2.75
  -5   3   6    8.35    2.35
   5  -3  -6   10.09    2.27
  -5   3   6    5.44    3.31
   5  -3  -6   17.76   12.02
   5  -3  -6   15.21    2.04
   5   3  -6   14.36   14.60
   5  -3  -6    7.79    3.35
   5  -3  -5  774.72   28.08
   5   3  -5  806.17   29.69
   5   3  -5  751.06   27.38
   5  -3  -5  569.11   34.92
  -5  -3   5  791.74   29.50
  -5   3   5  764.19   26.91
  -5   3   5  709.49   26.93
   5  -3  -5  790.35   26.75
  -5   3   5  801.77   28.98
   5  -3  -5  787.36   27.09
  -5  -3   5  787.71   27.89
   5   3  -5  671.95   36.62
   5   3  -5  705.23   30.13
   5  -3  -5  786.47   27.32
   5   3  -5  608.31   26.83
   5  -3  -5  766.86   27.18
   5  -3  -4   47.53    3.75
  -5   3   4   35.86    4.50
  -5  -3   4   46.72    4.92
   5  -3  -4   25.52    9.52
  -5   3   4   43.01    4.55
   5  -3  -4   44.08    2.96
   5  -3  -4   40.68    3.25
  -5  -3   4   40.64    3.54
   5   3  -4   42.38    7.79
   5   3  -4   44.81    3.06
   5   3  -4   46.31    4.80
  -5   3   3   71.33    5.69
   5  -3  -3   76.20    4.02
   5   3  -3   74.15    8.62
   5   3  -3   76.42    5.82
   5  -3  -3   64.96    5.28
  -5  -3   3   77.16    4.70
  -5   3   3   84.59    5.75
   5  -3  -3   67.45    3.92
  -5  -3   2  369.69   13.01
  -5   3   2  317.42   14.20
  -5   3   2  362.02   14.64
   5  -3  -2  308.57   12.49
   5  -3  -2  307.05   12.74
   5  -3  -2  315.38   12.93
   5   3  -2  375.33   17.67
   5   3  -2  358.28   17.01
   5  -3  -2  318.30   14.27
   5  -3  -1  776.34   29.81
  -5  -3   1  925.09   29.78
   5   3  -1  799.59   27.92
  -5  -3   1  829.04   28.67
  -5   3   1  782.64   29.71
   5  -3  -1  717.90   27.75
   5   3  -1  836.13   27.92
   5  -3  -1  726.29   28.17
  -5   3   1  753.48   29.74
   5  -3  -1  741.60   27.98
   5   3  -1  791.59   32.59
   5   3  -1  763.21   31.91
   5   3  -1  839.62   27.84
   5  -3  -1  735.31   28.21
  -5   3   0  384.13   18.49
  -5   3   0  377.78   17.87
  -5  -3   0  505.56   17.71
   5   3   0  462.02   16.24
   5  -3   0  410.74   16.09
  -5  -3   0  470.90   17.21
  -5   3   0  420.53   16.09
   5  -3   0  426.01   15.94
   5   3   0  434.64   15.91
   5  -3   0  430.83   16.25
  -5   3   0  385.00   17.59
   5   3   0  436.60   20.64
   5   3   0  410.99   20.65
   5  -3   0  424.89   16.61
   5   3   0  454.26   16.01
   5  -3   0  414.91   15.91
  -5   3  -1  111.62    7.57
  -5  -3  -1  136.93    7.16
  -5   3  -1  107.74    7.36
   5   3   1  129.88    6.16
   5  -3   1  108.99    6.03
  -5  -3  -1  133.48    7.16
  -5   3  -1  127.66    5.86
   5   3   1  126.72    5.72
   5  -3   1  124.14    5.69
   5   3   1  122.69    5.65
  -5   3  -1  125.00    7.44
   5  -3   1  122.17    6.11
   5   3   1  137.73   10.46
   5  -3   1  123.65    6.41
   5   3   1  109.70   11.59
   5  -3   1  119.77    5.70
   5   3   2   39.67    3.64
   5  -3   2   31.82    3.69
  -5   3  -2   43.99    5.68
  -5  -3  -2   37.71    4.32
   5  -3   2   41.49    4.92
  -5  -3  -2   28.74    3.76
  -5   3  -2   22.06    4.39
  -5   3  -2   36.92    3.03
   5  -3   2   32.89    2.86
   5   3   2   32.37    2.80
   5   3   2   38.66   10.13
   5  -3   2   29.06    3.47
   5   3   2   40.81    7.17
   5   3   2   33.90    2.85
   5  -3   2   31.90    2.89
   5  -3   3   24.88    3.73
  -5   3  -3   33.56    5.91
  -5  -3  -3   27.87    4.45
   5  -3   3   32.51    4.71
  -5   3  -3   27.01    4.96
  -5  -3  -3   27.68    3.74
  -5   3  -3   25.67    2.82
   5  -3   3   28.12    2.83
   5   3   3   27.71    2.78
   5  -3   3   23.23    3.40
   5   3   3   28.02    7.43
   5   3   3   26.28    2.72
   5  -3   3   24.51    2.85
   5   3   4  130.39    6.79
  -5   3  -4  112.58    9.93
  -5  -3  -4  113.75    8.53
   5  -3   4  110.68    8.47
  -5   3  -4  112.32    8.34
  -5  -3  -4  112.60    7.19
  -5   3  -4  118.05    8.87
  -5   3  -4  126.45    6.21
   5  -3   4  125.25    5.95
   5   3   4  118.82    6.09
   5   3   4  119.02   11.55
   5  -3   4  112.66    6.56
   5   3   4  119.37    6.01
   5  -3   4  121.08    6.12
   5   3   5  306.89   12.09
   5  -3   5  258.67   12.10
  -5   3  -5  218.68   15.37
  -5  -3  -5  246.30   14.58
   5  -3   5  254.87   14.02
  -5   3  -5  258.37   13.96
  -5  -3  -5  261.66   12.75
  -5   3  -5  280.95   14.48
  -5   3  -5  286.43   11.44
   5  -3   5  284.34   11.09
   5   3   5  275.63   11.45
   5  -3   5  281.62   11.39
   5  -3   5  256.28   11.65
   5   3   5  276.43   11.30
   5   3   5  282.72   17.69
   5  -3   6  138.49    7.37
   5   3   6  146.82   13.11
   5   3   6  165.51    7.51
  -5  -3  -6  136.87   10.94
   5  -3   6  147.92    8.21
   5   3   6  166.13    8.05
  -5   3  -6  134.96   11.59
   5  -3   6  157.12    7.40
  -5   3  -6  167.47    7.47
   5  -3   6  165.06    7.09
   5   3   7  189.78   17.04
   5   3   7  218.62    9.61
   5  -3   7  219.04   10.15
   5   3   7  246.17   10.03
  -5   3  -7  170.93   13.06
   5  -3   7  229.84    9.52
  -5   3  -7  231.01    9.56
   5  -3   7  225.70    9.06
   5   3   8   -4.68    9.67
   5  -3   8    1.31    1.56
  -5   3  -8    0.29    1.95
   5   3   8    1.52    2.25
  -5   3  -8   -1.31    6.22
   5  -3   8    0.43    1.96
   5  -3   8    4.31    2.79
  -5   3  -9  285.22   10.62
   5  -3   9  263.28   10.61
   5  -3   9  262.75   10.47
   5  -4 -13   30.46    2.27
   5  -4 -13   34.38    3.27
  -5   4  13   38.94    2.94
   5  -4 -12    6.09    3.04
   5  -4 -12    6.80    1.96
   5  -4 -11  216.81    9.09
   5  -4 -11  208.86    8.60
   5  -4 -11  218.97   10.69
  -5   4  11  206.34    9.81
  -5   4  11  232.35    9.56
  -5  -4  10  501.89   21.43
   5  -4 -10  522.60   20.53
  -5   4  10  518.17   21.50
   5  -4 -10  478.29   18.81
   5  -4 -10  483.04   18.39
   5  -4 -10  516.85   30.62
  -5   4  10  505.65   19.67
  -5   4  10  519.01   19.21
  -5   4  10  515.64   21.89
   5  -4  -9    3.28    2.36
  -5   4   9    3.51    3.40
   5  -4  -9    4.97    1.98
  -5   4   9    5.87    3.39
  -5   4   9    7.17    2.81
   5  -4  -9   10.76   16.77
  -5   4   9   10.26    4.10
  -5  -4   9    6.85    3.27
   5  -4  -8    4.83    2.20
  -5   4   8   -0.23    3.69
   5  -4  -8    3.96    1.80
   5  -4  -8    6.35   12.97
  -5   4   8    6.01    3.30
  -5   4   8    3.47    2.57
   5   4  -8    5.76    3.51
  -5   4   8    5.32    3.98
   5   4  -7  538.99   22.39
   5  -4  -7  552.77   21.65
  -5   4   7  543.50   19.56
  -5   4   7  518.84   19.82
  -5   4   7  554.08   21.90
   5  -4  -7  532.74   19.46
   5  -4  -7  524.85   19.07
   5   4  -7  466.49   22.93
   5   4  -6    6.43    3.34
   5  -4  -6    8.54    2.88
  -5   4   6   13.09    3.95
  -5  -4   6    9.39    3.50
  -5   4   6   18.77    3.02
  -5   4   6    5.82    2.40
   5  -4  -6    8.33    2.26
   5  -4  -6    6.27    1.84
   5  -4  -6   -0.63    9.20
   5   4  -6   26.43   12.64
   5  -4  -6    6.47    3.15
   5   4  -5   -3.61    3.33
   5  -4  -5    2.63    2.67
  -5   4   5    1.20    2.39
  -5   4   5    5.90    2.34
  -5   4   5   -2.23    3.30
  -5  -4   5    4.07    3.54
   5  -4  -5    1.76    1.73
  -5   4   5   -1.29    3.14
   5  -4  -5   -1.08    8.71
   5   4  -5   -1.65   12.05
   5  -4  -5    0.08    2.55
   5  -4  -5    2.35    2.22
   5  -4  -4  917.08   31.10
   5  -4  -4  835.13   31.06
   5   4  -4  605.67   36.97
   5  -4  -4  702.60   37.06
  -5   4   4  868.26   33.00
  -5  -4   4  977.78   33.64
  -5   4   4  900.25   31.26
  -5   4   4  914.28   33.22
   5  -4  -4  883.57   30.96
  -5  -4   4  869.93   31.67
   5   4  -4  734.97   33.89
   5   4  -4  845.71   39.57
   5   4  -4  902.39   37.22
   5   4  -4  933.19   34.00
   5  -4  -4  869.74   32.96
   5  -4  -3 1234.84   40.87
   5  -4  -3 1107.43   40.97
  -5   4   3 1086.15   42.63
  -5   4   3 1173.53   41.12
   5   4  -3 1156.57   40.59
  -5   4   3 1198.22   43.03
   5  -4  -3 1186.73   40.93
   5  -4  -3 1128.24   41.10
   5   4  -3 1043.77   43.94
   5   4  -3 1316.62   47.28
   5   4  -3 1169.20   43.50
   5  -4  -3 1213.64   42.99
   5  -4  -2  554.06   19.30
   5  -4  -2  496.29   19.49
  -5   4   2  496.92   21.03
   5  -4  -2  498.18   19.19
   5   4  -2  561.95   19.19
  -5   4   2  551.71   19.60
  -5   4   2  535.86   21.45
   5  -4  -2  516.94   19.39
   5  -4  -2  517.96   19.60
   5   4  -2  558.79   25.06
   5   4  -2  483.53   22.95
   5  -4  -2  550.93   21.30
  -5   4   1  347.02   15.40
  -5  -4   1  411.63   14.95
   5   4  -1  370.77   13.78
   5  -4  -1  369.27   13.56
  -5  -4   1  393.55   14.66
  -5   4   1  327.48   15.14
   5  -4  -1  331.55   13.46
   5   4  -1  392.29   13.70
   5   4  -1  373.79   13.57
  -5   4   1  341.98   13.84
   5  -4  -1  337.75   13.91
  -5   4   1  362.86   15.69
   5  -4  -1  333.63   13.73
   5   4  -1  317.66   17.83
   5   4  -1  379.54   13.48
   5   4  -1  371.17   19.20
   5  -4  -1  333.87   13.89
   5  -4  -1  358.15   13.61
  -5  -4   0 1233.46   40.01
  -5   4   0  946.32   41.60
  -5   4   0  990.83   40.55
   5   4   0 1178.24   39.00
   5  -4   0 1148.58   38.87
  -5  -4   0 1238.47   40.39
  -5   4   0 1013.69   40.29
  -5   4   0 1059.87   38.98
   5  -4   0 1063.41   38.60
   5   4   0 1158.20   38.72
   5  -4   0  943.97   38.91
  -5   4   0 1002.78   40.65
   5   4   0 1049.99   39.29
   5  -4   0 1066.46   38.76
   5   4   0 1495.17   43.54
   5   4   0 1138.57   44.56
   5  -4   0 1095.79   39.48
   5   4   0 1185.28   38.72
   5   4   0  973.82   42.78
   5   4   1  196.19   13.82
   5   4   1  206.03    8.20
   5   4   1  162.40   13.72
   5  -4   1  184.99    8.88
  -5   4  -1  163.77    9.91
  -5  -4  -1  213.11    9.33
  -5   4  -1  186.28   10.86
   5   4   1  214.72    8.69
   5  -4   1  196.97    8.57
  -5  -4  -1  206.48    9.92
   5  -4   1  198.36   10.69
  -5   4  -1  195.53    9.76
  -5   4  -1  199.09    8.56
   5  -4   1  197.27    8.14
   5   4   1  183.65    8.10
   5   4   1  194.90    8.18
  -5   4  -1  189.93   10.24
   5   4   1  249.46   12.38
   5  -4   1  183.28    8.28
   5   4   2   12.59    9.58
   5  -4   2    9.09    2.88
   5   4   2    5.90    1.99
   5   4   2    1.57    6.19
   5  -4   2    5.96    2.84
   5   4   2    9.89    3.01
  -5  -4  -2   11.56    3.45
  -5   4  -2    5.15    3.60
  -5  -4  -2    5.95    2.51
  -5   4  -2    7.57    3.22
   5   4   2    4.31    1.83
   5  -4   2    8.31    2.17
  -5   4  -2    6.90    2.32
   5   4   2    4.84    2.07
   5  -4   2    1.96    2.65
   5  -4   2    8.21    2.38
   5  -4   3    0.11    3.19
  -5   4  -3    5.83    5.03
  -5  -4  -3    2.58    3.44
   5  -4   3   -0.72    3.44
  -5   4  -3    1.41    3.64
  -5  -4  -3    3.22    2.55
   5   4   3    2.96    2.02
   5  -4   3    2.98    2.13
  -5   4  -3   -0.31    2.38
   5   4   3    5.17   10.12
   5  -4   3    1.68    2.77
   5   4   3    2.47    1.99
   5   4   3   -1.71    7.14
   5  -4   3    1.58    2.39
   5   4   4    1.70    3.15
  -5   4  -4   -0.78    5.60
  -5  -4  -4    2.75    4.05
   5  -4   4    1.53    3.42
  -5   4  -4    3.26    3.52
  -5   4  -4   -0.33    4.07
   5   4   4    2.47    2.23
   5  -4   4    3.21    2.14
  -5   4  -4    2.26    2.50
   5  -4   4    3.25    2.52
   5   4   4   -0.37   10.94
   5  -4   4    2.25    2.76
   5   4   4    1.28    2.13
   5   4   4    3.74    7.22
   5   4   5  422.41   24.79
   5   4   5  443.53   24.84
   5   4   5  484.69   17.81
   5   4   5  510.40   18.42
   5  -4   5  423.13   18.37
  -5   4  -5  365.62   22.21
  -5  -4  -5  464.62   21.71
   5  -4   5  432.40   20.40
  -5   4  -5  404.56   20.12
  -5   4  -5  446.29   21.21
  -5   4  -5  410.46   22.36
   5  -4   5  481.33   18.00
  -5   4  -5  510.12   18.21
   5   4   5  467.19   17.89
   5  -4   5  484.70   17.43
   5   4   6   35.21   11.71
   5   4   6   35.75    3.30
   5  -4   6   32.49    4.38
   5   4   6   35.77    4.03
  -5   4  -6   38.30    8.77
   5  -4   6   38.38    3.55
  -5   4  -6   36.17    3.54
   5  -4   6   35.89    2.87
   5   4   6   25.89    3.25
   5   4   7  214.65   15.12
   5   4   7  220.71    9.22
   5  -4   7  202.94    9.63
   5  -4   7  211.37    9.09
  -5   4  -7  226.38    9.27
   5   4   7  214.16    9.15
   5  -4   8  402.36   15.33
  -5   4  -8  423.11   15.15
   5   4   8  376.06   15.07
   5  -4   8  397.85   14.99
   5  -5 -13  274.89   10.34
  -5   5  13  240.38    9.90
  -5   5  13  252.67    9.84
   5  -5 -13  244.93    9.44
   5  -5 -12   92.63    4.86
   5  -5 -12  109.54    6.10
  -5   5  12  106.50    5.27
   5  -5 -11  233.55    9.87
   5  -5 -11  233.63    9.46
  -5   5  11  248.73   10.19
   5  -5 -11  248.48   11.46
  -5  -5  10   61.19    5.69
   5  -5 -10   54.95    4.04
   5  -5 -10   58.51    3.65
  -5   5  10   62.91    6.05
  -5   5  10   61.15    4.93
  -5   5  10   59.71    4.39
   5   5 -10   41.10   16.45
   5  -5 -10   55.11    5.66
  -5   5   9   15.58    3.66
  -5   5   9   12.11    2.99
   5  -5  -9   11.11    2.69
  -5   5   9   16.05    3.84
   5  -5  -9   13.78    2.31
   5  -5  -9    3.80   12.64
   5  -5  -9    9.05   14.83
   5   5  -9   22.59    4.34
   5  -5  -9   17.03    3.80
  -5   5   8  190.24   10.26
   5  -5  -8  167.29    7.83
   5  -5  -8  167.97    7.49
  -5   5   8  174.17    8.46
  -5   5   8  176.24    8.07
   5   5  -8  170.46   10.71
   5  -5  -8  158.83    9.58
  -5   5   8  174.91   10.27
  -5  -5   8  176.97    9.63
   5  -5  -7  258.30   21.84
  -5   5   7  318.51   14.42
  -5   5   7  277.76   11.77
  -5   5   7  301.10   12.17
  -5   5   7  293.42   13.98
   5  -5  -7  296.99   11.41
   5  -5  -7  235.80   13.22
   5   5  -7  301.68   14.84
   5  -5  -7  289.93   13.69
   5   5  -6  239.21   12.58
   5  -5  -6  234.14   11.25
   5  -5  -6  180.70   16.49
  -5   5   6  240.42   11.64
  -5   5   6  224.28    9.53
  -5   5   6  227.94   11.53
   5  -5  -6  217.75    9.12
   5   5  -6  200.48   13.14
   5  -5  -6  221.27   10.51
   5  -5  -5  243.95   11.55
   5   5  -5  275.60   13.18
  -5   5   5  227.45    9.90
  -5   5   5  221.23    9.87
   5  -5  -5  209.21   15.99
  -5   5   5  259.27   11.88
  -5  -5   5  265.74   12.26
   5  -5  -5  234.49    9.58
   5  -5  -5  236.49    9.85
   5   5  -5  251.36   14.23
   5  -5  -5  252.50   10.24
   5  -5  -5  226.58    9.79
   5   5  -4   16.13    4.01
   5  -5  -4   24.61    3.50
  -5   5   4   19.83    2.81
  -5   5   4   17.01    3.62
  -5  -5   4   27.93    4.15
  -5   5   4   21.49    2.72
   5   5  -4   21.80    1.90
   5  -5  -4   20.99    2.45
  -5   5   4   27.45    4.10
   5  -5  -4   24.65    7.40
   5  -5  -4   22.15    2.67
   5   5  -4   19.52    7.50
   5   5  -4   25.34    8.57
   5   5  -4   26.87   11.36
   5  -5  -4   25.37    2.61
   5  -5  -4   23.98    2.88
   5  -5  -3  183.34    7.56
   5  -5  -3  171.07    7.60
   5   5  -3  169.60   13.98
  -5   5   3  183.17    9.21
  -5   5   3  165.94    7.76
   5   5  -3  174.97    7.16
  -5   5   3  188.07    9.66
   5  -5  -3  178.21    7.55
   5  -5  -3  177.72    7.74
   5   5  -3  193.34   14.01
   5   5  -3  166.44    6.93
   5   5  -3  164.66   11.67
   5   5  -3  183.96    9.99
   5  -5  -3  184.61    9.27
   5  -5  -2    3.41    2.58
   5  -5  -2    4.12    1.74
  -5   5   2    2.39    2.88
  -5   5   2    2.08    2.09
   5   5  -2    5.96    1.60
  -5   5   2    1.86    3.24
   5  -5  -2    5.00    2.23
   5   5  -2    1.20    7.33
   5   5  -2    1.85    7.16
   5   5  -2    3.53    1.41
   5  -5  -2    3.84    1.82
   5  -5  -2    3.97    2.56
  -5   5   1   17.38    3.45
   5  -5  -1   16.70    2.36
  -5   5   1   17.99    3.45
   5  -5  -1   18.67    2.23
  -5   5   1   18.79    2.69
   5   5  -1   19.89    2.48
   5   5  -1   21.58    2.10
  -5   5   1   14.90    3.74
   5  -5  -1   18.16    2.73
  -5  -5   1   20.19    4.08
   5   5  -1   18.79    7.83
   5   5  -1   16.14    7.73
   5   5  -1   20.40    2.08
   5  -5  -1   17.68    2.37
   5  -5  -1   19.26    3.02
   5   5  -1   24.53    7.42
  -5   5   0  464.69   19.14
  -5   5   0  378.06   20.38
   5  -5   0  502.71   17.34
  -5  -5   0  502.83   18.99
   5  -5   0  457.03   19.53
  -5   5   0  437.04   18.60
  -5   5   0  441.02   17.56
   5  -5   0  433.63   16.96
   5   5   0  488.03   17.20
   5  -5   0  469.01   17.64
  -5   5   0  432.12   19.27
   5  -5   0  424.39   17.42
   5   5   0  480.15   17.09
   5   5   0  451.05   21.62
   5   5   0  466.09   23.71
   5  -5   0  445.83   17.49
   5  -5   0  465.95   17.36
  -5   5  -1  495.05   21.85
  -5   5  -1  497.33   23.29
   5  -5   1  585.90   20.25
  -5  -5  -1  594.13   22.22
   5  -5   1  556.67   22.63
  -5   5  -1  500.71   21.05
  -5   5  -1  534.96   20.39
   5  -5   1  530.03   19.72
   5   5   1  540.61   19.85
   5   5   1  555.75   19.92
   5  -5   1  481.22   20.18
  -5   5  -1  518.05   22.36
   5   5   1  554.28   19.88
   5   5   1  502.61   24.56
   5  -5   1  538.83   20.18
  -5   5  -2   98.40    7.20
  -5   5  -2  104.65    7.67
   5   5   2  117.85    6.14
   5  -5   2  116.60    6.06
  -5  -5  -2  118.37    7.64
   5  -5   2   99.03    7.53
  -5   5  -2  110.31    5.97
   5  -5   2   99.06    5.15
   5   5   2  109.19    5.42
   5   5   2  109.94    5.40
   5  -5   2   97.33    5.84
   5   5   2  100.54   11.81
   5  -5   2  108.18    5.77
   5  -5   3  142.88    7.32
  -5  -5  -3  156.41    9.48
  -5   5  -3  122.34    8.49
  -5   5  -3  152.23    7.27
   5   5   3  136.27    6.57
   5   5   3  136.01    6.61
   5   5   3  138.12    6.57
   5   5   3  132.23   13.60
   5  -5   3  144.93    7.10
   5   5   4  519.26   18.64
  -5  -5  -4  466.46   21.43
   5  -5   4  410.85   20.49
  -5   5  -4  386.31   19.93
  -5   5  -4  409.63   21.93
  -5   5  -4  506.48   18.62
   5   5   4  485.08   18.04
   5  -5   4  493.42   18.38
   5   5   4  467.29   17.92
   5   5   4  461.17   23.95
   5   5   5    3.46   10.01
   5   5   5    0.95    2.27
  -5  -5  -5   -0.96    4.48
   5  -5   5    2.55    3.41
   5  -5   5    1.21    3.42
  -5   5  -5   -1.45    8.61
   5  -5   5    0.99    2.57
   5   5   5    1.20    2.31
  -5   5  -5    0.23    2.75
   5   5   6  163.10    7.27
   5   5   6  153.62   12.72
   5  -5   6  145.89    7.82
   5  -5   6  153.87    7.34
  -5   5  -6  163.83    7.56
   5   5   6  145.68    7.18
   5   5   6  140.35    7.20
   5   5   7   87.72    5.04
   5  -5   7   85.66    5.43
  -5   5  -7   74.25    9.53
   5  -5   7   84.49    4.90
  -5   5  -7   89.47    5.04
   5   5   7  104.08    5.37
   5  -5   8   17.81    2.63
  -5   5  -8   12.10    2.29
   5   5   8   17.56    2.61
   5   5   8   15.02    2.37
   5  -5   8   12.82    2.09
   5  -6 -13  144.58    5.80
   5  -6 -13  158.56    6.47
  -5   6  13  141.64    6.16
  -5   6  13  140.29    6.07
  -5   6  12  243.02    9.46
   5  -6 -12  229.62    9.19
   5  -6 -12  214.18    8.79
   5  -6 -11    7.53    3.46
   5  -6 -11    7.39    2.27
   5  -6 -11    9.10    1.92
  -5   6  11    9.04    3.03
  -5   6  11    6.34    2.54
   5  -6 -10  323.48   12.98
   5  -6 -10  314.86   12.56
  -5   6  10  322.81   13.42
  -5   6  10  329.81   13.14
   5  -6 -10  343.98   14.55
  -5  -6   9  798.15   30.21
  -5   6   9  746.07   30.21
  -5   6   9  744.99   28.11
  -5   6   9  773.46   27.87
   5  -6  -9  774.39   27.42
  -5   6   8  138.60    8.66
   5  -6  -8  140.81    6.52
  -5   6   8  137.94    7.34
  -5   6   8  135.64    6.94
   5   6  -8  131.62    9.48
   5  -6  -8  147.41    8.71
  -5   6   8  144.73    8.98
  -5  -6   8  139.94    8.47
   5   6  -7   68.58    6.90
   5  -6  -7   72.49    5.79
  -5   6   7   63.89    6.03
  -5  -6   7   74.58    5.67
  -5   6   7   65.12    4.52
  -5   6   7   65.69    4.89
  -5   6   7   65.75    6.01
   5  -6  -7   60.66    4.27
   5  -6  -7   43.73   11.02
   5  -6  -7   70.72    4.10
   5   6  -7   68.68    9.00
   5  -6  -7   51.47    6.05
   5  -6  -6  197.53   10.41
   5   6  -6  205.22   11.93
   5  -6  -6  165.67   15.44
  -5   6   6  226.12   11.13
  -5  -6   6  210.08   10.36
  -5   6   6  211.16    9.02
  -5   6   6  199.66    9.08
  -5   6   6  204.69   10.86
   5  -6  -6  203.87    8.83
   5  -6  -6  195.71    8.54
   5   6  -6  211.93   12.90
   5  -6  -6  198.44   10.00
  -5   6   5   41.97    3.54
  -5   6   5   45.13    3.75
  -5   6   5   42.10    4.77
   5  -6  -5   42.75    3.23
  -5   6   5   50.06    5.16
   5  -6  -5   40.21    3.37
   5  -6  -5   30.25    7.88
   5   6  -5   31.54   14.32
   5  -6  -5   45.09    3.77
   5  -6  -5   40.72    4.45
   5   6  -5   43.26    5.64
   5   6  -4   16.50    4.07
   5  -6  -4    9.57    2.82
  -5   6   4    8.70    2.51
  -5   6   4   13.30    3.36
   5   6  -4    8.01    1.57
  -5   6   4    9.57    2.50
   5  -6  -4   14.05    2.47
   5  -6  -4   11.72    2.25
   5  -6  -4   10.98    6.10
   5   6  -4   14.10    6.96
   5   6  -4    0.57   11.67
   5  -6  -4   11.36    2.41
   5   6  -3  109.64    7.28
   5  -6  -3  109.78    6.69
  -5   6   3  101.57    5.42
  -5   6   3  106.22    6.66
  -5   6   3   98.79    5.54
   5   6  -3  103.94    4.89
  -5   6   3  105.59    7.13
   5  -6  -3  110.78    5.51
   5   6  -3  105.82    4.67
   5   6  -3  109.54    9.36
   5  -6  -3  105.57    5.30
   5   6  -3  124.35   13.36
  -5   6   2   -0.15    2.56
   5  -6  -2    0.56    1.68
  -5   6   2    0.15    2.51
  -5   6   2    1.23    2.08
   5   6  -2    1.02    1.54
  -5   6   2    0.80    3.14
   5  -6  -2    0.62    2.19
   5   6  -2    0.22    6.79
   5   6  -2    0.53    1.42
   5  -6  -2    1.40    1.78
   5   6  -2   -4.38    8.92
  -5   6   1  210.63   10.71
   5  -6  -1  243.12    9.29
  -5   6   1  229.49   10.50
  -5   6   1  216.80    9.85
   5   6  -1  224.36    9.25
   5  -6  -1  231.59    9.76
  -5   6   1  218.29   11.63
   5  -6  -1  233.28    9.66
  -5  -6   1  256.33   12.84
   5   6  -1  229.07    9.13
   5   6  -1  240.20   13.59
   5  -6  -1  222.16    9.51
  -5   6   0  167.03    9.03
  -5   6   0  143.62   10.83
   5  -6   0  184.78    7.61
  -5  -6   0  185.97    9.48
   5  -6   0  163.21    9.65
  -5   6   0  164.61    8.02
   5  -6   0  175.56    7.94
  -5   6   0  161.46    9.75
   5  -6   0  174.46    7.88
   5   6   0  170.06    7.32
   5   6   0  180.05   12.17
   5  -6   0  164.83    7.67
  -5   6  -1  185.06    9.59
  -5   6  -1  147.35   10.54
   5  -6   1  188.48    7.96
  -5  -6  -1  189.27   10.01
   5  -6   1  170.36   10.11
  -5   6  -1  169.10    8.27
   5   6   1  174.33    7.68
   5   6   1  179.91    7.70
   5  -6   1  171.32    8.20
   5   6   1  174.68    7.59
   5   6   1  164.01   12.37
   5   6   1  143.72   13.81
   5  -6   1  176.95    8.15
   5  -6   1  172.93    8.04
  -5   6  -2  180.97   11.44
  -5   6  -2  199.35   10.68
   5  -6   2  232.15    9.37
  -5  -6  -2  221.15   11.70
   5  -6   2  203.61   11.46
  -5   6  -2  226.31    9.74
   5   6   2  211.88    8.88
   5   6   2  198.94    8.85
   5  -6   2  213.24    9.48
   5   6   2  170.28   15.16
   5   6   2  198.33   13.77
   5  -6   2  203.45    9.30
   5  -6   3  517.71   18.58
  -5  -6  -3  481.07   21.40
   5  -6   3  423.35   20.79
  -5   6  -3  437.31   20.54
  -5   6  -3  444.73   20.10
  -5   6  -3  518.08   18.95
   5   6   3  464.05   18.03
   5   6   3  496.11   18.18
   5  -6   3  501.59   18.65
   5   6   3  380.41   24.51
   5   6   3  475.38   18.07
   5   6   3  461.26   22.48
  -5  -6  -4   15.04    4.67
   5  -6   4   12.41    4.07
   5  -6   4   15.02    3.08
  -5   6  -4   12.82    9.34
   5   6   4   23.77    8.31
   5   6   4    9.33    8.35
   5   6   4   12.29    2.63
   5   6   4   16.79    2.66
  -5   6  -4   19.56    3.41
   5   6   4   11.79    2.76
   5   6   5   19.34    7.17
   5   6   5   24.71    2.98
   5  -6   5   21.23    3.80
  -5   6  -5   31.97    9.91
   5  -6   5   27.03    3.46
   5   6   5   19.50    2.92
  -5   6  -5   26.96    3.55
   5   6   5   20.61    3.07
   5   6   6  206.05    8.87
   5  -6   6  203.50    9.26
   5  -6   6  205.95    9.02
  -5   6  -6  224.29    9.33
   5   6   6  200.34    8.90
   5   6   6  191.76    8.93
   5   6   7   63.48    4.04
   5  -6   7   63.67    4.29
   5  -6   7   60.36    3.85
  -5   6  -7   65.24    4.18
   5   6   7   54.16    4.01
   5  -6   8  169.07    6.76
  -5   6  -8  178.37    6.84
   5   6   8  170.46    6.91
   5   6   8  152.30    6.62
   5  -6   8  181.23    6.67
  -5   7  12  106.26    4.85
   5  -7 -12  101.51    4.39
   5  -7 -12  100.25    4.69
  -5   7  11   90.67    4.79
  -5   7  11   80.50    5.03
   5  -7 -11   88.95    4.32
  -5   7  10    3.33    2.86
  -5   7  10    1.08    2.54
   5  -7 -10    2.42    1.89
  -5   7   9    5.14    3.04
  -5   7   9    5.96    2.75
   5   7  -9   11.24   16.12
   5  -7  -9    5.01    2.50
   5  -7  -9    7.09    2.20
   5  -7  -8  375.11   15.04
   5  -7  -8  395.75   14.85
  -5  -7   8  381.65   16.98
  -5   7   8  426.40   17.54
  -5   7   8  386.94   15.44
  -5   7   8  374.58   15.14
  -5   7   7   65.38    5.70
  -5  -7   7   60.67    5.29
   5  -7  -7   58.63    5.30
   5   7  -7   55.70    6.38
  -5   7   7   61.73    5.61
   5  -7  -7   57.47    4.12
   5  -7  -7   37.13    9.76
   5  -7  -7   57.94    3.88
   5   7  -7   61.90    8.44
  -5   7   7   57.48    4.31
  -5   7   7   56.67    4.63
  -5   7   6  202.52    9.17
  -5   7   6  212.26    9.38
   5  -7  -6  157.21   14.73
  -5   7   6  215.51   10.94
  -5  -7   6  219.97   10.59
   5  -7  -6  209.49   10.72
   5   7  -6  212.14   12.15
   5  -7  -6  210.31    8.85
  -5   7   6  207.48   10.93
   5  -7  -6  207.56    9.03
   5   7  -6  157.92   20.83
   5   7  -6  204.10   12.71
   5   7  -5  194.42   11.78
   5   7  -5  182.59   10.85
   5  -7  -5  180.69    9.65
  -5   7   5  202.08    8.52
  -5   7   5  182.06    8.51
  -5   7   5  191.19    9.92
   5  -7  -5  153.34   13.69
  -5  -7   5  189.90    9.43
  -5   7   5  187.46   10.28
   5  -7  -5  185.78    8.24
   5   7  -5  181.45    8.07
   5   7  -5  192.98   19.87
   5   7  -4  515.81   21.06
   5  -7  -4  479.82   20.10
  -5   7   4  474.30   18.57
  -5   7   4  486.98   18.58
  -5   7   4  508.46   20.16
  -5  -7   4  503.26   19.67
  -5   7   4  477.52   18.78
   5   7  -4  492.45   17.89
  -5   7   4  490.85   20.72
   5  -7  -4  496.15   18.45
   5   7  -4  481.54   18.16
   5   7  -4  555.63   28.55
  -5   7   3   -1.63    2.48
  -5   7   3    1.26    2.67
  -5  -7   3    0.82    1.79
   5  -7  -3    1.32    2.06
   5  -7  -3   -0.79    2.10
  -5   7   3    2.01    2.17
   5  -7  -3    1.05    2.40
   5   7  -3   -0.42    6.46
   5   7  -3   -0.38    1.32
   5   7  -3   -5.50    8.44
  -5   7   3    0.30    2.28
   5   7  -3    0.21    1.53
  -5   7   2  537.23   22.35
   5  -7  -2  641.73   23.46
  -5   7   2  572.04   21.85
   5   7  -2  606.46   21.31
  -5   7   2  584.03   21.63
   5  -7  -2  581.47   20.99
  -5   7   2  580.13   23.98
   5  -7  -2  563.12   21.53
   5  -7  -2  601.15   21.68
   5   7  -2  544.97   28.61
   5   7  -2  565.14   24.34
   5   7  -2  569.55   21.01
  -5   7   1  315.55   14.16
  -5   7   1  281.87   16.98
   5  -7  -1  344.37   12.89
  -5   7   1  333.94   13.62
   5   7  -1  334.62   13.05
   5  -7  -1  346.78   13.42
  -5   7   1  346.77   15.82
   5  -7  -1  343.60   13.39
  -5  -7   1  375.15   17.86
   5   7  -1  425.47   20.71
   5   7  -1  330.30   12.84
   5   7  -1  305.93   20.09
   5   7  -1  350.30   16.45
   5   7   0    0.63    6.44
   5   7   0   11.12    8.84
   5   7   0    1.21    1.76
  -5   7   0    0.81    2.48
  -5   7   0    0.33    4.38
   5  -7   0    3.76    2.21
  -5  -7   0   -1.54    3.24
  -5   7   0    1.59    2.70
  -5   7   0    3.07    3.65
   5  -7   0    2.81    2.37
   5   7   0    4.18    7.47
   5   7   1   11.37    6.78
   5   7   1   -3.66    8.79
   5   7   1    2.53    1.83
   5  -7   1    3.69    2.41
  -5  -7  -1   -1.93    3.80
   5  -7   1    0.47    3.45
  -5   7  -1   -0.17    2.71
  -5   7  -1    4.59    4.10
   5   7   1    2.99    2.04
  -5   7  -1    3.64    2.80
   5  -7   1    4.36    2.63
   5   7   1    4.18    7.47
  -5   7  -2   -1.16    3.71
   5  -7   2    0.64    2.56
   5   7   2    0.09    2.00
  -5   7  -2    2.55    2.82
   5   7   2    0.67    2.26
  -5  -7  -2   -1.60    3.48
   5  -7   2    1.48    3.22
   5  -7   2    0.66    2.69
   5   7   2    0.83    6.50
   5   7   2    5.41    8.52
   5  -7   3    4.90    2.80
   5   7   3    5.82    2.30
  -5   7  -3    3.24    3.25
   5   7   3    2.92    2.40
  -5  -7  -3    4.10    3.84
   5  -7   3    6.80    3.61
  -5   7  -3    0.80    9.04
   5   7   3    3.88    8.55
   5   7   3    6.43    2.36
  -5   7  -4   25.11    9.91
  -5   7  -4   35.83    3.99
   5   7   4   28.07    3.21
   5   7   4   30.62    3.21
   5   7   4   33.55    3.22
  -5   7  -5  241.71   10.43
   5   7   5  206.91    9.68
   5   7   5  248.71   10.04
   5   7   5  235.05    9.86
   5  -7   5  244.36   10.13
  -5   7  -6  605.61   21.46
   5   7   6  557.00   20.98
   5  -7   6  612.74   21.18
   5   7   6  611.62   21.08
  -5   7  -7  200.15    8.51
   5   7   7  187.40    8.27
   5  -7   7  218.64    8.49
   5   7   7  199.01    8.45
   5  -8 -11    0.78    1.50
   5  -8 -11    1.13    2.49
  -5   8  11    0.06    1.87
  -5   8  10  609.07   22.49
  -5   8  10  619.38   22.80
   5  -8 -10  623.40   23.50
   5  -8 -10  609.67   22.27
   5  -8 -10  620.85   22.52
   5  -8  -9  261.41   10.44
   5  -8  -9  258.05   10.67
  -5   8   9  252.61   11.02
  -5   8   9  257.55   10.68
   5  -8  -8  425.54   16.03
   5  -8  -8  422.94   16.21
  -5   8   8  429.70   16.64
  -5   8   8  400.19   16.20
   5   8  -8  438.22   17.71
  -5   8   7   33.19    4.27
  -5  -8   7   38.22    4.21
   5   8  -7   30.99    4.47
   5  -8  -7   33.63    3.35
   5  -8  -7   30.03    9.38
  -5   8   7   36.09    3.56
  -5   8   7   33.16    3.91
   5   8  -7   23.83   16.38
   5  -8  -6  475.38   19.97
  -5   8   6  486.99   20.02
  -5   8   6  468.36   18.41
  -5   8   6  477.67   18.69
  -5  -8   6  482.80   19.90
  -5   8   6  478.37   20.37
   5  -8  -6  484.02   18.34
   5   8  -6  573.85   20.02
   5   8  -6  559.47   32.01
   5   8  -6  489.21   21.20
   5   8  -5   11.13    6.65
   5  -8  -5   11.87    2.98
  -5   8   5   21.44    3.38
  -5   8   5   18.07    2.95
  -5   8   5   12.67    3.23
  -5  -8   5   21.00    3.11
   5   8  -5   17.91    3.45
   5   8  -5   16.66    1.79
   5  -8  -5   15.92    2.57
  -5   8   5   10.84    3.58
   5  -8  -5   14.55    2.50
   5   8  -5   13.16    2.28
   5   8  -5   17.72   13.43
   5   8  -4  399.50   17.72
  -5   8   4  369.46   15.07
  -5   8   4  388.70   15.25
   5   8  -4  384.07   14.41
  -5   8   4  357.10   15.25
   5  -8  -4  368.36   16.31
  -5   8   4  367.98   17.16
   5  -8  -4  384.51   14.89
   5  -8  -4  375.20   14.88
   5   8  -4  388.96   14.70
   5   8  -4  467.10   16.01
   5   8  -4  473.01   25.90
  -5   8   3   94.98    7.23
   5  -8  -3  105.65    5.32
   5  -8  -3  102.06    5.34
  -5   8   3  102.76    5.75
  -5   8   3   88.08    5.57
   5   8  -3   97.21    4.92
  -5   8   2   68.47    8.07
  -5   8   2   91.01    5.35
   5   8  -2   85.06    4.56
   5  -8  -2   86.15    4.36
  -5   8   2   83.26    5.19
   5  -8  -2   84.96    4.85
   5  -8  -2   87.94    4.93
  -5  -8   2  103.74    9.02
   5   8  -2   86.23    4.33
   5   8  -2   85.87   11.75
   5   8  -2  105.09    5.50
  -5   8   1    8.70    4.98
   5  -8  -1   12.74    2.19
  -5   8   1   14.73    2.98
   5   8  -1    9.82    2.14
   5  -8  -1   10.87    2.53
  -5   8   1   11.35    4.12
   5  -8  -1   10.45    2.41
  -5  -8   1   14.63    5.70
   5   8  -1    6.61    8.00
   5   8  -1   13.25    2.01
   5   8  -1   14.21    8.83
   5  -8   0 1450.30   50.54
  -5  -8   0 1495.30   54.04
  -5   8   0 1420.18   51.44
   5  -8   0 1486.42   51.07
   5   8   0 1448.90   58.89
   5   8   0 1422.57   50.57
  -5   8  -1   92.70    8.33
   5  -8   1  114.80    5.69
  -5  -8  -1  110.48    8.34
   5  -8   1   83.30    7.68
   5   8   1  114.39    5.77
  -5   8  -1  121.12    6.62
   5  -8   1  117.56    6.10
   5   8   1  111.76    5.60
   5   8   1  111.92   12.48
   5  -8   2  209.96    8.77
  -5  -8  -2  190.53   11.75
   5  -8   2  171.12   11.29
   5  -8   2  203.66    9.16
   5   8   2  203.61    8.71
   5   8   2  212.73   16.52
   5  -8   2  184.27    8.97
   5   8   2  214.91    8.92
  -5   8  -2  203.40    9.57
   5  -8   3  274.99   11.09
   5  -8   3  253.03   11.28
   5   8   3  271.54   11.15
  -5   8  -3  274.03   11.87
   5   8   4  455.64   17.23
   5  -8   4  424.59   17.29
  -5   8  -4  461.76   17.83
   5   8   4  460.01   17.36
  -5   8  -5  112.87    6.21
   5   8   5  104.73    5.77
   5  -8   5  118.26    5.87
   5   8   5  119.32    5.91
   5   8   6    1.19    2.09
  -5   8  -6    0.68    2.26
   5   8   6    1.26    2.15
   5  -8   6    0.97    2.27
   5   9 -11  404.20   20.05
   5  -9 -11  403.21   14.61
   5  -9 -11  382.61   13.91
   5  -9 -11  374.67   14.07
  -5   9  10   66.68    3.88
  -5   9  10   64.31    4.26
   5  -9 -10   70.71    4.75
   5  -9 -10   69.80    3.68
   5  -9 -10   73.87    3.91
  -5   9   9  107.39    5.72
  -5   9   9   97.47    5.20
   5  -9  -9  103.19    5.06
   5  -9  -9  103.44    5.28
  -5   9   8   13.80    3.24
  -5   9   8   13.06    2.78
   5  -9  -8   11.32    2.49
  -5   9   7  571.30   22.29
  -5   9   7  614.50   22.75
   5  -9  -7  584.53   22.26
  -5   9   6  160.65    7.71
  -5   9   6  166.51    8.08
   5  -9  -6  143.50    8.78
   5   9  -6  189.05    8.83
   5  -9  -6  166.83    7.45
   5  -9  -6  167.70    7.52
   5   9  -5    2.72    1.37
  -5   9   5    0.64    2.91
  -5   9   5    2.27    2.45
   5  -9  -5    3.61    3.14
   5   9  -5    3.45    3.06
   5  -9  -5    5.39    2.20
   5  -9  -5    2.18    2.09
   5   9  -4    3.88    1.62
   5  -9  -4    5.91    2.26
   5  -9  -4    2.04    2.12
  -5   9   4    2.14    3.17
  -5   9   4    4.49    2.95
  -5   9   4    4.29    2.57
   5  -9  -4    3.94    2.62
   5   9  -4    5.81    2.96
   5   9  -4    4.19   11.12
  -5   9   3   67.01    4.57
  -5   9   3   68.86    4.79
  -5   9   3   63.72    4.59
   5   9  -3   69.33    3.92
  -5   9   3   53.56    7.18
   5  -9  -3   67.91    4.14
  -5   9   3   67.16    6.05
   5  -9  -3   68.83    4.21
  -5  -9   3   76.69    8.49
   5   9  -3   76.60    6.94
   5  -9  -3   59.01    4.39
   5   9  -3   78.84    5.09
   5  -9  -2   66.03    3.67
  -5   9   2   69.33    4.70
  -5   9   2   64.04    4.60
   5   9  -2   69.43    4.04
  -5   9   2   54.91    7.35
   5  -9  -2   69.89    4.16
  -5   9   2   61.26    6.01
   5  -9  -2   69.37    4.27
  -5  -9   2   79.13    8.61
   5  -9  -2   66.75    4.45
   5   9  -2   71.99    4.90
   5   9  -2   66.24    3.70
   5   9  -1    4.45    1.81
   5   9  -1   10.88    8.02
  -5   9   1    0.69    4.35
   5  -9  -1    5.45    1.96
  -5   9   1    6.60    2.72
   5   9  -1    4.94    2.09
   5  -9  -1    5.69    2.25
   5  -9  -1    4.80    2.38
   5   9  -1    6.11    8.81
   5  -9   0  173.30    7.65
  -5  -9   0  156.64   10.42
  -5   9   0  187.15    8.58
   5  -9   0  180.11    8.07
   5  -9   0  180.02    8.11
   5   9   0  182.50   14.89
   5   9   0  180.77    7.75
   5   9   1 1115.78   47.70
   5   9   1 1119.46   40.16
   5  -9   1 1096.10   39.94
  -5  -9  -1  959.94   43.29
   5  -9   1 1161.65   40.40
   5  -9   1 1163.52   40.44
  -5   9  -1 1153.50   40.93
   5   9   1 1135.88   40.39
   5   9   2    7.80    2.42
   5  -9   2    8.43    2.46
   5  -9   2    7.16    2.57
   5   9   2   10.41    2.52
  -5   9  -2   10.21    3.12
   5  -9   2    7.04    2.61
   5   9   3  366.91   14.59
  -5   9  -3  373.38   15.09
   5  -9   3  397.10   14.70
   5  -9   3  355.81   14.24
   5   9   4   64.56    4.20
   5   9   4   63.40    4.26
  -5   9  -4   64.67    4.58
   5  -9   4   68.61    4.18
   5   9   5  150.61    6.78
  -5   9  -5  141.02    6.81
   5  -9   5  160.20    6.60
   5   9   6    0.11    1.70
  -5   9  -6    1.28    1.83
   5  -9   6    0.63    1.73
   5   9   6   -0.76    1.93
   5  -9   6    1.42    1.51
  -5  10  10   14.15    2.27
   5 -10 -10   13.12    1.73
   5 -10 -10   16.05    2.33
   5  10 -10   20.34    7.24
   5 -10  -9  226.13    8.98
  -5  10   9  217.78    9.36
   5 -10  -9  226.54    9.72
   5 -10  -8    1.80    1.92
   5 -10  -8    2.14    1.90
   5  10  -8   -4.26   10.20
  -5  10   8   -0.35    2.59
   5 -10  -7   11.46    2.23
   5 -10  -7   14.31    2.35
  -5  10   7   13.73    3.09
   5 -10  -6    4.04    2.07
   5 -10  -6    5.97    2.14
   5  10  -6    3.80    2.72
   5 -10  -6   10.28    4.37
  -5  10   6    6.29    3.00
   5 -10  -5 1063.22   38.03
   5 -10  -5 1035.08   37.94
  -5  10   5 1111.42   38.62
   5 -10  -5  965.07   38.95
   5 -10  -4  653.50   23.89
   5 -10  -4  638.35   23.75
  -5  10   4  668.36   24.43
   5  10  -4  656.59   23.57
   5 -10  -4  599.71   24.41
   5 -10  -3  178.45    7.74
   5 -10  -3  181.46    7.89
  -5  10   3  178.52    8.43
   5 -10  -3  175.43    8.25
   5  10  -3  202.29    8.99
   5  10  -3  182.67    7.75
   5  10  -2   78.93    4.28
   5 -10  -2   69.05    3.75
  -5  10   2   68.29    4.73
   5 -10  -2   69.47    4.00
   5 -10  -2   74.76    4.27
   5  10  -2   69.16    3.78
   5 -10  -2   77.75    4.64
   5  10  -1  709.24   25.17
  -5  10   1  662.92   25.14
   5 -10  -1  656.65   24.56
   5 -10  -1  690.90   25.03
   5  10  -1  676.25   24.74
   5 -10  -1  713.96   25.23
   5  10   0   63.59    4.11
   5 -10   0   57.81    3.60
   5 -10   0   59.05    3.89
   5 -10   0   59.99    3.99
   5  10   0   55.55    3.67
   5  10   1  117.29    5.80
   5  10   1  113.19    5.98
   5 -10   1  111.82    5.56
   5 -10   1  121.78    5.85
   5 -10   1  126.67    5.98
   5  10   2   66.57    4.33
   5  10   2   64.29    4.14
   5 -10   2   68.49    4.17
   5 -10   2   67.54    3.91
   5  10   3  211.12    8.96
   5  10   3  190.89    8.74
   5 -10   3  222.94    8.73
   5 -10   3  201.62    8.44
   5 -10   4   -0.19    1.79
   5  10   4    2.96    2.12
   5  10   4    0.71    2.20
   5 -10   5  745.09   24.80
   5  10   5  673.55   25.09
   5  10   5  666.84   25.01
   5 -11  -8   11.61    1.78
   5 -11  -8   15.42    1.82
   5  11  -8   14.95    7.68
  -5  11   8   12.42    2.53
  -5  11   8   14.89    2.00
   5 -11  -7   34.71    2.63
   5 -11  -7   36.52    2.58
  -5  11   7   39.75    3.45
  -5  11   7   32.39    2.75
   5 -11  -6  251.75    9.72
   5 -11  -6  237.25    9.55
  -5  11   6  230.62    9.75
  -5  11   6  254.49   10.35
   5 -11  -5   69.15    3.71
   5 -11  -5   67.86    3.89
  -5  11   5   65.46    4.06
   5 -11  -5   56.40    5.41
   5 -11  -4  464.88   17.58
   5 -11  -4  488.08   17.86
  -5  11   4  472.52   18.00
  -5  11   4  508.08   18.47
   5 -11  -4  447.73   18.76
   5  11  -4  518.39   18.75
   5  11  -4  493.05   17.62
   5  11  -3    7.43    1.92
  -5  11   3    8.23    2.36
  -5  11   3    5.43    2.72
   5 -11  -3    5.81    1.89
  -5  11   3    5.08    2.48
   5 -11  -3    8.17    2.73
   5 -11  -2  785.82   28.16
  -5  11   2  767.56   28.48
  -5  11   2  749.75   28.35
   5 -11  -2  836.89   28.78
   5  11  -2  808.97   28.37
   5  11  -1    4.54    1.79
   5  11  -1    4.71    2.18
  -5  11   1    3.21    2.25
   5 -11  -1    3.45    1.72
  -5  11   1    1.55    2.36
   5 -11  -1    3.13    1.90
   5 -11  -1    1.31    2.16
  -5  11   0   56.62    3.90
   5  11   0   52.51    3.76
   5 -11   0   53.64    3.29
   5 -11   0   51.98    3.41
   5  11   0   56.48    3.51
   5 -11   0   59.62    3.74
   5 -11   1    4.27    1.83
   5 -11   1    1.88    1.94
   5  11   1    1.05    1.90
  -5  11  -1    4.49    2.22
   5  11   2   14.21    2.36
   5 -11   2   11.98    2.02
  -5  11  -2    8.54    1.92
  -5  11  -2   16.25    2.51
   5  11   2   13.76    2.53
   5 -11   2   16.80    2.19
  -5  11  -3   36.67    2.91
   5  11   3   37.07    3.16
   5 -11   3   36.60    2.61
   5  11   3   39.64    3.09
   5 -11   3   37.21    2.67
   5 -12  -7    1.30    0.98
   5 -12  -7    1.92    1.23
  -5  12   7   -0.18    2.03
  -5  12   7    3.20    1.42
   5  12  -7    2.41    5.41
   5 -12  -6  173.74    6.42
  -5  12   6  176.74    7.04
  -5  12   6  169.00    6.48
  -5  12   5   97.88    4.64
  -5  12   5  103.33    5.19
  -5  12   5   89.88    5.01
   5 -12  -5   98.82    4.50
  -5  12   4  269.05   10.45
  -5  12   4  277.42   10.86
   5 -12  -4  274.26   10.31
  -5  12   4  273.23   10.81
   5  12  -3   12.90    1.84
  -5  12   3   12.06    2.09
  -5  12   3   10.91    2.57
  -5  12   3   10.70    2.44
   5 -12  -3   13.21    1.83
   5 -12  -3   10.16    2.79
   5  12  -3   10.13    7.47
   5 -12  -2   61.17    3.33
  -5  12   2   58.73    3.60
   5  12  -2   66.77    3.65
   5 -12  -2   56.37    4.09
   5 -12  -1  139.44    6.09
   5  12  -1  153.18    6.58
  -5  12   1  148.83    6.44
   5 -12  -1  149.32    6.60
   5  12   0  263.06   10.32
  -5  12   0  252.21   10.02
   5 -12   0  261.67    9.63
   5 -12   0  250.66   10.06
   5  12   0  250.71    9.86
   5  12   1  104.02    4.89
  -5  12  -1  111.25    4.99
  -5  12  -1  113.35    4.96
   5 -12   1  114.88    4.61
   5 -12   1  111.12    4.90
   5  12   2    1.19    1.74
   5 -12   2    1.86    1.40
  -5  12  -2    2.73    1.60
  -5  12  -2    1.35    1.09
   5 -12   2    0.58    1.47
   5  12   2    0.98    2.00
  -5  12  -2    2.13    1.50
  -5  13   3    5.81    1.47
   5 -13  -3    4.80    1.17
   5 -13  -3    4.22    2.54
  -5  13   2    1.46    1.39
   5 -13  -2    0.03    1.01
   5  13  -2    0.20    1.35
   5 -13  -2    2.07    2.09
   5  13  -2    2.90    5.36
  -6   0  14  118.03    5.45
  -6   0  13    0.88    2.77
  -6   0  12   10.51    3.47
  -6   0  10 1212.56   43.97
   6   0 -10 1132.37   56.85
   6   0 -10 1110.52   42.94
   6   0 -10 1147.36   43.75
  -6   0  10 1174.27   44.25
  -6   0   9    5.08    3.84
   6   0  -9   -7.39   19.13
   6   0  -9    4.57    3.03
   6   0  -9    0.80    2.69
  -6   0   9   -1.20    3.53
  -6   0   8  786.70   29.16
   6   0  -8  817.37   29.52
   6   0  -8  755.60   28.28
   6   0  -8  717.49   28.48
  -6   0   8  734.20   28.72
   6   0  -8  669.05   25.76
  -6   0   7    1.36    3.54
   6   0  -7   -0.89   18.61
   6   0  -7   -0.41    2.74
   6   0  -7    0.19    2.75
  -6   0   7    0.81    3.05
   6   0  -7   -0.16    1.99
  -6   0   6   75.79    6.48
   6   0  -6   78.61    5.79
   6   0  -6   87.33    6.09
  -6   0   6   84.71    6.08
   6   0  -6   70.47    4.40
  -6   0   5   -1.98    3.53
  -6   0   5    0.86    3.06
   6   0  -5    0.34    2.12
   6   0  -5   -1.70    6.46
   6   0  -5    0.18    2.58
   6   0  -5    1.46    2.78
  -6   0   4  246.70   12.89
   6   0  -4  258.65   10.90
  -6   0   4  291.19   12.59
   6   0  -4  285.10   10.99
   6   0  -4  249.96   10.70
   6   0  -4  310.24   14.75
   6   0  -4  299.69   12.84
   6   0  -4  264.49   12.50
  -6   0   3    1.11    2.91
   6   0  -3    0.61    2.25
   6   0  -3    0.71    2.18
   6   0  -3    1.54    2.65
   6   0  -3    1.79    6.82
   6   0  -3    0.75    1.96
   6   0  -3   -1.34    4.32
   6   0  -2  101.33    5.39
   6   0  -2  110.93    8.06
   6   0  -2  107.38   10.01
  -6   0   2   90.89    6.29
   6   0  -2  108.44    5.07
   6   0  -1    0.59    2.30
   6   0  -1   -0.99    7.34
   6   0  -1    3.08    4.23
   6   0  -1    1.02    2.18
  -6   0   1    0.63    3.50
   6   0  -1   -0.76    2.08
   6   0   0   48.94    3.91
   6   0   0   60.58    9.48
   6   0   0   48.18    6.12
  -6   0   0   57.50    5.70
   6   0   0   52.40    3.60
   6   0   0   49.22    3.93
   6   0   1    1.23    2.83
   6   0   1    2.35    2.53
   6   0   1    1.03    4.39
  -6   0  -1    1.15    3.53
   6   0   1   -0.17    2.13
   6   0   2 2341.43   84.61
   6   0   2 2318.51   87.46
   6   0   2 2561.35   84.68
  -6   0  -2 2595.83   87.45
   6   0   2 2368.07   84.00
   6   0   3   -0.64    3.51
   6   0   3    0.70    2.64
   6   0   3   -0.29    4.56
  -6   0  -3   -3.35    4.04
   6   0   3    0.82    2.32
   6   0   4    2.96    2.82
   6   0   4    2.16    4.64
  -6   0  -4    2.11    3.64
   6   0   4    4.35    2.52
   6   0   5   -0.72    2.41
   6   0   5    1.83    3.73
   6   0   5    0.70    2.76
   6   0   6   67.17    4.14
   6   0   6   67.41    5.30
   6   0   6   56.20    4.47
   6   0   7    1.02    2.00
   6   0   7   -0.95    2.98
   6   0   7    1.35    2.15
   6   0   8  278.24   10.25
   6   0   8  253.30   10.56
   6   0   8  286.33   14.85
  -6  -1  14  138.88    6.17
  -6   1  14  141.56    6.13
  -6  -1  13   82.22    4.96
  -6   1  13   79.31    4.86
  -6   1  12  526.55   19.36
   6  -1 -12  480.71   18.58
   6  -1 -11   13.32    2.95
  -6   1  11   13.31    3.72
  -6   1  10  285.00   12.33
  -6  -1  10  305.98   13.80
  -6   1  10  294.26   14.03
  -6  -1  10  264.90   13.60
   6  -1 -10  252.97   11.74
  -6  -1  10  302.09   14.13
   6  -1 -10  278.04   10.97
   6  -1 -10  291.51   27.22
   6   1 -10  279.91   13.75
   6  -1 -10  257.83   13.00
   6  -1 -10  288.50   13.60
  -6   1   9  379.68   16.88
  -6  -1   9  373.30   16.44
   6  -1  -9  320.87   14.26
  -6  -1   9  376.19   16.36
  -6   1   9  361.84   16.72
   6  -1  -9  354.94   13.55
   6   1  -9  307.02   29.23
   6  -1  -9  303.51   30.52
   6  -1  -9  342.35   15.68
   6   1  -9  332.65   16.08
   6   1  -9  358.06   15.59
   6  -1  -9  343.77   16.00
  -6   1   8  293.01   14.16
  -6  -1   8  308.08   14.25
   6  -1  -8  244.98   11.82
  -6  -1   8  316.65   14.04
  -6   1   8  306.48   14.32
   6  -1  -8  286.31   11.44
   6   1  -8  202.25   26.05
   6  -1  -8  177.76   26.86
   6  -1  -8  317.80   14.45
   6   1  -8  334.65   15.89
   6  -1  -8  288.80   13.46
   6  -1  -8  275.13   13.35
   6   1  -8  287.21   13.28
   6   1  -8  271.47   13.63
  -6  -1   7  102.93    6.87
  -6   1   7  102.47    7.21
   6  -1  -7   95.88    5.27
   6  -1  -7  102.53    6.83
   6  -1  -7  101.28    6.90
   6   1  -7  104.79    6.77
   6   1  -7   95.10    6.88
  -6   1   7  101.80    7.30
  -6  -1   7  105.63    7.53
   6   1  -6    8.05    3.13
   6  -1  -6    6.69    3.06
   6   1  -6    4.36    2.84
   6  -1  -6    5.35    2.54
  -6   1   6    5.66    3.80
  -6  -1   6    4.11    3.64
  -6   1   6    6.41    2.67
  -6  -1   6    3.34    2.85
  -6   1   6    9.37    3.49
   6  -1  -6    4.64    2.22
   6   1  -6    7.93    3.45
   6  -1  -6    6.18    3.30
   6   1  -6    0.82   17.14
   6   1  -5 1048.59   35.84
   6  -1  -5 1039.92   35.78
  -6   1   5  927.55   37.58
  -6  -1   5  938.40   37.80
  -6  -1   5 1000.64   36.91
  -6   1   5 1071.80   37.47
   6   1  -5  917.77   35.08
   6  -1  -5  925.58   35.31
   6   1  -5 1047.28   37.63
   6  -1  -5 1013.87   37.28
   6  -1  -5 1059.92   37.63
   6   1  -5  906.72   36.76
   6   1  -5 1084.73   39.12
   6  -1  -5 1087.67   38.11
   6  -1  -4  149.79    7.17
   6   1  -4  157.86    7.40
  -6   1   4  123.51    8.38
  -6  -1   4  132.78    8.45
   6  -1  -4  130.78    6.61
  -6  -1   4  157.62    7.99
  -6   1   4  165.66    8.37
   6   1  -4  143.90    6.47
   6  -1  -4  121.98    5.93
   6   1  -4  156.39    8.42
   6  -1  -4  139.96    8.11
   6   1  -4  131.16    7.58
   6   1  -4  148.41    6.60
   6   1  -4  157.60   11.31
   6  -1  -4  127.74    6.40
   6   1  -4  124.73    6.14
   6   1  -4  152.13   10.12
   6  -1  -4  147.53   10.09
   6   1  -3    8.11    3.32
   6  -1  -3    9.22    3.20
  -6  -1   3   10.51    3.12
  -6   1   3    8.10    3.23
   6  -1  -3   11.85    2.61
   6   1  -3    8.88    2.18
   6  -1  -3    8.62    2.27
   6   1  -3    8.54    2.27
   6  -1  -3    7.40    1.96
   6   1  -3   14.91    7.89
   6  -1  -3   12.33    6.76
   6  -1  -3    7.89    2.39
   6   1  -3   11.81    2.09
   6  -1  -3   10.13    4.12
   6   1  -3   10.19    5.11
   6   1  -2    4.05    3.53
   6  -1  -2    4.52    3.39
   6   1  -2    5.45    2.13
   6  -1  -2    2.80    2.14
   6   1  -2    3.45    2.14
  -6  -1   2    5.87    2.70
  -6   1   2    1.94    3.03
   6  -1  -2    2.49    2.45
   6  -1  -2    4.74    2.09
   6  -1  -2   10.01    4.12
   6   1  -2    2.63    5.04
   6   1  -2    5.54    7.67
   6  -1  -2    8.48    6.88
   6  -1  -2    3.89    2.27
   6   1  -2    2.33    1.97
  -6   1   1   45.62    5.25
  -6  -1   1   45.31    5.15
   6  -1  -1   48.79    3.47
   6   1  -1   53.98    3.55
   6   1  -1   48.71    3.74
   6  -1  -1   43.24    3.46
   6   1  -1   53.41    3.67
  -6   1   1   46.41    4.55
   6  -1  -1   57.19    3.73
   6   1  -1   56.43    9.33
   6  -1  -1   55.74    8.40
   6   1  -1   48.77    6.67
   6  -1  -1   50.85    4.04
   6   1  -1   56.33    3.74
   6  -1  -1   49.49    5.71
   6   1  -1   54.76    4.85
   6  -1  -1   42.67    4.36
   6  -1   0  938.78   33.02
   6   1   0  908.05   33.31
   6  -1   0  857.15   33.01
   6   1   0  905.81   33.11
   6  -1   0  907.27   36.82
   6   1   0  936.60   36.82
   6   1   0  934.52   37.69
   6   1   0 1032.84   33.48
   6  -1   0  875.43   35.43
  -6  -1   0  991.18   35.79
  -6   1   0  884.16   35.56
   6  -1   1   39.40    3.30
   6   1   1   35.30    3.48
   6  -1   1   33.20    3.76
   6   1   1   42.92    3.97
   6   1   1   33.85    9.76
   6  -1   1   33.25    5.36
   6   1   1   35.62    6.35
   6  -1   1   43.84    3.98
   6   1   1   37.33    3.45
  -6  -1  -1   40.80    5.11
  -6   1  -1   34.37    5.11
  -6   1  -2   -1.01    3.81
  -6  -1  -2    5.15    3.64
   6  -1   2   -0.12    3.26
   6   1   2    0.93    3.14
   6   1   2    0.11    2.46
   6  -1   2    0.09    2.41
   6  -1   2   -1.46    2.75
   6   1   2    1.37    2.43
   6   1   2   -0.92    4.95
   6  -1   2    4.47    4.27
   6  -1   2    1.53    1.75
  -6   1  -3   84.15    7.34
  -6  -1  -3   93.59    7.24
  -6  -1  -3   77.23    6.92
   6  -1   3   82.77    5.87
   6   1   3   89.29    5.89
   6   1   3   78.21    8.38
   6  -1   3   77.50    7.27
   6  -1   3   77.47    5.40
   6   1   3   85.68    5.21
   6  -1   3   77.52    4.29
   6  -1   3   81.41    4.84
   6   1   3   74.21    4.75
   6  -1   4   52.95    3.57
   6  -1   4   51.79    4.66
   6   1   4   55.72    7.70
   6   1   4   56.26    4.45
  -6   1  -4   59.85    6.36
  -6  -1  -4   63.18    6.15
   6  -1   4   60.32    4.12
   6   1   4   58.36    4.06
   6  -1   5  472.53   19.04
   6   1   5  498.97   19.17
   6  -1   5  454.32   18.64
   6   1   5  477.25   18.57
   6  -1   5  466.59   17.69
   6  -1   5  494.65   18.12
   6   1   5  484.52   18.16
   6  -1   6   33.16    4.35
   6   1   6   36.12    4.39
   6  -1   6   26.05    3.39
   6   1   6   29.19    3.52
   6  -1   6   33.52    2.66
   6  -1   6   39.05    3.20
   6   1   6   30.02    3.13
   6   1   7  291.99   17.85
   6  -1   7  304.41   12.35
   6   1   7  331.29   12.51
   6  -1   7  314.38   11.66
   6   1   7  313.23   11.79
   6  -1   8  132.52    6.32
   6   1   8  143.69    6.40
   6  -1   8  143.83    5.82
   6   1   8  146.52    6.05
  -6   2  13   25.74    2.23
  -6  -2  13   29.17    3.34
  -6   2  13   31.92    3.25
   6  -2 -12   14.16    2.78
  -6   2  12   16.02    3.42
   6  -2 -11  132.19    6.05
   6  -2 -11  143.77    7.21
  -6   2  11  139.74    6.43
  -6   2  11  134.15    7.55
  -6   2  10    1.45    3.47
  -6  -2  10   -0.24    3.34
  -6   2  10    1.02    3.58
  -6   2  10    1.34    2.27
  -6  -2  10    0.45    3.42
  -6   2  10   -0.77    3.99
   6  -2 -10    0.79    1.98
   6  -2 -10   -0.84   17.74
   6  -2 -10    5.46    3.11
   6   2 -10    2.71    3.13
  -6   2   9    6.15    3.81
  -6  -2   9    4.95    3.50
  -6   2   9    3.25    3.40
  -6   2   9    4.72    2.24
  -6  -2   9    2.37    3.19
   6  -2  -9    3.68    2.14
   6   2  -9    5.09   17.35
   6  -2  -9   -9.28   19.94
   6  -2  -9    2.66    3.04
   6  -2  -9    3.78    2.59
   6   2  -9    7.63    3.22
   6  -2  -9    4.85    2.95
  -6   2   8  102.41    7.40
  -6  -2   8   97.15    7.04
  -6   2   8   88.28    5.80
  -6   2   8   93.65    5.02
  -6   2   8   99.90    7.62
   6  -2  -8   94.59    5.07
  -6  -2   8  101.52    6.86
   6   2  -8  117.64   10.73
   6  -2  -8   98.04    6.48
   6  -2  -8   83.44    6.46
   6   2  -8   91.97    6.97
  -6   2   7  267.63   13.16
  -6  -2   7  278.32   13.33
  -6   2   7  264.74   11.17
  -6   2   7  260.16   10.50
  -6  -2   7  273.50   12.47
  -6   2   7  252.30   13.04
   6  -2  -7  264.00   10.17
   6  -2  -7  267.45   10.76
   6  -2  -7  259.25   12.27
   6  -2  -7  271.80   12.75
   6   2  -7  238.08   11.79
   6   2  -7  251.04   12.99
   6  -2  -6   13.40    2.99
   6   2  -6   11.18    3.41
   6  -2  -6   12.80    3.22
   6   2  -6   11.65    2.72
  -6   2   6    8.52    3.62
  -6  -2   6   15.28    4.30
  -6   2   6   12.56    2.74
   6  -2  -6   10.86    1.94
  -6  -2   6   16.65    3.36
  -6   2   6   13.10    3.75
   6  -2  -6   14.15    2.50
   6   2  -6    3.91   16.28
   6   2  -6   12.80    3.52
   6  -2  -6   12.49    3.35
   6  -2  -6   12.60    3.46
   6  -2  -5  407.36   17.07
   6   2  -5  448.98   17.50
   6  -2  -5  470.37   17.45
  -6  -2   5  449.56   19.70
  -6  -2   5  456.88   18.41
  -6   2   5  488.20   19.23
   6  -2  -5  438.73   16.67
   6  -2  -5  475.09   17.27
   6   2  -5  501.54   21.53
   6  -2  -5  484.22   19.44
   6  -2  -5  484.36   19.22
   6   2  -5  429.29   18.00
   6  -2  -4    7.20    1.93
   6   2  -4    8.42    3.43
   6  -2  -4    8.67    3.11
  -6  -2   4   13.02    4.06
   6   2  -4    6.52    1.90
   6   2  -4    6.93    2.44
   6  -2  -4    4.20    1.98
  -6  -2   4   10.48    3.02
  -6   2   4    6.22    3.17
   6  -2  -4    7.79    2.51
   6   2  -4    6.06    7.77
   6  -2  -4    8.04    5.86
   6   2  -4   11.99    1.92
   6  -2  -4    7.03    2.23
   6   2  -4   11.87    6.16
   6  -2  -4   15.83    3.40
   6   2  -3 1282.40   43.10
   6  -2  -3 1173.14   42.74
  -6   2   3 1123.70   44.57
   6   2  -3 1279.61   42.53
   6  -2  -3 1146.56   42.34
   6   2  -3 1195.64   42.50
   6  -2  -3 1115.41   42.62
  -6  -2   3 1318.94   43.86
  -6   2   3 1334.18   44.68
   6  -2  -3 1107.34   42.23
   6  -2  -3 1115.03   42.66
   6   2  -3 1259.93   42.31
   6   2  -3 1332.79   47.35
   6   2  -3 1330.77   46.88
   6  -2  -3 1258.72   45.01
   6  -2  -3 1198.75   44.53
   6   2  -2   34.49    2.91
  -6   2   2   36.02    4.70
   6  -2  -2   34.54    3.06
   6  -2  -2   36.26    3.41
  -6   2   2   32.11    4.23
   6  -2  -2   34.86    3.95
   6  -2  -2   39.17    2.56
   6   2  -2   38.51    4.35
   6   2  -2   41.28    6.87
   6   2  -2   39.22    8.81
   6  -2  -2   28.28    7.02
   6  -2  -2   33.51    3.48
   6   2  -2   35.28    2.93
   6  -2  -2   32.55    3.01
   6   2  -2   35.61    3.15
   6   2  -2   34.71    2.97
  -6  -2   1   27.18    4.29
   6  -2  -1   23.80    2.82
   6   2  -1   23.32    2.72
   6   2  -1   17.81    2.65
   6  -2  -1   21.34    2.79
   6   2  -1   23.27    2.85
   6  -2  -1   21.48    2.86
  -6   2   1   20.58    3.76
   6  -2  -1   23.16    7.32
   6   2  -1   18.62    5.96
   6  -2  -1   17.15    3.01
   6   2  -1   22.81    2.65
   6  -2  -1   19.76    2.14
   6   2  -1   24.95    4.09
   6  -2  -1   18.86    3.66
  -6  -2   0   91.97    6.71
   6  -2   0   90.94    4.80
   6   2   0   82.98    4.66
   6   2   0   87.15    5.01
   6  -2   0   80.74    4.91
  -6   2   0   76.39    5.75
   6  -2   0   84.39    5.05
   6   2   0   70.79    8.03
   6  -2   0   74.98    8.89
   6  -2   0   79.92    5.36
   6   2   0   90.44    4.87
   6   2   0   83.14    5.91
   6  -2   0   81.33    4.28
  -6  -2  -1  202.55   10.27
   6  -2   1  167.59    8.34
   6   2   1  203.25    8.61
  -6   2  -1  170.85    7.76
   6   2   1  177.06    8.30
   6  -2   1  186.04    8.03
   6   2   1  175.47    7.86
   6   2   1  193.71   12.39
   6  -2   1  173.44    8.68
   6  -2   1  179.32    7.64
  -6  -2  -2    4.37    3.66
  -6  -2  -2    6.93    3.43
   6  -2   2    4.78    3.31
   6   2   2    6.47    3.34
   6   2   2    8.66    2.62
  -6   2  -2    5.67    2.05
   6  -2   2    6.98    2.52
   6   2   2    8.46    2.41
   6   2   2   -0.70   10.05
   6  -2   2    6.37    3.15
   6   2   2    6.24    2.44
   6   2   2    9.42    6.01
   6  -2   2    5.31    2.08
  -6  -2  -3    6.56    3.64
  -6  -2  -3    5.73    3.65
   6  -2   3   -1.15    3.76
   6   2   3    3.01    3.49
   6   2   3    3.84    2.62
  -6   2  -3    2.09    2.08
   6  -2   3    3.78    2.51
   6   2   3    8.92   10.81
   6  -2   3    0.78    2.85
   6   2   3    0.84    2.44
   6   2   3    3.68    5.80
   6  -2   3   -0.17    2.04
  -6  -2  -4    2.82    4.18
   6  -2   4    2.18    2.00
   6   2   4   -2.31   11.26
   6  -2   4    1.40    2.97
   6   2   4    3.22    2.63
   6   2   4    4.23    6.05
  -6   2  -4    4.39    3.95
  -6  -2  -4    2.97    3.38
  -6   2  -4    1.94    2.07
   6  -2   4    2.24    2.38
   6  -2   5  182.59    9.56
   6   2   5  225.12    9.98
   6   2   5  197.92   17.31
   6  -2   5  182.48    9.21
   6   2   5  204.00    9.15
   6  -2   5  195.45    8.43
  -6   2  -5  203.46    8.58
   6  -2   5  217.80    8.80
   6   2   5  190.13    8.66
   6  -2   6   39.52    4.36
   6   2   6   33.16    4.36
   6   2   6   36.04   12.11
   6  -2   6   36.81    3.43
   6   2   6   37.86    3.69
   6  -2   6   39.50    2.99
  -6   2  -6   41.61    3.14
   6  -2   6   41.10    3.23
   6   2   6   41.33    3.46
   6   2   7  801.28   35.88
   6   2   7  808.84   31.17
   6  -2   7  867.73   31.47
   6   2   7  949.89   31.68
  -6   2  -7  824.21   30.69
   6  -2   7  907.04   30.79
   6   2   7  917.39   31.11
   6  -2   8   67.29    3.85
   6  -2   8   56.61    2.99
   6   2   8   73.39    3.65
   6   2   8   65.03    4.61
   6  -2   8   72.83    7.81
   6   2   8   56.04    7.96
  -6   3  13   61.14    3.44
   6  -3 -13   73.97    3.90
   6  -3 -12   50.54    3.03
  -6   3  12   58.85    4.36
   6  -3 -12   53.54    4.11
   6  -3 -11   67.40    3.98
   6  -3 -11   69.42    5.24
  -6   3  11   74.65    5.26
  -6   3  11   74.69    4.35
  -6   3  10  176.93   10.14
  -6  -3  10  158.43    9.73
   6  -3 -10  163.60    8.69
   6  -3 -10  168.36    7.44
   6  -3 -10  157.25   21.75
  -6   3  10  159.21    8.45
  -6   3  10  175.60    7.73
  -6   3   9  156.82    8.16
  -6   3   9  163.73    7.41
  -6   3   9  161.33    9.71
   6  -3  -9  155.80    8.45
   6  -3  -9  158.57    6.67
   6  -3  -9  161.96    7.26
  -6  -3   9  166.87    9.21
   6   3  -9  180.28   12.74
   6   3  -9  149.25    9.50
   6  -3  -9  144.58    8.93
  -6   3   8   55.05    5.89
  -6   3   8   59.86    4.78
  -6   3   8   55.90    3.90
   6  -3  -8   54.90    3.30
   6  -3  -8   53.46    3.79
  -6  -3   8   53.67    5.01
   6   3  -8   65.12    9.78
   6   3  -8   54.95   17.64
   6  -3  -8   53.27    4.68
   6  -3  -8   53.27    5.26
  -6   3   7  117.33    7.96
  -6  -3   7  121.85    8.04
  -6   3   7  107.34    6.29
  -6   3   7  117.47    5.88
  -6   3   7  133.64    8.43
   6  -3  -7  120.82    5.49
   6  -3  -7  124.51    6.00
  -6  -3   7  120.90    7.21
   6   3  -7  124.01   20.02
   6  -3  -7  117.98    6.99
   6  -3  -7  114.93    7.55
   6   3  -6   67.01    5.95
   6  -3  -6   61.15    5.35
  -6  -3   6   74.68    6.48
  -6   3   6   65.36    4.07
  -6   3   6   63.19    4.34
  -6  -3   6   66.96    5.11
  -6   3   6   59.06    5.71
   6  -3  -6   62.90    3.68
   6  -3  -6   67.75    4.21
   6   3  -6   69.07    9.73
   6   3  -6   53.13   16.75
   6  -3  -6   62.90    5.11
   6  -3  -6   62.14    4.73
   6   3  -5  508.52   20.53
   6  -3  -5  457.93   19.51
  -6   3   5  462.74   17.44
  -6   3   5  455.12   19.73
  -6  -3   5  459.18   20.35
  -6  -3   5  470.92   18.83
  -6   3   5  487.72   19.89
   6  -3  -5  475.80   17.36
   6  -3  -5  477.13   17.76
   6   3  -5  425.88   29.73
   6   3  -5  489.87   22.13
   6  -3  -5  460.74   17.81
   6   3  -5  419.68   17.80
   6  -3  -5  485.57   17.90
   6   3  -5  488.74   23.90
   6   3  -4  269.06   12.77
  -6   3   4  231.45    9.88
  -6   3   4  228.77   11.97
  -6  -3   4  244.34   12.46
   6   3  -4  260.84   10.25
  -6   3   4  241.08   10.05
   6   3  -4  247.92    9.85
  -6   3   4  265.56   12.18
   6  -3  -4  239.59    9.89
   6  -3  -4  253.53   10.35
   6  -3  -4  256.81    9.94
   6   3  -4  231.23   10.50
   6  -3  -4  239.63   10.34
   6   3  -4  274.94   15.49
   6   3  -4  244.28   14.81
  -6   3   3  326.50   16.47
   6  -3  -3  355.71   14.51
   6   3  -3  398.15   14.90
  -6   3   3  374.22   14.65
   6   3  -3  438.28   14.77
  -6   3   3  404.87   16.77
   6  -3  -3  347.84   14.52
   6  -3  -3  406.80   14.47
   6   3  -3  385.67   15.30
   6  -3  -3  360.21   14.93
   6   3  -3  299.68   24.13
   6  -3  -3  353.05   14.99
   6   3  -3  418.26   14.53
   6   3  -3  442.13   20.32
   6   3  -2   26.98    6.93
   6  -3  -2   18.72    6.28
   6  -3  -2   12.12    2.94
   6   3  -2   12.24    2.10
  -6  -3   2   19.35    3.94
   6   3  -2   18.50    2.78
  -6   3   2    8.72    3.52
   6  -3  -2   17.21    2.53
   6   3  -2   17.59    2.66
  -6   3   2   17.26    2.45
   6   3  -2   18.49    2.35
  -6   3   2   18.86    3.76
   6  -3  -2   17.57    2.57
   6  -3  -2   16.83    2.09
   6   3  -2   20.08    3.86
   6  -3  -2   17.99    3.57
   6   3  -1    7.11    8.90
   6  -3  -1   -0.41    6.22
   6   3  -1   -0.36    5.61
   6   3  -1    3.50    1.91
  -6   3   1    3.92    3.35
  -6   3   1    2.42    3.65
  -6  -3   1    2.99    3.05
   6  -3  -1    2.70    2.13
   6   3  -1    1.59    2.48
  -6   3   1    1.82    3.32
   6   3  -1    0.76    1.94
  -6   3   1    2.48    2.02
   6  -3  -1    1.96    2.14
   6   3  -1    1.06    2.19
  -6   3   1    0.19    2.93
   6  -3  -1    2.38    2.32
   6  -3  -1    1.63    1.67
   6   3  -1    7.36    3.71
   6  -3  -1    2.85    3.13
  -6   3   0  756.49   33.10
  -6  -3   0  971.11   33.25
   6   3   0  911.55   31.24
   6  -3   0  874.86   31.06
  -6   3   0  900.66   33.52
   6  -3   0  844.81   30.90
   6   3   0  871.02   30.90
  -6   3   0  825.15   30.89
  -6   3   0  800.64   32.71
   6  -3   0  836.31   31.27
   6  -3   0  832.23   34.04
   6   3   0  847.75   36.35
   6  -3   0  847.86   31.70
   6   3   0  919.53   31.06
   6   3   0  883.49   36.57
   6   3   0  861.65   31.79
   6  -3   0  887.19   31.55
   6  -3   0  822.06   30.63
  -6  -3  -1   33.19    4.37
  -6   3  -1   26.30    4.71
   6   3   1   28.53    3.70
   6  -3   1   31.38    3.67
  -6  -3  -1   32.24    3.99
  -6   3  -1   34.99    3.12
   6  -3   1   31.99    3.18
   6   3   1   29.67    3.01
   6   3   1   27.07    3.13
   6  -3   1   31.40    3.73
   6   3   1   36.40   10.52
   6   3   1   42.21    7.59
   6  -3   1   32.37    3.86
   6  -3   1   32.24    2.86
   6   3   1   26.70    4.60
  -6   3  -2  106.33    8.28
  -6  -3  -2  134.22    7.94
  -6  -3  -2  110.36    7.71
   6   3   2  131.01    7.00
   6  -3   2  125.52    6.80
  -6   3  -2  115.77    6.09
   6  -3   2  132.81    6.25
   6   3   2  114.35    6.01
   6   3   2  116.95    6.32
   6   3   2  127.45   11.15
   6  -3   2  121.86    6.95
   6   3   2  123.78    6.24
   6   3   2  113.82   13.90
   6  -3   2  117.40    5.88
  -6   3  -3  252.12   14.12
  -6  -3  -3  293.92   13.55
   6  -3   3  277.74   12.34
   6   3   3  314.92   12.59
  -6   3  -3  280.99   11.62
   6  -3   3  307.56   11.72
   6   3   3  276.23   11.51
   6   3   3  272.26   11.89
  -6  -3  -3  285.14   14.22
   6   3   3  287.57   17.32
   6  -3   3  264.28   12.23
   6   3   3  300.98   11.85
   6   3   3  249.24   18.99
   6  -3   3  269.71   11.40
  -6   3  -4  127.23    6.24
   6  -3   4  137.51    6.31
   6   3   4  120.79    6.17
   6   3   4  114.55    6.43
  -6  -3  -4   91.60    8.32
   6   3   4  142.75   11.94
   6  -3   4  108.60    6.62
   6   3   4  127.31    6.48
   6   3   4  118.79   14.43
   6  -3   4  120.93    6.03
   6   3   5   69.56    5.39
   6   3   5   38.83   12.45
   6  -3   5   45.52    4.34
   6   3   5   60.08    4.38
   6  -3   5   60.63    3.94
  -6   3  -5   60.43    4.07
   6  -3   5   64.67    4.04
   6  -3   6   24.31    3.90
   6   3   6   28.04    4.00
   6   3   6   29.72    3.36
   6  -3   6   31.53    2.76
  -6   3  -6   30.10    2.88
   6  -3   6   31.32    2.75
   6  -3   7    5.68    2.81
   6   3   7   -0.48    8.95
   6   3   7    2.23    2.37
  -6   3  -7    1.34    1.76
   6  -3   7    1.26    1.58
   6  -3   7    2.85    1.68
   6  -4 -13  244.11    9.21
  -6   4  13  238.53    9.29
   6  -4 -12 1048.52   33.73
   6  -4 -12  871.40   32.57
   6  -4 -11   20.17    3.71
  -6   4  11   27.23    3.74
  -6   4  11   23.37    2.87
   6  -4 -11   20.63    2.45
   6  -4 -10  257.42   11.78
   6  -4 -10  243.01    9.74
   6  -4 -10  236.22   10.24
   6  -4 -10  238.25   23.26
  -6   4  10  254.84   11.19
  -6   4  10  283.20   10.68
  -6   4   9  136.27    8.74
  -6   4   9  137.72    7.25
  -6   4   9  136.72    6.60
   6  -4  -9  112.25   21.80
   6   4  -9  137.83    9.01
   6  -4  -9  133.07    8.22
   6  -4  -9  122.82    5.81
  -6   4   9  140.85    9.03
   6  -4  -9  123.94    6.30
  -6  -4   9  136.96    8.00
  -6   4   8    2.60    3.15
  -6   4   8    3.50    2.47
  -6  -4   8    4.84    2.97
   6  -4  -8    1.25    1.73
   6  -4  -8    2.44    2.17
   6   4  -8   -0.28    8.31
   6   4  -8    4.57    3.26
   6   4  -7    2.65    3.45
  -6   4   7    0.66    3.42
  -6   4   7    1.34    2.40
  -6   4   7    0.51    2.82
  -6  -4   7    1.56    2.76
   6  -4  -7   -0.55    2.17
   6  -4  -7   -1.01    1.82
   6   4  -7   -0.28    8.54
   6   4  -7    5.83   16.02
   6  -4  -7    0.91    4.27
   6   4  -6   77.85    6.63
  -6   4   6   62.46    5.73
  -6  -4   6   79.31    6.48
  -6   4   6   67.26    4.33
  -6   4   6   74.94    6.30
   6  -4  -6   69.49    3.93
   6  -4  -6   70.44    4.33
  -6  -4   6   67.29    5.05
   6   4  -6   81.97   16.82
   6   4  -6   55.72   13.04
   6  -4  -6   57.87    5.06
   6  -4  -5   55.55    4.94
  -6   4   5   42.95    3.42
  -6   4   5   38.82    3.36
  -6   4   5   43.25    4.83
  -6  -4   5   44.68    5.47
  -6   4   5   38.57    4.86
   6  -4  -5   40.18    3.07
   6  -4  -5   38.65    3.40
   6   4  -5   57.21   15.34
   6   4  -5   45.00   10.31
   6  -4  -5   43.14    3.71
   6   4  -5   37.71    3.94
   6  -4  -5   39.13    3.75
   6   4  -4   61.38    5.95
   6  -4  -4   55.39    4.96
  -6   4   4   48.25    3.62
  -6   4   4   54.06    5.19
  -6  -4   4   54.60    5.66
  -6   4   4   53.21    3.70
   6   4  -4   46.27    3.24
  -6   4   4   50.04    5.19
   6  -4  -4   52.99    3.53
   6   4  -4   55.82   14.63
   6   4  -4   78.41    9.89
   6   4  -4   64.02    9.41
   6  -4  -4   58.76    3.64
   6   4  -4   48.22    4.14
   6  -4  -4   51.04    4.03
   6  -4  -3  367.12   13.52
   6   4  -3  297.59   13.86
   6  -4  -3  342.02   13.90
  -6   4   3  342.26   15.74
   6   4  -3  342.70   13.76
  -6   4   3  366.27   13.82
   6   4  -3  364.30   13.54
   6  -4  -3  346.50   14.01
  -6   4   3  356.05   15.78
   6  -4  -3  359.88   13.73
   6   4  -3  351.71   22.97
   6   4  -3  348.18   13.31
   6   4  -3  394.93   20.03
   6   4  -3  340.81   18.45
   6  -4  -3  383.50   15.90
   6  -4  -2 2338.87   79.51
   6   4  -2 2148.08   79.98
   6  -4  -2 2115.56   79.85
  -6   4   2 2104.03   81.76
   6  -4  -2 2207.29   79.56
   6   4  -2 2243.99   79.78
   6   4  -2 2394.57   79.73
  -6   4   2 2308.91   79.86
   6  -4  -2 2304.40   80.13
  -6   4   2 2391.71   82.10
   6  -4  -2 2241.18   79.83
   6   4  -2 2369.06   79.53
   6   4  -2 2596.85   86.90
   6   4  -2 2128.06   83.68
  -6   4   2 2271.64   81.94
  -6  -4   2 2635.52   81.93
  -6  -4   1  205.98    9.52
  -6   4   1  122.36    9.85
  -6   4   1  171.41    9.79
   6  -4  -1  193.72    7.77
  -6   4   1  169.35    9.63
   6  -4  -1  166.96    7.71
   6   4  -1  185.58    7.95
   6   4  -1  182.26    7.83
  -6   4   1  178.53    7.95
   6  -4  -1  164.66    8.01
   6  -4  -1  179.35    8.32
  -6   4   1  179.61    9.74
   6  -4  -1  166.79    8.32
   6  -4  -1  181.55    7.63
   6   4  -1  240.45   11.50
   6   4  -1  170.36    8.68
   6   4  -1  177.30    7.68
   6   4  -1  188.94   13.79
   6   4  -1  164.28   13.71
   6  -4  -1  171.50   10.88
   6   4   0   82.18   11.56
   6  -4   0   96.94    5.77
   6   4   0   93.70    4.86
   6  -4   0   77.14    8.52
   6   4   0  101.93   10.78
  -6   4   0   74.11    6.57
  -6  -4   0   95.78    6.09
  -6   4   0   64.39    6.65
   6   4   0   93.50    5.51
   6  -4   0   96.85    5.13
  -6  -4   0   88.20    5.92
  -6   4   0   77.81    6.32
   6  -4   0   82.84    4.88
   6   4   0   92.83    5.00
  -6   4   0   87.21    5.03
  -6   4   0   80.30    6.42
   6  -4   0   87.41    5.36
   6   4   0  117.91    8.20
   6   4   0   80.11    5.98
   6  -4   0   86.54    5.75
   6  -4   0   90.58    4.78
  -6   4  -1    2.33    3.58
  -6   4  -1    0.20    3.06
  -6  -4  -1    0.96    2.81
   6  -4   1    0.19    2.69
   6   4   1    4.41    3.19
   6   4   1    3.02    2.18
  -6   4  -1    1.85    2.37
   6  -4   1    2.93    2.39
   6   4   1    1.75    2.26
   6   4   1    6.53   10.28
   6  -4   1    0.78    2.85
   6   4   1    3.94    7.19
   6   4   1    1.26    2.07
   6  -4   1    3.09    2.18
   6   4   1    8.69    4.24
  -6   4  -2  454.79   21.87
  -6  -4  -2  507.33   21.74
   6   4   2  589.98   20.43
   6  -4   2  545.99   20.06
  -6   4  -2  523.46   19.85
   6  -4   2  531.27   19.53
   6   4   2  500.32   19.42
   6   4   2  529.01   19.77
   6   4   2  505.53   25.91
   6  -4   2  511.86   20.36
   6   4   2  460.73   25.67
   6   4   2  524.29   20.61
   6  -4   2  497.19   19.49
  -6   4  -3  152.60   10.12
  -6   4  -3  140.14   10.93
   6  -4   3  191.09    8.70
  -6   4  -3  174.74    8.15
   6   4   3  171.67    8.14
   6  -4   3  185.16    7.89
   6   4   3  167.63    7.84
  -6  -4  -3  166.13   10.20
   6   4   3  153.17   13.44
   6  -4   3  162.74    8.46
   6   4   3  183.30    8.06
   6   4   3  168.13   16.32
   6  -4   3  171.75    7.89
   6   4   4   72.65   13.44
   6   4   4   71.73   10.34
   6   4   4   78.68    4.89
   6  -4   4   79.26    4.81
  -6   4  -4   85.86    5.05
   6  -4   4   81.65    4.63
   6   4   4   81.45    4.87
   6   4   4   69.61    5.01
   6   4   5  107.97    6.45
   6   4   5   96.42    5.51
   6   4   5  103.12   13.22
   6  -4   5   94.65    5.21
  -6   4  -5  100.13    5.46
   6  -4   5   97.54    4.97
   6   4   5   99.70    5.43
   6  -4   6    4.45    2.99
   6   4   6    1.64    2.39
   6  -4   6    1.09    1.90
   6   4   6    3.32    4.21
  -6   4  -6    0.56    2.14
   6   4   6    0.16    2.29
   6  -4   7    3.21    2.46
   6   4   7    3.30    2.27
  -6   4  -7    1.83    1.75
   6   4   7    3.12    2.21
   6  -4   7    3.00    1.60
   6  -5 -13   44.65    2.87
  -6   5  13   44.16    2.97
  -6   5  13   37.62    2.47
   6  -5 -12   61.52    4.14
  -6   5  12   57.17    3.46
  -6   5  12   55.50    4.04
   6  -5 -12   58.38    3.27
   6  -5 -11   47.46    4.45
  -6   5  11   49.71    4.21
  -6   5  11   54.00    3.64
   6  -5 -11   46.08    2.71
   6  -5 -11   46.66    3.25
   6  -5 -10    2.48    1.66
   6  -5 -10    3.14    2.08
   6  -5 -10   -0.59   13.78
   6  -5 -10    2.67    3.34
  -6   5  10   -0.18    2.48
   6  -5  -9  201.53    8.28
   6  -5  -9  195.69    8.68
  -6   5   9  204.89    8.89
   6  -5  -9  181.90   22.23
  -6  -5   9  206.80   11.04
   6  -5  -8  215.07    9.10
  -6   5   8  248.62   12.56
   6  -5  -8  214.67    9.46
  -6  -5   8  222.09   10.91
  -6   5   8  221.51   11.75
  -6  -5   8  239.88   11.91
   6  -5  -8  216.93   11.40
   6   5  -8  231.53   12.67
  -6   5   8  234.30    9.72
  -6   5   7    1.94    2.41
  -6   5   7    9.05    3.05
   6  -5  -7    7.98    2.42
   6  -5  -7    0.53    1.97
  -6   5   7   -1.12    3.25
   6  -5  -7   -1.06    2.93
   6   5  -7    0.29    3.70
   6  -5  -7    0.76    4.41
  -6   5   6  150.56    7.18
  -6   5   6  154.52    7.29
  -6   5   6  168.93    9.25
   6  -5  -6  148.76    6.82
   6  -5  -6  155.61    8.21
   6   5  -6  128.05   16.77
   6   5  -6  171.62   10.23
   6  -5  -6  148.54    8.71
   6   5  -5  514.87   20.97
   6  -5  -5  469.49   19.42
  -6   5   5  453.49   17.31
  -6   5   5  443.55   17.18
  -6   5   5  440.38   19.18
  -6  -5   5  484.20   20.21
   6   5  -5  448.04   16.75
  -6   5   5  480.32   19.90
   6  -5  -5  479.09   17.16
   6   5  -5  403.16   21.27
   6  -5  -5  453.36   17.57
   6  -5  -5  433.27   17.22
   6   5  -5  480.45   25.68
   6   5  -4   -0.26    3.27
   6  -5  -4   -0.59    2.52
  -6   5   4    0.34    2.30
  -6   5   4    5.53    3.06
  -6  -5   4   -0.96    3.67
   6   5  -4    0.42    1.55
  -6   5   4    1.79    2.14
  -6   5   4    1.48    3.15
   6  -5  -4    1.53    2.22
   6  -5  -4    0.16    2.07
   6   5  -4    2.21    8.29
   6   5  -4   -3.31    8.00
   6  -5  -4    2.68    2.08
   6   5  -4   -0.49    2.88
   6  -5  -4    0.33    2.57
   6   5  -4    2.02    8.77
  -6   5   3   32.59    4.23
  -6   5   3   24.14    3.01
   6   5  -3   32.54    2.73
   6  -5  -3   36.03    3.44
  -6   5   3   34.75    4.63
   6  -5  -3   30.12    3.01
   6   5  -3   30.80    8.91
   6   5  -3   31.01    2.50
   6   5  -3   23.49    8.33
   6  -5  -3   33.66    2.87
   6   5  -3   30.94    3.40
   6  -5  -3   28.85    3.42
   6  -5  -2  268.86   10.42
   6   5  -2  223.66   10.59
   6  -5  -2  249.03   10.74
  -6   5   2  251.35   12.20
   6   5  -2  269.21   10.73
  -6   5   2  248.20   10.78
   6   5  -2  261.03   10.42
   6  -5  -2  268.14   11.02
  -6   5   2  263.91   12.76
   6  -5  -2  261.82   10.71
   6   5  -2  264.66   10.26
   6   5  -2  294.87   17.69
   6   5  -2  253.73   15.63
  -6   5   2  230.36   12.12
  -6   5   1   67.85    5.83
  -6   5   1   52.27    6.75
   6  -5  -1   80.41    4.28
  -6   5   1   72.69    5.74
   6  -5  -1   72.23    4.27
  -6   5   1   70.25    4.66
   6   5  -1   78.43    4.59
   6   5  -1   80.56    4.40
   6  -5  -1   71.82    4.70
   6  -5  -1   70.08    4.89
  -6   5   1   78.73    6.37
   6  -5  -1   79.10    4.36
   6   5  -1   67.25    4.95
   6  -5  -1   70.57    4.98
   6   5  -1   67.09   10.22
   6   5  -1   73.45   10.67
   6   5  -1   79.94    4.26
   6   5   0  126.03    5.98
   6   5   0  128.73   12.59
   6   5   0  108.64   12.14
  -6   5   0  127.86    8.12
  -6   5   0   91.56    8.22
   6  -5   0  136.41    6.18
  -6  -5   0  123.20    7.38
  -6   5   0  119.71    7.48
   6  -5   0  119.29    5.93
   6   5   0  122.88    6.19
  -6   5   0  118.37    6.46
  -6   5   0  124.27    8.14
   6   5   0  168.12   10.61
   6  -5   0  133.23    6.88
   6  -5   0  137.99    6.23
   6   5   0  102.77    6.74
  -6   5  -1  132.07    8.59
  -6  -5  -1  146.16    8.45
   6  -5   1  153.65    6.96
  -6   5  -1  136.63    7.07
   6  -5   1  134.30    6.50
   6   5   1  146.46    6.77
   6   5   1  136.50    6.67
   6  -5   1  135.71   10.52
   6   5   1  146.19    6.70
   6   5   1  140.14   13.78
   6   5   1  139.67   13.37
   6   5   1  114.32    7.43
   6  -5   1  134.99    7.45
   6  -5   1  140.58    6.77
  -6   5  -2  161.07    9.73
   6  -5   2  178.86    8.01
  -6   5  -2  159.54    7.95
   6  -5   2  161.87    7.36
   6   5   2  163.59    7.60
   6   5   2  168.89    7.70
  -6  -5  -2  172.34    9.79
   6   5   2  146.47   14.26
   6   5   2  148.70   14.11
   6   5   2  146.10    8.47
   6  -5   2  169.84    7.75
   6  -5   3   39.03    3.97
  -6   5  -3   34.09    3.66
   6  -5   3   34.99    3.11
   6   5   3   36.31    3.40
   6   5   3   34.26    3.46
  -6  -5  -3   29.96    4.95
   6   5   3   37.67   11.15
   6   5   3   21.15    8.70
   6   5   3   32.92    3.41
   6  -5   3   33.82    3.51
   6   5   3   30.21    4.77
   6  -5   4   94.64    5.71
   6   5   4   87.52   12.33
   6   5   4   84.52    5.10
   6   5   4   75.42    6.05
   6  -5   4   86.33    5.01
  -6   5  -4   83.83    5.31
   6   5   4   88.92    5.09
   6   5   4   86.37    5.26
   6   5   5  395.11   15.41
   6   5   5  426.46   20.66
   6  -5   5  387.36   15.17
  -6   5  -5  390.20   15.42
   6   5   5  413.48   15.37
   6   5   5  381.17   15.51
   6  -5   6  203.20    8.76
   6   5   6  209.43    8.73
   6  -5   6  194.77    8.24
  -6   5  -6  184.70    8.39
   6   5   6  209.45    8.65
   6  -5   7   72.13    4.04
   6   5   7   73.52    4.04
  -6   5  -7   65.43    3.61
   6   5   7   69.29    4.08
   6  -5   7   67.49    4.01
   6  -5   7   71.86    3.48
  -6   6  12    0.95    2.23
  -6   6  12    3.63    1.74
   6  -6 -12    3.59    1.57
   6  -6 -12    2.33    2.14
   6   6 -12   -1.11    9.17
   6  -6 -11   49.62    4.18
  -6   6  11   50.10    3.35
  -6   6  11   45.27    3.79
   6  -6 -11   42.30    2.65
   6  -6 -11   41.78    3.08
   6  -6 -10    3.73    2.14
   6  -6 -10    1.79    1.61
  -6   6  10    1.31    2.78
  -6   6  10    3.67    2.40
   6  -6 -10    3.03    3.33
   6  -6  -9    1.67    2.15
   6  -6  -9    0.35    1.82
   6  -6  -9    2.52   13.71
  -6   6   9    1.82    3.06
  -6   6   9    1.19    2.44
   6  -6  -8  786.48   28.37
  -6   6   8  820.72   29.16
  -6   6   8  788.68   28.79
  -6   6   8  799.31   31.05
  -6  -6   8  824.42   31.33
   6   6  -7 3275.45  105.31
   6  -6  -7 2979.68  103.09
  -6   6   7 2914.67  103.07
  -6  -6   7 3170.78  103.41
  -6   6   7 2927.77  100.78
  -6   6   7 3006.15  100.92
   6  -6  -7 2901.35  100.38
  -6   6   7 3096.54  103.74
   6   6  -7 2714.27  104.11
   6  -6  -7 2475.79  101.94
   6   6  -7 2460.08  110.40
   6   6  -6  367.27   17.42
   6  -6  -6  358.33   15.98
  -6   6   6  355.06   14.00
  -6   6   6  361.05   14.07
  -6   6   6  355.39   15.98
   6  -6  -6  354.36   13.67
   6  -6  -6  346.56   13.93
   6   6  -6  335.35   18.21
   6  -6  -6  350.89   15.00
   6   6  -6  363.39   24.42
  -6   6   5    4.23    2.39
  -6   6   5    0.91    2.44
  -6   6   5   -0.19    2.88
   6   6  -5    2.54    1.50
   6  -6  -5    1.14    1.93
   6  -6  -5    2.00    2.29
   6   6  -5    5.31    3.61
   6  -6  -5    0.40    2.57
   6   6  -5    0.52   10.86
   6  -6  -5    1.83    2.67
  -6   6   4  319.03   12.72
  -6   6   4  323.44   14.33
  -6   6   4  315.35   12.88
   6   6  -4  319.50   12.19
  -6   6   4  300.78   14.87
   6  -6  -4  309.90   12.51
   6  -6  -4  321.90   12.82
   6  -6  -4  342.27   12.81
   6  -6  -4  296.17   12.37
   6  -6  -4  332.98   14.61
   6  -6  -3    4.35    2.10
   6  -6  -3    3.99    2.50
   6   6  -3   -0.39    8.27
  -6   6   3    1.57    2.74
  -6   6   3    1.10    2.29
   6   6  -3    2.41    1.68
   6  -6  -3    1.05    2.12
  -6   6   3   -0.87    3.42
   6  -6  -3    5.01    2.44
   6   6  -3    0.54    8.06
   6   6  -3    3.10    1.57
   6   6  -3   -0.51    8.78
  -6   6   3    1.37    2.71
  -6   6   2   51.18    4.78
   6  -6  -2   52.53    3.19
  -6   6   2   53.19    4.61
   6  -6  -2   54.79    4.18
  -6   6   2   54.08    5.64
   6  -6  -2   53.36    3.66
   6  -6  -2   55.34    4.05
   6   6  -2   67.98    9.65
   6   6  -2   58.15    9.66
   6   6  -2   56.36    3.40
   6   6  -2   53.46   10.38
  -6   6   2   55.38    4.06
   6   6  -2   49.85    3.48
  -6   6   1  299.39   13.89
   6  -6  -1  320.25   11.90
  -6   6   1  309.35   12.59
   6   6  -1  301.57   12.09
  -6   6   1  294.84   14.53
   6  -6  -1  324.83   12.25
   6  -6  -1  285.08   12.23
   6   6  -1  297.93   11.94
   6   6  -1  328.86   19.69
   6   6  -1  294.03   17.08
   6   6   0    3.75    8.43
   6   6   0    4.19    2.05
  -6   6   0   10.26    3.30
  -6   6   0    4.24    4.20
   6  -6   0    6.77    2.35
  -6  -6   0    5.53    2.98
  -6   6   0    3.13    2.63
   6   6   0    5.20    2.60
  -6   6   0    5.41    3.67
   6  -6   0    8.10    2.82
   6  -6   0    5.35    2.36
   6  -6   0    3.64    3.07
   6   6   0   10.03    6.76
   6   6   1   -0.88    8.99
   6   6   1   10.04    2.35
   6  -6   1   13.71    2.79
  -6  -6  -1   10.62    3.51
  -6   6  -1   10.39    3.63
   6   6   1   10.18    2.52
  -6   6  -1   14.07    3.12
   6   6   1   15.13    2.83
   6  -6   1   10.42    3.03
   6  -6   1    9.69    2.66
   6  -6   1    7.96    3.42
   6  -6   2  243.72    9.83
   6   6   2  214.69    9.56
   6   6   2  225.60    9.69
  -6   6  -2  218.17   10.10
  -6  -6  -2  209.13   12.00
   6   6   2  217.44   15.12
   6  -6   2  219.78   10.12
   6  -6   2  232.71    9.81
   6  -6   3 1498.94   50.72
   6   6   3 1400.68   50.46
   6   6   3 1466.65   54.70
   6  -6   3 1412.20   50.78
   6  -6   3 1445.58   50.67
  -6   6  -3 1403.53   50.95
   6   6   3 1446.52   50.51
   6   6   3 1401.98   50.62
   6  -6   4  706.35   24.98
   6   6   4  671.39   24.78
   6   6   4  695.66   28.58
   6  -6   4  678.75   24.99
   6  -6   4  674.26   24.82
  -6   6  -4  648.48   25.06
   6   6   4  674.27   24.75
   6   6   4  652.47   24.95
   6   6   5  362.53   13.98
   6  -6   5  354.73   13.95
   6  -6   5  373.53   13.79
  -6   6  -5  343.37   13.97
   6   6   5  348.55   13.83
   6   6   5  340.63   14.07
   6  -6   6    2.25    2.23
  -6   6  -6    2.66    2.01
   6   6   6    3.31    2.39
   6  -6   6   -1.27    5.37
   6   6   6    1.66    2.24
   6  -6   6    2.86    1.81
   6  -6   6   -0.42    2.54
   6  -7 -12   54.34    3.44
  -6   7  12   58.68    3.01
  -6   7  12   58.67    3.41
   6   7 -12   53.04    8.71
   6  -7 -12   56.07    2.95
   6  -7 -11  481.37   17.47
  -6   7  11  469.03   16.70
  -6   7  11  472.77   17.09
   6  -7 -11  430.06   16.25
   6  -7 -11  450.60   16.64
   6  -7 -10  231.63   10.92
   6  -7 -10  239.77    9.50
  -6   7  10  248.74   10.30
  -6   7  10  255.85    9.95
   6  -7  -9   63.94    3.74
   6   7  -9   54.02   14.90
  -6   7   9   57.36    4.53
  -6   7   9   66.98    4.21
   6  -7  -8   55.16    3.54
   6  -7  -8   51.22    3.82
  -6   7   8   50.90    4.36
  -6   7   8   54.26    3.98
   6  -7  -7  224.60    9.43
   6  -7  -7  221.00    9.68
  -6   7   7  220.39    9.72
  -6   7   7  246.95   10.11
   6  -7  -7  214.55   11.71
   6   7  -7  241.07   21.40
  -6   7   7  232.21   11.50
  -6  -7   7  248.93   11.75
   6   7  -6   21.83    4.51
   6  -7  -6   18.18    3.38
  -6   7   6   17.58    3.04
  -6   7   6   19.42    3.11
  -6   7   6   15.55    3.65
  -6  -7   6   21.00    3.48
   6  -7  -6   21.04    2.59
   6  -7  -6   19.24    2.82
  -6   7   6   17.13    3.96
   6   7  -6   19.67    8.03
   6   7  -6   14.30   12.66
   6  -7  -6   14.85    3.80
   6  -7  -5   17.70    3.35
  -6   7   5   19.58    3.02
  -6   7   5   18.34    2.94
  -6   7   5   22.18    3.67
  -6  -7   5   23.37    3.39
   6   7  -5   14.50    1.90
   6  -7  -5   18.71    2.55
   6  -7  -5   20.81    2.85
   6   7  -5   20.25    7.95
   6  -7  -5   22.63    3.38
   6   7  -5   21.77   12.10
  -6   7   4  180.05    8.10
  -6   7   4  170.76    7.85
  -6   7   4  174.93    9.24
   6  -7  -4  181.68    8.12
   6  -7  -4  186.95    8.24
   6  -7  -4  181.51    9.48
  -6   7   4  168.35    8.20
   6   7  -4  173.91    7.45
   6  -7  -3  360.55   14.22
  -6   7   3  351.48   16.47
   6  -7  -3  375.27   14.15
   6   7  -3  350.71   13.43
  -6   7   3  344.89   14.30
   6   7  -3  351.43   13.72
  -6   7   2    6.43    4.64
  -6   7   2    4.98    2.51
   6   7  -2    5.15    1.93
   6  -7  -2    6.83    1.71
  -6   7   2    3.19    3.28
   6  -7  -2    4.52    2.46
   6   7  -2    6.43    7.77
   6   7  -2    6.08    1.85
   6  -7  -2    5.96    2.14
   6   7  -2    2.76    8.04
  -6   7   1   81.90    8.12
   6  -7  -1   99.79    4.93
  -6   7   1   99.18    5.76
   6   7  -1   99.11    5.20
   6  -7  -1  103.48    5.60
  -6   7   1   99.42    7.47
   6  -7  -1  107.25    5.40
   6   7  -1  123.28   11.54
   6   7  -1   99.27   12.18
   6   7  -1   95.29    5.03
   6   7  -1  107.43   10.06
   6   7   0  426.37   16.69
   6   7   0  418.94   24.82
   6   7   0  440.02   20.81
   6  -7   0  451.07   16.61
  -6  -7   0  426.27   18.99
  -6   7   0  464.19   17.51
   6  -7   0  445.20   17.26
   6  -7   0  464.20   17.08
   6  -7   1  218.51    9.34
  -6  -7  -1  207.80   11.75
   6  -7   1  226.99    9.98
   6   7   1  220.10    9.42
   6   7   1  208.28   17.19
   6   7   1  229.41   13.54
   6   7   1  212.80    9.51
  -6   7  -1  236.89   10.21
   6  -7   1  239.22    9.75
   6   7   2   32.52    3.33
   6   7   2   30.39    3.21
  -6   7  -2   33.56    3.84
   6   7   2   31.13    7.80
   6   7   2   27.50    3.07
   6  -7   2   29.92    3.27
   6  -7   2   32.55    3.27
   6   7   3  355.61   14.90
   6   7   3  395.41   15.25
  -6   7  -3  392.37   15.61
   6  -7   3  400.99   15.22
   6  -7   3  396.98   15.03
   6   7   4   66.38    4.46
   6   7   4   75.57    4.70
  -6   7  -4   76.63    4.85
   6   7   4   71.59    4.51
   6  -7   4   69.55    4.38
   6  -7   4   76.87    4.60
   6   7   5   32.26    3.08
   6   7   5   24.48    2.95
   6   7   5   22.56    3.02
  -6   7  -5   28.16    2.99
   6  -7   5   26.21    2.69
  -6   7  -6  130.34    5.84
   6  -7   6  130.93    5.84
   6   7   6  137.97    6.20
   6  -7   6  132.07    5.60
   6  -8 -11   64.32    3.18
  -6   8  11   73.19    3.58
  -6   8  11   70.80    3.93
   6  -8 -11   68.62    4.13
   6   8 -11   65.31    9.68
   6  -8 -10   55.49    3.14
   6  -8 -10   54.08    3.44
  -6   8  10   54.47    3.50
  -6   8  10   59.13    3.99
   6  -8 -10   58.37    4.33
   6   8 -10   58.10   11.60
   6  -8  -9  385.80   14.37
   6  -8  -9  377.86   14.62
   6   8  -9  376.59   23.66
  -6   8   9  399.73   15.03
  -6   8   9  372.79   14.55
   6  -8  -8   92.33    4.75
   6  -8  -8   93.64    5.05
  -6   8   8   91.84    5.46
  -6   8   8   92.94    5.05
   6  -8  -7   36.51    3.05
   6  -8  -7   36.86    3.31
   6   8  -7   43.29   13.68
   6  -8  -7   27.56    5.21
  -6   8   7   35.90    3.40
  -6   8   7   36.52    3.73
   6  -8  -6  163.37    7.17
   6  -8  -6  157.82    7.36
  -6   8   6  153.37    7.41
  -6   8   6  165.73    7.70
   6  -8  -6  156.50    8.81
   6   8  -5    2.52    1.46
  -6   8   5    3.92    2.71
  -6   8   5    3.40    2.54
   6  -8  -5    2.08    2.18
   6   8  -5    5.98    7.04
   6  -8  -5    2.88    2.91
   6   8  -4   91.30    4.57
  -6   8   4   87.77    5.23
  -6   8   4   93.74    5.23
   6  -8  -4   93.26    5.13
   6   8  -4   93.53    8.89
   6  -8  -4   89.95    5.45
   6  -8  -3  325.70   13.04
   6  -8  -3  327.92   12.96
   6  -8  -3  347.01   13.24
  -6   8   3  323.23   13.32
   6   8  -3  308.47   12.59
  -6   8   2  833.30   29.70
   6   8  -2  781.31   29.02
   6  -8  -2  771.43   28.47
   6  -8  -2  825.91   29.34
   6  -8  -2  824.46   29.32
   6   8  -2  706.69   36.83
   6   8  -2  788.62   28.78
   6   8  -2  826.61   31.97
   6  -8  -2  852.31   29.39
  -6   8   1  918.33   32.61
   6   8  -1  858.43   32.01
   6  -8  -1  874.58   31.53
   6  -8  -1  905.41   32.26
   6   8  -1  786.85   39.83
   6   8  -1  868.94   31.77
   6  -8  -1  934.92   32.21
  -6   8   0   62.24    4.61
   6  -8   0   58.46    3.70
   6  -8   0   64.28    4.34
   6   8   0   56.79    3.76
   6   8   0   61.36    7.44
   6   8   0   48.28   10.78
   6  -8   0   63.04    4.16
   6   8   0   70.85   10.40
  -6   8  -1  385.85   15.10
   6   8   1  365.12   14.60
   6  -8   1  362.06   14.14
   6  -8   1  379.98   14.75
   6   8   1  359.77   14.37
   6  -8   1  384.00   14.65
   6   8   2   16.26    2.91
  -6   8  -2   18.21    3.17
   6   8   2   15.90    2.68
   6  -8   2   14.47    2.78
   6  -8   2   16.80    2.61
   6   8   3  171.03    8.09
  -6   8  -3  186.03    8.38
   6  -8   3  184.97    7.94
   6  -8   3  173.05    7.73
   6   8   4  113.47    5.94
  -6   8  -4  113.02    5.88
   6   8   4  121.41    5.87
   6  -8   4  121.66    5.61
   6  -8   4  113.65    5.59
   6  -8   5   65.60    3.42
   6   8   5   61.99    3.87
  -6   8  -5   61.79    3.64
   6  -9 -10   28.90    2.09
   6  -9 -10   27.20    2.29
   6   9 -10   25.28    8.19
  -6   9  10   30.45    2.37
  -6   9  10   27.15    2.78
   6  -9  -9   43.88    2.81
   6  -9  -9   41.27    3.03
  -6   9   9   44.76    3.53
  -6   9   9   37.22    2.96
   6  -9  -8  154.49    6.70
   6  -9  -8  148.51    6.87
  -6   9   8  161.45    7.34
  -6   9   8  154.35    6.86
   6  -9  -7   40.12    3.26
  -6   9   7   41.74    3.35
  -6   9   7   42.61    3.78
   6  -9  -6 1029.71   36.69
  -6   9   6 1097.29   37.00
   6  -9  -5  261.27   10.56
   6  -9  -5  255.12   10.62
  -6   9   5  256.31   10.73
  -6   9   5  269.20   10.88
   6   9  -5  260.11   10.03
   6   9  -4   66.90    3.74
  -6   9   4   65.97    4.42
  -6   9   4   66.17    4.37
   6  -9  -4   67.02    4.17
   6  -9  -4   66.35    4.07
   6   9  -4   74.43    7.34
   6   9  -3    7.27    1.91
  -6   9   3    5.42    2.46
  -6   9   3    6.20    2.60
   6  -9  -3    5.40    2.18
   6  -9  -3    6.91    2.27
   6   9  -3    2.51    5.53
   6   9  -3   14.97    9.78
   6  -9  -2  544.01   19.66
   6   9  -2  503.57   19.10
   6   9  -2  529.32   21.24
  -6   9   2  516.66   19.95
   6   9  -2  523.90   19.46
  -6   9   1   68.18    4.69
   6   9  -1   68.60    4.21
   6  -9  -1   68.62    3.72
   6  -9  -1   74.78    4.44
   6   9  -1   68.80    3.94
  -6   9   0   52.95    4.19
   6  -9   0   49.51    3.24
   6  -9   0   55.14    3.75
   6   9   0   45.75    3.40
   6   9   0   51.26    9.75
   6  -9   1  124.79    6.10
   6  -9   1  124.82    5.66
  -6   9  -1  118.15    6.39
   6   9   1  120.39    6.10
   6   9   1  118.08    5.85
   6  -9   2  270.76   10.81
  -6   9  -2  300.52   11.64
   6   9   2  278.56   11.42
   6   9   2  271.19   11.16
   6   9   3   11.02    2.55
  -6   9  -3   15.77    2.69
   6  -9   3    9.84    2.19
   6  -9   4    1.90    1.79
   6   9   4    3.74    2.13
   6   9   4    2.91    2.28
  -6   9  -4    2.26    1.90
   6 -10  -9  140.18    5.74
   6 -10  -9  135.98    5.84
  -6  10   9  142.14    5.84
  -6  10   9  147.21    6.21
   6 -10  -9  125.93    6.31
   6 -10  -8  113.49    5.20
  -6  10   8  114.73    5.58
  -6  10   8  106.93    5.14
   6 -10  -7    3.92    1.88
   6  10  -7   -2.99    8.93
  -6  10   7    4.17    2.03
  -6  10   7    4.11    2.41
   6 -10  -6  121.55    5.69
   6 -10  -6  127.82    5.72
  -6  10   6  120.08    5.77
  -6  10   6  130.68    6.17
   6 -10  -5   72.03    4.05
   6 -10  -5   72.32    4.05
  -6  10   5   72.77    4.27
  -6  10   5   70.92    4.43
   6 -10  -5   68.28    5.41
   6 -10  -4  655.28   23.48
   6 -10  -4  671.58   23.59
   6  10  -4  648.65   23.31
   6 -10  -4  620.44   24.31
  -6  10   4  633.48   23.67
  -6  10   4  631.77   23.63
   6  10  -3    1.05    1.67
  -6  10   3    1.31    2.33
   6 -10  -3    0.37    1.87
   6 -10  -3    1.78    2.41
   6  10  -3   -2.01    9.11
   6 -10  -2  101.84    5.11
  -6  10   2   97.17    5.38
   6 -10  -2  108.88    5.60
  -6  10   2   91.88    5.42
   6  10  -2  101.70    5.08
  -6  10   1  148.32    7.06
   6  10  -1  151.84    6.77
   6 -10  -1  149.84    6.81
   6 -10  -1  146.28    6.66
   6  10  -1  138.36    6.35
  -6  10   0   53.27    3.94
   6  10   0   56.16    3.79
   6 -10   0   53.91    3.16
   6 -10   0   56.24    3.59
   6  10   0   54.23    3.47
   6 -10   0   59.13    3.73
  -6  10  -1  248.96   10.13
   6  10   1  238.15    9.76
   6 -10   1  253.78    9.85
   6 -10   1  233.43    9.34
  -6  10  -2    4.07    2.10
   6  10   2    6.11    2.19
   6  10   2    4.55    2.12
   6 -10   2    3.61    1.90
   6 -10   2    2.62    1.73
  -6  10  -3  155.65    6.41
   6  10   3  140.26    6.64
   6 -10   3  134.12    5.95
   6  10   3  139.37    6.43
   6 -10   3  158.50    6.20
  -6  11   7  139.39    6.14
   6 -11  -7  133.32    5.64
   6 -11  -7  137.27    5.76
  -6  11   6   79.11    4.38
   6 -11  -6   77.17    3.83
   6 -11  -6   81.85    3.97
  -6  11   5    3.77    2.20
   6 -11  -5   -1.25    3.14
   6  11  -5    7.18    7.75
   6 -11  -5    2.22    1.50
   6 -11  -5    1.08    1.65
  -6  11   4    9.91    2.33
   6 -11  -4    9.13    1.83
   6 -11  -4   10.56    2.90
   6  11  -4   13.45    8.32
   6 -11  -3  408.43   15.27
   6  11  -3  412.39   15.24
   6 -11  -3  392.95   15.88
   6 -11  -2   12.51    2.53
   6  11  -2   16.13    7.89
   6 -11  -2   15.41    2.07
   6  11  -2   17.58    2.16
   6 -11  -1  541.41   20.04
   6  11  -1  558.66   20.36
   6 -11  -1  540.83   20.36
   6  11   0    6.62    1.85
   6  11   0    8.84    2.19
   6 -11   0    8.56    2.03
   6 -11   1  552.74   20.45
   6  11   1  569.71   20.93
  -6  12   5   13.99    1.89
   6 -12  -5   17.47    1.65
   6 -12  -4  328.49   15.44
   6 -12  -4  419.77   14.62
   6 -12  -3   34.72    2.30
   6 -12  -3   35.10    3.32
   6 -12  -2  394.44   14.70
   6 -12  -2  404.93   15.40
   6  12  -2  399.80   14.96
   6 -12  -1   51.83    3.44
   6  12  -1   56.30    3.26
  -7   0  13   85.28    4.70
  -7   0  12    2.77    2.91
  -7   0  11  294.49   12.41
   7   0 -10   -0.87   18.68
  -7   0  10    2.77    3.22
  -7   0   9  375.13   14.68
  -7   0   9  359.74   16.74
  -7   0   9  364.46   16.65
   7   0  -9  338.71   16.20
  -7   0   8   -0.31    2.84
  -7   0   8    0.70    3.45
   7   0  -8    0.97    1.87
  -7   0   8   -0.95    3.45
   7   0  -8   -0.43    6.62
   7   0  -8   -5.97   20.57
   7   0  -8   -1.09    2.64
   7   0  -8    0.20    2.49
  -7   0   7 1016.36   35.89
  -7   0   7  994.28   36.22
   7   0  -7  932.02   35.50
   7   0  -7  987.72   35.35
  -7   0   6    7.41    3.34
   7   0  -6   -0.19    2.34
  -7   0   6    0.49    3.62
   7   0  -6   -1.86    7.13
   7   0  -6    0.40    2.72
   7   0  -6    0.84    2.52
   7   0  -5  161.71    7.54
  -7   0   5  188.34    9.63
   7   0  -5  165.13    7.88
  -7   0   5  166.51   10.31
   7   0  -4    4.21    7.45
   7   0  -4    5.41    2.38
  -7   0   4   -0.19    2.87
  -7   0   4    1.99    3.52
   7   0  -3  272.65   11.83
   7   0  -3  305.81   14.90
   7   0  -3  285.73   15.94
  -7   0   3  283.14   14.18
  -7   0   2    1.25    3.92
   7   0  -2    4.84    7.64
   7   0  -2    0.71    2.73
   7   0  -2    3.70    4.52
   7   0  -1   22.68    2.96
   7   0  -1   25.89    5.48
   7   0  -1   15.29    8.39
   7   0  -1   25.17    3.57
  -7   0   1   16.40    4.54
   7   0   0   -0.30    2.68
   7   0   0   -3.75    4.79
   7   0   0    9.77    9.04
  -7   0   0    4.23    3.83
   7   0   0    0.20    2.52
   7   0   1  280.46   12.11
   7   0   1  313.98   12.85
   7   0   1  273.47   17.39
  -7   0  -1  295.07   14.91
   7   0   1  291.66   11.88
   7   0   2   -2.06    3.43
   7   0   2   -4.75    9.43
   7   0   2    3.19    3.35
  -7   0  -2    2.49    3.94
   7   0   2    1.28    2.52
   7   0   3  334.99   14.49
   7   0   3  317.88   19.33
   7   0   3  333.03   14.36
   7   0   3  368.56   13.86
   7   0   4   -0.30    9.58
   7   0   4    0.24    2.83
   7   0   4   -2.51    3.51
   7   0   4    0.09    2.42
   7   0   5   59.15    4.50
   7   0   5   68.24    4.12
   7   0   6    0.85    2.80
   7   0   6   -1.89    2.05
   7   0   6    0.67    1.88
   7   0   6    0.09    3.26
  -7  -1  13   10.15    2.48
  -7   1  13   10.56    2.47
  -7  -1  12  346.21   14.14
  -7   1  12  373.45   14.25
  -7  -1  11    4.03    3.28
  -7   1  11    0.11    3.20
   7  -1 -10   54.89    3.24
   7   1 -10   52.05   19.42
   7  -1 -10   55.29   21.15
  -7   1  10   64.67    4.96
  -7   1   9  110.45    7.82
  -7  -1   9  117.12    7.88
  -7   1   9  123.78    6.61
  -7  -1   9  122.90    8.03
  -7   1   9  114.73    8.22
   7  -1  -9  103.46    5.39
   7   1  -9   92.33   23.37
   7  -1  -9  104.33   23.56
   7   1  -9  110.92    7.66
  -7   1   8   18.20    4.18
  -7  -1   8   18.56    4.03
  -7   1   8   19.85    3.44
  -7  -1   8   12.33    3.71
  -7   1   8   20.23    4.45
   7  -1  -8   19.48    2.65
   7   1  -8   18.24    3.63
   7  -1  -8   20.42    3.73
   7  -1  -8   21.89    3.57
   7  -1  -8   22.63    6.10
   7   1  -8   24.47    7.81
   7  -1  -8   34.90   21.37
  -7  -1   7  348.29   15.22
  -7   1   7  349.85   15.63
   7  -1  -7  316.42   13.03
  -7   1   7  340.06   15.62
  -7  -1   7  338.19   15.71
   7   1  -7  313.75   15.19
   7  -1  -7  340.09   15.06
   7  -1  -7  339.03   15.07
   7   1  -7  298.68   14.42
   7   1  -6    1.42    3.63
   7  -1  -6   -3.02    3.60
  -7  -1   6    1.79    3.21
  -7   1   6    1.71    3.37
   7  -1  -6    2.97    2.45
  -7   1   6   -4.29    3.86
  -7  -1   6   -2.28    4.08
   7  -1  -6    3.11    2.80
   7   1  -6    2.84    2.45
   7   1  -6   -0.22    2.65
   7   1  -6    4.73   19.41
   7   1  -5  190.52    8.94
   7  -1  -5  194.01    8.89
  -7   1   5  163.00   10.28
  -7  -1   5  159.53   10.39
   7  -1  -5  168.19    8.28
  -7  -1   5  199.02    9.85
  -7   1   5  195.56   10.17
   7  -1  -5  178.15    9.90
   7   1  -5  197.43   13.06
   7  -1  -5  197.93   11.79
   7   1  -4  570.65   20.82
   7  -1  -4  565.35   20.68
  -7  -1   4  516.06   22.83
   7   1  -4  544.24   20.22
   7  -1  -4  512.60   20.35
  -7   1   4  585.48   22.30
   7  -1  -4  543.45   22.34
   7  -1  -4  500.72   20.21
   7   1  -4  484.01   19.98
   7   1  -4  618.23   24.92
   7  -1  -4  605.52   23.81
  -7  -1   3  119.85    8.42
   7  -1  -3  117.26    6.03
   7   1  -3  113.63    6.03
  -7   1   3  124.14    7.41
   7  -1  -3  112.37    5.82
   7   1  -3  128.14    7.07
   7  -1  -3  129.69    6.91
   7  -1  -3  108.24    6.34
   7   1  -3  118.28    6.21
   7  -1  -3  134.09   10.42
   7   1  -3  116.86    9.48
   7   1  -3  129.98   11.34
   7   1  -2   -0.12    3.57
   7  -1  -2   -0.35    3.66
  -7   1   2   -0.75    3.58
  -7   1   2   -1.96    3.88
  -7  -1   2    1.76    3.69
   7   1  -2   -1.72    8.49
   7  -1  -2    3.75    7.31
   7  -1  -2    2.87    2.79
   7   1  -2    1.52    2.47
   7   1  -2    1.52    4.98
   7  -1  -2    0.38    2.35
   7  -1  -2    2.67    2.38
   7   1  -2    0.10    2.45
  -7   1   1   27.87    5.09
  -7  -1   1   28.90    5.05
   7  -1  -1   28.87    3.11
   7   1  -1   31.52    3.31
   7   1  -1   34.44    6.42
   7   1  -1   27.73    9.33
   7  -1  -1   23.55    8.25
   7  -1  -1   25.92    3.97
   7   1  -1   29.69    3.56
   7   1  -1   28.97    4.62
   7  -1  -1   33.92    4.39
   7  -1  -1   27.84    3.29
   7   1  -1   28.43    3.22
  -7   1   0  341.93   17.40
  -7  -1   0  385.43   17.75
   7  -1   0  386.89   14.88
   7   1   0  362.61   14.90
   7   1   0  429.82   15.68
   7   1   0  365.86   18.69
   7   1   0  389.90   20.73
   7  -1   0  387.82   19.57
   7   1   0  370.68   15.71
   7  -1   0  373.57   15.62
   7  -1   0  360.55   14.84
  -7   1  -1  118.58    9.04
  -7  -1  -1  125.24    9.11
   7  -1   1  140.79    7.17
   7   1   1  131.68    7.11
   7  -1   1  131.99    7.74
   7   1   1  122.01   10.12
   7   1   1  132.54   13.35
   7  -1   1  136.82   12.21
   7   1   1  142.70    7.94
   7  -1   1  129.23    7.74
   7  -1   1  147.26    6.99
  -7   1  -2   15.67    4.92
  -7  -1  -2   22.66    4.87
   7  -1   2   16.31    3.73
   7   1   2   17.09    3.87
   7   1   2   15.17   10.64
   7  -1   2   10.08    8.68
   7  -1   2   19.85    3.89
   7   1   2   15.35    5.65
   7   1   2   19.52    3.55
   7   1   2   19.75    4.57
   7  -1   2   14.39    3.07
   7   1   2   19.01    3.03
   7  -1   3  117.25   12.26
   7  -1   3  122.06    7.35
   7   1   3  139.87    7.33
   7  -1   3  139.79    7.43
   7   1   3  131.11    7.46
   7  -1   3  143.11    6.79
   7   1   3  129.69    6.64
   7  -1   4    0.84    8.93
   7  -1   4    1.78    2.99
   7   1   4   13.42    3.26
   7  -1   4    5.45    3.48
   7   1   4   14.96    3.97
   7  -1   4    4.04    2.54
   7   1   4    6.92    2.70
   7  -1   5  238.65   11.04
   7   1   5  252.71   11.20
   7   1   5  306.90   17.15
   7  -1   5  260.67   15.57
   7   1   5  293.34   11.92
   7  -1   5  281.74   10.80
   7   1   5  278.23   10.84
   7  -1   6   90.61    5.18
   7   1   6   87.42    5.33
   7   1   6   83.08    4.79
   7   1   6   95.49   10.40
   7  -1   6   99.10    9.46
   7   1   6  101.05    5.71
   7  -1   6   93.66    4.51
   7   1   6   95.92    4.65
  -7  -2  13    0.07    2.33
  -7  -2  12  213.06    9.69
  -7   2  12  246.97    9.87
   7  -2 -11   15.30   15.31
  -7   2  11    6.20    3.07
   7  -2 -10  173.46    8.07
   7  -2 -10  171.01    7.51
   7  -2 -10  165.24   23.13
  -7   2  10  196.89    8.72
  -7   2   9 1000.46   38.23
   7  -2  -9  930.84   35.62
   7  -2  -9  977.37   35.14
  -7   2   8   10.63    3.59
  -7  -2   8    8.37    3.79
  -7   2   8   11.13    3.09
  -7  -2   8    8.09    3.57
  -7   2   8   11.49    4.04
   7  -2  -8    8.93    2.44
   7   2  -8   18.80    8.25
   7   2  -8    5.49   19.08
   7  -2  -8   19.60   21.15
   7   2  -8    8.04    3.22
   7  -2  -8    9.53    3.11
  -7   2   7  180.59   10.44
  -7  -2   7  196.34   10.85
  -7   2   7  192.82    8.39
  -7  -2   7  182.62    9.97
  -7   2   7  197.79   10.70
   7  -2  -7  187.98    8.38
   7   2  -7  184.44   10.50
   7  -2  -7  177.14    9.90
   7   2  -6  148.31    7.56
   7  -2  -6  128.36    7.11
  -7  -2   6  143.17    8.19
  -7   2   6  139.50    8.67
   7  -2  -6  133.55    6.01
   7  -2  -6  138.58    6.78
  -7   2   6  113.07    8.34
  -7  -2   6  139.88    9.30
   7  -2  -6  134.83    8.29
   7   2  -6  114.53   22.93
   7   2  -5  236.48   10.48
   7  -2  -5  233.62   10.15
  -7  -2   5  228.53   12.52
   7  -2  -5  225.94    9.90
  -7   2   5  240.47   11.81
   7  -2  -5  203.66    9.16
   7   2  -5  254.65   14.90
   7  -2  -5  230.66   12.32
   7  -2  -5  251.30   11.84
   7   2  -4    8.45    3.58
   7  -2  -4    2.11    3.16
  -7   2   4    2.92    3.66
  -7  -2   4    3.28    3.80
   7   2  -4    6.51    2.56
  -7   2   4    4.04    3.26
   7  -2  -4    3.94    2.83
   7  -2  -4    4.92    2.21
   7   2  -4    2.01    8.63
   7  -2  -4    6.48    6.39
   7   2  -4    3.10    2.13
   7   2  -4    8.23    6.36
   7   2  -3    1.77    3.48
   7  -2  -3    3.36    3.26
  -7   2   3    1.72    3.81
   7   2  -3    0.92    2.30
   7  -2  -3    4.87    2.26
   7   2  -3    4.65    2.54
  -7   2   3    3.49    3.11
   7  -2  -3    3.81    2.86
   7  -2  -3    4.68    2.36
   7   2  -3    5.04    8.79
   7  -2  -3    4.56    6.33
   7  -2  -3    3.46    2.74
   7   2  -3    3.13    2.34
   7   2  -3    2.38    5.80
  -7  -2   2 1177.68   42.97
   7   2  -2 1124.86   39.60
  -7   2   2 1072.76   42.72
   7  -2  -2 1076.14   39.83
   7   2  -2 1077.98   39.87
   7   2  -2 1181.17   40.37
  -7   2   2 1073.83   41.55
   7  -2  -2 1044.58   39.88
   7   2  -2 1157.61   40.59
   7  -2  -2 1095.48   40.30
   7  -2  -2 1098.19   40.60
   7  -2  -2 1113.95   43.07
   7   2  -2 1208.27   40.19
   7   2  -2 1199.43   45.01
   7   2  -2 1237.73   45.30
   7   2  -1   15.83    6.31
   7   2  -1   -4.15    9.33
   7  -2  -1    5.45    7.44
   7  -2  -1    6.33    3.32
   7   2  -1    1.40    2.56
   7  -2  -1    5.43    2.44
   7   2  -1    2.85    2.64
  -7   2   1    3.06    3.79
  -7  -2   1    1.73    3.81
   7   2  -1    1.15    3.90
   7  -2  -1    1.67    3.83
   7  -2  -1    0.77    2.79
   7   2  -1    1.13    2.49
   7  -2  -1    1.97    2.61
   7   2  -1    4.06    2.60
  -7  -2   0    2.73    3.90
   7  -2   0   -0.37    2.68
   7   2   0    2.72    2.97
   7  -2   0    3.40    8.12
   7   2   0   -2.88    6.22
   7   2   0    3.84    2.68
   7   2   0    3.31    4.15
   7  -2   0   -2.47    3.92
   7  -2   0    1.63    2.56
   7   2   0    2.69    2.53
  -7   2  -1  948.82   43.62
  -7  -2  -1 1258.57   44.49
   7  -2   1 1210.76   41.47
   7   2   1 1167.27   41.61
   7  -2   1 1217.38   42.29
   7   2   1 1077.08   45.95
   7  -2   1 1087.97   45.04
   7   2   1 1127.28   42.05
   7  -2   1 1098.83   41.76
   7  -2   1 1180.55   41.37
   7   2   1 1151.40   41.14
   7   2   1 1207.67   41.78
   7  -2   2  300.17   12.80
   7   2   2  306.44   13.02
   7  -2   2  270.94   16.90
   7  -2   2  297.66   13.35
   7   2   2  317.93   12.85
   7   2   2  285.48   16.87
   7   2   2  304.81   13.44
   7  -2   2  305.78   13.25
   7  -2   2  314.70   12.52
   7   2   2  292.46   12.27
   7  -2   3  133.68    7.40
   7   2   3  143.47    7.85
   7  -2   3  125.70   11.99
   7  -2   3  132.15    7.58
   7   2   3  150.43    7.40
   7   2   3  152.98   14.49
   7   2   3  140.02    8.11
   7  -2   3  143.67    6.97
   7  -2   4   53.33    4.72
   7   2   4   46.43   11.88
   7  -2   4   53.43    9.49
   7  -2   4   54.15    4.44
   7   2   4   50.53    4.31
   7   2   4   57.69    5.54
   7  -2   4   59.36    3.95
   7  -2   5  136.17   11.09
   7   2   5  128.28    6.53
   7   2   5  132.77   12.99
   7   2   5  139.66    7.44
   7  -2   5  128.25    5.99
   7   2   5  123.59    6.12
   7  -2   6  187.17    8.53
   7   2   6  189.98    8.48
   7   2   6  194.38   13.08
   7  -2   6  201.05   12.00
   7  -2   6  203.38    7.95
   7   2   6  207.64    8.27
   7   2   6  217.65    9.14
   7  -2   6  203.77    8.76
  -7  -3  13    1.17    2.05
  -7   3  13    1.22    1.92
   7  -3 -11   70.35    4.43
   7  -3 -11   64.94    3.67
  -7   3  11   72.40    3.78
  -7   3  11   70.08    4.81
   7  -3 -11   71.57   16.16
   7  -3 -10    1.77    1.92
   7  -3 -10   -6.90   16.60
   7  -3 -10    5.68    2.87
  -7   3  10    4.37    3.14
  -7   3  10    5.31    2.14
  -7   3   9  818.82   27.59
  -7   3   9  780.07   26.76
  -7   3   9  791.81   29.88
   7  -3  -9  745.55   27.71
   7  -3  -9  722.02   26.85
   7  -3  -8   65.30    5.68
  -7   3   8   73.09    6.27
  -7   3   8   74.58    4.84
  -7   3   8   72.45    4.15
  -7  -3   8   76.75    5.95
  -7   3   8   78.90    6.86
   7  -3  -8   73.07    3.69
   7  -3  -8   68.52    4.36
   7   3  -8   92.84   19.87
   7   3  -8   87.13   10.42
   7   3  -8   49.83    8.98
  -7  -3   7   71.78    6.51
  -7   3   7   67.16    4.53
  -7   3   7   82.35    6.68
   7  -3  -7   76.39    3.97
   7  -3  -7   75.21    4.60
   7  -3  -7   70.84    5.75
   7   3  -7   74.59   19.97
   7  -3  -6  137.59    8.08
   7  -3  -6  151.11    7.70
  -7   3   6  164.32    9.55
   7  -3  -6  154.93    6.85
   7  -3  -6  161.40    7.51
  -7  -3   6  170.15   10.04
   7   3  -6  174.21    9.89
   7  -3  -6  154.21    8.98
   7   3  -6  140.45   22.08
   7   3  -6  182.00   13.15
   7  -3  -5  448.89   17.62
   7   3  -5  423.18   17.67
   7  -3  -5  464.12   17.56
  -7   3   5  442.36   19.60
  -7  -3   5  423.59   20.16
   7  -3  -5  454.41   17.54
  -7   3   5  495.62   19.89
   7  -3  -5  460.82   17.00
   7  -3  -5  452.84   19.43
   7   3  -5  375.02   31.18
   7   3  -5  488.79   22.70
  -7   3   4   99.77    7.48
  -7  -3   4  116.19    8.21
   7   3  -4  113.26    5.67
   7  -3  -4  113.03    6.08
  -7   3   4  110.50    7.41
   7  -3  -4  106.74    5.54
   7  -3  -4  109.24    5.45
   7   3  -4  105.23    6.50
   7  -3  -4  101.09    6.08
   7   3  -4   89.36   19.74
   7   3  -4  104.45    5.41
   7   3  -4  116.94   10.66
   7   3  -4  115.72   11.84
  -7   3   3   14.47    3.92
  -7  -3   3    8.44    4.12
   7  -3  -3   12.78    2.13
   7   3  -3   13.17    3.85
   7  -3  -3   13.96    3.55
  -7   3   3    9.65    3.81
   7   3  -3   10.48    2.56
   7   3  -3   10.79    2.81
  -7   3   3   16.07    3.79
   7  -3  -3   10.72    3.10
   7  -3  -3   10.18    2.53
   7   3  -3   14.30    9.23
   7  -3  -3   18.12    6.50
   7   3  -3   13.33    2.43
   7   3  -3    9.66   15.09
   7   3  -3   10.79    6.95
  -7   3   2    4.81    3.57
  -7  -3   2    8.21    3.91
   7  -3  -2    9.22    1.83
   7   3  -2    4.84    3.80
   7  -3  -2    4.88    3.63
  -7   3   2    2.71    3.78
   7   3  -2    3.20    2.44
   7  -3  -2    4.31    2.32
   7   3  -2    3.84    2.63
  -7   3   2    4.42    3.24
   7  -3  -2    9.08    2.68
   7   3  -2    3.48    6.14
   7  -3  -2    7.47    6.54
   7  -3  -2    3.06    2.90
   7   3  -2    2.96    2.21
   7   3  -1   13.33    6.79
   7  -3  -1   12.48    7.09
   7   3  -1    9.40    2.55
  -7   3   1   15.12    4.07
  -7  -3   1    9.89    3.83
   7  -3  -1   13.54    2.56
   7   3  -1   10.30    3.05
  -7   3   1   11.25    4.00
   7   3  -1   14.34    2.86
   7  -3  -1    8.68    2.78
   7   3  -1   15.56    2.91
  -7   3   1    6.38    3.40
   7  -3  -1   13.91    3.13
   7  -3  -1   13.16    1.95
   7   3  -1   14.14    4.15
   7  -3  -1   11.40    3.80
  -7   3   0  502.55   23.42
  -7  -3   0  609.04   23.74
  -7   3   0  529.37   23.62
   7  -3   0  583.35   20.95
   7   3   0  552.93   21.26
   7  -3   0  562.10   21.11
   7   3   0  563.50   21.02
   7  -3   0  583.38   22.11
   7   3   0  586.26   21.33
   7   3   0  550.33   26.48
   7   3   0  544.23   27.13
   7  -3   0  547.19   24.65
   7   3   0  549.41   21.86
   7  -3   0  553.21   21.68
   7  -3   0  544.39   20.36
  -7   3  -1  467.31   22.53
  -7  -3  -1  583.05   22.76
   7  -3   1  558.07   20.24
   7   3   1  538.57   20.56
   7  -3   1  551.78   20.22
   7   3   1  522.17   20.01
   7   3   1  553.76   20.49
  -7   3  -1  476.92   19.63
  -7   3  -1  542.54   22.77
   7  -3   1  553.43   21.13
   7   3   1  491.55   25.40
   7   3   1  501.23   26.40
   7  -3   1  506.28   23.83
   7   3   1  539.95   21.11
   7  -3   1  522.41   20.78
   7  -3   1  545.95   19.52
   7  -3   2  143.47    7.18
   7   3   2  143.99    7.66
   7  -3   2  117.67   11.34
   7  -3   2  126.87    7.52
   7   3   2  147.24    7.08
   7   3   2  131.34   11.50
   7   3   2  134.90   14.55
   7   3   2  135.39    8.11
   7  -3   2  125.93    7.66
   7  -3   2  135.53    6.10
   7  -3   2  138.45    6.85
   7   3   2  128.97    6.59
   7   3   2  133.60    7.09
  -7   3  -2  122.84    6.27
   7  -3   3  133.58    6.89
   7   3   3  135.84    7.34
   7  -3   3  120.63   11.09
   7  -3   3  111.59    6.88
   7   3   3  128.47    6.70
   7   3   3  128.38   14.15
   7   3   3  126.79    7.68
   7  -3   3  129.90    7.38
   7  -3   3  121.20    5.68
   7  -3   3  127.66    6.30
   7   3   3  130.37    6.34
  -7   3  -3  107.95    5.79
   7  -3   4   42.70    4.09
   7   3   4   27.63   10.88
   7  -3   4   34.06    8.44
   7   3   4   35.00    3.57
   7  -3   4   41.78    4.68
   7  -3   4   30.45    2.56
   7   3   4   35.51    4.89
   7  -3   4   38.54    3.24
   7   3   4   36.97    3.43
  -7   3  -4   30.59    2.80
   7   3   5  234.45   10.05
   7   3   5  202.24   15.41
   7  -3   5  220.85   13.35
   7   3   5  258.48   10.83
   7  -3   5  235.93   10.26
   7  -3   5  232.48    9.38
   7   3   5  245.41    9.77
   7   3   6    5.88    7.52
   7  -3   6   10.54    5.84
   7   3   6   14.25    2.57
   7  -3   6   10.94    1.58
   7  -3   6   12.54    2.87
  -7   4  12  181.69    7.85
  -7   4  11  265.38   10.07
  -7   4  11  286.28   10.92
   7  -4 -11  247.21    9.98
   7  -4 -11  263.11   10.78
   7  -4 -11  296.07   20.26
  -7   4  10  149.67    6.45
   7  -4 -10  140.94    6.41
   7  -4 -10  136.57    7.32
   7  -4 -10  137.95   19.55
  -7   4   9   61.32    3.77
   7  -4  -9   53.56    2.99
   7  -4  -9   50.69    3.67
   7  -4  -9   46.60    4.57
   7  -4  -9   39.18   19.13
   7   4  -9   37.05   10.05
  -7   4   8   75.49    4.80
  -7   4   8   70.37    4.24
   7  -4  -8   70.02    3.76
   7  -4  -8   61.67    4.24
   7   4  -8   85.26   10.62
   7   4  -8   63.84   10.86
   7   4  -7  833.02   31.74
   7  -4  -7  758.24   30.40
  -7   4   7  739.19   30.51
  -7   4   7  771.18   28.22
  -7   4   7  787.07   28.08
  -7   4   7  844.26   31.64
   7  -4  -7  776.84   27.81
   7  -4  -7  737.85   28.30
   7   4  -7  798.69   32.99
   7   4  -7  862.46   34.50
   7   4  -6    0.80    3.16
  -7   4   6    0.73    2.09
  -7   4   6    0.22    3.21
  -7  -4   6    4.28    3.82
  -7   4   6    2.79    3.54
   7  -4  -6    0.59    2.40
   7  -4  -6    0.75    1.89
   7   4  -6    2.39    8.96
   7   4  -6   -2.22   15.09
   7   4  -6    4.28    6.51
   7  -4  -6    3.09    3.22
   7  -4  -6   -0.77    3.00
  -7   4   5  133.34    6.28
  -7   4   5  132.67    8.27
  -7  -4   5  139.77    9.27
   7   4  -5  128.50    6.19
   7  -4  -5  136.53    6.82
  -7   4   5  145.46    8.78
   7  -4  -5  138.73    6.30
   7   4  -5  156.54   19.68
   7  -4  -5  139.19    6.87
   7   4  -5  116.67    6.93
   7  -4  -5  135.82    6.80
  -7   4   4 1749.94   61.28
  -7   4   4 1715.02   64.00
  -7  -4   4 1784.04   64.98
   7   4  -4 1811.96   61.55
  -7   4   4 1813.01   64.05
   7  -4  -4 1887.66   61.59
   7  -4  -4 1799.42   61.45
   7   4  -4 1596.71   61.69
   7  -4  -4 1712.38   61.66
   7   4  -4 2005.19   74.55
   7   4  -4 1694.29   61.22
   7   4  -4 1943.37   69.06
  -7   4   3   12.81    3.65
   7  -4  -3   17.92    2.32
   7   4  -3   18.31    3.75
   7  -4  -3   14.77    3.48
  -7   4   3   21.68    4.19
  -7   4   3   13.21    2.43
   7   4  -3   14.07    2.55
   7   4  -3   17.79    2.98
  -7   4   3   19.87    3.93
   7  -4  -3   15.59    2.78
   7   4  -3   15.49    2.47
   7   4  -3   13.04    7.08
   7  -4  -2  332.95   12.49
   7   4  -2  313.25   13.47
   7  -4  -2  317.98   13.29
  -7   4   2  300.15   15.03
   7   4  -2  319.08   13.06
  -7   4   2  307.46   12.73
   7   4  -2  329.91   13.11
  -7   4   2  323.24   15.00
   7  -4  -2  331.33   13.21
   7   4  -2  336.01   12.92
   7   4  -2  353.12   19.41
   7   4  -2  329.95   19.09
  -7   4   2  316.20   15.05
   7   4  -1   30.66    7.99
   7   4  -1   33.72   11.06
   7  -4  -1   25.56    7.14
   7   4  -1   28.20    3.09
  -7   4   1   36.67    4.73
   7  -4  -1   28.90    2.83
  -7   4   1   20.13    4.30
   7  -4  -1   29.94    3.21
   7   4  -1   24.51    3.30
   7   4  -1   29.48    3.30
  -7   4   1   26.84    2.93
  -7   4   1   28.11    4.37
   7  -4  -1   25.86    3.47
   7  -4  -1   32.94    2.66
   7   4  -1   31.65    4.44
   7  -4  -1   27.99    4.11
  -7   4   0  347.48   16.81
   7  -4   0  401.64   14.52
  -7   4   0  355.18   16.74
   7  -4   0  369.90   15.07
   7   4   0  386.60   14.76
   7   4   0  374.28   20.63
   7   4   0  347.32   21.38
   7  -4   0  393.54   18.16
   7  -4   0  344.27   15.12
   7  -4   0  374.92   14.13
   7   4   0  368.57   15.39
   7  -4   0  354.04   14.55
   7   4   0  372.37   14.65
  -7   4   0  362.48   14.45
   7  -4   1  173.71    7.71
   7   4   1  166.22    7.72
   7   4   1  155.23   13.10
   7   4   1  139.74   14.60
   7  -4   1  147.65   11.38
   7  -4   1  156.99    8.43
   7  -4   1  165.86    7.13
   7   4   1  159.45    8.63
   7  -4   1  163.38    7.64
   7   4   1  160.92    7.62
   7   4   1  155.20    7.77
  -7   4  -1  158.83    7.48
   7  -4   2   22.97    3.40
   7   4   2   18.91   11.43
   7  -4   2   23.52    7.84
   7  -4   2   23.60    2.53
   7   4   2   20.22    4.76
   7  -4   2   21.54    4.30
   7   4   2   19.88    3.22
   7  -4   2   25.83    3.14
   7   4   2   21.47    3.13
  -7   4  -2   21.00    2.84
   7  -4   3  810.37   27.22
   7  -4   3  685.70   30.00
   7   4   3  742.08   27.13
   7   4   3  648.87   32.66
   7   4   3  723.24   27.62
   7  -4   3  741.78   27.47
   7  -4   3  730.64   26.42
   7  -4   3  742.69   26.68
   7   4   3  781.51   26.97
   7   4   3  731.58   27.20
  -7   4  -3  680.46   26.60
   7  -4   4  101.91    5.73
   7  -4   4   95.10    4.86
   7   4   4  101.73    5.31
  -7   4  -4   93.76    4.90
   7   4   4   95.49    6.32
   7  -4   4  101.04    6.05
   7  -4   4   99.69    4.69
   7   4   4   96.43    5.55
   7   4   4   91.59   12.29
   7  -4   4   77.51    9.12
   7  -4   5  106.11    4.83
  -7   4  -5  105.59    4.99
   7   4   5  118.45    5.88
   7   4   5   97.17   10.80
   7  -4   5  103.13    8.81
   7  -4   5  112.88    5.99
   7  -5 -12  100.99    4.54
   7  -5 -12  107.08    4.98
   7  -5 -11  126.85    5.63
   7  -5 -11  117.69    6.22
  -7   5  11  139.44    5.72
  -7   5  11  130.56    6.27
  -7   5  10  292.78   11.30
  -7   5  10  276.74   10.66
   7  -5 -10  248.26   10.56
   7  -5 -10  276.00   11.54
   7  -5 -10  253.64   20.91
   7   5 -10  240.57   17.28
  -7   5   9  212.14    9.12
  -7   5   9  216.65    8.65
   7  -5  -9  198.16    8.09
   7  -5  -9  199.15    8.65
  -7   5   8   28.53    4.31
  -7  -5   8   18.33    4.11
  -7   5   8   19.89    3.22
  -7   5   8   22.91    2.82
   7  -5  -8   18.71    2.17
   7  -5  -8   19.42    2.79
   7   5  -8   29.75    9.09
   7   5  -8   21.65    9.95
   7  -5  -7   19.24    2.86
   7  -5  -7   22.83    2.39
  -7   5   7   24.39    4.08
  -7   5   7   21.25    2.80
  -7   5   7   22.25    3.04
   7   5  -7   27.09    9.11
   7  -5  -7    9.74    4.19
  -7   5   6   46.81    3.61
  -7   5   6   49.14    5.02
  -7   5   6   46.91    5.47
   7  -5  -6   46.86    3.32
   7  -5  -6   43.75    4.70
   7   5  -6   59.15    9.25
   7   5  -6   50.94    5.68
   7  -5  -6   46.07    4.62
   7  -5  -5   54.67    4.90
  -7   5   5   41.68    3.47
  -7   5   5   45.10    4.88
   7   5  -5   40.01    3.12
  -7   5   5   38.86    5.10
   7  -5  -5   43.71    3.34
   7   5  -5   45.40    9.93
   7  -5  -5   46.13    4.06
   7  -5  -5   47.01    3.97
   7   5  -5   59.45    8.37
   7  -5  -4 1042.24   38.06
  -7   5   4  966.72   37.64
  -7   5   4  971.33   35.51
  -7   5   4  967.46   37.70
  -7  -5   4  998.77   39.04
   7   5  -4 1048.26   35.60
   7  -5  -4 1030.57   36.07
  -7   5   4  975.82   38.10
   7  -5  -4 1035.59   35.68
   7  -5  -4  997.25   35.68
   7   5  -4  885.28   35.54
   7  -5  -4  966.67   35.65
   7   5  -4  933.98   40.24
   7  -5  -3  329.28   12.69
   7   5  -3  288.79   12.88
   7  -5  -3  309.21   12.96
  -7   5   3  316.86   14.73
  -7   5   3  303.23   12.85
   7   5  -3  316.10   12.82
   7  -5  -3  346.15   13.36
  -7   5   3  313.09   14.99
   7  -5  -3  343.55   13.03
   7   5  -3  323.27   12.58
   7   5  -3  357.54   20.38
   7   5  -3  291.23   18.09
  -7   5   3  312.32   14.65
  -7   5   2    1.45    3.13
   7  -5  -2    4.29    1.97
   7   5  -2    1.96    3.13
   7  -5  -2    0.39    3.16
  -7   5   2    2.40    2.90
  -7   5   2    0.19    2.11
   7   5  -2    1.62    2.19
   7   5  -2    2.03    2.57
  -7   5   2    0.87    3.13
   7  -5  -2    1.22    2.38
   7   5  -2   -2.91    9.52
   7   5  -2    0.17    1.98
   7   5  -2   -8.14    7.60
  -7   5   1  386.06   17.62
   7  -5  -1  416.59   15.17
  -7   5   1  388.30   17.27
  -7   5   1  398.74   17.88
   7  -5  -1  415.33   16.01
   7   5  -1  409.98   15.75
  -7   5   1  393.40   15.60
   7   5  -1  401.46   15.79
   7   5  -1  415.13   15.60
   7   5  -1  448.36   23.00
   7   5  -1  384.17   21.40
   7  -5  -1  425.89   15.35
   7   5  -1  345.12   15.69
   7  -5  -1  401.45   15.94
   7  -5   0  488.35   17.73
   7  -5   0  484.02   18.46
   7   5   0  465.85   17.94
   7   5   0  496.13   25.31
   7   5   0  434.35   23.60
   7  -5   0  479.43   17.66
   7   5   0  424.04   18.15
   7  -5   0  477.18   18.44
   7  -5   0  483.93   17.82
   7   5   0  469.89   18.04
  -7   5   0  464.91   17.96
   7  -5   1   10.53    2.61
   7   5   1    9.76   10.51
   7   5   1    7.80    7.84
   7  -5   1    8.84    6.53
   7   5   1    9.61    2.63
   7  -5   1    6.04    2.14
   7   5   1    7.98    3.68
   7  -5   1   11.61    3.88
   7   5   1    9.09    2.58
  -7   5  -1    8.44    2.54
   7  -5   1   11.92    2.49
   7   5   1   10.46    2.91
   7  -5   2   19.40    3.06
   7   5   2   18.45   10.42
   7  -5   2   11.43    7.01
   7  -5   2   22.22    2.54
   7   5   2   20.89    3.73
   7  -5   2   17.75    3.99
   7   5   2   13.76    3.01
  -7   5  -2   13.28    2.77
   7  -5   2   21.50    2.65
   7   5   2   21.29    3.09
   7  -5   3  109.42    5.76
   7   5   3  107.60    5.79
   7   5   3  102.06   12.14
   7  -5   3  103.92    9.30
   7  -5   3  113.61    6.40
   7  -5   3  108.25    5.23
   7  -5   3  107.00    5.11
   7   5   3  105.31    5.67
   7   5   3  103.64    5.91
  -7   5  -3  105.91    5.53
   7  -5   4   23.88    3.08
   7   5   4   32.65    9.30
   7  -5   4   20.21    6.98
   7   5   4   23.34    3.04
   7  -5   4   24.81    2.37
   7  -5   4   22.55    3.69
   7   5   4   25.84    3.02
  -7   5  -4   24.66    2.60
   7  -5   5  427.49   15.24
   7   5   5  436.02   15.35
  -7   5  -5  391.64   14.82
   7   5   5  424.00   15.55
   7  -5   5  400.26   15.23
   7  -5   5  400.67   14.66
  -7   6  11    1.46    2.26
  -7   6  11    3.22    1.68
   7  -6 -11    4.15    1.61
   7  -6 -11    2.02    2.16
   7   6 -11    2.91    6.71
  -7   6  10  230.72    9.20
  -7   6  10  224.42    8.67
   7  -6 -10  201.47    8.15
   7  -6 -10  208.66    8.66
   7  -6 -10  208.61    9.43
   7  -6 -10  189.01   16.57
   7   6 -10  230.08   14.91
  -7   6   9  123.87    6.23
  -7   6   9  127.36    5.85
   7   6  -9  139.34   13.26
   7  -6  -9  115.91    5.30
   7  -6  -9  118.76    5.81
  -7   6   8  228.50    9.28
  -7   6   8  216.69    8.95
   7  -6  -8  210.65    8.57
  -7   6   7   93.74    5.02
  -7   6   7   91.21    5.11
   7  -6  -7   88.19    4.61
   7   6  -7   91.74   10.59
   7  -6  -7   79.95    6.69
  -7   6   6  173.84    7.51
  -7   6   6  165.24    7.29
  -7   6   6  163.25    9.16
   7  -6  -6  165.73    7.19
   7  -6  -6  150.56    7.44
   7   6  -6  142.68   12.35
   7  -6  -6  161.53    8.56
  -7   6   5  111.31    7.21
   7   6  -5  106.12    5.44
   7  -6  -5  122.31    6.16
   7  -6  -5  116.81    5.76
  -7   6   5  117.31    5.90
   7  -6  -5  125.82    6.64
  -7   6   4  106.21    5.61
  -7   6   4  106.00    6.92
   7   6  -4  103.12    5.40
   7  -6  -4  112.24    5.96
  -7   6   4  103.75    7.39
   7  -6  -4  110.53    5.58
  -7   6   4   98.10    6.82
   7  -6  -4  111.64    5.73
   7  -6  -4  106.84    5.60
   7  -6  -3  346.22   12.79
   7  -6  -3  313.34   12.61
   7   6  -3  456.42   18.18
  -7   6   3  312.84   14.18
   7  -6  -3  340.97   13.18
  -7   6   3  331.90   15.08
   7  -6  -3  338.17   12.86
  -7   6   3  177.04   14.63
  -7   6   3  301.20   14.21
  -7   6   3  324.27   12.86
   7   6  -3  315.48   12.66
   7   6  -3  311.10   12.33
   7   6  -3  354.42   20.72
   7   6  -3  295.99   17.74
   7  -6  -2 1016.53   36.38
  -7   6   2  928.52   38.39
   7  -6  -2 1058.60   36.10
   7  -6  -2  967.57   36.05
   7   6  -2  997.34   35.94
   7   6  -2 1111.50   45.03
   7   6  -2  981.45   40.67
  -7   6   2  985.69   36.32
   7   6  -2  995.57   36.19
   7   6  -1  281.12   11.39
   7   6  -1  308.57   19.07
   7   6  -1  269.06   17.07
   7   6  -1  252.21   11.42
  -7   6   1  283.17   11.68
   7   6  -1  268.10   11.55
   7  -6  -1  280.38   10.94
   7  -6  -1  285.94   11.78
   7  -6  -1  288.52   11.33
   7  -6  -1  297.03   11.76
   7   6   0   47.94    4.00
  -7   6   0   53.88    4.02
   7   6   0   44.67   10.24
   7   6   0   49.13    3.75
   7  -6   0   56.22    3.69
   7  -6   0   54.40    4.42
   7  -6   0   53.71    3.60
   7   6   1  152.25    7.24
   7   6   1  139.22    7.24
  -7   6  -1  155.75    7.31
   7   6   1  149.49    7.14
   7   6   1  144.91   13.03
   7  -6   1  154.88    6.89
   7  -6   1  154.22    7.58
   7  -6   1  154.55    6.95
   7   6   2    1.89    2.46
  -7   6  -2    5.32    2.36
   7   6   2    7.76    2.73
   7   6   2    5.30    8.68
   7  -6   2    6.74    2.11
   7  -6   2    1.47    3.17
   7  -6   2    6.27    2.55
   7   6   3   84.89    4.93
   7   6   3   79.34    5.10
  -7   6  -3   84.84    4.72
   7   6   3   78.20    9.78
   7   6   3   82.82    4.88
   7  -6   3   91.11    4.49
   7  -6   3   84.68    5.12
   7  -6   3   84.56    4.77
  -7   6  -4    2.14    1.77
   7   6   4    3.04    2.36
   7  -6   4    3.24    5.02
   7   6   4    4.43    2.32
   7  -6   4    5.41    1.66
   7  -6   4    4.01    2.53
   7  -6   4    4.80    2.21
   7   6   5   85.46    4.56
  -7   6  -5   93.61    4.15
   7  -6   5  101.80    4.47
   7   6   5   95.48    4.91
   7  -6   5   88.30    3.95
   7  -6   5   89.16    4.20
   7  -7 -11   64.76    3.36
  -7   7  11   74.17    3.40
  -7   7  11   73.49    3.84
   7  -7 -11   56.37    3.77
   7   7 -11   71.25    7.48
   7  -7 -10  228.05    9.03
   7  -7 -10  245.02    9.50
  -7   7  10  250.27    9.43
  -7   7  10  262.73    9.90
   7   7 -10  293.27   15.61
   7  -7 -10  214.54   10.00
  -7   7   9  435.65   15.95
  -7   7   9  432.38   15.65
   7  -7  -9  399.14   15.28
  -7   7   8   53.65    3.87
  -7   7   8   49.92    3.55
   7  -7  -8   52.64    3.24
  -7   7   7   48.15    3.55
  -7   7   7   52.53    3.81
   7   7  -7   45.73    8.88
   7  -7  -7   39.49    5.20
   7  -7  -7   45.02    3.20
   7  -7  -7   49.24    3.65
  -7   7   6  655.76   24.05
  -7   7   6  656.32   23.95
   7  -7  -6  669.34   23.91
   7  -7  -6  640.29   24.22
   7   7  -6  676.37   28.10
   7  -7  -6  597.05   25.00
   7   7  -5  227.03    9.45
  -7   7   5  236.25    9.94
   7  -7  -5  239.67   10.13
   7  -7  -5  239.13    9.81
   7   7  -5  239.60   14.52
   7  -7  -5  239.42   10.56
   7  -7  -4   67.13    4.36
   7  -7  -4   62.62    4.03
  -7   7   4   66.47    4.26
   7  -7  -4   64.38    4.39
   7   7  -4   58.32    3.76
  -7   7   3  111.49    6.19
   7   7  -3  118.79    5.92
  -7   7   3  114.59    6.10
   7  -7  -3  125.65    6.12
   7  -7  -3  124.23    6.32
   7   7  -3  123.73    5.64
   7   7  -3  132.58   11.26
   7  -7  -3  124.77    6.12
   7   7  -2   36.54    8.58
   7   7  -2   28.96    2.77
  -7   7   2   29.33    3.26
   7   7  -2   31.08    2.99
   7  -7  -2   36.19    3.11
   7   7  -2   46.15    7.64
  -7   7   1    8.34    2.51
   7   7  -1    4.02    2.26
   7  -7  -1    6.51    1.71
   7   7  -1   10.94    8.08
   7   7  -1    5.25    2.09
   7  -7  -1    5.78    2.14
   7   7  -1    7.08    5.95
  -7   7   0   34.70    3.42
   7  -7   0   33.28    2.83
   7  -7   0   36.45    3.51
   7   7   0   40.64    8.57
   7   7   0   30.67    3.07
   7  -7   0   35.51    3.07
   7   7   1  240.34   10.15
  -7   7  -1  242.57   10.18
   7   7   1  228.08    9.86
   7   7   1  259.54   14.03
   7  -7   1  250.20    9.81
   7  -7   1  230.16    9.56
   7   7   2  310.06   12.90
  -7   7  -2  333.32   12.81
   7   7   2  323.21   12.70
   7  -7   2  333.10   12.44
   7  -7   2  307.31   12.29
   7   7   3   -0.98    2.32
  -7   7  -3    0.88    1.96
   7  -7   3   -0.73    1.73
   7  -7   3   -1.10    2.04
  -7   7  -4  105.09    4.83
   7  -7   4   96.38    4.75
   7   7   4  103.10    5.35
   7  -7   4  111.35    4.64
   7  -8 -10    1.43    2.01
  -7   8  10    2.35    2.03
  -7   8  10    1.87    1.52
   7  -8 -10    2.22    1.12
  -7   8   9   65.23    4.06
  -7   8   9   68.22    3.68
   7  -8  -9   65.98    3.41
   7  -8  -9   69.10    3.80
  -7   8   8  778.85   26.22
  -7   8   8  730.86   25.94
   7  -8  -8  729.96   25.78
   7  -8  -8  742.95   26.11
  -7   8   7  158.46    7.10
  -7   8   7  162.93    7.22
   7  -8  -7  157.88    6.93
   7  -8  -7  164.02    7.28
  -7   8   6  167.52    7.40
  -7   8   6  160.18    7.27
   7  -8  -6  160.14    8.73
   7  -8  -6  167.27    7.46
   7  -8  -6  169.12    7.21
  -7   8   5  479.92   18.81
   7  -8  -5  504.35   18.99
   7  -8  -5  512.02   18.78
   7   8  -5  554.25   22.34
   7  -8  -5  476.03   19.64
   7   8  -4   50.48    3.40
  -7   8   4   51.04    3.81
   7  -8  -4   54.54    3.81
   7   8  -4   61.07    8.18
   7  -8  -4   59.22    4.25
   7   8  -4   68.13    9.61
  -7   8   3    2.69    2.39
   7   8  -3    2.10    1.85
  -7   8   3    3.43    2.31
   7  -8  -3    3.78    2.31
   7   8  -3    0.32    7.07
   7   8  -2   -1.74    2.13
  -7   8   2   -0.94    2.16
   7   8  -2   -0.62    1.92
   7  -8  -2    0.52    2.20
   7   8  -2   -2.44    6.80
  -7   8   1    7.08    2.45
   7   8  -1    1.21    2.12
   7  -8  -1    3.36    2.05
   7   8  -1    3.68    6.30
   7  -8  -1    1.37    2.28
   7   8  -1   -4.20    6.78
   7   8  -1    1.93    1.87
  -7   8   0   29.93    3.09
   7  -8   0   23.12    2.30
   7  -8   0   29.06    3.07
   7   8   0   26.37    2.78
   7  -8   0   29.37    2.80
  -7   8  -1  243.41    9.91
   7   8   1  230.39    9.89
   7   8   1  230.65    9.68
   7  -8   1  259.71    9.69
   7  -8   1  224.17    9.22
   7   8   2  111.46    6.09
  -7   8  -2  125.50    5.87
   7   8   2  123.89    5.89
   7  -8   2  127.12    5.61
   7  -8   2  120.19    5.42
   7  -8   3  194.37    8.08
   7   8   3  203.39    8.87
  -7   8  -3  207.17    8.40
   7  -8   3  226.13    8.23
   7  -9  -9  104.49    4.59
   7  -9  -9  100.79    4.31
  -7   9   9  102.22    4.46
  -7   9   9   92.47    4.67
   7  -9  -9   87.13    4.93
  -7   9   8   40.59    3.18
  -7   9   8   45.61    2.98
   7  -9  -8   49.43    3.09
   7  -9  -8   49.35    2.83
  -7   9   7   17.29    2.22
  -7   9   7   16.63    2.52
   7   9  -7   20.44    7.79
   7  -9  -7   14.55    1.97
   7  -9  -7   14.42    2.21
  -7   9   6    3.93    2.01
   7   9  -6    5.48    7.76
   7  -9  -6    0.55    3.53
   7  -9  -6    4.29    1.79
   7  -9  -6    2.51    1.96
  -7   9   5  234.65    9.59
   7  -9  -5  227.00    9.57
   7   9  -5  256.49   12.34
   7  -9  -5  228.65   10.64
   7   9  -4   29.64    2.55
  -7   9   4   34.47    3.10
   7   9  -4   35.78    6.28
   7  -9  -4   40.48    3.71
   7  -9  -3  234.11    9.56
   7   9  -3  231.79    9.52
   7  -9  -3  229.90    9.89
  -7   9   3  235.18    9.69
   7   9  -2    0.99    1.87
  -7   9   2   -0.08    2.14
  -7   9   2    0.31    2.25
   7  -9  -2    1.62    1.98
   7  -9  -2    3.21    2.22
   7   9  -2   -3.54    6.92
   7  -9  -1  466.94   17.57
   7   9  -1  456.21   17.36
  -7   9   1  480.27   17.84
   7   9  -1  460.96   17.67
   7  -9  -1  506.45   17.76
   7   9   0   75.19    4.22
  -7   9   0   78.77    4.51
   7   9   0   78.45    4.53
   7  -9   0   89.85    4.44
   7   9   1   56.42    3.62
  -7   9  -1   58.11    3.64
   7   9   1   53.70    3.88
   7  -9   1   63.10    3.49
  -7   9  -2  112.82    5.20
   7   9   2  108.39    5.63
   7  -9   2  103.80    4.68
   7  -9   2  122.84    5.07
   7   9   2  116.51    5.40
  -7  10   7    2.89    1.74
  -7  10   7    3.92    1.63
   7 -10  -7    4.02    1.44
   7 -10  -7    5.06    1.57
   7  10  -7    1.87    6.13
   7 -10  -6    0.54    1.54
   7  10  -6   -1.81    6.49
  -7  10   6    0.54    1.74
   7 -10  -5   23.48    2.24
   7 -10  -5   20.41    3.65
  -7  10   5   25.24    2.45
   7 -10  -4  137.75    6.05
  -7  10   4  143.61    6.24
   7 -10  -4  128.72    6.77
   7  10  -3  358.25   13.56
  -7  10   3  361.88   13.69
   7 -10  -3  350.96   13.57
   7 -10  -3  358.54   14.17
   7  10  -2    6.66    1.89
  -7  10   2    4.62    2.00
   7 -10  -2    5.97    1.81
   7 -10  -2    3.76    2.11
   7  10  -2   10.37    6.70
   7 -10  -1  453.65   17.21
   7  10  -1  477.82   17.50
  -7  10   1  483.23   17.41
   7 -10  -1  480.26   17.45
  -7  10   0  258.88   10.57
   7  10   0  272.35   10.76
   7  10   0  253.04   10.36
   7 -10   0  295.39   10.64
  -7  10   0  282.88   10.51
  -7  11   4    1.94    1.56
   7  11  -4    1.27    5.23
   7 -11  -4   -0.50    1.33
  -7  11   3    6.44    1.92
   7 -11  -3    7.89    1.59
   7  11  -3   10.52    5.66
   7 -11  -2    9.34    1.53
  -7  11   2   10.82    1.79
   7  11  -2   10.84    1.80
  -8   0  12   12.40    2.30
  -8   0  11   -0.95    2.40
   8   0 -10  153.11   21.99
  -8   0  10  155.01    7.18
   8   0  -9    1.74   19.40
   8   0  -8   24.28    6.58
  -8   0   8   20.64    4.12
   8   0  -7    0.99   20.49
  -8   0   7    1.67    3.28
   8   0  -6 1949.49  128.43
  -8   0   6 3927.89  120.18
   8   0  -5   -3.13    7.69
  -8   0   5    0.80    3.71
   8   0  -4   32.24    8.57
   8   0  -4   43.16    3.87
  -8   0   4   38.86    5.72
  -8   0   4   48.83    5.69
   8   0  -3    7.90    8.25
   8   0  -3   -0.74    2.94
  -8   0   3   -0.53    3.92
   8   0  -2  395.24   15.92
   8   0  -2  406.65   19.87
  -8   0   2  347.07   17.71
  -8   0   1   -1.41    3.76
   8   0  -1   -2.23    8.36
   8   0  -1    4.26    3.28
   8   0  -1   -0.08    2.06
   8   0   0  112.84   11.72
   8   0   0  113.49    5.92
   8   0   0  107.97    6.07
   8   0   1   -0.28    8.39
   8   0   1    1.37    3.37
   8   0   1   -1.80    2.88
   8   0   1    1.17    2.70
   8   0   2   23.46    3.46
   8   0   2   30.02    9.09
   8   0   2   21.32    3.64
   8   0   2   24.25    4.29
   8   0   2   25.44    3.20
   8   0   3   -1.44    2.94
   8   0   3    5.30    7.80
   8   0   3    3.76    2.73
   8   0   3    3.00    3.46
   8   0   3    0.32    2.35
   8   0   4  991.97   34.83
   8   0   4  950.85   34.85
   8   0   4 1025.41   38.01
   8   0   4  984.37   34.96
   8   0   4  967.69   34.51
  -8  -1  12   78.75    4.24
  -8   1  12   81.25    4.25
  -8  -1  11   90.73    5.01
  -8   1  11  101.47    5.10
  -8  -1  10    3.47    2.52
  -8   1  10    4.99    2.54
   8  -1 -10   13.40   16.90
   8  -1  -9  424.06   33.75
   8   1  -8   55.76   21.26
   8  -1  -8   34.98   21.70
   8  -1  -8   77.56    7.03
   8   1  -8   72.72    8.54
   8  -1  -8   57.04    3.85
   8  -1  -7  231.14    9.89
  -8   1   7  243.37   12.28
  -8  -1   7  239.57   12.39
  -8   1   6  127.31    8.06
  -8   1   6  130.53    8.60
  -8  -1   6  109.81    8.39
   8   1  -6  134.02    7.26
   8  -1  -6  124.72    7.03
   8   1  -5   75.42    4.77
   8  -1  -5   98.64    9.04
   8   1  -5  111.16   10.38
  -8   1   5   90.01    7.36
  -8  -1   5   87.57    7.44
   8   1  -5   95.61    6.13
   8  -1  -5  103.37    6.08
  -8  -1   4  342.53   17.68
   8   1  -4  401.25   15.68
   8  -1  -4  390.01   15.49
   8  -1  -4  373.56   15.17
   8   1  -4  341.07   14.92
   8   1  -4  434.82   19.92
   8  -1  -4  411.27   18.67
  -8   1   4  392.80   17.74
  -8  -1   4  403.67   18.11
  -8   1   3   54.40    6.31
  -8  -1   3   56.61    6.44
   8   1  -3   63.55    5.39
   8  -1  -3   63.85    5.20
   8  -1  -3   63.03    4.36
   8   1  -3   62.18    4.41
   8   1  -3   74.94   10.43
   8  -1  -3   58.42    4.90
   8   1  -3   52.60    4.53
   8  -1  -3   73.17    8.97
  -8   1   3   62.54    6.24
  -8  -1   3   57.05    6.42
  -8   1   2   66.15    6.74
  -8  -1   2   71.22    6.93
   8   1  -2   68.44    5.58
   8  -1  -2   71.16    5.52
   8  -1  -2   71.89    4.76
   8   1  -2   65.44    4.68
   8   1  -2   69.13   10.57
   8  -1  -2   70.59    5.39
   8   1  -2   73.14    5.30
   8  -1  -2   79.66    9.43
  -8   1   2   70.41    6.72
  -8  -1   2   71.19    6.89
   8  -1  -1   87.94    4.63
   8   1  -1   85.89    4.84
   8  -1  -1   90.57    5.43
   8   1  -1   81.46    5.26
  -8   1   1   85.37    7.59
   8  -1  -1   88.90    6.17
   8   1  -1   91.43    5.89
   8   1  -1   83.11   11.06
   8  -1  -1   91.17   10.08
   8   1  -1   93.01    6.25
   8  -1  -1   88.54    6.16
   8  -1   0  131.75    6.17
   8   1   0  121.52    6.34
   8  -1   0  120.87    6.44
  -8   1   0  121.88    8.69
   8   1   0  121.52    7.11
   8   1   0  126.19   12.16
   8  -1   0  108.82   11.27
   8  -1   0  108.32    7.08
   8   1   0  117.51    7.28
   8  -1   1  469.71   17.18
   8   1   1  458.28   17.38
   8  -1   1  432.62   18.04
   8   1   1  474.35   22.66
   8  -1   1  429.78   21.49
   8   1   1  444.81   17.89
   8  -1   1  425.96   17.73
   8  -1   1  441.08   17.26
   8  -1   2    3.52    2.75
   8   1   2    3.70    3.09
   8   1   2    2.80    9.07
   8  -1   2    6.69    7.98
   8  -1   2    4.12    3.24
   8   1   2    3.15    3.09
   8   1   2    5.19    3.75
   8  -1   2    2.53    2.53
   8   1   2    3.66    2.56
   8  -1   3    1.95    2.58
   8   1   3    3.20    2.96
   8  -1   3    6.03    7.47
   8  -1   3    0.84    2.78
   8   1   3    4.26    2.85
   8   1   3    4.74    3.64
   8  -1   3    2.35    2.29
   8   1   3    6.41    2.43
   8  -1   4  115.47    5.67
   8   1   4  110.94    5.88
   8  -1   4  103.77    5.56
   8   1   4  110.70    5.77
   8  -1   4  116.33    9.40
   8   1   4  119.23    6.17
   8  -1   4  117.51    5.38
   8   1   4  114.77    5.41
  -8  -2  12   24.46    2.47
  -8   2  12   27.43    2.55
  -8  -2  11 1212.46   42.51
  -8  -2  10  107.05    5.44
   8  -2 -10  124.54   20.12
   8   2  -9  194.41   23.70
   8  -2  -9  187.46   24.21
   8  -2  -9  167.99    7.33
   8   2  -8  119.46   22.66
   8  -2  -8  122.11   24.32
   8   2  -8  187.03   11.99
   8  -2  -8  162.27    7.34
   8   2  -7  142.43   24.23
   8  -2  -7  177.40    7.89
  -8   2   7  152.97    9.55
  -8  -2   7  181.22   10.23
   8  -2  -6   40.91    3.70
  -8  -2   6   39.43    5.38
   8  -2  -6   40.10    6.38
   8   2  -6   44.88   21.34
   8  -2  -6   44.17    4.37
  -8   2   5  160.34    9.15
  -8   2   5  139.93    9.41
  -8  -2   5  144.67    9.90
   8  -2  -5  171.20   10.31
   8   2  -5  165.39   13.02
   8   2  -5  163.46    8.27
   8  -2  -5  171.52    8.11
   8   2  -4   54.84    4.90
   8  -2  -4   49.45    4.66
  -8   2   4   41.19    5.60
  -8  -2   4   48.77    6.07
   8  -2  -4   44.35    3.44
   8   2  -4   58.31   10.09
   8  -2  -4   58.46    7.45
   8   2  -4   37.93   19.29
   8   2  -4   40.93    3.75
  -8  -2   4   51.71    5.97
  -8   2   3    5.45    4.01
  -8  -2   3    9.33    4.36
   8   2  -3    0.60    3.73
   8  -2  -3    7.96    3.70
   8   2  -3    2.61    2.63
   8   2  -3    1.49    8.86
   8  -2  -3    5.31    6.62
   8   2  -3    1.91    2.59
   8   2  -3    3.96   16.55
   8   2  -3    4.12    5.85
  -8  -2   3    1.07    3.97
  -8   2   2   16.64    4.44
  -8  -2   2   22.27    4.75
   8   2  -2   22.85    4.24
   8  -2  -2   21.06    4.08
   8  -2  -2   17.53    2.99
   8   2  -2   17.74    3.11
   8   2  -2   21.79    9.38
   8  -2  -2    8.64    7.33
   8  -2  -2   18.93    3.73
   8   2  -2   20.75    3.43
   8   2  -2   23.31    6.52
  -8  -2   2   17.31    4.59
   8  -2  -1 1371.59   47.46
   8  -2  -1 1333.22   48.15
   8   2  -1 1283.04   48.05
  -8   2   1 1283.57   51.26
   8  -2  -1 1396.44   49.20
   8   2  -1 1400.23   48.67
   8   2  -1 1305.48   52.54
   8   2  -1 1488.09   53.49
   8  -2  -1 1349.30   51.36
   8   2  -1 1400.78   48.77
   8  -2  -1 1366.27   48.56
   8  -2   0  216.07    8.91
   8   2   0  201.62    9.24
   8   2   0  223.52    9.92
   8   2   0  234.66   15.72
   8  -2   0  202.58   13.41
   8   2   0  213.78   10.10
   8  -2   0  210.36    9.97
   8  -2   0  203.66    9.32
   8   2   0  201.09    9.20
   8  -2   1  285.31   10.97
   8   2   1  275.92   11.35
   8  -2   1  250.63   11.86
   8  -2   1  253.35   15.13
   8  -2   1  252.87   11.63
   8   2   1  272.53   11.86
   8  -2   1  262.41   11.11
   8   2   1  253.11   10.97
   8  -2   2  180.32    7.77
   8   2   2  162.16    8.11
   8  -2   2  154.89    8.31
   8   2   2  171.55    8.38
   8  -2   2  174.39   12.14
   8  -2   2  172.88    8.45
   8   2   2  179.70    8.64
   8  -2   2  171.97    7.70
   8   2   2  154.68    7.56
   8  -2   3  477.55   17.27
   8   2   3  429.12   17.54
   8   2   3  437.32   17.61
   8   2   3  500.53   22.36
   8  -2   3  459.72   20.49
   8   2   3  488.60   17.86
   8  -2   3  438.56   17.53
   8  -2   3  452.96   17.04
   8  -2   4   16.37    2.55
   8   2   4    9.38    7.69
   8  -2   4   17.07    6.32
   8   2   4   13.05    2.54
   8   2   4   16.82    3.34
   8  -2   4   12.51    3.08
   8  -2   4   16.63    2.16
  -8  -3  12   80.34    4.25
  -8   3  12  104.48    4.48
  -8  -3  11   34.30    2.97
  -8   3  11   39.60    3.12
   8  -3 -11   37.60   12.68
   8  -3 -10   53.32    3.32
  -8  -3  10   56.60    3.76
  -8   3  10   65.07    3.91
   8  -3 -10   69.44   16.55
   8  -3  -9   92.34    4.85
  -8   3   9  100.18    5.07
   8   3  -8  185.07   23.75
   8   3  -8  212.77   12.96
   8  -3  -8  177.07    7.92
   8   3  -7  146.05   22.42
   8  -3  -7  138.63    6.71
   8  -3  -6   85.06    5.03
   8  -3  -6   80.21    4.25
  -8   3   6   82.03    6.54
  -8  -3   6   83.84    6.97
   8   3  -6   81.62   20.51
   8   3  -6   90.78   10.80
   8  -3  -6   81.67    5.42
   8  -3  -5   82.91    5.17
   8  -3  -5   78.85    4.46
  -8   3   5   85.21    6.67
  -8  -3   5   69.09    6.90
   8   3  -5   85.85   10.87
   8   3  -5   74.52   18.96
   8   3  -5   85.69    5.79
   8  -3  -5   84.29    5.37
   8   3  -4 1067.64   35.92
   8  -3  -4 1000.41   35.59
  -8   3   4  958.10   38.05
  -8  -3   4  918.48   38.45
   8  -3  -4 1004.16   35.16
   8   3  -4  898.72   47.96
   8   3  -4  889.11   35.10
   8   3  -4 1088.60   40.72
   8  -3  -4 1037.25   37.34
  -8   3   4  985.71   37.81
  -8   3   3   24.09    4.69
  -8  -3   3   31.91    5.13
   8   3  -3   29.86    3.34
   8  -3  -3   27.99    3.21
   8   3  -3   40.91   10.09
   8  -3  -3   29.36    6.65
   8   3  -3   21.78    3.08
   8   3  -3   35.23    7.55
   8   3  -3   30.75    4.34
   8  -3  -3   26.96    3.98
   8   3  -2   48.81    4.02
  -8   3   2   43.34    5.75
   8   3  -2   46.31    4.03
   8   3  -2   49.30    7.85
   8  -3  -2   64.72    7.93
   8   3  -2   48.91    4.94
   8  -3  -2   51.24    4.67
   8  -3  -1  294.18   11.60
   8   3  -1  310.82   12.74
   8  -3  -1  309.43   15.68
   8   3  -1  323.33   13.17
   8  -3  -1  304.85   12.88
   8  -3  -1  309.88   12.45
   8   3  -1  291.08   12.36
   8  -3   0  289.69   11.34
   8   3   0  279.63   12.18
   8  -3   0  275.43   15.13
   8   3   0  302.24   12.63
   8  -3   0  288.82   12.43
   8  -3   0  296.37   11.93
   8   3   0  278.11   11.81
   8  -3   1  286.09   11.05
   8   3   1  249.32   11.52
   8   3   1  274.98   17.40
   8  -3   1  263.39   14.74
   8  -3   1  263.95   11.84
   8   3   1  308.28   12.25
   8  -3   1  278.66   11.34
   8   3   1  267.13   11.26
   8  -3   2   80.38    4.66
   8   3   2   78.07   11.30
   8   3   2   69.79    4.99
   8  -3   2   67.79    8.73
   8  -3   2   83.55    5.54
   8   3   2   83.14    5.67
   8  -3   2   86.66    4.71
   8   3   2   74.43    4.62
   8  -3   3   12.40    2.49
   8   3   3    6.86    8.98
   8  -3   3   10.09    6.38
   8   3   3    7.88    2.70
   8   3   3   13.80    3.65
   8  -3   3   11.29    3.31
   8  -3   3   11.04    2.20
   8   3   3   11.40    2.49
   8  -3   4   63.21    3.73
   8   3   4   62.09    8.80
   8   3   4   63.43    4.11
   8  -3   4   56.50    6.65
   8  -3   4   64.76    4.14
   8   3   4   66.75    4.38
   8  -3   4   62.32    3.30
   8   3   4   64.15    3.76
   8  -4 -11  111.74   13.25
  -8  -4  11   84.04    4.47
  -8   4  11  107.86    4.80
   8  -4 -10    4.55   13.70
  -8   4  10   -2.07    2.32
   8  -4 -10   -0.95    1.58
   8  -4  -9   13.38   16.44
  -8   4   9   15.05    2.48
   8  -4  -9   13.17    2.23
   8   4  -8   67.73    9.30
   8  -4  -8   29.49   18.42
   8  -4  -8   47.49    3.53
   8   4  -7   40.04    9.20
   8  -4  -7   36.08    3.26
   8  -4  -7   33.11    2.48
   8  -4  -6  102.42    4.87
   8  -4  -6  107.05    5.53
  -8   4   5  226.22   11.29
  -8  -4   5  206.72   11.88
   8   4  -5  211.41   21.39
   8  -4  -5  194.58    9.30
   8  -4  -5  211.64    9.42
   8  -4  -5  213.91    9.42
   8  -4  -5  220.52    8.93
  -8   4   4   47.47    5.36
  -8  -4   4   71.86    6.91
   8  -4  -4   58.52    3.87
   8   4  -4   57.65    4.07
   8  -4  -4   53.34    3.79
   8   4  -4   65.10    4.99
   8  -4  -4   54.44    4.47
  -8   4   3  518.93   21.73
  -8  -4   3  488.52   22.30
   8  -4  -3  542.68   19.44
   8  -4  -3  505.13   18.85
   8   4  -3  519.79   19.74
   8  -4  -3  527.90   19.61
   8   4  -3  488.59   19.25
   8   4  -3  542.90   25.44
   8   4  -3  494.34   19.51
   8  -4  -2  832.88   29.74
   8   4  -2  803.79   29.64
   8   4  -2  827.48   34.93
   8   4  -2  819.84   29.63
   8   4  -2  793.59   29.81
   8  -4  -2  800.67   28.88
   8   4  -2  804.89   29.86
   8  -4  -2  846.56   29.88
   8   4  -1  120.03    6.26
   8   4  -1  116.16   12.64
   8  -4  -1  123.56    9.19
   8   4  -1  115.45    6.12
   8   4  -1  104.01    6.36
   8  -4  -1  116.02    5.23
   8   4  -1  117.14    6.68
   8  -4  -1  122.78    6.71
   8   4   0   30.16    3.41
   8   4   0   26.17   10.30
   8  -4   0   31.32    7.16
   8   4   0   28.99    3.37
   8  -4   0   32.09    2.28
   8   4   0   31.76    4.34
   8  -4   0   28.36    4.17
   8  -4   0   30.02    2.76
   8  -4   1  125.11    6.00
   8   4   1  114.07    6.14
   8   4   1  119.54    6.40
   8   4   1  124.20   12.73
   8  -4   1  119.89    9.57
   8   4   1  125.06    6.87
   8  -4   1  124.19    6.83
   8  -4   1  125.27    5.82
   8  -4   2   30.31    2.77
   8   4   2   30.11    3.20
   8   4   2   29.19    9.85
   8  -4   2   23.02    6.51
   8   4   2   27.16    3.89
   8  -4   2   29.46    3.81
   8  -4   2   27.95    2.80
   8   4   3   13.13    2.55
   8   4   3    2.76    8.37
   8  -4   3    9.72    5.58
   8   4   3   12.98    2.68
   8  -4   3   15.26    3.08
   8  -4   3   14.53    2.30
   8   4   4   31.29    2.77
   8  -4   4   31.34    2.50
   8   4   4   30.46    7.07
   8  -4   4   22.13    4.99
   8   4   4   34.89    3.08
   8  -4   4   36.42    2.96
   8  -5 -11  285.42   10.93
  -8   5  11  313.66   11.24
   8  -5 -10  398.22   14.99
  -8   5  10  420.70   15.15
   8  -5 -10  384.37   23.68
   8  -5  -9  514.84   18.75
  -8   5   9  516.16   18.69
  -8   5   9  536.46   18.45
   8  -5  -9  475.33   18.96
   8  -5  -8    1.86    2.02
  -8   5   8    2.60    1.75
   8   5  -8    6.79    8.03
   8  -5  -7   14.77    1.98
   8  -5  -7   17.02    2.64
  -8   5   7   16.18    2.19
   8  -5  -6  124.98    6.20
   8  -5  -6  126.45    5.66
  -8   5   6  122.79    5.60
   8  -5  -5  252.45    9.90
  -8   5   5  240.11    9.68
   8  -5  -5  240.72   10.63
   8  -5  -5  236.88   10.16
   8  -5  -4  237.50    9.25
  -8   5   4  210.28    8.78
   8  -5  -4  217.23    9.36
   8  -5  -4  222.99    9.41
   8   5  -4  196.90    9.17
   8   5  -3  157.79    7.33
  -8   5   3  149.67    6.70
   8  -5  -3  168.81    7.28
   8   5  -3  147.75    6.96
   8   5  -3  177.40   13.38
   8  -5  -3  158.11    6.94
   8   5  -3  132.68    7.24
   8  -5  -3  162.18    7.45
   8   5  -2   79.29    4.71
  -8   5   2   72.99    4.22
   8   5  -2   75.31    4.83
  -8   5   2   72.85    4.20
   8  -5  -2   86.89    4.88
   8   5  -2   79.62   11.35
   8   5  -2   68.86    4.52
   8  -5  -2   77.19    4.12
   8   5  -2   82.35    5.00
   8  -5  -2   84.35    5.14
   8   5  -1    0.90    9.56
   8   5  -1    4.26    2.35
  -8   5   1    3.28    1.82
   8   5  -1    5.36    2.53
   8   5  -1    2.85    2.52
   8  -5  -1    4.87    1.72
   8   5  -1    6.00    2.86
   8  -5  -1    4.39    3.21
   8   5   0   34.65   10.15
   8   5   0   34.26    3.39
   8   5   0   31.79    3.35
  -8   5   0   29.92    2.64
   8  -5   0   35.41    2.56
   8  -5   0   42.05    4.13
   8   5   1  478.49   17.64
  -8   5  -1  427.13   17.00
   8   5   1  494.80   17.88
   8   5   1  439.25   22.14
   8  -5   1  474.05   16.90
   8  -5   1  514.55   17.90
   8  -5   1  452.86   17.06
   8   5   2  312.75   12.18
   8   5   2  289.09   16.44
   8  -5   2  287.01   13.79
   8  -5   2  323.46   12.31
   8  -5   2  308.97   11.75
   8   5   3   88.36    4.54
   8  -5   3   80.53    4.12
   8   5   3   85.66    4.77
   8   5   3   81.25    8.89
   8  -5   3   68.28    6.18
   8  -5   3   89.85    4.63
   8  -6 -10    0.15    1.49
   8  -6 -10   -2.32    8.88
  -8   6  10    0.54    1.76
  -8   6  10    1.81    1.31
   8  -6  -9  326.36   11.90
  -8   6   9  322.71   11.55
   8  -6  -8  439.00   15.98
   8  -6  -8  416.72   15.43
  -8   6   8  442.18   15.65
   8  -6  -7  276.85   10.75
  -8   6   7  284.93   10.83
   8  -6  -6  108.15    5.07
  -8   6   6  107.46    5.05
   8  -6  -6   93.71    6.35
   8   6  -6  105.76   10.65
  -8   6   5   15.91    2.30
   8  -6  -5   18.66    2.78
   8  -6  -5   17.44    2.31
   8  -6  -5   15.28    3.28
   8   6  -4   12.79    8.69
   8   6  -4    6.52    2.17
  -8   6   4    8.78    2.18
   8  -6  -4   12.57    2.30
   8  -6  -4   10.57    2.63
   8  -6  -4   11.41    2.64
   8   6  -3  250.66   10.46
  -8   6   3  245.79   10.04
   8  -6  -3  261.42   10.46
   8  -6  -3  267.65   10.37
   8  -6  -3  265.98   10.39
   8   6  -3  236.83   10.10
   8   6  -2    1.90    8.78
   8   6  -2    2.72    2.09
  -8   6   2    3.22    1.98
   8  -6  -2    7.08    2.40
   8   6  -2    2.64    2.29
  -8   6   2   -1.12    1.84
   8  -6  -2    1.30    1.84
   8  -6  -2    2.44    2.60
   8   6  -1  251.22   10.17
   8   6  -1  225.39   15.06
  -8   6   1  234.46    9.88
   8   6  -1  233.58   10.39
   8  -6  -1  255.82    9.77
   8  -6  -1  262.50   10.25
   8   6   0  107.63    5.60
   8   6   0  108.79   11.06
  -8   6   0  104.30    5.21
   8  -6   0  109.90    5.00
   8  -6   0  123.40    5.79
   8   6   1   -0.22    7.75
   8   6   1    1.96    2.11
  -8   6  -1    0.40    1.56
   8   6   1   -0.80    2.28
   8  -6   1    0.45    1.42
   8  -6   1    0.20    2.53
  -8   6  -2  148.90    6.43
   8  -6   2  156.84    6.51
   8  -6   2  180.41    6.94
   8   6   2  172.04    7.30
   8   6   2  160.04   10.63
   8  -6   3  524.67   19.67
   8  -6   3  592.41   19.73
   8  -7 -10  128.57    5.05
  -8   7  10  123.16    4.73
   8  -7  -9   14.96    2.31
  -8   7   9   15.70    1.76
   8  -7  -9   19.70    2.11
  -8   7   8   61.50    3.29
   8  -7  -8   57.00    3.06
  -8   7   7  251.66    9.59
   8  -7  -7  238.72    9.85
   8  -7  -7  246.55    9.53
  -8   7   6   69.55    3.81
   8  -7  -6   61.83    5.14
   8  -7  -6   70.12    3.78
   8  -7  -6   71.43    4.14
  -8   7   5  316.21   11.80
   8  -7  -5  302.69   11.82
   8  -7  -5  306.60   12.16
   8   7  -5  314.98   16.19
   8  -7  -5  294.06   12.59
   8  -7  -4  238.25    9.41
  -8   7   4  237.99    9.24
   8   7  -4  214.07    9.28
   8  -7  -4  229.26    9.72
   8  -7  -3  210.16    8.72
  -8   7   3  207.84    8.51
   8  -7  -3  216.93    8.89
   8   7  -3  198.43    8.70
   8   7  -2   94.68    5.14
  -8   7   2  100.51    4.88
   8  -7  -2   97.30    5.12
   8   7  -2   85.46    4.78
   8   7  -2  102.64    9.94
   8  -7  -2  111.35    5.04
  -8   7   1  126.83    6.14
   8   7  -1  132.86    6.52
   8   7  -1  136.47    6.30
   8  -7  -1  150.31    6.14
  -8   7   1  139.31    6.11
   8  -7   0  133.89    5.56
  -8   7   0  126.55    5.69
   8   7   0  118.58    5.90
   8  -7   1    8.38    1.59
  -8   7  -1   10.23    1.75
   8   7   1    6.32    2.34
   8   7   1   10.12    2.20
   8  -7   2   25.77    1.82
  -8   7  -2   25.31    1.91
   8   7   2   24.20    2.63
   8  -8  -8  238.17    8.80
   8  -8  -8  219.72    8.40
  -8   8   8  226.61    8.49
   8  -8  -7   98.80    4.53
   8  -8  -7  107.80    4.91
  -8   8   7  102.10    4.61
   8  -8  -6    7.87    1.69
  -8   8   6    6.83    1.81
   8  -8  -6   10.51    2.03
  -8   8   5   35.17    2.68
   8  -8  -5   30.53    2.56
   8   8  -5   41.82    7.08
   8  -8  -5   35.10    3.78
   8   8  -4   21.63    2.37
  -8   8   4   28.64    2.57
   8  -8  -4   30.01    2.57
   8   8  -4   32.85    6.92
   8  -8  -4   29.98    3.24
   8   8  -3  218.71    9.19
  -8   8   3  234.78    9.08
   8  -8  -3  225.68    9.17
   8   8  -3  232.08   12.42
   8  -8  -3  234.30    9.40
  -8   8   2  201.95    8.14
   8   8  -2  211.00   11.08
   8  -8  -2  204.96    8.32
   8   8  -2  195.46    8.40
  -8   8   1  144.90    6.16
   8   8  -1  135.26    6.21
   8  -8  -1  153.41    6.25
   8   8  -1  142.27    6.56
  -8   8   0  126.98    5.53
   8   8   0  130.29    5.87
   8  -8   0  142.70    5.70
  -8   8   0  125.76    5.62
   8   8   0  125.05    6.08
  -8   8  -1    8.82    1.48
   8  -8   1    8.89    1.39
   8   8   1   10.58    2.23
  -8   8  -1    9.35    1.52
   8   8   1    9.91    2.06
  -8   9   7    0.55    1.33
   8  -9  -7    2.27    1.22
   8  -9  -7   -5.86    8.01
  -8   9   6   36.12    2.35
   8   9  -6   26.22   12.87
   8  -9  -6   33.82    2.32
  -8   9   5   34.14    2.36
   8  -9  -5   31.56    2.34
  -8   9   4   -0.75    1.60
   8  -9  -4    0.84    1.48
   8  -9  -4   -0.59    2.39
  -8   9   3    3.10    1.74
   8  -9  -3    1.29    2.32
   8   9  -3    7.04    1.69
  -8   9   2  146.50    6.01
   8  -9  -2  149.21    6.45
   8   9  -2  137.22    6.22
  -8   9   1    3.19    1.54
   8   9  -1    4.98    1.89
   8  -9  -1    3.03    1.65
   9   0  -8   -1.37    5.32
   9   0  -8   -4.60   16.94
   9   0  -7   16.66    5.98
   9   0  -7   15.50   18.72
   9   0  -6    1.74    6.06
   9   0  -6    5.10   19.24
   9   0  -5  141.44   24.45
   9   0  -5  238.43   13.07
   9   0  -4    2.18    6.95
   9   0  -4    2.43   17.99
   9   0  -3   78.71    5.13
   9   0  -3   96.45    9.16
   9   0  -2    3.17    7.13
   9   0  -2   -1.51    2.78
   9   0  -1 1533.84   54.19
   9   0  -1 1509.89   56.65
   9   0   0   -0.32    2.37
   9   0   0    1.68    7.01
   9   0   0    3.31    2.81
   9   0   0   -0.36    3.17
   9   0   1   14.05    2.44
   9   0   1   11.09    6.58
   9   0   1   14.24    3.26
   9   0   2   -1.19    1.84
   9   0   2    0.98    5.86
   9   0   2    1.67    2.28
   9   0   2    0.41    2.57
   9  -1 -10    1.65   13.20
   9   1  -9  117.22   18.71
   9  -1  -9  108.00   19.48
   9   1  -8  505.12   33.95
   9  -1  -8  515.21   21.24
   9  -1  -7   26.92    5.61
   9   1  -7    8.72   18.09
   9  -1  -7   18.94   18.48
   9   1  -6   27.48    7.30
   9   1  -6   13.01   18.03
   9  -1  -6   -7.60   19.26
   9  -1  -6   23.86    3.78
   9   1  -5   61.35    8.74
   9  -1  -5   79.26    7.89
   9   1  -5   69.88    5.16
   9  -1  -5   71.85    5.10
   9   1  -4  762.77   28.16
   9  -1  -4  718.42   26.95
   9   1  -4  711.25   24.58
   9  -1  -4  687.01   24.45
   9   1  -3  312.62   13.27
   9   1  -3  362.70   17.34
   9  -1  -3  362.37   16.44
   9   1  -3  343.04   13.55
   9  -1  -3  324.00   13.43
   9   1  -2    0.70    2.33
   9   1  -2    3.34    7.51
   9  -1  -2    5.45    6.80
   9  -1  -2   -1.16    2.90
   9   1  -2    0.34    2.75
   9   1  -2   -2.72    3.46
   9  -1  -2   -0.20    3.30
   9  -1  -1   77.66    4.63
   9   1  -1   76.59    4.63
   9  -1  -1   73.98    5.27
   9   1  -1   75.10    5.18
   9   1  -1   75.80    9.36
   9  -1  -1   83.34    8.70
   9   1  -1   83.04    5.37
   9  -1  -1   80.87    5.29
   9  -1   0   -0.08    2.32
   9   1   0   -0.66    7.30
   9  -1   0    5.48    6.63
   9   1   0    0.64    2.80
   9   1   0    0.18    3.14
   9  -1   1  394.98   15.07
   9  -1   1  393.71   15.61
   9   1   1  407.85   18.58
   9  -1   1  390.67   17.92
   9   1   1  413.69   15.45
   9  -1   2   63.71    3.58
   9   1   2   60.22    7.54
   9  -1   2   57.23    6.79
   9   1   2   63.31    4.08
   9   1   2   65.93    4.17
   9  -2 -10  197.91   18.69
   9  -2  -9   32.04   15.83
   9   2  -8    2.59    6.12
   9   2  -8   26.59   16.17
   9  -2  -8    2.94   17.14
   9   2  -7  165.59   21.59
   9   2  -7  190.63   11.92
   9   2  -6  886.96   45.79
   9   2  -5  104.71    6.23
   9  -2  -5  106.10    5.95
   9  -2  -4  190.25   10.64
   9   2  -4  215.87   12.95
   9   2  -4  201.03    8.73
   9  -2  -4  190.56    8.47
   9   2  -3  366.92   17.69
   9  -2  -3  341.99   15.86
   9   2  -3  371.89   13.85
   9  -2  -3  338.87   13.60
   9   2  -2  111.75    6.49
   9   2  -2  135.19   11.46
   9  -2  -2  130.70    9.63
   9   2  -2  138.34    6.95
   9  -2  -2  133.88    6.81
   9   2  -1   13.81    2.66
   9   2  -1   15.99    8.32
   9  -2  -1   11.75    6.44
   9   2  -1   13.74    3.05
   9   2  -1   18.88    3.58
   9  -2  -1   19.59    3.63
   9   2   0   31.94    3.06
   9   2   0   38.15    8.36
   9  -2   0   28.61    6.76
   9   2   0   27.13    3.43
   9   2   0   31.08    3.81
   9  -2   0   30.68    3.70
   9  -2   1   21.55    2.52
   9   2   1   23.06    2.67
   9  -2   1   21.83    6.16
   9   2   1   23.93    3.41
   9  -2   1   28.85    3.35
   9   2   2   94.70    4.78
   9   2   2   90.87    5.10
   9  -2   2  112.15    7.65
   9   2   2  113.08    5.30
   9  -2   2  110.34    5.24
   9  -3 -10   96.92   14.22
   9  -3  -9  195.42   20.98
   9   3  -9  262.74   12.84
   9  -3  -8  266.63   27.13
   9   3  -8  455.93   18.90
   9   3  -7   -1.70    7.00
   9   3  -6   -0.63   15.00
   9   3  -5   16.75   13.37
   9  -3  -5   11.44    3.14
   9   3  -4   54.70    9.05
   9   3  -4   45.02    4.38
   9  -3  -4   45.11    4.09
   9   3  -3  151.99    7.59
   9   3  -3  168.10   12.34
   9  -3  -3  172.71    9.86
   9   3  -3  189.53    8.21
   9  -3  -3  175.85    8.03
   9   3  -2  108.54    6.31
   9   3  -2  156.18   11.69
   9  -3  -2  127.51    8.84
   9   3  -2  131.72    6.71
   9  -3  -2  134.88    6.68
   9   3  -1    0.08    2.28
   9  -3  -1   -3.18    5.54
   9   3  -1    0.19    2.45
   9   3  -1    2.77    3.19
   9  -3  -1    0.26    2.99
   9   3   0   32.59    3.02
   9  -3   0   26.52    5.96
   9   3   0   32.31    3.37
   9   3   0   34.91    3.70
   9  -3   0   38.34    3.68
   9   3   1  566.03   21.49
   9   3   1  580.77   21.95
   9   3   1  659.39   25.45
   9  -3   1  566.59   23.29
   9   3   1  620.33   21.72
   9  -3   1  616.73   21.80
   9   3   2    1.88    1.79
   9   3   2   -1.81    6.07
   9  -3   2    0.11    4.40
   9  -3   2    0.90    2.21
   9  -4 -10   50.49   11.28
   9  -4  -9  231.49   20.00
   9  -4  -8   85.60   17.10
   9   4  -8  154.88   10.06
   9   4  -7   89.77    9.21
   9   4  -5    5.26    8.18
   9  -4  -5   -1.04    2.79
   9  -4  -4   13.10    3.07
   9   4  -3   92.24    5.10
   9   4  -3  102.85    5.68
   9  -4  -3  112.95    5.69
   9   4  -2  142.75    6.74
   9  -4  -2  145.03    6.73
   9   4  -1  431.39   19.21
   9  -4  -1  409.38   14.90
   9   4   0  283.47   10.95
   9   4   0  257.53   11.20
   9   4   0  298.61   15.38
   9  -4   0  295.13   11.23
   9   4   1    1.83    1.88
   9   4   1    0.92    7.00
   9  -4   1    0.29    3.93
   9   4   1    3.01    2.13
   9  -4   1    3.58    2.39
   9  -5  -9   27.69   11.61
   9  -5  -8   33.51   14.25
   9   5  -7  161.02   10.79
   9  -5  -5  194.33    7.78
   9  -5  -4  330.00   12.76
   9  -5  -3   13.42    2.79
   9   5  -2   -0.67    7.73
   9   5  -2    1.24    2.04
   9  -5  -2    2.18    2.51
   9   5  -1   30.91    7.79
   9   5  -1   23.33    2.78
   9  -5  -1   32.38    3.10
   9   5   0   21.43    7.37
   9   5   0   19.35    2.58
   9  -5   0   18.92    2.59
   9   5   1    0.75    5.98
   9   5   1    1.71    1.92
   9  -5   1    2.10    1.82
   9  -6  -8    9.57   11.11
   9   6  -6  188.79   11.40
   9  -6  -5  137.14    5.84
   9   6  -5  152.50   10.46
   9   6  -2  141.42   10.20
   9  -6  -2  143.68    6.17
   9   6  -1   34.71    2.82
   9  -6  -1   39.76    2.79
   9   6   0  174.14    7.81
   9  -6   0  207.07    7.48
   9  -7  -7   -3.21   10.47
   9  -7  -6   29.48    2.02
   9   7  -6   36.09    6.36
   9  -7  -5   64.65    3.26
   9   7  -5   72.48    7.38
   9   7  -4    0.48    5.98
   9   7  -3   50.89    6.89
  10   0  -8  267.50   20.13
  10   0  -7    1.95    4.18
  10   0  -7   -6.55   12.61
  10   0  -6  810.90   43.96
  10   0  -6 1054.14   36.89
  10   0  -5   10.74   12.96
  10   0  -3    1.53    2.55
  10   0  -3    3.28    5.19
  10   0  -2   21.56    2.87
  10   0  -2   20.62    5.35
  10   0  -1    0.51    2.12
  10   0  -1   -1.12    4.75
  10  -1  -9    6.72   10.36
  10  -1  -8  439.38   25.67
  10   1  -7   26.35    5.07
  10   1  -7   19.25   12.46
  10  -1  -7    3.59   13.25
  10   1  -6   42.82   13.38
  10  -1  -6   35.59   14.35
  10  -1  -6   57.25    5.21
  10  -1  -5    0.52   12.78
  10   1  -4   43.14    3.62
  10  -1  -4   46.90    3.59
  10   1  -3  503.52   18.58
  10  -1  -3  488.22   20.03
  10   1  -3  526.30   20.86
  10   1  -2    0.81    2.37
  10  -1  -2    0.37    4.54
  10   1  -2    4.81    5.35
  10   1  -1   55.97    3.52
  10   1  -1   49.84    5.97
  10  -1  -1   53.17    5.45
  10  -2  -8   -3.19   11.99
  10   2  -7   42.38    5.75
  10  -2  -7   34.51   13.41
  10   2  -6   34.82    6.00
  10  -2  -6    9.90   13.28
  10  -2  -5   20.10   13.11
  10  -2  -4   18.62    2.83
  10  -2  -4   12.29    4.18
  10  -2  -4   10.47   11.95
  10   2  -3    0.32    2.47
  10  -2  -3   -0.19    2.35
  10   2  -3   -2.37    5.75
  10   2  -2    7.65    2.40
  10  -2  -2   11.08    2.48
  10  -2  -2    3.99    4.09
  10   2  -2    8.68    5.47
  10   2  -1  865.21   30.54
  10  -2  -1  884.52   30.62
  10  -2  -1  827.08   31.41
  10   2  -1  911.88   32.61
  10   3  -7   -0.80    4.82
  10  -3  -7   -3.28   12.31
  10   3  -6    6.88    5.41
  10  -3  -6   -5.89   13.15
  10  -3  -5    7.81   12.53
  10  -3  -4  121.35    5.51
  10   3  -4  112.11    8.43
  10  -3  -3  211.10    8.15
  10  -3  -3   92.56   14.35
  10  -3  -2    1.66    2.09
  10   3  -2    8.36    5.45
  10   4  -7   38.39    5.55
  10  -4  -6  101.00   15.40
  10   4  -6  225.94   10.59
  10  -4  -5   -5.30   11.39
  10  -4  -3   11.17    2.12
   0   0   0    0.00    0.00


TITL 2020VKWSeCl4_2B in P2(1)/n
REM P2(1)/n (#14 in standard setting)
CELL 1.54184   8.863903  12.414932  12.100283  90.0000 111.1247  90.0000
ZERR   10.00   0.000205   0.000206   0.000250   0.0000   0.0025   0.0000
LATT  1
SYMM -x+1/2, y+1/2,-z+1/2
SFAC Cl Se W
UNIT 40.00 10.00 10.00
TREF
HKLF 4
END
_computing_structure_solution     'SHELXT 2018/2 (Sheldrick, 2018)'
;
_shelx_hkl_checksum              73296
_olex2_submission_special_instructions 'No special instructions were received'
_oxdiff_exptl_absorpt_empirical_details
;
Empirical correction (ABSPACK) includes:
- Absorption correction using spherical harmonics
- Frame scaling
;
_oxdiff_exptl_absorpt_empirical_full_max 6.604
_oxdiff_exptl_absorpt_empirical_full_min 0.477
loop_
_space_group_symop_operation_xyz
'x, y, z'
'-x+1/2, y+1/2, -z+1/2'
'-x, -y, -z'
'x-1/2, -y-1/2, z-1/2'
loop_
_atom_site_label
_atom_site_type_symbol
_atom_site_fract_x
_atom_site_fract_y
_atom_site_fract_z
_atom_site_U_iso_or_equiv
_atom_site_adp_type
_atom_site_occupancy
_atom_site_site_symmetry_order
_atom_site_calc_flag
_atom_site_refinement_flags_posn
_atom_site_refinement_flags_adp
_atom_site_refinement_flags_occupancy
_atom_site_disorder_assembly
_atom_site_disorder_group
W2 W 0.62837(2) 0.86244(2) 0.57196(2) 0.01076(7) Uani 1 1 d . . . . .
W1 W 0.29484(2) 0.59346(2) 0.65841(2) 0.01108(6) Uani 1 1 d . . . . .
Se1 Se 0.23976(5) 0.44775(3) 0.74179(3) 0.01694(10) Uani 1 1 d . . . . .
Se2 Se 0.75296(5) 0.78567(3) 0.74624(3) 0.01634(10) Uani 1 1 d . . . . .
Cl3 Cl 0.53720(10) 0.54714(7) 0.64322(7) 0.01512(18) Uani 1 1 d . . . . .
Cl5 Cl 0.36473(10) 0.80563(6) 0.54246(7) 0.01358(18) Uani 1 1 d . . . . .
Cl7 Cl 0.83597(10) 0.95397(7) 0.54650(7) 0.01548(18) Uani 1 1 d . . . . .
Cl6 Cl 0.55214(10) 1.02614(7) 0.64268(7) 0.01354(17) Uani 1 1 d . . . . .
Cl8 Cl 0.64284(10) 0.73069(7) 0.44621(7) 0.01581(18) Uani 1 1 d . . . . .
Cl2 Cl 0.43905(11) 0.69382(7) 0.82284(7) 0.01536(18) Uani 1 1 d . . . . .
Cl4 Cl 0.17410(11) 0.55425(7) 0.45966(7) 0.01712(19) Uani 1 1 d . . . . .
Cl1 Cl 0.07405(11) 0.70047(7) 0.63800(8) 0.01739(19) Uani 1 1 d . . . . .
loop_
_atom_site_aniso_label
_atom_site_aniso_U_11
_atom_site_aniso_U_22
_atom_site_aniso_U_33
_atom_site_aniso_U_23
_atom_site_aniso_U_13
_atom_site_aniso_U_12
W2 0.01111(10) 0.00977(10) 0.01094(10) 0.00002(5) 0.00343(7) -0.00002(6)
W1 0.01187(10) 0.01021(10) 0.01103(10) 0.00000(5) 0.00398(7) 0.00040(6)
Se1 0.0207(2) 0.0132(2) 0.0188(2) 0.00226(14) 0.00943(17) -0.00093(15)
Se2 0.0162(2) 0.0176(2) 0.01291(19) 0.00307(14) 0.00246(16) 0.00168(15)
Cl3 0.0142(4) 0.0145(4) 0.0171(4) -0.0003(3) 0.0062(3) 0.0020(3)
Cl5 0.0129(4) 0.0128(4) 0.0143(4) 0.0004(3) 0.0041(3) -0.0007(3)
Cl7 0.0124(4) 0.0167(4) 0.0177(4) -0.0002(3) 0.0058(3) -0.0028(3)
Cl6 0.0151(4) 0.0121(4) 0.0128(4) -0.0019(3) 0.0043(3) -0.0001(3)
Cl8 0.0175(4) 0.0141(4) 0.0160(4) -0.0025(3) 0.0062(3) 0.0006(3)
Cl2 0.0174(4) 0.0149(4) 0.0124(4) -0.0025(3) 0.0037(3) -0.0012(3)
Cl4 0.0178(4) 0.0194(4) 0.0126(4) -0.0021(3) 0.0035(3) -0.0021(3)
Cl1 0.0140(4) 0.0168(4) 0.0209(4) -0.0002(3) 0.0058(3) 0.0032(3)
loop_
_atom_type_symbol
_atom_type_description
_atom_type_scat_dispersion_real
_atom_type_scat_dispersion_imag
_atom_type_scat_source
Cl Cl 0.3639 0.7018 'International Tables Vol C Tables 4.2.6.8 and 6.1.1.4'
Se Se -0.7943 1.1372 'International Tables Vol C Tables 4.2.6.8 and 6.1.1.4'
W W -5.4734 5.5774 'International Tables Vol C Tables 4.2.6.8 and 6.1.1.4'
loop_
_geom_angle_atom_site_label_1
_geom_angle_atom_site_label_2
_geom_angle_atom_site_label_3
_geom_angle
_geom_angle_site_symmetry_1
_geom_angle_site_symmetry_3
_geom_angle_publ_flag
Se2 W2 Cl5 98.24(2) . . ?
Se2 W2 Cl7 101.18(2) . . ?
Se2 W2 Cl6 97.65(2) . . ?
Se2 W2 Cl8 101.49(2) . . ?
Cl5 W2 Cl6 85.15(3) . . ?
Cl7 W2 Cl5 160.17(3) . . ?
Cl7 W2 Cl6 88.32(3) . . ?
Cl8 W2 Cl5 88.58(3) . . ?
Cl8 W2 Cl7 91.45(3) . . ?
Cl8 W2 Cl6 160.52(3) . . ?
Se1 W1 Cl3 101.46(2) . . ?
Se1 W1 Cl2 101.15(2) . . ?
Se1 W1 Cl4 101.98(2) . . ?
Se1 W1 Cl1 101.66(3) . . ?
Cl3 W1 Cl2 87.74(3) . . ?
Cl3 W1 Cl4 87.68(3) . . ?
Cl3 W1 Cl1 156.88(3) . . ?
Cl4 W1 Cl2 156.87(3) . . ?
Cl1 W1 Cl2 88.06(3) . . ?
Cl1 W1 Cl4 87.30(3) . . ?
loop_
_geom_bond_atom_site_label_1
_geom_bond_atom_site_label_2
_geom_bond_distance
_geom_bond_site_symmetry_2
_geom_bond_publ_flag
W2 Se2 2.2128(4) . ?
W2 Cl5 2.3419(8) . ?
W2 Cl7 2.2762(9) . ?
W2 Cl6 2.3949(8) . ?
W2 Cl8 2.2689(8) . ?
W1 Se1 2.2099(4) . ?
W1 Cl3 2.2944(9) . ?
W1 Cl2 2.3048(8) . ?
W1 Cl4 2.3045(8) . ?
W1 Cl1 2.3038(9) . ?
