#------------------------------------------------------------------------------
#$Date: 2022-02-15 01:54:55 +0200 (Tue, 15 Feb 2022) $
#$Revision: 272955 $
#$URL: file:///home/coder/svn-repositories/cod/cif/7/70/94/7709479.cif $
#------------------------------------------------------------------------------
#
# This file is available in the Crystallography Open Database (COD),
# http://www.crystallography.net/
#
# All data on this site have been placed in the public domain by the
# contributors.
#
data_7709479
loop_
_publ_author_name
'Li, Gang-Mei'
'Liang, Zhen-Gang'
'Xue, Zhenzhen'
'Han, Song-De'
'Pan, Jie'
'Wang, Guo-Ming'
_publ_section_title
;
 Inserting protonated phenanthroline derivatives to interchain voids of
 anionic halometallate units to generate hybrid materials with tunable
 photochromic performance
;
_journal_name_full               'Dalton Transactions'
_journal_paper_doi               10.1039/D2DT00190J
_journal_year                    2022
_chemical_formula_moiety         'C12 H12 Bi Cl4 N3 O'
_chemical_formula_sum            'C12 H12 Bi Cl4 N3 O'
_chemical_formula_weight         565.01
_space_group_crystal_system      triclinic
_space_group_IT_number           2
_space_group_name_Hall           '-P 1'
_space_group_name_H-M_alt        'P -1'
_atom_sites_solution_hydrogens   mixed
_audit_creation_method           SHELXL-2016/6
_audit_update_record
;
2021-12-13 deposited with the CCDC.	2022-02-14 downloaded from the CCDC.
;
_cell_angle_alpha                93.110(6)
_cell_angle_beta                 104.131(5)
_cell_angle_gamma                109.667(7)
_cell_formula_units_Z            2
_cell_length_a                   7.2209(4)
_cell_length_b                   10.1824(9)
_cell_length_c                   12.1346(8)
_cell_measurement_reflns_used    3584
_cell_measurement_temperature    100(2)
_cell_measurement_theta_max      30.7660
_cell_measurement_theta_min      2.1330
_cell_volume                     805.60(11)
_computing_cell_refinement       'CrysAlisPro 1.171.41.110a (Rigaku OD, 2021)'
_computing_data_collection       'CrysAlisPro 1.171.41.110a (Rigaku OD, 2021)'
_computing_data_reduction        'CrysAlisPro 1.171.41.110a (Rigaku OD, 2021)'
_computing_structure_refinement  'SHELXL-2016/6 (Sheldrick, 2016)'
_computing_structure_solution    'SHELXT 2018/2 (Sheldrick, 2018)'
_diffrn_ambient_temperature      100(2)
_diffrn_measured_fraction_theta_full 0.998
_diffrn_measured_fraction_theta_max 0.998
_diffrn_measurement_device_type  'XtaLAB Synergy R, DW system, HyPix'
_diffrn_radiation_type           MoK\a
_diffrn_radiation_wavelength     0.71073
_diffrn_reflns_av_R_equivalents  0.0538
_diffrn_reflns_av_unetI/netI     0.0584
_diffrn_reflns_Laue_measured_fraction_full 0.998
_diffrn_reflns_Laue_measured_fraction_max 0.998
_diffrn_reflns_limit_h_max       7
_diffrn_reflns_limit_h_min       -8
_diffrn_reflns_limit_k_max       11
_diffrn_reflns_limit_k_min       -12
_diffrn_reflns_limit_l_max       14
_diffrn_reflns_limit_l_min       -14
_diffrn_reflns_number            8052
_diffrn_reflns_point_group_measured_fraction_full 0.998
_diffrn_reflns_point_group_measured_fraction_max 0.998
_diffrn_reflns_theta_full        25.004
_diffrn_reflns_theta_max         25.004
_diffrn_reflns_theta_min         2.148
_diffrn_source                   'Rotating-anode X-ray tube'
_exptl_absorpt_coefficient_mu    11.598
_exptl_absorpt_correction_T_max  0.098
_exptl_absorpt_correction_T_min  0.043
_exptl_absorpt_correction_type   multi-scan
_exptl_crystal_colour            orange
_exptl_crystal_density_diffrn    2.255
_exptl_crystal_description       needle-like
_exptl_crystal_F_000             508
_exptl_crystal_size_max          0.25
_exptl_crystal_size_mid          0.12
_exptl_crystal_size_min          0.1
_refine_diff_density_max         2.264
_refine_diff_density_min         -1.808
_refine_diff_density_rms         0.226
_refine_ls_extinction_method     none
_refine_ls_goodness_of_fit_ref   1.072
_refine_ls_hydrogen_treatment    constr
_refine_ls_matrix_type           full
_refine_ls_number_parameters     182
_refine_ls_number_reflns         2836
_refine_ls_number_restraints     364
_refine_ls_restrained_S_all      1.075
_refine_ls_R_factor_all          0.0690
_refine_ls_R_factor_gt           0.0508
_refine_ls_shift/su_max          0.022
_refine_ls_shift/su_mean         0.001
_refine_ls_structure_factor_coef Fsqd
_refine_ls_weighting_details
'w=1/[\s^2^(Fo^2^)+(0.0877P)^2^] where P=(Fo^2^+2Fc^2^)/3'
_refine_ls_weighting_scheme      calc
_refine_ls_wR_factor_gt          0.1333
_refine_ls_wR_factor_ref         0.1403
_reflns_Friedel_coverage         0.000
_reflns_number_gt                2214
_reflns_number_total             2836
_reflns_threshold_expression     'I > 2\s(I)'
_cod_data_source_file            d2dt00190j2.cif
_cod_data_source_block           4_auto_sq
_cod_database_code               7709479
_shelx_shelxl_version_number     2016/6
_shelx_space_group_comment
;
The symmetry employed for this shelxl refinement is uniquely defined
by the following loop, which should always be used as a source of
symmetry information in preference to the above space-group names.
They are only intended as comments.
;
_shelx_res_file
;
TITL 4_auto_a.res in P-1
    4_auto_sq.res
    created by SHELXL-2016/6 at 16:19:23 on 02-Nov-2021
REM Old TITL 4_auto in P1
REM SHELXT solution in P-1: R1 0.205, Rweak 0.007, Alpha 0.110
REM <I/s> 0.000 for 0 systematic absences, Orientation as input
REM Formula found by SHELXT: C12 N O5 I
CELL 0.71073 7.2209 10.1824 12.1346 93.11 104.131 109.667
ZERR 2 0.0004 0.0009 0.0008 0.006 0.005 0.007
LATT 1
SFAC C H Bi Cl N
UNIT 24 20 2 8 6
SADI 0.01 C4 C5 C5 C6 C6 C7 C7 C8 C8 C9 C9 C4
SADI 0.01 N1 C1 C1 C2 C2 C3 C3 C4 C4 C5 C5 N1
SADI 0.01 C6 C7 C7 C10 C10 C11 C11 C12 C12 N2 N2 C6
FLAT 0.02 N1 N2 N3 C1 C2 C3 C4 C5 C6 C7 C8 C10 C11 C12
DELU N1 > C12
SIMU 0.01 0.02 2 N1 > C12
ISOR 0.01 0.02 N1 > C12
omit 0.00 50.02
L.S. 5 0 12
PLAN  20
TEMP -173
BOND
ABIN
fmap 2
acta
REM <olex2.extras>
REM <HklSrc "%.\\4_auto_sq.hkl">
REM </olex2.extras>

WGHT    0.087700
FVAR       0.28043
BI00  3    0.760614    0.080352    0.940363    11.00000    0.04000    0.06325 =
         0.04818    0.00984    0.01660    0.03698
CL00  4    0.553086    0.193553    1.047447    11.00000    0.04288    0.05693 =
         0.05221    0.00355    0.01507    0.03337
CL1   4    0.974726   -0.048434    0.843459    11.00000    0.04402    0.06468 =
         0.04873    0.00814    0.02102    0.03237
CL2   4    1.004726    0.323628    0.938254    11.00000    0.05585    0.06715 =
         0.05634    0.01704    0.01996    0.03538
CL3   4    0.531486    0.069147    0.744124    11.00000    0.06277    0.09120 =
         0.05847    0.00906    0.00567    0.04945
N1    5    0.054277    0.315134    0.450558    11.00000    0.06572    0.09190 =
         0.07171   -0.00205    0.02009    0.05062
AFIX  43
H1    2    0.019025    0.239071    0.483449    10.50000   -1.20000
AFIX   0
N2    5    0.247537    0.320819    0.672728    11.00000    0.07544    0.09652 =
         0.06965    0.01221    0.02743    0.06276
AFIX  43
H2    2    0.149506    0.242838    0.633483    10.50000   -1.20000
AFIX   0
N3    5    0.494267    0.804102    0.490599    11.00000    0.14260    0.10064 =
         0.15837    0.04208    0.06443    0.07129
AFIX   7
H3A   2    0.399574    0.847199    0.463676    11.00000   -1.20000
H3B   2    0.599718    0.874758    0.545367    11.00000   -1.20000
AFIX   0
C1    1   -0.038190    0.318548    0.338226    11.00000    0.06536    0.08853 =
         0.06880   -0.00272    0.01805    0.05264
AFIX  43
H1A   2   -0.143973    0.234227    0.296057    11.00000   -1.20000
AFIX   0
C2    1    0.008796    0.433640    0.280974    11.00000    0.07128    0.08603 =
         0.07375    0.00295    0.02966    0.05018
AFIX  43
H2A   2   -0.060754    0.429713    0.202846    11.00000   -1.20000
AFIX   0
C3    1    0.161800    0.553789    0.343727    11.00000    0.07046    0.08361 =
         0.06309    0.01090    0.02640    0.05472
AFIX  43
H3    2    0.199682    0.635810    0.308091    11.00000   -1.20000
AFIX   0
C4    1    0.261933    0.559162    0.456510    11.00000    0.06839    0.08573 =
         0.06686    0.00599    0.02643    0.05802
C5    1    0.206564    0.439906    0.507950    11.00000    0.06455    0.08616 =
         0.06038    0.00077    0.02390    0.05572
C6    1    0.303788    0.440538    0.621917    11.00000    0.06525    0.09029 =
         0.06345    0.00351    0.02416    0.05739
C7    1    0.458001    0.560271    0.686418    11.00000    0.06521    0.08909 =
         0.06978   -0.00196    0.01954    0.05909
C8    1    0.521152    0.682874    0.640962    11.00000    0.09049    0.10395 =
         0.09086    0.00151    0.01916    0.04606
AFIX  43
H8    2    0.629592    0.765705    0.683601    11.00000   -1.20000
AFIX   0
C9    1    0.414371    0.676169    0.528215    11.00000    0.09860    0.10171 =
         0.09256    0.01217    0.02427    0.04495
C10   1    0.558480    0.564943    0.800197    11.00000    0.07207    0.09744 =
         0.07322   -0.01038    0.02186    0.05690
AFIX  43
H10   2    0.664421    0.648944    0.842794    11.00000   -1.20000
AFIX   0
C11   1    0.501453    0.445511    0.849882    11.00000    0.07955    0.10486 =
         0.07320   -0.00074    0.01865    0.06511
AFIX  43
H11   2    0.567797    0.445706    0.927851    11.00000   -1.20000
AFIX   0
C12   1    0.347797    0.325430    0.786363    11.00000    0.08230    0.10121 =
         0.07439    0.01283    0.02554    0.06147
AFIX  43
H12   2    0.309308    0.243116    0.821587    11.00000   -1.20000
AFIX   0
HKLF 4




REM  4_auto_a.res in P-1
REM R1 =  0.0508 for    2214 Fo > 4sig(Fo)  and  0.0690 for all    2836 data
REM    182 parameters refined using    364 restraints

END

WGHT      0.0878      0.0000

REM Highest difference peak  2.264,  deepest hole -1.808,  1-sigma level  0.226
Q1    1   0.6863  0.0041  0.8718  11.00000  0.05    2.23
Q2    1   0.5970  0.8507  0.5791  11.00000  0.05    1.97
Q3    1   0.8476  0.1598  1.0104  11.00000  0.05    1.96
Q4    1   0.0184  0.2187  0.5076  11.00000  0.05    1.72
Q5    1   0.4334  0.3798  0.8414  11.00000  0.05    1.13
Q6    1   0.8044  0.1212  0.9165  11.00000  0.05    0.95
Q7    1   0.5336  0.4979  0.8211  11.00000  0.05    0.94
Q8    1   0.7622  0.2144  0.9155  11.00000  0.05    0.93
Q9    1  -0.0946  0.2518  0.3397  11.00000  0.05    0.93
Q10   1   0.4904  0.5891  0.6789  11.00000  0.05    0.90
Q11   1   1.0028  0.1972  0.9763  11.00000  0.05    0.87
Q12   1   0.4657  0.1388  1.0815  11.00000  0.05    0.84
Q13   1   0.0847  0.4796  0.2977  11.00000  0.05    0.82
Q14   1   0.8925  0.0642  1.0380  11.00000  0.05    0.79
Q15   1   0.3052  0.5970  0.4443  11.00000  0.05    0.77
Q16   1   0.6843  0.1644  1.0000  11.00000  0.05    0.76
Q17   1  -0.0243  0.3545  0.2920  11.00000  0.05    0.76
Q18   1   0.8490 -0.0007  0.8762  11.00000  0.05    0.75
Q19   1   0.9504  0.0590  1.0050  11.00000  0.05    0.73
Q20   1   0.5488 -0.0138  0.9045  11.00000  0.05    0.73
;
_shelx_res_checksum              36436
_shelx_hkl_file
;
 -10   3   4   49.19   15.38
 -10   5   6   41.40   12.37
 -10   6   5   44.23   13.14
  -9   0   7    0.39    9.90
  -9   0   8   14.40   10.77
  -9   0   9   29.47   11.60
  -9   1   0   -3.88   13.03
  -9   1   1   25.08   13.71
  -9   1   2   50.07   14.82
  -9   1   3   40.53   14.90
  -9   1   4   26.26   15.03
  -9   1   5   45.39   16.26
  -9   1   6   18.32   14.24
  -9   1   6   24.98   10.51
  -9   1   7   -5.08   13.46
  -9   1   7   -2.36    9.95
  -9   1   8    2.46    9.96
  -9   1   9   11.40   10.71
  -9   2  -2   42.06   15.56
  -9   2  -1   53.46   14.96
  -9   2   0    7.46   12.82
  -9   2   1   -6.09   12.57
  -9   2   2   -8.40   13.16
  -9   2   3    0.40   13.37
  -9   2   4   21.22   10.15
  -9   2   4   30.45   14.35
  -9   2   5   68.92   15.70
  -9   2   5   51.35   11.55
  -9   2   6   60.06   14.94
  -9   2   6   65.38   12.62
  -9   2   7   52.04   12.03
  -9   2   8   39.27   11.57
  -9   2   9    3.40   10.03
  -9   3  -2   66.90   16.50
  -9   3  -1   47.72   15.30
  -9   3   0   51.88   14.54
  -9   3   1   12.09   12.89
  -9   3   3  -14.29   13.35
  -9   3   3   -2.31    9.09
  -9   3   4    9.94    9.56
  -9   3   4   22.75   13.61
  -9   3   5   77.41   16.00
  -9   3   5   90.20   13.12
  -9   3   6  111.09   16.12
  -9   3   6  142.52   15.05
  -9   3   7  127.14   14.75
  -9   3   8   88.71   13.22
  -9   3   9   29.69   11.11
  -9   4   0   50.30   14.31
  -9   4   1   34.59   13.37
  -9   4   2   12.60    9.06
  -9   4   2   13.25   12.32
  -9   4   3    0.37   12.08
  -9   4   3   -8.17    9.71
  -9   4   4   -3.08   12.70
  -9   4   4  -11.62   10.46
  -9   4   5   38.00   11.36
  -9   4   5   47.74   13.96
  -9   4   6  152.07   16.47
  -9   4   6  115.55   14.52
  -9   4   7  152.38   15.93
  -9   4   8   91.91   13.32
  -9   5   2   89.25   12.47
  -9   5   2   84.71   14.91
  -9   5   3   65.56   12.24
  -9   5   3   72.26   14.37
  -9   5   4   39.74   13.65
  -9   5   4   19.40   11.06
  -9   5   5   -8.14   12.17
  -9   5   6   30.41   11.74
  -9   5   6   44.72   12.67
  -9   5   7   59.10   12.75
  -9   5   8   66.90   12.86
  -9   6   1   90.74   12.67
  -9   6   2  114.20   14.29
  -9   6   3  174.84   17.10
  -9   6   4  150.12   16.53
  -9   6   5   49.05   12.30
  -9   6   6   -3.23   11.32
  -9   6   7   -7.63   11.14
  -9   7   1   61.74   12.56
  -9   7   2  174.62   17.19
  -9   7   3  166.51   17.00
  -9   7   4  160.26   17.16
  -9   7   5   79.51   14.56
  -9   7   6   25.62   12.03
  -9   8   0    2.97   11.11
  -9   8   1   30.23   12.68
  -9   8   2   56.46   14.00
  -9   8   3  112.84   16.56
  -9   8   4  126.82   16.94
  -9   8   5  133.08   16.86
  -9   9   0   79.61   16.41
  -9   9   1  -13.13   13.76
  -9   9   2   -5.84   13.03
  -9   9   3   11.29   13.20
  -8  -3   7   -4.70   10.12
  -8  -3   8    2.39   10.28
  -8  -3   9    6.01   10.82
  -8  -2   2   -8.46   13.38
  -8  -2   3   19.47   14.22
  -8  -2   4   45.21   16.01
  -8  -2   5   56.96   17.39
  -8  -2   6   14.47    9.93
  -8  -2   6   20.23   16.26
  -8  -2   7   10.13    9.59
  -8  -2   8    3.40    9.62
  -8  -2   8   -4.45    9.50
  -8  -2   9   -9.01    9.98
  -8  -2   9    3.99    9.96
  -8  -2  10    4.20    9.89
  -8  -1  -1   12.01   13.08
  -8  -1   0    4.63   12.51
  -8  -1   1   -7.55   12.59
  -8  -1   2    2.94   13.01
  -8  -1   3   20.84   14.26
  -8  -1   4   88.70   16.90
  -8  -1   4   71.32   10.14
  -8  -1   5  111.81   18.74
  -8  -1   5  102.96   12.14
  -8  -1   6   32.06   15.80
  -8  -1   6   60.54   11.11
  -8  -1   6   32.14   10.21
  -8  -1   7   27.38   10.16
  -8  -1   7   26.49   15.06
  -8  -1   7   35.03   10.44
  -8  -1   8   11.04    9.11
  -8  -1   8   12.28   10.04
  -8  -1   9    1.20    9.45
  -8  -1   9   -0.82    9.09
  -8  -1  10    4.97   10.03
  -8  -1  10    7.12    9.24
  -8  -1  11   11.01    9.47
  -8   0  -3   -4.41   13.76
  -8   0  -2   23.64   13.26
  -8   0  -1   57.96   14.48
  -8   0   0   56.34   14.21
  -8   0   1   49.65   13.71
  -8   0   2   20.86   12.68
  -8   0   3  -16.90   13.29
  -8   0   3    4.74    7.10
  -8   0   4   41.08    8.63
  -8   0   4   28.33    9.03
  -8   0   4   26.09   14.40
  -8   0   5   75.28   10.32
  -8   0   5   81.63   16.25
  -8   0   5   80.65   11.45
  -8   0   6   65.15   16.01
  -8   0   6   75.79   11.93
  -8   0   6   48.62   10.27
  -8   0   7   43.17   10.64
  -8   0   7   23.76    9.42
  -8   0   8   26.72    9.79
  -8   0   8   39.77   11.13
  -8   0   9   20.17   10.36
  -8   0   9   16.81    9.01
  -8   0  10   13.01    9.70
  -8   1  -4  -28.42   15.12
  -8   1  -3   -3.42   12.93
  -8   1  -2   11.39   12.72
  -8   1  -1   45.48   13.75
  -8   1   0   94.95   15.03
  -8   1   1  106.82   15.04
  -8   1   2   57.67    9.47
  -8   1   2   87.48   14.36
  -8   1   2   86.14   10.87
  -8   1   3   35.07   13.24
  -8   1   3   42.41    9.35
  -8   1   3   43.03    9.79
  -8   1   4   -9.03   12.99
  -8   1   4    0.22    8.46
  -8   1   4   -4.56    8.26
  -8   1   5   -3.31    8.64
  -8   1   5    5.22    9.02
  -8   1   5   -0.27    6.75
  -8   1   5    9.64   12.57
  -8   1   6    9.94    7.66
  -8   1   6   18.93    9.47
  -8   1   6   16.99    9.48
  -8   1   7   14.55    8.23
  -8   1   7    2.86   10.49
  -8   1   7   15.75    9.68
  -8   1   8   43.25   10.98
  -8   1   8   24.44    8.60
  -8   1   9   72.18   12.21
  -8   1  10   64.96   11.90
  -8   2  -6   31.82   15.27
  -8   2  -5    6.46   14.63
  -8   2  -4  -11.13   15.13
  -8   2  -3  -11.37   13.77
  -8   2  -2   -0.79   12.32
  -8   2  -1   28.40    8.70
  -8   2  -1   55.42   13.24
  -8   2   0   70.76    9.46
  -8   2   0  115.66   15.08
  -8   2   1  142.39   15.57
  -8   2   1  122.27   11.20
  -8   2   2  120.50   11.98
  -8   2   2  106.09   15.14
  -8   2   2  121.28   13.33
  -8   2   3   82.49   14.81
  -8   2   3   79.46   10.86
  -8   2   3   74.23   11.89
  -8   2   4   39.27    9.39
  -8   2   4   35.60   13.42
  -8   2   4   35.96   10.51
  -8   2   5   -5.51    6.16
  -8   2   5   -6.07    9.93
  -8   2   5   -5.74    8.22
  -8   2   5  -13.54   12.87
  -8   2   6    1.76    8.32
  -8   2   6    4.71    6.36
  -8   2   6    2.21    8.82
  -8   2   7    9.50    8.77
  -8   2   7   10.79    7.05
  -8   2   7   22.95    9.30
  -8   2   8   50.57   10.05
  -8   2   8   46.26   10.86
  -8   2   9   87.90   12.86
  -8   2  10  115.58   14.11
  -8   3  -6   29.14   14.50
  -8   3  -5    2.70   12.45
  -8   3  -5   22.65   15.19
  -8   3  -4   -1.31   11.14
  -8   3  -4  -10.78   14.76
  -8   3  -3  -11.96   10.62
  -8   3  -3   14.73   13.38
  -8   3  -2   12.77   12.54
  -8   3  -2   -6.83    9.05
  -8   3  -1   15.47    8.25
  -8   3  -1   23.72   12.07
  -8   3   0  101.07   10.57
  -8   3   0  119.56   14.78
  -8   3   1  151.75   15.52
  -8   3   1  105.80    9.44
  -8   3   1  148.13   12.70
  -8   3   2  148.60   16.26
  -8   3   2  151.30   13.49
  -8   3   3  139.15   16.46
  -8   3   3  138.68   14.61
  -8   3   3  156.06   13.79
  -8   3   4   48.67   13.25
  -8   3   4   55.88   10.25
  -8   3   4   67.20   11.53
  -8   3   5   39.24   10.22
  -8   3   5   22.49    6.52
  -8   3   5   35.11    9.68
  -8   3   6    1.49    5.51
  -8   3   6    0.26    8.65
  -8   3   6    0.36    8.30
  -8   3   7    1.70    8.37
  -8   3   7    5.13    8.47
  -8   3   8   35.58    9.94
  -8   3   8   32.87    9.28
  -8   3   9  136.06   14.19
  -8   3   9  126.52   11.96
  -8   3  10  125.52   14.36
  -8   4  -6   40.82   13.44
  -8   4  -5   31.33   12.67
  -8   4  -4   54.17   16.21
  -8   4  -4   36.90   11.88
  -8   4  -3   64.78   11.96
  -8   4  -3   76.48   16.45
  -8   4  -2   40.96    9.66
  -8   4  -2   53.50   14.24
  -8   4  -1   11.57    7.78
  -8   4  -1    8.40   11.51
  -8   4  -1   13.47    7.78
  -8   4   0   -5.73    8.16
  -8   4   0   15.56   10.94
  -8   4   0    0.66    7.04
  -8   4   1   41.82   11.51
  -8   4   1   26.37    8.87
  -8   4   1   24.04    6.60
  -8   4   2   23.25    4.24
  -8   4   2   56.12   10.14
  -8   4   2   47.85   12.42
  -8   4   3  103.89   14.76
  -8   4   3   94.67   11.78
  -8   4   4  255.26   19.47
  -8   4   4  267.38   18.06
  -8   4   4  221.31   17.35
  -8   4   5  147.47   10.17
  -8   4   5  165.61   14.15
  -8   4   5  148.23   14.44
  -8   4   6   91.35   12.30
  -8   4   6   75.44    8.06
  -8   4   6   92.21   11.50
  -8   4   7   41.50   10.58
  -8   4   7   37.20    9.25
  -8   4   8   -4.81    9.22
  -8   4   8   -1.75    7.57
  -8   4   9   24.59   10.28
  -8   4  10   75.01   12.43
  -8   5  -6    6.09   11.38
  -8   5  -5   13.68   11.29
  -8   5  -4   45.23   11.79
  -8   5  -3   84.63   17.06
  -8   5  -3   85.57   12.02
  -8   5  -2  178.91   13.58
  -8   5  -2  164.94   18.06
  -8   5  -2  167.38   14.25
  -8   5  -1  114.46   11.57
  -8   5  -1   97.76   11.01
  -8   5  -1  100.55   15.18
  -8   5   0   30.06    8.57
  -8   5   0   20.72    7.57
  -8   5   0   22.30   11.38
  -8   5   1  -10.35    6.78
  -8   5   1    8.83   10.11
  -8   5   1    5.89    7.85
  -8   5   2    1.04    7.85
  -8   5   2   -8.71   10.59
  -8   5   3   23.54    9.16
  -8   5   3   26.75   11.73
  -8   5   4  172.93   16.01
  -8   5   4  141.61   14.41
  -8   5   5  231.49   17.82
  -8   5   6  211.71   17.48
  -8   5   7  198.83   17.19
  -8   5   8   70.74   12.31
  -8   5   9    1.35    9.69
  -8   5  10   -6.40   10.02
  -8   6  -6  -14.09   11.41
  -8   6  -5    4.24   10.66
  -8   6  -4   48.80   11.42
  -8   6  -3   76.80   11.53
  -8   6  -2  127.02   13.24
  -8   6  -2  130.93   13.21
  -8   6  -1  124.69   13.25
  -8   6  -1  113.23   11.94
  -8   6  -1  109.94   14.94
  -8   6   0   51.03    9.01
  -8   6   0   38.36   10.25
  -8   6   0   39.55   11.97
  -8   6   1   48.02   10.51
  -8   6   1   34.80    7.21
  -8   6   1   35.43   11.37
  -8   6   2   13.72   10.48
  -8   6   2    6.90    8.89
  -8   6   3   -2.04   10.73
  -8   6   3    4.52    8.82
  -8   6   4  112.81   13.85
  -8   6   4   80.35   12.22
  -8   6   5  230.68   18.31
  -8   6   6  331.38   22.88
  -8   6   7   70.11   12.69
  -8   6   8  118.25   14.80
  -8   6   9   32.36   11.53
  -8   7  -6    6.87   11.07
  -8   7  -5    5.34   10.28
  -8   7  -4   10.83    9.94
  -8   7  -3   29.21   10.36
  -8   7  -3   30.21   10.39
  -8   7  -2   59.26   12.00
  -8   7  -2   66.01   11.37
  -8   7  -1  142.08   15.62
  -8   7  -1  139.91   13.07
  -8   7   0  147.16   12.45
  -8   7   0  140.13   15.69
  -8   7   1   48.05   11.75
  -8   7   1   51.92    8.69
  -8   7   2   77.89   13.32
  -8   7   2   94.22   12.31
  -8   7   3   25.39   11.28
  -8   7   3   18.00   10.65
  -8   7   4   23.73   11.86
  -8   7   4   24.55   11.46
  -8   7   5  122.41   15.36
  -8   7   6   70.42   12.38
  -8   7   7  271.65   21.32
  -8   7   8   72.16   14.13
  -8   8  -6   48.53   12.68
  -8   8  -5   31.53   11.79
  -8   8  -4   -4.23   10.60
  -8   8  -3   -5.58    9.84
  -8   8  -2   -5.69   11.87
  -8   8  -2    6.65    9.68
  -8   8  -1   70.87   11.38
  -8   8  -1   56.98   14.20
  -8   8   0  118.22   17.01
  -8   8   0  123.23   12.24
  -8   8   1  257.57   22.61
  -8   8   2  213.74   20.60
  -8   8   3  156.82   18.43
  -8   8   4   59.38   13.70
  -8   8   5    6.79   11.25
  -8   8   6   24.80   11.95
  -8   8   7   22.54   11.03
  -8   9  -5   42.02   12.57
  -8   9  -4   34.55   11.67
  -8   9  -3   39.86   11.61
  -8   9  -2    8.98   10.03
  -8   9   0   53.58   16.13
  -8   9   1  112.71   19.30
  -8   9   2  248.55   24.64
  -8   9   3  292.04   26.28
  -8   9   4  122.85   18.43
  -8   9   5   33.87   13.86
  -8   9   6   27.33   13.25
  -8  10   1   22.53   16.41
  -8  10   2   95.12   19.73
  -8  10   3  114.48   20.34
  -7  -5   7    8.33   11.80
  -7  -4   2    1.75   12.65
  -7  -4   3  -10.22   13.61
  -7  -4   4   -6.55   14.18
  -7  -4   5   15.49   15.41
  -7  -4   6   30.29   16.32
  -7  -4   6    0.99   10.81
  -7  -4   7   11.71   11.23
  -7  -4   8   10.23   12.00
  -7  -4   9   10.46   12.21
  -7  -3  -1   40.14   13.67
  -7  -3   0   26.15   13.21
  -7  -3   1   13.57   12.72
  -7  -3   2    2.48   12.28
  -7  -3   3  -16.83   13.30
  -7  -3   4   -9.11   13.82
  -7  -3   5   18.21   14.66
  -7  -3   5   -3.04   10.09
  -7  -3   6   11.99   14.73
  -7  -3   6    2.23   10.32
  -7  -3   7   48.36   16.51
  -7  -3   7   24.36   11.84
  -7  -3   8   41.03   13.23
  -7  -3   9   29.67   12.28
  -7  -3  10    8.43   11.44
  -7  -3  11    7.55   11.32
  -7  -2  -3   13.65   12.83
  -7  -2  -2   28.47   13.12
  -7  -2  -1   72.39   14.30
  -7  -2   0   50.56   13.44
  -7  -2   1   19.39   12.11
  -7  -2   1   16.57    6.89
  -7  -2   2    7.46    6.55
  -7  -2   2   27.44   12.68
  -7  -2   3    4.14   12.36
  -7  -2   3    6.43    6.36
  -7  -2   4  -21.68   13.75
  -7  -2   4    3.56    5.81
  -7  -2   5    5.00    8.56
  -7  -2   5   25.29   13.95
  -7  -2   5   12.94    7.69
  -7  -2   6   16.03   10.12
  -7  -2   6   46.19    9.54
  -7  -2   6   43.87   14.80
  -7  -2   7   79.69   11.59
  -7  -2   7   62.93   12.89
  -7  -2   8   85.51   14.46
  -7  -2   8  124.24   13.59
  -7  -2   9   77.98   12.40
  -7  -2   9   73.88   13.91
  -7  -2  10   31.76   10.55
  -7  -2  11   11.18    9.51
  -7  -1  -5   -3.40   13.93
  -7  -1  -4    2.15   12.93
  -7  -1  -3   -3.68   12.19
  -7  -1  -2    4.31   11.59
  -7  -1  -1   35.97   12.37
  -7  -1   0   38.01   12.46
  -7  -1   1   51.72   12.94
  -7  -1   2   48.85    7.33
  -7  -1   2   71.39   14.09
  -7  -1   3   77.26    8.77
  -7  -1   3   79.81   14.95
  -7  -1   3   45.92    7.03
  -7  -1   4   56.80    8.75
  -7  -1   4   25.39    5.77
  -7  -1   4   36.72   13.83
  -7  -1   5    1.38    7.90
  -7  -1   5    3.16    4.03
  -7  -1   5   -0.42   12.99
  -7  -1   5   10.33    6.09
  -7  -1   5   18.98    8.00
  -7  -1   6    0.26    5.84
  -7  -1   6    0.95    7.74
  -7  -1   6   -0.37    8.26
  -7  -1   7   18.70    9.36
  -7  -1   7   26.97    6.66
  -7  -1   7   19.96    8.97
  -7  -1   8   57.49   10.98
  -7  -1   8   67.08   11.94
  -7  -1   9   90.88   12.60
  -7  -1  10   37.21   10.46
  -7  -1  11   26.21   10.39
  -7   0  -6   16.67   14.30
  -7   0  -5   33.44   14.26
  -7   0  -4   38.38   14.09
  -7   0  -3   34.56   12.85
  -7   0  -2    4.09   11.26
  -7   0  -1    9.53   10.95
  -7   0   0    0.69   10.60
  -7   0   1   13.75    5.25
  -7   0   1   12.84   11.23
  -7   0   2   73.82    9.09
  -7   0   2   42.50    6.86
  -7   0   2   67.24   13.61
  -7   0   2   83.27    8.72
  -7   0   3  201.16   18.33
  -7   0   3  179.26   12.14
  -7   0   3  184.25   13.00
  -7   0   4  199.14   13.15
  -7   0   4  197.27   11.64
  -7   0   4  199.90   17.71
  -7   0   5  118.63   10.89
  -7   0   5  103.37   12.06
  -7   0   5  118.45   12.23
  -7   0   6   62.65   10.21
  -7   0   6   55.45    8.94
  -7   0   6   47.43    9.92
  -7   0   7   -3.77    7.61
  -7   0   7   16.90    8.46
  -7   0   7    0.67    7.90
  -7   0   8    2.44    8.08
  -7   0   8   -0.33    7.17
  -7   0   9   19.58    9.15
  -7   0   9   27.59    7.72
  -7   0  10   37.14   10.01
  -7   0  11   30.39   10.17
  -7   0  12   41.66   11.03
  -7   1  -7    2.88   13.59
  -7   1  -6   41.65   14.73
  -7   1  -5   48.01   14.99
  -7   1  -4   40.78   14.30
  -7   1  -3   35.28   12.99
  -7   1  -2   46.12   12.78
  -7   1  -1   -4.21   11.99
  -7   1  -1   -4.17    3.62
  -7   1  -1    7.32   10.17
  -7   1   0   -0.84    4.70
  -7   1   0   -3.19   10.06
  -7   1   0    7.42    7.25
  -7   1   0   -3.44   11.38
  -7   1   1    5.55    5.97
  -7   1   1    6.80    7.29
  -7   1   1    6.22   11.26
  -7   1   1    2.82    9.87
  -7   1   2   58.98    9.42
  -7   1   2   79.01   14.15
  -7   1   2   67.74    8.96
  -7   1   2   56.71   12.36
  -7   1   3  257.85   14.63
  -7   1   3  282.82   14.88
  -7   1   3  296.09   20.06
  -7   1   3  289.62   19.44
  -7   1   4  272.25   20.80
  -7   1   4  305.44   22.02
  -7   1   4  291.13   17.83
  -7   1   4  315.63   17.67
  -7   1   5  161.32   13.46
  -7   1   5  191.05   14.50
  -7   1   5  203.41   14.13
  -7   1   6  100.78   11.50
  -7   1   6  113.39   10.94
  -7   1   6   94.75   11.15
  -7   1   6  132.32   15.96
  -7   1   7   34.81    8.96
  -7   1   7   35.79    8.60
  -7   1   8   -5.15    7.88
  -7   1   8   -0.96    7.24
  -7   1   9    6.48    8.14
  -7   1   9    6.60    7.45
  -7   1  10   17.66    9.23
  -7   1  10    9.65    7.28
  -7   1  11   24.63    9.88
  -7   1  12   50.95   11.59
  -7   2  -8   37.29   14.57
  -7   2  -7    8.42   13.27
  -7   2  -6   16.14   14.02
  -7   2  -5   12.64   13.78
  -7   2  -4   28.72   15.33
  -7   2  -4    7.76   13.38
  -7   2  -3  129.79   17.67
  -7   2  -3  119.11   15.90
  -7   2  -2   66.68   15.17
  -7   2  -2   66.27   12.64
  -7   2  -2   37.48    4.94
  -7   2  -1   51.72   13.83
  -7   2  -1   47.27    9.20
  -7   2  -1   53.45    6.92
  -7   2  -1   55.69   11.86
  -7   2   0   18.29   11.97
  -7   2   0   24.71   10.28
  -7   2   0   10.44    6.43
  -7   2   0   24.48    8.13
  -7   2   1    8.04   11.14
  -7   2   1    0.59   10.04
  -7   2   1    0.13    5.76
  -7   2   1   -0.45    6.38
  -7   2   1    0.23    7.83
  -7   2   2   22.19    7.53
  -7   2   2   24.96   11.04
  -7   2   2   27.49   11.68
  -7   2   2   12.76    5.00
  -7   2   2   22.84    8.85
  -7   2   3  216.04   17.89
  -7   2   3  202.57   14.79
  -7   2   3  194.84   17.05
  -7   2   3  183.04   14.04
  -7   2   4  381.27   21.09
  -7   2   4  318.71   18.84
  -7   2   4  395.97   20.74
  -7   2   4  383.38   23.82
  -7   2   5  256.10   15.91
  -7   2   5  264.18   16.88
  -7   2   5  272.71   17.43
  -7   2   6  106.64   11.46
  -7   2   6  142.22   12.08
  -7   2   7  106.34   14.46
  -7   2   7   78.22   10.63
  -7   2   7  104.16   10.70
  -7   2   8   37.77    8.90
  -7   2   8   24.65    7.91
  -7   2   9   10.85    8.18
  -7   2  10    8.30    8.36
  -7   2  11   18.05    9.69
  -7   2  12   54.21   11.37
  -7   3  -8   18.10   17.30
  -7   3  -8   38.88   14.47
  -7   3  -7   29.64   13.98
  -7   3  -7   -3.88   15.14
  -7   3  -6    4.44   13.87
  -7   3  -6  -22.79   13.56
  -7   3  -6    7.66   13.43
  -7   3  -5   -9.21   11.48
  -7   3  -5    0.36   13.07
  -7   3  -5  -10.56   13.21
  -7   3  -4   17.77   12.72
  -7   3  -4  -16.38   13.87
  -7   3  -4   -2.42    9.92
  -7   3  -3   39.56    9.89
  -7   3  -3   41.00    6.12
  -7   3  -3   45.78   13.02
  -7   3  -3   32.96   12.90
  -7   3  -2  200.59   12.55
  -7   3  -2  202.76   17.24
  -7   3  -2  229.69   18.37
  -7   3  -1  251.29   14.60
  -7   3  -1  231.18   17.62
  -7   3  -1  240.14   18.67
  -7   3  -1  235.83   16.14
  -7   3  -1  190.75   14.61
  -7   3   0  210.65   15.82
  -7   3   0  194.61   15.03
  -7   3   0  208.34   17.12
  -7   3   0  206.19   13.44
  -7   3   0  162.69   12.30
  -7   3   1  163.31   13.78
  -7   3   1  166.66   14.18
  -7   3   1  141.51   10.23
  -7   3   1  170.87   12.61
  -7   3   1  167.35   15.57
  -7   3   2   54.44    9.74
  -7   3   2   50.64   11.10
  -7   3   2   55.73   11.52
  -7   3   2   49.90    8.47
  -7   3   2   28.08    5.22
  -7   3   3   12.05   10.42
  -7   3   3    5.24    9.66
  -7   3   3   10.79    8.45
  -7   3   3    7.94    7.25
  -7   3   4   86.54   10.32
  -7   3   4   79.49    7.82
  -7   3   4  101.45   11.32
  -7   3   4   79.38   12.73
  -7   3   5  117.44   12.17
  -7   3   5  118.41   12.03
  -7   3   6  145.65   12.85
  -7   3   6  122.34   11.91
  -7   3   7  152.64   13.70
  -7   3   7  174.50   15.77
  -7   3   8  163.97   14.53
  -7   3   9  133.21   13.53
  -7   3  10   21.40    9.08
  -7   3  11   10.27    8.79
  -7   3  12    9.49    9.11
  -7   4  -8   66.20   17.04
  -7   4  -7   56.66   13.89
  -7   4  -7   34.17   14.55
  -7   4  -6    1.12   11.45
  -7   4  -6   16.31   13.00
  -7   4  -5   16.79   11.32
  -7   4  -5   -2.42   12.71
  -7   4  -5    4.56   10.08
  -7   4  -4   -1.72    9.23
  -7   4  -4   -0.35   12.76
  -7   4  -4   13.13    5.91
  -7   4  -4    6.06   10.52
  -7   4  -3    9.90    6.31
  -7   4  -3   16.17   10.38
  -7   4  -3   -2.01    8.91
  -7   4  -3  -11.65   13.03
  -7   4  -2  100.54   14.27
  -7   4  -2  106.28   13.10
  -7   4  -2  100.79    9.62
  -7   4  -2   84.24   11.02
  -7   4  -1  272.24   18.22
  -7   4  -1  258.40   18.43
  -7   4  -1  241.00   15.98
  -7   4  -1  284.16   18.79
  -7   4  -1  281.23   16.39
  -7   4   0  320.18   18.66
  -7   4   0  351.40   20.47
  -7   4   0  307.47   17.45
  -7   4   0  347.36   20.81
  -7   4   0  330.37   20.17
  -7   4   1  482.51   24.62
  -7   4   1  470.05   25.01
  -7   4   1  412.69   20.59
  -7   4   1  425.85   23.72
  -7   4   1  444.40   23.30
  -7   4   2  315.79   20.01
  -7   4   2  342.73   19.76
  -7   4   2  307.64   18.47
  -7   4   2  305.63   19.68
  -7   4   2  298.70   14.15
  -7   4   3   68.60   11.68
  -7   4   3   79.63   11.94
  -7   4   3   74.55    9.75
  -7   4   3   81.20   10.94
  -7   4   4    1.73    4.10
  -7   4   4    1.81    8.48
  -7   4   4   -8.79    9.87
  -7   4   4   -6.98    7.52
  -7   4   5   -5.43   10.32
  -7   4   5    3.36    7.83
  -7   4   5   -3.30    7.37
  -7   4   6   39.63    8.86
  -7   4   7  117.09   12.64
  -7   4   8  227.54   17.40
  -7   4   9  207.44   16.96
  -7   4  10  144.70   14.72
  -7   4  11   56.17   11.56
  -7   4  12    7.73    9.38
  -7   5  -8   29.82   14.27
  -7   5  -7   19.36   12.75
  -7   5  -6   36.27   11.94
  -7   5  -6   35.32   12.21
  -7   5  -5   25.90   11.69
  -7   5  -5  -12.49   12.15
  -7   5  -5   11.66   10.14
  -7   5  -4   -0.52   11.33
  -7   5  -4   25.56    9.69
  -7   5  -4   25.32   11.93
  -7   5  -4   19.30    7.38
  -7   5  -3    2.71    7.00
  -7   5  -3  -10.68   10.70
  -7   5  -3   -0.50    8.70
  -7   5  -3   -8.90   12.23
  -7   5  -2   40.43    9.41
  -7   5  -2   56.78    9.40
  -7   5  -2   48.09   10.92
  -7   5  -2   39.85   11.89
  -7   5  -1  188.69   13.67
  -7   5  -1  209.30   14.70
  -7   5  -1  182.83   15.53
  -7   5  -1  176.74   15.38
  -7   5  -1  185.93   15.37
  -7   5   0  309.62   19.84
  -7   5   0  330.95   19.63
  -7   5   0  303.98   19.44
  -7   5   0  339.33   18.06
  -7   5   0  356.06   20.80
  -7   5   1  223.55   16.33
  -7   5   1  267.03   17.54
  -7   5   1  239.28   16.06
  -7   5   1  221.37   16.86
  -7   5   1  241.00   13.81
  -7   5   2  254.87   17.75
  -7   5   2  256.34   13.03
  -7   5   2  238.94   17.12
  -7   5   2  270.97   17.32
  -7   5   2  261.54   17.72
  -7   5   3  137.90   13.57
  -7   5   3  137.89   13.08
  -7   5   3  143.25   13.67
  -7   5   3  153.53   13.75
  -7   5   4   32.81    9.95
  -7   5   4   42.22    8.84
  -7   5   4   32.46    8.95
  -7   5   5   13.23    8.01
  -7   5   5   11.99    9.07
  -7   5   6   -8.62    8.79
  -7   5   7   82.12   11.82
  -7   5   8  219.67   17.49
  -7   5   9  226.28   18.29
  -7   5  10  150.01   15.76
  -7   5  11   50.47   11.92
  -7   6  -8    0.41   12.16
  -7   6  -7   38.07   12.35
  -7   6  -6   42.31   11.51
  -7   6  -5   87.49   12.42
  -7   6  -5   67.20   11.92
  -7   6  -4   80.89   10.95
  -7   6  -4   84.06   12.10
  -7   6  -4   66.60   11.79
  -7   6  -3   36.97    9.71
  -7   6  -3   34.63   10.60
  -7   6  -3   38.86   10.32
  -7   6  -2   -2.87    9.20
  -7   6  -2   -2.68    8.09
  -7   6  -2   -5.68    8.88
  -7   6  -2   -7.09   10.41
  -7   6  -1   74.90   11.78
  -7   6  -1   67.03   11.26
  -7   6  -1   92.56   10.53
  -7   6  -1   74.82   11.05
  -7   6   0   88.51   12.07
  -7   6   0   74.22   11.06
  -7   6   0   78.76   10.93
  -7   6   0   86.39   12.31
  -7   6   0   85.36    9.91
  -7   6   1  221.84   13.35
  -7   6   1  218.34   14.62
  -7   6   1  188.26   15.11
  -7   6   1  209.46   16.20
  -7   6   1  205.55   17.04
  -7   6   2  237.08   13.10
  -7   6   2  230.83   17.55
  -7   6   2  248.06   15.95
  -7   6   2  199.85   15.70
  -7   6   2  223.36   16.73
  -7   6   3  234.81   16.37
  -7   6   3  263.10   16.74
  -7   6   3  215.61   16.35
  -7   6   3  254.54   18.28
  -7   6   4   90.46   12.14
  -7   6   4  116.95   12.15
  -7   6   5   39.33    9.91
  -7   6   6   17.73    8.79
  -7   6   7   -1.70    8.17
  -7   6   8   78.36   12.97
  -7   6   9  141.19   15.70
  -7   6  10   89.39   14.09
  -7   6  11   80.76   14.38
  -7   7  -7   17.94   11.39
  -7   7  -6   75.76   12.83
  -7   7  -5  106.71   12.33
  -7   7  -5   84.28   12.82
  -7   7  -4  210.67   16.75
  -7   7  -4  211.89   15.65
  -7   7  -3  273.70   18.54
  -7   7  -3  271.20   17.68
  -7   7  -2  100.76   11.85
  -7   7  -2   86.54    7.81
  -7   7  -1    0.43    6.34
  -7   7  -1   17.08    8.96
  -7   7  -1    8.83    8.44
  -7   7   0   -0.23    8.65
  -7   7   0    0.15    7.57
  -7   7   0   -2.42    7.65
  -7   7   1    3.42    9.80
  -7   7   1    2.26    7.63
  -7   7   1    4.28    7.22
  -7   7   1    4.01    8.67
  -7   7   2   92.72   10.48
  -7   7   2   89.52   11.41
  -7   7   2   94.71   13.50
  -7   7   3  228.98   19.66
  -7   7   3  277.30   16.94
  -7   7   4  355.17   23.81
  -7   7   5  345.10   23.44
  -7   7   6  163.88   16.40
  -7   7   7   46.65   11.45
  -7   7   8    8.05    6.86
  -7   7   8    4.87    9.60
  -7   7   9   -7.15   11.51
  -7   7   9   28.82    7.89
  -7   7  10   11.15   11.80
  -7   8  -7   -7.18   10.90
  -7   8  -6   17.79   10.84
  -7   8  -5   51.58   12.14
  -7   8  -4  155.10   15.30
  -7   8  -3  266.10   19.24
  -7   8  -2  264.31   18.16
  -7   8  -1  107.75   12.09
  -7   8   0   61.33   10.24
  -7   8   1   31.33    9.24
  -7   8   2   10.71    3.73
  -7   8   2   -4.60   12.06
  -7   8   2    3.38    6.18
  -7   8   3   87.85    6.71
  -7   8   3  117.16   11.41
  -7   8   3   86.36   14.89
  -7   8   4  241.76   12.11
  -7   8   4  219.72   13.01
  -7   8   4  242.49   20.75
  -7   8   5  277.64   14.11
  -7   8   5  252.22   21.55
  -7   8   6  346.79   17.09
  -7   8   6  321.55   24.46
  -7   8   7  199.26   12.55
  -7   8   7  162.25   18.12
  -7   8   8   55.03   13.19
  -7   8   9    4.46   10.82
  -7   9  -6    8.52   10.89
  -7   9  -5   12.91   10.58
  -7   9  -4   48.65   12.27
  -7   9  -3   59.81   12.62
  -7   9  -2  155.89   15.16
  -7   9  -1  104.80   13.32
  -7   9   0   65.86   11.77
  -7   9   1   56.71   11.05
  -7   9   3   30.35   13.77
  -7   9   4   83.82   15.87
  -7   9   5  124.12   17.75
  -7   9   6  148.48   18.45
  -7   9   7  103.42   16.67
  -7   9   8   37.87   13.53
  -7  10  -6    8.71   11.13
  -7  10  -5   -3.05   10.92
  -7  10  -4    4.86   10.98
  -7  10  -3   67.50   13.19
  -7  10  -2   40.66   11.93
  -7  10  -1   88.40   14.01
  -7  10   0  105.94   14.11
  -7  10   3   -5.96   14.70
  -7  10   4   14.16   13.63
  -7  10   5   46.38   16.03
  -7  10   6   31.26   14.15
  -7  11  -4   16.81   11.36
  -7  11  -3   13.08   11.73
  -7  11  -2   23.16   12.52
  -7  11  -1   46.37   13.48
  -7  11   0  128.72   16.69
  -7  12  -3   16.96   12.85
  -7  12  -2    4.61   12.12
  -7  12  -1   30.13   13.55
  -6  -6   3   -4.78    8.18
  -6  -6   6    9.80   11.45
  -6  -6   7   21.52   12.69
  -6  -6   8    4.08   12.79
  -6  -5  -1   -6.26   12.54
  -6  -5   0   -0.41   12.11
  -6  -5   0    2.31    7.00
  -6  -5   1   11.81    7.78
  -6  -5   1   41.18   13.22
  -6  -5   2   20.06    8.27
  -6  -5   2   47.28   13.52
  -6  -5   3   15.12    8.44
  -6  -5   4    3.99    8.06
  -6  -5   5    3.36    7.64
  -6  -5   5    1.46   10.21
  -6  -5   6   -2.48   10.33
  -6  -5   6   -1.16    7.48
  -6  -5   7  -10.02   11.38
  -6  -5   8    8.33   11.48
  -6  -5   9    9.14   12.24
  -6  -5  10    2.41   12.81
  -6  -4  -3   -8.02   12.44
  -6  -4  -2  -17.14   12.59
  -6  -4  -1    4.76    6.83
  -6  -4  -1   -5.51   11.57
  -6  -4   0   10.59    7.10
  -6  -4   0   17.36   11.88
  -6  -4   1   28.57    8.17
  -6  -4   1   53.49   13.14
  -6  -4   2   38.97    8.62
  -6  -4   2   80.19   14.23
  -6  -4   3   45.29    8.72
  -6  -4   3   58.57   14.50
  -6  -4   4   14.19    7.80
  -6  -4   4   14.95   13.88
  -6  -4   5    2.64    9.23
  -6  -4   5    7.00    7.08
  -6  -4   5   -6.90   13.33
  -6  -4   6   -4.81    7.02
  -6  -4   6   -7.00   10.00
  -6  -4   6  -13.94   13.82
  -6  -4   7    6.41   10.42
  -6  -4   7   -0.20    7.27
  -6  -4   8   11.85   11.44
  -6  -4   9   22.61   12.30
  -6  -4  10   32.91   13.16
  -6  -3  -5  -26.83   14.08
  -6  -3  -4    6.26   12.51
  -6  -3  -3   13.63   11.92
  -6  -3  -2   -3.07   11.15
  -6  -3  -1    8.50   10.80
  -6  -3   0   17.04   10.95
  -6  -3   1   64.72   13.07
  -6  -3   1   33.61    7.84
  -6  -3   2  119.14   15.47
  -6  -3   2   96.81   10.45
  -6  -3   3  107.53   15.70
  -6  -3   3   79.82    9.29
  -6  -3   4   30.55    9.92
  -6  -3   4   33.59    7.76
  -6  -3   4   39.75   14.01
  -6  -3   5   22.32    7.04
  -6  -3   5   28.25   10.32
  -6  -3   5   15.74   13.37
  -6  -3   6    7.90    6.23
  -6  -3   6    6.04    9.47
  -6  -3   7    0.77    6.26
  -6  -3   7    0.91    9.30
  -6  -3   8   12.78   10.09
  -6  -3   8    9.04    8.40
  -6  -3   8    3.91   12.31
  -6  -3   9   21.85    9.33
  -6  -3   9   26.10   11.35
  -6  -3  10   45.91   10.58
  -6  -3  11   62.89   11.64
  -6  -3  12   68.24   11.94
  -6  -2  -6    0.40   13.18
  -6  -2  -5  -12.15   13.25
  -6  -2  -4   38.29   13.50
  -6  -2  -3   83.39   14.11
  -6  -2  -2   63.49   12.79
  -6  -2  -1   40.79   11.45
  -6  -2   0   27.10   10.93
  -6  -2   1   -6.29    9.95
  -6  -2   2   29.52    7.19
  -6  -2   2   34.71   11.83
  -6  -2   3   69.32    8.20
  -6  -2   3  110.70   14.79
  -6  -2   4   80.06   11.15
  -6  -2   4   80.82   14.54
  -6  -2   4   58.68    7.92
  -6  -2   4   94.22    9.54
  -6  -2   5   64.51    8.96
  -6  -2   5   54.20   11.11
  -6  -2   5   55.99    7.16
  -6  -2   6   94.71   10.88
  -6  -2   6   75.37    7.77
  -6  -2   6  109.60   13.42
  -6  -2   7   66.23   10.16
  -6  -2   7   72.94   12.31
  -6  -2   7   60.71   13.73
  -6  -2   8   17.21   12.72
  -6  -2   8   16.18    8.11
  -6  -2   9    8.32    8.25
  -6  -2   9    5.35   12.19
  -6  -2  10   18.06    8.89
  -6  -2  10   21.37   12.79
  -6  -2  11   46.80   10.42
  -6  -2  11   63.71   13.79
  -6  -2  12   60.50   11.54
  -6  -1  -7  -15.21   12.89
  -6  -1  -6  -17.78   13.36
  -6  -1  -5  -18.49   13.46
  -6  -1  -4   26.05   12.33
  -6  -1  -3  132.30   15.37
  -6  -1  -2  170.42   16.18
  -6  -1  -1  135.78   14.37
  -6  -1   0   99.84   12.69
  -6  -1   1   35.27   10.51
  -6  -1   2    0.45    5.35
  -6  -1   2   -9.58   10.14
  -6  -1   2    3.23    4.79
  -6  -1   3   17.33    6.21
  -6  -1   3   10.68    5.24
  -6  -1   3   21.30    5.84
  -6  -1   3    0.57    6.59
  -6  -1   3   15.56   10.59
  -6  -1   4   33.38    7.17
  -6  -1   4   35.55    6.43
  -6  -1   4   22.56    8.19
  -6  -1   4   22.27    5.34
  -6  -1   4   40.37   11.68
  -6  -1   5   89.55   13.24
  -6  -1   5   80.17   10.59
  -6  -1   5   69.45    7.37
  -6  -1   5   77.02    9.68
  -6  -1   6  226.45   18.62
  -6  -1   6  184.11   15.66
  -6  -1   6  193.32   14.40
  -6  -1   6  175.84   11.52
  -6  -1   7  237.85   13.47
  -6  -1   7  220.62   16.44
  -6  -1   8  135.58    9.59
  -6  -1   8  162.69   16.58
  -6  -1   8  133.71   12.98
  -6  -1   9   40.95    6.43
  -6  -1   9   40.55    9.20
  -6  -1  10    4.53    5.64
  -6  -1  10    9.17    8.13
  -6  -1  10    6.20   11.18
  -6  -1  11    7.71    8.25
  -6  -1  11  -11.40   11.72
  -6  -1  12   -2.44   11.11
  -6  -1  12   28.10    9.64
  -6  -1  13   12.12    9.66
  -6   0  -8   36.47   13.84
  -6   0  -7   -3.47   12.34
  -6   0  -6   -8.90   13.13
  -6   0  -4   27.05   12.04
  -6   0  -3  132.69   14.80
  -6   0  -2  188.83   16.28
  -6   0  -1  155.27   14.44
  -6   0   0   85.56    6.99
  -6   0   0  103.77   12.18
  -6   0   1   63.84   10.93
  -6   0   1   78.30    8.49
  -6   0   1   67.99    7.17
  -6   0   2   34.73   10.43
  -6   0   2   26.51    6.80
  -6   0   2   25.66    6.26
  -6   0   3    8.93    5.87
  -6   0   3    4.03    5.85
  -6   0   3   -1.88    9.70
  -6   0   3    6.33    6.31
  -6   0   3    4.23    4.22
  -6   0   3    3.22    9.48
  -6   0   4   20.88    6.91
  -6   0   4   21.41    6.72
  -6   0   4    9.18    3.18
  -6   0   4   13.99    6.74
  -6   0   5   61.79    9.00
  -6   0   5   74.85    9.48
  -6   0   5   77.04    8.41
  -6   0   6  202.60   15.06
  -6   0   6  253.54   19.05
  -6   0   6  232.16   13.50
  -6   0   7  363.19   22.70
  -6   0   7  348.13   17.60
  -6   0   8  306.42   16.39
  -6   0   8  264.32   18.45
  -6   0   9   77.44   12.68
  -6   0   9   63.70    9.98
  -6   0  10    3.12   10.91
  -6   0  10    8.33    7.79
  -6   0  11   -3.22   10.69
  -6   0  11   -3.66    8.40
  -6   0  12    2.69    8.22
  -6   0  12    3.39    9.42
  -6   0  13    9.71    9.20
  -6   1  -9   38.49   14.11
  -6   1  -8   37.89   13.75
  -6   1  -7   33.25   13.82
  -6   1  -6    1.48   12.14
  -6   1  -5    3.28   11.88
  -6   1  -4    6.09   11.11
  -6   1  -3  106.02   13.66
  -6   1  -2  170.12   13.82
  -6   1  -2   85.99    4.73
  -6   1  -1  159.41   11.90
  -6   1  -1  159.75    9.49
  -6   1  -1  172.09   14.48
  -6   1   0  131.72   14.42
  -6   1   0  137.79   10.96
  -6   1   0  148.95    9.85
  -6   1   0  165.19   13.46
  -6   1   1  233.19   13.28
  -6   1   1  207.75   15.76
  -6   1   1  220.93   13.93
  -6   1   1  191.12   16.68
  -6   1   2   67.11   12.02
  -6   1   2   76.42   11.32
  -6   1   2   72.31    8.06
  -6   1   2   68.70    8.70
  -6   1   3   52.89    7.76
  -6   1   3   54.14    7.80
  -6   1   3   50.79   11.50
  -6   1   3   50.28    6.89
  -6   1   3   27.63    3.61
  -6   1   4    3.63    5.51
  -6   1   4    3.37    6.28
  -6   1   4   -1.75    5.56
  -6   1   5   39.36    7.68
  -6   1   5   43.46    7.64
  -6   1   6  210.25   16.30
  -6   1   6  188.99   13.77
  -6   1   6  182.55   12.68
  -6   1   7  474.64   24.80
  -6   1   7  423.69   21.23
  -6   1   7  399.88   23.01
  -6   1   8  216.29   15.77
  -6   1   8  260.91   17.88
  -6   1   9  139.28   13.15
  -6   1   9  161.06   14.78
  -6   1  10   43.14   10.87
  -6   1  10   41.76    9.38
  -6   1  11   12.26    9.52
  -6   1  11   15.19    8.89
  -6   1  12    2.28    8.81
  -6   1  12    1.57    8.42
  -6   1  13   -6.17    9.15
  -6   2 -10    9.72   12.74
  -6   2  -9   11.62   12.91
  -6   2  -8   64.41   14.81
  -6   2  -7   87.32   17.02
  -6   2  -7   74.44   15.35
  -6   2  -6  134.75   17.31
  -6   2  -6  112.42   16.11
  -6   2  -5  151.58   17.01
  -6   2  -5  164.04   17.18
  -6   2  -4   41.29   12.56
  -6   2  -4   43.16   12.69
  -6   2  -3    7.84   10.49
  -6   2  -3    7.97   10.50
  -6   2  -3   23.75    7.20
  -6   2  -3   11.17    3.59
  -6   2  -2   20.62    6.94
  -6   2  -2   10.27    4.68
  -6   2  -2   17.28   10.34
  -6   2  -2   18.32    9.35
  -6   2  -1   60.76   10.20
  -6   2  -1   41.87    6.49
  -6   2  -1   48.30   11.03
  -6   2  -1   50.66    8.15
  -6   2   0  100.04   10.05
  -6   2   0   91.51   12.57
  -6   2   0  102.18   11.21
  -6   2   0  103.91    8.81
  -6   2   1  312.84   16.93
  -6   2   1  305.70   17.53
  -6   2   1  296.46   18.64
  -6   2   1  308.89   19.87
  -6   2   2  666.55   31.35
  -6   2   2  660.98   30.59
  -6   2   2  651.15   28.91
  -6   2   2  680.03   29.30
  -6   2   3  399.63   22.30
  -6   2   3  369.61   20.25
  -6   2   3  371.65   18.62
  -6   2   3  376.61   19.96
  -6   2   4  216.92   16.48
  -6   2   4  245.73   14.84
  -6   2   4  242.25   13.80
  -6   2   4  223.67   14.90
  -6   2   5   85.95    9.46
  -6   2   5   91.74    9.70
  -6   2   6   -2.59    5.94
  -6   2   7  104.44   12.32
  -6   2   7   90.28   10.34
  -6   2   8  196.18   14.75
  -6   2   8  214.16   15.96
  -6   2   9  105.99   12.10
  -6   2   9  100.39   11.06
  -6   2  10   86.54   11.50
  -6   2  10   98.89   11.52
  -6   2  11   82.04   11.34
  -6   2  11   81.82   11.25
  -6   2  12   69.19   11.81
  -6   2  13   17.61   10.14
  -6   3  -9  -27.73   17.19
  -6   3  -9   13.33   12.47
  -6   3  -8   31.34   12.88
  -6   3  -7   94.33   14.28
  -6   3  -7   81.43   14.83
  -6   3  -6  107.98   15.36
  -6   3  -6  129.11   14.77
  -6   3  -5  169.00    8.56
  -6   3  -5  179.32   17.15
  -6   3  -4  276.35   18.03
  -6   3  -4  228.81   15.00
  -6   3  -4  231.55   19.22
  -6   3  -4  233.15   12.63
  -6   3  -3  117.12   13.89
  -6   3  -3  115.82   12.82
  -6   3  -3  107.76    8.45
  -6   3  -3  103.09   10.32
  -6   3  -2   12.74    7.16
  -6   3  -2    8.44    6.70
  -6   3  -2   19.41    9.33
  -6   3  -2    6.07    8.77
  -6   3  -2   21.06    5.58
  -6   3  -1    2.53    5.97
  -6   3  -1    1.75    8.76
  -6   3  -1    9.46    8.29
  -6   3  -1    1.10    7.27
  -6   3  -1    6.80    5.34
  -6   3   0    7.44    8.31
  -6   3   0   -2.18    7.29
  -6   3   0    1.56    7.92
  -6   3   0    1.41    5.37
  -6   3   0    9.19    5.33
  -6   3   1  174.73   13.77
  -6   3   1  168.90   11.48
  -6   3   1  175.37   12.77
  -6   3   1  154.04   10.17
  -6   3   1  172.49   13.09
  -6   3   2  546.38   26.57
  -6   3   2  545.03   25.92
  -6   3   2  506.85   22.27
  -6   3   2  528.55   26.87
  -6   3   2  590.98   26.63
  -6   3   3  712.82   34.02
  -6   3   3  780.22   31.40
  -6   3   3  706.46   33.99
  -6   3   3  729.50   34.80
  -6   3   4  636.73   30.51
  -6   3   4  594.11   29.75
  -6   3   4  629.89   29.60
  -6   3   5  369.17   20.49
  -6   3   6  130.26   11.52
  -6   3   7    7.81    8.45
  -6   3   7    4.84    6.74
  -6   3   8   18.05    7.60
  -6   3   8   12.45    8.64
  -6   3   9   33.32    9.47
  -6   3   9   32.37    8.70
  -6   3  10   70.20   10.61
  -6   3  10   74.11   10.80
  -6   3  11   98.27   12.51
  -6   3  12  152.06   15.30
  -6   4  -9  -27.20   14.88
  -6   4  -8   -2.95   11.85
  -6   4  -8    9.33   10.86
  -6   4  -7   23.00   11.95
  -6   4  -7   59.10   12.56
  -6   4  -7   48.57   11.00
  -6   4  -6   58.66   10.80
  -6   4  -6   40.28    5.37
  -6   4  -6   63.50   12.80
  -6   4  -6   44.48   11.55
  -6   4  -5   89.05   12.38
  -6   4  -5  105.47   11.98
  -6   4  -5   92.39   13.84
  -6   4  -4  142.28   12.15
  -6   4  -4  131.57   13.25
  -6   4  -4  169.74   13.39
  -6   4  -4  125.85   15.01
  -6   4  -3  111.61   11.67
  -6   4  -3  116.06    9.97
  -6   4  -3  140.62   12.36
  -6   4  -3  117.90   13.90
  -6   4  -3  115.16   11.39
  -6   4  -2   40.62    8.16
  -6   4  -2   51.64   10.38
  -6   4  -2   49.08    9.25
  -6   4  -2   50.28    7.74
  -6   4  -2   66.80    9.65
  -6   4  -1   31.59    8.74
  -6   4  -1   42.46    7.27
  -6   4  -1   55.10    9.34
  -6   4  -1   46.50    7.47
  -6   4  -1   43.08    9.11
  -6   4   0    3.04    7.16
  -6   4   0    3.26    5.59
  -6   4   0    0.23    7.76
  -6   4   0    7.24    5.96
  -6   4   0    2.64    7.34
  -6   4   1   60.78    6.67
  -6   4   1   55.35    7.92
  -6   4   1   55.62    9.35
  -6   4   1   60.91    8.99
  -6   4   1   64.58    9.34
  -6   4   2  408.83   17.73
  -6   4   2  377.89   21.35
  -6   4   2  398.24   21.06
  -6   4   2  420.65   21.83
  -6   4   2  384.09   21.43
  -6   4   3  625.67   30.31
  -6   4   3  634.88   30.87
  -6   4   3  647.24   30.38
  -6   4   4  505.15   26.27
  -6   4   4  528.16   26.27
  -6   4   5  109.34   10.60
  -6   4   6  230.13   16.09
  -6   4   7   50.81    9.32
  -6   4   7   41.04    8.62
  -6   4   8    4.31    7.12
  -6   4   8    5.64    8.16
  -6   4   9    6.23    8.14
  -6   4   9    0.39    7.85
  -6   4  10   25.49    9.48
  -6   4  11  113.81   13.76
  -6   5  -9   21.33   13.49
  -6   5  -8  -12.87   11.53
  -6   5  -7  -15.03   11.48
  -6   5  -7    2.59    9.36
  -6   5  -6   19.06    9.48
  -6   5  -6   18.23    9.43
  -6   5  -6   11.04    9.77
  -6   5  -5   39.19    9.88
  -6   5  -5   53.55   10.50
  -6   5  -5   33.99   10.04
  -6   5  -4   78.97   11.20
  -6   5  -4   83.58   10.84
  -6   5  -4  109.18   11.36
  -6   5  -4   98.61   11.76
  -6   5  -3  247.76   16.10
  -6   5  -3  264.00   16.30
  -6   5  -3  245.56   16.54
  -6   5  -3  233.40   16.90
  -6   5  -2  242.39   15.69
  -6   5  -2  218.03   15.01
  -6   5  -2  210.07   14.31
  -6   5  -2  225.66   15.63
  -6   5  -1   72.36   10.39
  -6   5  -1   86.33   10.59
  -6   5  -1   92.85   10.51
  -6   5  -1   91.06    9.45
  -6   5   0  177.00   11.69
  -6   5   0  175.28   13.65
  -6   5   0  175.72   12.24
  -6   5   0  162.44   13.41
  -6   5   0  166.77   13.13
  -6   5   1    7.26    5.51
  -6   5   1   12.51    7.06
  -6   5   1    5.78    7.08
  -6   5   1    3.76    7.82
  -6   5   1    9.12    8.27
  -6   5   2  111.45   11.75
  -6   5   2  137.66   10.84
  -6   5   2  127.03   11.50
  -6   5   2  112.57   11.61
  -6   5   2  141.42    8.88
  -6   5   3  275.63   16.79
  -6   5   3  284.46   17.98
  -6   5   4  124.81   11.48
  -6   5   4  119.26   11.81
  -6   5   5  594.02   31.58
  -6   5   5  655.18   30.13
  -6   5   6   93.26   10.82
  -6   5   7  111.44   11.97
  -6   5   8   44.84    9.85
  -6   5   9    2.49    8.44
  -6   5  10    4.43    9.32
  -6   6  -9   90.69   15.33
  -6   6  -8   58.28   12.76
  -6   6  -7   31.60   10.71
  -6   6  -6    3.41    9.32
  -6   6  -6    7.35    8.32
  -6   6  -5   -3.72    8.81
  -6   6  -5    0.19    8.18
  -6   6  -4   38.46    7.28
  -6   6  -4   44.44    9.55
  -6   6  -4   43.55    9.23
  -6   6  -3  218.31   14.38
  -6   6  -3  237.87   15.22
  -6   6  -2  378.53   19.73
  -6   6  -2  335.16   18.09
  -6   6  -2  382.86   20.33
  -6   6  -2  347.17   20.81
  -6   6  -1  665.27   31.88
  -6   6  -1  746.87   32.39
  -6   6  -1  698.12   30.99
  -6   6  -1  676.35   33.35
  -6   6   0  503.83   23.08
  -6   6   0  497.32   25.73
  -6   6   0  439.15   23.96
  -6   6   0  504.79   24.00
  -6   6   1  351.35   20.58
  -6   6   1  381.54   18.46
  -6   6   1  317.75   19.11
  -6   6   1  360.03   17.95
  -6   6   2   37.87    6.78
  -6   6   2   35.95    7.55
  -6   6   2   35.42    9.12
  -6   6   2   31.92    8.19
  -6   6   3    8.54    7.67
  -6   6   3    7.50    7.92
  -6   6   4   60.04    9.36
  -6   6   4   61.88   10.22
  -6   6   5    8.28    7.79
  -6   6   6  320.39   21.24
  -6   6   7  390.45   24.14
  -6   6   8  237.10   18.45
  -6   6   9  131.95   15.26
  -6   6   9  136.31   11.10
  -6   6  10   66.08    9.51
  -6   7  -8   74.18   12.98
  -6   7  -7   45.57   11.52
  -6   7  -6   40.56   10.95
  -6   7  -5   65.97   11.04
  -6   7  -4   -2.55    8.49
  -6   7  -3   68.85   10.41
  -6   7  -2  270.21   17.05
  -6   7  -2  241.45   15.73
  -6   7  -1  343.53   19.56
  -6   7  -1  374.52   20.44
  -6   7   0  594.06   24.31
  -6   7   0  526.30   25.73
  -6   7   1  597.01   26.03
  -6   7   1  636.22   28.83
  -6   7   2  239.56   14.98
  -6   7   2  232.69   13.57
  -6   7   3   55.45    6.71
  -6   7   3   66.39   11.54
  -6   7   4    5.57    8.70
  -6   7   5    0.46    8.66
  -6   7   5    6.08    5.10
  -6   7   6   70.51    7.70
  -6   7   6   66.43   11.89
  -6   7   7  236.33   19.62
  -6   7   7  261.17   14.46
  -6   7   8  271.31   15.65
  -6   7   8  268.50   21.24
  -6   7   9  219.98   20.20
  -6   7   9  274.28   16.15
  -6   7  10  138.33   12.32
  -6   8  -8   31.52   11.78
  -6   8  -7   29.78   11.38
  -6   8  -6   54.56   11.62
  -6   8  -5   53.28   11.40
  -6   8  -4   30.94   10.02
  -6   8  -3   13.20    9.06
  -6   8  -2   91.16   11.41
  -6   8  -1  124.63   12.38
  -6   8   0  166.86   13.64
  -6   8   1  239.24   16.16
  -6   8   2  190.94    7.94
  -6   8   2  140.91    7.70
  -6   8   3   73.30    8.32
  -6   8   3   78.53    6.84
  -6   8   4   43.79    6.52
  -6   8   4   24.87   11.01
  -6   8   5   16.08   10.71
  -6   8   5   15.84    6.28
  -6   8   6   -5.28   10.39
  -6   8   6    6.25    6.64
  -6   8   7   89.28    9.80
  -6   8   7   76.12   14.35
  -6   8   8  216.82   20.55
  -6   8   8  217.34   14.66
  -6   8   9  104.04   11.40
  -6   9  -7   47.58   12.19
  -6   9  -6   61.74   12.70
  -6   9  -5  106.62   13.84
  -6   9  -4  188.98   16.39
  -6   9  -3   25.15   10.24
  -6   9  -2   -0.30    9.21
  -6   9  -1   11.72    9.56
  -6   9   0   23.44    9.61
  -6   9   1  128.48   13.79
  -6   9   3  161.22   12.15
  -6   9   3  112.57    6.72
  -6   9   4  113.77    9.90
  -6   9   4   95.41   16.29
  -6   9   4  126.35   15.00
  -6   9   5   73.33    9.56
  -6   9   5   69.52   14.97
  -6   9   6   11.50   11.81
  -6   9   7  -11.90    9.79
  -6   9   7   16.73   12.40
  -6  10  -7   24.64   11.84
  -6  10  -6   76.74   13.55
  -6  10  -5  213.13   18.23
  -6  10  -4  156.70   16.01
  -6  10  -3  195.51   17.02
  -6  10  -2   62.11   12.26
  -6  10  -1   24.41   10.64
  -6  10   0   -3.96   10.18
  -6  10   3  152.14   14.60
  -6  10   4  234.39   21.56
  -6  10   5  264.17   24.71
  -6  10   5  209.90   22.75
  -6  10   6  104.14   17.89
  -6  11  -5   42.12   12.60
  -6  11  -4  146.48   16.70
  -6  11  -3   96.48   14.77
  -6  11  -2   66.25   13.72
  -6  11  -1   67.27   13.93
  -6  11   0   40.32   13.57
  -6  11   5  139.89   20.82
  -6  12  -4   18.60   12.20
  -6  12  -3   25.86   12.75
  -6  12  -2   18.95   12.70
  -6  12  -1   28.78   13.55
  -5  -7   0    4.02   11.82
  -5  -7   1   15.38   12.11
  -5  -7   2   34.36   12.46
  -5  -7   3   17.29   12.06
  -5  -7   4   -1.87    9.06
  -5  -7   4   11.07   11.99
  -5  -7   5   13.17   12.71
  -5  -7   5   10.80    9.14
  -5  -7   6   -3.18   10.64
  -5  -7   6  -15.67   13.44
  -5  -7   6   -0.30    8.83
  -5  -7   7    0.90    9.08
  -5  -7   7   -2.65   13.16
  -5  -7   7    4.34   10.94
  -5  -7   8    6.31   11.97
  -5  -7   8   10.64   14.17
  -5  -6   0   -4.40    7.20
  -5  -6   1    7.77    7.64
  -5  -6   2    7.26    7.50
  -5  -6   3    4.34    8.49
  -5  -6   4   13.90    9.08
  -5  -6   4   24.79   13.16
  -5  -6   5   47.80   12.04
  -5  -6   5   37.92    9.89
  -5  -6   5   45.84   14.37
  -5  -6   6   24.97    9.15
  -5  -6   6   24.98   11.41
  -5  -6   6   27.61   13.86
  -5  -6   7   10.75    8.78
  -5  -6   7    0.87   13.21
  -5  -6   7    7.84   10.94
  -5  -6   8   -4.40    8.58
  -5  -6   8  -11.83   11.05
  -5  -6   9    1.14   11.54
  -5  -6   9    0.56    8.52
  -5  -6  10    6.59   12.33
  -5  -5  -4   21.64   12.86
  -5  -5  -3   18.36   12.31
  -5  -5  -2   18.78   11.50
  -5  -5  -1    3.30   10.84
  -5  -5  -1    1.82    6.79
  -5  -5   0    0.25    6.77
  -5  -5   1    2.06    7.02
  -5  -5   2   10.46    7.53
  -5  -5   3   24.65    8.24
  -5  -5   4   35.94    9.15
  -5  -5   4   42.07   10.88
  -5  -5   5   71.46   10.51
  -5  -5   5   77.43   12.72
  -5  -5   6   66.15   12.88
  -5  -5   6   56.01    9.93
  -5  -5   7   23.10   11.08
  -5  -5   7   25.34    8.76
  -5  -5   8    1.93    7.88
  -5  -5   8    4.60   10.46
  -5  -5   9    0.49    7.96
  -5  -5   9    1.07   10.71
  -5  -5  10   -2.30   12.50
  -5  -5  10    1.11   11.19
  -5  -5  11   -1.98   12.65
  -5  -5  12   26.04   12.57
  -5  -4  -6   -7.51   12.78
  -5  -4  -5   -4.37   12.42
  -5  -4  -4   38.98   12.94
  -5  -4  -3   47.75   12.90
  -5  -4  -2   39.83   11.88
  -5  -4  -1   19.90   10.93
  -5  -4   0    6.40    6.76
  -5  -4   0   18.26   10.44
  -5  -4   1    3.90    9.73
  -5  -4   1    2.08    6.56
  -5  -4   2   -1.14    6.67
  -5  -4   2   -4.00   10.37
  -5  -4   3   17.54    7.31
  -5  -4   3   20.56   11.78
  -5  -4   4   49.28    8.98
  -5  -4   4   44.47   10.14
  -5  -4   5  119.41   14.03
  -5  -4   5  106.43   10.72
  -5  -4   6  132.42   11.52
  -5  -4   6  132.21   14.99
  -5  -4   7   59.73    9.29
  -5  -4   7   92.19   13.55
  -5  -4   8   14.26    7.73
  -5  -4   8   16.99   10.96
  -5  -4   9    3.79   11.40
  -5  -4  10   -5.24   12.18
  -5  -4  11    7.14   11.64
  -5  -4  12   27.80   11.52
  -5  -4  13   19.47   10.82
  -5  -3  -7    6.46   12.24
  -5  -3  -6   -1.15   12.02
  -5  -3  -5  -12.62   11.96
  -5  -3  -4   18.65   11.64
  -5  -3  -3   33.94   11.36
  -5  -3  -2   43.20   11.28
  -5  -3  -1   61.55   11.57
  -5  -3   0  151.03   14.34
  -5  -3   1  107.05   10.46
  -5  -3   1  158.89   14.23
  -5  -3   2   50.64    8.03
  -5  -3   2   65.63   11.57
  -5  -3   3   10.55    7.49
  -5  -3   3    6.86    6.24
  -5  -3   3    3.62    9.79
  -5  -3   4    4.40    6.15
  -5  -3   4    4.85    7.18
  -5  -3   4    6.79   10.00
  -5  -3   5   44.56    9.78
  -5  -3   5   40.56    7.30
  -5  -3   6  125.69   13.71
  -5  -3   6   95.55   10.61
  -5  -3   6  105.64    9.43
  -5  -3   7   98.30   11.10
  -5  -3   7  108.55   13.46
  -5  -3   7  107.37    9.90
  -5  -3   8   56.73    9.62
  -5  -3   8   94.55   13.74
  -5  -3   9   51.56   13.35
  -5  -3   9   53.75    9.74
  -5  -3  10   46.87    9.43
  -5  -3  10   44.07   12.59
  -5  -3  11    9.21   10.57
  -5  -3  11   24.53    8.89
  -5  -3  12  -12.73   10.58
  -5  -3  12    4.45    8.34
  -5  -3  13   15.13    9.33
  -5  -3  13    6.41    9.49
  -5  -2  -8   58.87   14.19
  -5  -2  -7   44.27   13.21
  -5  -2  -6   42.19   13.10
  -5  -2  -5   18.73   11.63
  -5  -2  -4    4.96   10.54
  -5  -2  -3  -10.64   10.17
  -5  -2  -2    6.53    9.19
  -5  -2  -1   51.85   10.47
  -5  -2   0  201.34   15.65
  -5  -2   1  374.87   22.12
  -5  -2   2  274.88   18.10
  -5  -2   2  216.14   13.55
  -5  -2   3  125.56    9.52
  -5  -2   3  120.55   13.58
  -5  -2   3  129.10   11.40
  -5  -2   3  128.73    9.71
  -5  -2   4   47.22    7.10
  -5  -2   4   43.40    6.45
  -5  -2   4   42.24    8.55
  -5  -2   5    5.64    7.27
  -5  -2   5   -0.86    4.86
  -5  -2   5    6.75    6.03
  -5  -2   6   10.00    5.29
  -5  -2   6   15.36    6.58
  -5  -2   7   45.50    4.42
  -5  -2   7   58.72    8.71
  -5  -2   7   52.13   11.54
  -5  -2   8   69.65    9.70
  -5  -2   8   54.66    4.74
  -5  -2   9  102.63   11.03
  -5  -2   9   70.55    5.37
  -5  -2  10  157.50   12.92
  -5  -2  10  160.85   14.01
  -5  -2  11  105.06   13.20
  -5  -2  11  101.21   11.94
  -5  -2  12   34.53    9.56
  -5  -2  12   20.46   10.01
  -5  -2  13   -1.15    8.33
  -5  -2  13    2.68    8.30
  -5  -2  14    3.59    7.90
  -5  -1  -9   39.30   13.39
  -5  -1  -8   47.36   13.42
  -5  -1  -7   49.57   13.15
  -5  -1  -6   28.78   12.55
  -5  -1  -5   27.87   11.88
  -5  -1  -4   25.37   10.97
  -5  -1  -3   -0.31    8.89
  -5  -1  -2    1.73    8.35
  -5  -1  -1   21.02    8.59
  -5  -1   0  195.62   14.61
  -5  -1   1  437.18   20.23
  -5  -1   1  464.05   24.30
  -5  -1   2  336.89   16.21
  -5  -1   2  324.20   19.54
  -5  -1   2  303.58   17.38
  -5  -1   2  323.91   15.21
  -5  -1   3  168.98   11.17
  -5  -1   3  169.71   12.36
  -5  -1   3  147.31    9.54
  -5  -1   3  167.98    9.79
  -5  -1   4   68.10    6.11
  -5  -1   4   79.81    8.29
  -5  -1   4   83.28    9.37
  -5  -1   4   70.36    6.76
  -5  -1   5   27.31    6.57
  -5  -1   5   25.17    5.50
  -5  -1   5   16.97    4.45
  -5  -1   6    8.17    4.62
  -5  -1   6    7.18    5.68
  -5  -1   6   -8.67    9.73
  -5  -1   7   25.85    5.33
  -5  -1   7   32.64    7.58
  -5  -1   7   41.23   11.02
  -5  -1   8   63.24    6.64
  -5  -1   8   66.49   11.23
  -5  -1   8   69.40    9.10
  -5  -1   9  108.23   11.30
  -5  -1   9  132.83   12.84
  -5  -1  10  191.57   14.91
  -5  -1  10  201.44   15.52
  -5  -1  11  157.42   13.80
  -5  -1  11  144.28   13.72
  -5  -1  12   68.69   10.65
  -5  -1  12   82.74   11.29
  -5  -1  13    7.70    8.00
  -5  -1  13    3.11    8.42
  -5   0 -10    1.50   12.32
  -5   0  -9   17.15   12.64
  -5   0  -8   45.40   13.14
  -5   0  -7   28.61   12.43
  -5   0  -6   40.25   12.40
  -5   0  -5  157.76   16.23
  -5   0  -4   53.97   11.75
  -5   0  -3   80.39   11.57
  -5   0  -2   23.38    8.69
  -5   0  -1    9.25    7.71
  -5   0  -1    0.06    2.52
  -5   0   0  100.36    8.18
  -5   0   0  106.28   10.67
  -5   0   0   90.38    6.87
  -5   0   1  367.02   20.98
  -5   0   1  366.62   18.04
  -5   0   1  383.96   18.10
  -5   0   2  502.44   25.49
  -5   0   2  435.97   23.26
  -5   0   2  520.29   22.77
  -5   0   2  520.72   23.35
  -5   0   3  258.30   13.96
  -5   0   3  234.51   14.28
  -5   0   3  251.81   13.04
  -5   0   3  214.12   11.04
  -5   0   4  148.88   10.05
  -5   0   4  145.84    8.72
  -5   0   4  154.94   10.76
  -5   0   5  191.49   13.04
  -5   0   5  204.97   15.84
  -5   0   5  194.09   11.33
  -5   0   6   47.11    7.38
  -5   0   6   54.47   10.22
  -5   0   6   53.86    6.78
  -5   0   7   -0.27    5.68
  -5   0   7    3.97    8.48
  -5   0   8   32.30    7.50
  -5   0   8   41.11    9.20
  -5   0   9   88.34   10.25
  -5   0   9   95.37   11.41
  -5   0  10  217.42   14.95
  -5   0  10  178.13   14.66
  -5   0  11  156.46   13.98
  -5   0  11  168.95   13.23
  -5   0  12   62.61   10.82
  -5   0  12   51.24    9.77
  -5   1 -10   35.77   13.15
  -5   1  -9   10.62   12.16
  -5   1  -8   17.24   12.14
  -5   1  -7   -2.40   11.24
  -5   1  -6   16.36   11.23
  -5   1  -5  110.58   14.16
  -5   1  -4  491.28   26.95
  -5   1  -3  393.68   22.67
  -5   1  -2  277.28   12.61
  -5   1  -2  285.71   17.54
  -5   1  -2  288.57   15.36
  -5   1  -1  228.61   13.27
  -5   1  -1  240.63   15.02
  -5   1  -1  229.45   11.84
  -5   1   0   48.55    5.70
  -5   1   0   50.94    6.95
  -5   1   0   50.40    8.40
  -5   1   1   31.03    5.31
  -5   1   1   36.14    6.37
  -5   1   1   24.18    8.14
  -5   1   1   30.32    8.34
  -5   1   2  175.74   13.20
  -5   1   2  167.30   10.70
  -5   1   2  159.13   10.50
  -5   1   2  156.36   10.05
  -5   1   3  206.85   12.13
  -5   1   3  205.84   14.80
  -5   1   3  194.32   11.91
  -5   1   3  198.28   12.41
  -5   1   4  378.11   19.82
  -5   1   4  388.75   18.90
  -5   1   5  504.90   24.86
  -5   1   6  586.74   27.33
  -5   1   6  513.55   26.46
  -5   1   7  306.37   18.43
  -5   1   7  346.31   18.87
  -5   1   8   37.84    7.49
  -5   1   8   30.66    8.57
  -5   1   9    5.88    6.60
  -5   1   9   -4.23    8.19
  -5   1  10   37.19    8.75
  -5   1  10   45.62    9.01
  -5   1  11  107.38   11.09
  -5   1  11  100.95   11.89
  -5   2  -9   33.22   12.83
  -5   2  -8   19.30   11.68
  -5   2  -8    3.13   11.16
  -5   2  -7    6.68   10.76
  -5   2  -7    7.25   10.01
  -5   2  -6   14.09   10.95
  -5   2  -6   -4.06    9.56
  -5   2  -5   44.87    9.94
  -5   2  -5   33.06   11.43
  -5   2  -4  283.00   18.70
  -5   2  -4  250.33   12.19
  -5   2  -4  278.05   15.25
  -5   2  -4  305.84   17.52
  -5   2  -3  477.08   25.01
  -5   2  -3  427.99   19.95
  -5   2  -3  514.68   24.03
  -5   2  -3  467.93   22.19
  -5   2  -2  554.78   25.87
  -5   2  -2  496.13   24.05
  -5   2  -2  499.44   22.63
  -5   2  -2  541.53   26.12
  -5   2  -1  568.79   27.13
  -5   2  -1  551.66   25.63
  -5   2  -1  543.38   26.45
  -5   2  -1  551.52   24.57
  -5   2   0  341.45   17.13
  -5   2   0  340.53   18.64
  -5   2   0  352.84   19.73
  -5   2   0  377.96   18.14
  -5   2   1   77.18    9.57
  -5   2   1   83.78    9.07
  -5   2   1   82.43    7.98
  -5   2   1   68.20    6.77
  -5   2   2    2.39    6.84
  -5   2   2    6.52    5.51
  -5   2   2    1.60    3.34
  -5   2   2    0.37    2.90
  -5   2   2    0.57    4.42
  -5   2   3    7.32    6.89
  -5   2   3   14.40    6.17
  -5   2   3   13.05    4.89
  -5   2   4  158.58   11.09
  -5   2   5  551.30   26.79
  -5   2   6  855.36   37.73
  -5   2   6  826.42   38.26
  -5   2   7  598.11   28.11
  -5   2   7  572.22   28.75
  -5   2   8  322.52   17.74
  -5   2   8  294.45   18.47
  -5   2   9  109.95   10.99
  -5   2   9   99.27   10.26
  -5   2  10    9.97    7.35
  -5   2  10    8.35    7.63
  -5   2  11    5.91    7.68
  -5   2  14   27.42   11.37
  -5   3 -10   30.81   14.88
  -5   3  -8   29.31   11.89
  -5   3  -8   34.84    9.73
  -5   3  -8   25.91    4.98
  -5   3  -7   16.51    4.08
  -5   3  -7   12.53   10.67
  -5   3  -7   14.42    8.98
  -5   3  -6   28.81   10.72
  -5   3  -6   16.97    8.53
  -5   3  -6   18.11    3.93
  -5   3  -5   11.00    6.54
  -5   3  -5    2.43    9.54
  -5   3  -5    6.83    7.71
  -5   3  -5    6.15    3.38
  -5   3  -4  158.20   11.28
  -5   3  -4  168.59   12.74
  -5   3  -4  136.87   14.17
  -5   3  -3  324.36   18.12
  -5   3  -3  318.38   17.23
  -5   3  -3  318.13   19.55
  -5   3  -2  332.89   17.87
  -5   3  -2  333.00   18.45
  -5   3  -2  303.79   16.83
  -5   3  -2  311.38   17.13
  -5   3  -1  207.06   12.60
  -5   3  -1  213.58   12.54
  -5   3  -1  213.77   13.84
  -5   3  -1  221.39   13.41
  -5   3  -1  226.04   13.64
  -5   3   0  309.86   17.00
  -5   3   0  289.42   15.03
  -5   3   0  302.15   16.37
  -5   3   0  312.66   16.20
  -5   3   0  310.34   16.53
  -5   3   1  201.66   12.43
  -5   3   1  200.83   12.62
  -5   3   1  185.13   11.90
  -5   3   1  201.53   10.49
  -5   3   1  198.75   12.86
  -5   3   2   29.43    3.76
  -5   3   2   29.16    5.64
  -5   3   2   26.25    6.57
  -5   3   2   25.04    7.04
  -5   3   2   28.97    3.48
  -5   3   3    4.80    4.85
  -5   3   3   -0.60    6.80
  -5   3   4   17.24    6.99
  -5   3   4   16.57    5.31
  -5   3   5  390.79   20.89
  -5   3   6  705.92   33.41
  -5   3   7  444.17   22.30
  -5   3   7  438.85   23.68
  -5   3   8  193.28   14.63
  -5   3   8  197.93   13.32
  -5   3   9   60.60    9.72
  -5   3   9   81.50    9.82
  -5   3  10   41.32    9.16
  -5   3  13   19.47   10.06
  -5   3  14   23.05   11.47
  -5   4 -10   31.30   13.19
  -5   4  -9   62.90   14.04
  -5   4  -8   49.85    6.48
  -5   4  -8   53.13   12.62
  -5   4  -8   51.39    9.71
  -5   4  -7  110.60    8.30
  -5   4  -7  123.79   11.45
  -5   4  -7  113.96   12.62
  -5   4  -7  138.52   14.16
  -5   4  -6   94.90    7.43
  -5   4  -6  102.46   10.51
  -5   4  -6  102.39   12.09
  -5   4  -6  110.23   12.25
  -5   4  -5   38.39    8.22
  -5   4  -5   42.03    8.95
  -5   4  -5   36.57    9.30
  -5   4  -4   15.05    8.93
  -5   4  -4   13.37    7.19
  -5   4  -4    7.37    6.53
  -5   4  -4   10.59    7.11
  -5   4  -3  136.12   12.49
  -5   4  -3  137.11   11.09
  -5   4  -3  142.49   10.96
  -5   4  -3  149.83   11.23
  -5   4  -2   75.33    8.43
  -5   4  -2   84.57    8.90
  -5   4  -2   73.73    8.60
  -5   4  -2   79.12    9.37
  -5   4  -1  341.13   17.25
  -5   4  -1  331.38   18.10
  -5   4  -1  335.01   17.85
  -5   4  -1  348.42   17.69
  -5   4   0  427.93   19.62
  -5   4   0  414.30   19.95
  -5   4   0  397.82   20.65
  -5   4   0  413.27   21.01
  -5   4   1  521.46   21.92
  -5   4   1  472.37   24.28
  -5   4   1  512.18   24.29
  -5   4   1  477.13   23.57
  -5   4   1  465.55   22.76
  -5   4   2  204.35   13.24
  -5   4   2  199.74   13.48
  -5   4   2  220.76   10.71
  -5   4   3   86.42    8.68
  -5   4   3   90.02    9.19
  -5   4   4   23.37    6.33
  -5   4   4   16.87    6.70
  -5   4   5   22.75    6.76
  -5   4   6  322.17   19.19
  -5   4   7  357.59   21.49
  -5   4   7  392.53   19.99
  -5   4   8  167.62   14.04
  -5   4   9  122.32   12.85
  -5   4  11   43.75    8.81
  -5   4  12    0.46    9.52
  -5   4  13   -4.88   10.21
  -5   4  14    5.74   10.72
  -5   5 -10    5.90   11.47
  -5   5  -9   42.99   12.55
  -5   5  -8  171.22   11.44
  -5   5  -8  156.64   15.56
  -5   5  -8  126.58   10.29
  -5   5  -7  164.99   14.85
  -5   5  -7  181.24   12.04
  -5   5  -7  135.82   10.25
  -5   5  -6  354.53   18.06
  -5   5  -6  337.50   20.30
  -5   5  -6  302.21   18.04
  -5   5  -5  359.39   17.81
  -5   5  -5  366.26   19.52
  -5   5  -4   84.95    9.14
  -5   5  -4   96.25   10.04
  -5   5  -4   90.52    9.51
  -5   5  -3    6.28    6.58
  -5   5  -3    2.94    6.94
  -5   5  -3    3.74    6.51
  -5   5  -2    6.68    6.52
  -5   5  -2    3.16    6.67
  -5   5  -2    1.72    6.06
  -5   5  -2   -8.98    7.17
  -5   5  -1   27.78    7.19
  -5   5  -1   18.39    7.13
  -5   5  -1   20.02    6.31
  -5   5  -1   24.02    6.58
  -5   5   0  439.55   19.89
  -5   5   0  435.05   20.56
  -5   5   0  402.71   21.09
  -5   5   0  439.25   22.23
  -5   5   1 1007.35   39.75
  -5   5   1  931.04   39.43
  -5   5   1  886.99   40.39
  -5   5   2 1158.58   50.99
  -5   5   2 1300.87   49.84
  -5   5   2 1150.63   53.59
  -5   5   3  773.81   34.41
  -5   5   3  780.19   37.05
  -5   5   4  334.52   17.87
  -5   5   4  326.93   19.71
  -5   5   5   73.51    9.67
  -5   5   6   -1.75    6.63
  -5   5   7   50.09    9.13
  -5   5   8   60.77   10.16
  -5   5   9   85.60    9.22
  -5   5  10  249.73   15.55
  -5   5  11  156.01   16.75
  -5   5  12   66.13   13.53
  -5   5  13   15.09   11.45
  -5   6 -10    1.21   10.91
  -5   6  -9    3.31   10.39
  -5   6  -8   35.00   10.83
  -5   6  -8   33.49    7.15
  -5   6  -7  124.02   13.20
  -5   6  -6  183.23   13.44
  -5   6  -6  185.55   14.90
  -5   6  -5  333.69   19.48
  -5   6  -5  329.40   17.36
  -5   6  -5  302.62   18.36
  -5   6  -4  244.80   16.30
  -5   6  -4  273.47   16.80
  -5   6  -4  279.25   15.41
  -5   6  -3  108.12   10.39
  -5   6  -3  110.70    9.70
  -5   6  -2   92.84    9.02
  -5   6  -2   81.76    9.30
  -5   6  -1   16.51    3.83
  -5   6  -1   29.76    7.33
  -5   6  -1   29.19    7.10
  -5   6   0   81.48    8.83
  -5   6   0   86.55    8.79
  -5   6   0   79.13    6.38
  -5   6   0   71.11    9.47
  -5   6   1  521.85   23.81
  -5   6   1  471.45   23.83
  -5   6   1  513.08   22.01
  -5   6   2  652.80   28.97
  -5   6   2  780.44   31.37
  -5   6   4  698.73   35.53
  -5   6   5  285.57   19.55
  -5   6   6   72.43   10.64
  -5   6   6   73.19    7.30
  -5   6   7   -1.26    8.30
  -5   6   7   15.15    6.20
  -5   6   8   22.07    6.88
  -5   6   9   42.19    8.13
  -5   6  10   90.55   14.48
  -5   6  10  126.45   11.59
  -5   6  11  170.63   18.32
  -5   6  12  138.87   18.00
  -5   6  13   53.73   15.02
  -5   7 -10   25.08   11.31
  -5   7  -9    0.53    6.82
  -5   7  -9   -6.90    9.84
  -5   7  -8    5.77    6.60
  -5   7  -8   -4.06    9.54
  -5   7  -7   20.29    9.40
  -5   7  -6   43.08    9.24
  -5   7  -6   39.43    9.82
  -5   7  -5   78.32   10.59
  -5   7  -5   97.61   11.30
  -5   7  -4  183.26   13.91
  -5   7  -4  152.69   12.99
  -5   7  -3  122.89   11.30
  -5   7  -3   98.45   11.00
  -5   7  -2  128.37   11.64
  -5   7  -1   90.54    9.79
  -5   7   0    3.94    6.57
  -5   7   1  198.80   13.44
  -5   7   2  243.20   13.85
  -5   7   2  266.84   12.15
  -5   7   3  221.74   11.37
  -5   7   4  219.41   18.43
  -5   7   4  237.36   12.42
  -5   7   5  176.31   16.73
  -5   7   5  199.85   11.58
  -5   7   6   71.79   12.20
  -5   7   6   84.84    8.35
  -5   7   7   36.50    7.54
  -5   7   8   13.55    7.66
  -5   7   9    3.12    7.99
  -5   7  10   41.00   12.88
  -5   7  10   35.68    9.66
  -5   7  11   74.85   15.60
  -5   7  12   96.49   17.29
  -5   8  -9   26.43   11.26
  -5   8  -8   -4.00    7.25
  -5   8  -8   -3.16    9.56
  -5   8  -7    8.62    9.72
  -5   8  -6    3.13    8.61
  -5   8  -5  101.88   12.39
  -5   8  -5   89.25   11.25
  -5   8  -4   67.45   10.41
  -5   8  -4   85.83   11.21
  -5   8  -3  214.33   15.44
  -5   8  -3  185.98   14.71
  -5   8  -2  316.40   18.86
  -5   8  -2  284.38   18.54
  -5   8  -1  302.14   17.62
  -5   8  -1  252.17   17.70
  -5   8   0   96.57   10.87
  -5   8   1   -0.24    7.36
  -5   8   2   58.52    8.02
  -5   8   3   58.75   10.16
  -5   8   3   53.39    7.29
  -5   8   4   51.00    8.16
  -5   8   5  170.65   12.22
  -5   8   5  164.81   17.23
  -5   8   6  160.41   12.47
  -5   8   7   60.23   10.16
  -5   8   8   25.34    9.84
  -5   8   9    3.55   11.95
  -5   8   9   -8.93   10.19
  -5   8  10  -14.99   10.56
  -5   8  10    2.40   12.14
  -5   8  11   12.82   14.03
  -5   9  -8   44.54   11.87
  -5   9  -7   37.88   11.09
  -5   9  -6   13.44    9.89
  -5   9  -5   -5.52    9.36
  -5   9  -4  177.95   15.33
  -5   9  -4  167.71   14.26
  -5   9  -3  219.98   15.80
  -5   9  -3  166.68   14.88
  -5   9  -2  369.29   21.04
  -5   9  -2  317.70   20.70
  -5   9  -1  468.50   25.66
  -5   9   0  356.53   21.56
  -5   9   1  130.18   13.82
  -5   9   2   25.28    7.88
  -5   9   3   -3.86    6.11
  -5   9   3    4.98    9.37
  -5   9   4   17.48   11.38
  -5   9   4   14.64    7.53
  -5   9   5   80.50   10.57
  -5   9   6  163.30   14.09
  -5   9   7  247.93   17.42
  -5   9   8  133.80   14.38
  -5   9   8  177.65   20.02
  -5   9   9   96.84   17.88
  -5   9   9   86.04   12.58
  -5   9  10   33.74   15.38
  -5  10  -8   30.88   11.88
  -5  10  -7   42.60   11.96
  -5  10  -6   65.28   12.62
  -5  10  -5   10.25   10.49
  -5  10  -4   -1.67    9.31
  -5  10  -3   40.26   10.98
  -5  10  -2   99.29   13.41
  -5  10  -1  212.11   17.34
  -5  10   0  218.80   17.98
  -5  10   2   65.30   11.09
  -5  10   3   52.46   12.57
  -5  10   4   11.81   12.65
  -5  10   4   12.72    8.35
  -5  10   5   -1.89   13.26
  -5  10   5   10.12    9.15
  -5  10   7  121.04   19.33
  -5  10   8  137.35   20.63
  -5  10   9  112.71   20.07
  -5  11  -6   48.04   12.36
  -5  11  -5   30.30   11.37
  -5  11  -4   -2.56   10.16
  -5  11  -3   -3.63   10.31
  -5  11  -2    3.59   10.12
  -5  11  -1   13.62   10.88
  -5  11   2   29.11   10.88
  -5  11   3   32.52   13.54
  -5  11   4   34.03   15.60
  -5  11   5  -11.48   15.29
  -5  11   6    2.94   14.95
  -5  11   6   18.29   15.00
  -5  11   7   30.47   16.67
  -5  12  -5   74.91   14.29
  -5  12  -4   29.89   12.36
  -5  12  -3    9.13   11.24
  -5  12  -2    3.25   11.39
  -5  12  -1  -13.53   12.57
  -5  13  -2   11.48   13.23
  -4  -9   1   -4.29   11.95
  -4  -9   2   20.60   12.28
  -4  -9   3   24.65   12.38
  -4  -9   4   21.07   12.25
  -4  -9   5    6.39   11.90
  -4  -9   6   -5.07   12.19
  -4  -9   7    2.08   12.58
  -4  -9   8    4.22   12.99
  -4  -8  -2   14.69   12.73
  -4  -8  -1    4.34   11.92
  -4  -8   0   -3.80   11.56
  -4  -8   1   -2.58   11.07
  -4  -8   2    2.52   10.66
  -4  -8   3    3.18   10.94
  -4  -8   4    9.68   11.39
  -4  -8   5   32.53   12.97
  -4  -8   6   17.19   11.06
  -4  -8   6  -15.94   13.26
  -4  -8   7   -8.64   12.90
  -4  -8   7    4.16   10.55
  -4  -8   8   -9.89   13.50
  -4  -8   8   -2.75   11.42
  -4  -7  -4    6.48   12.24
  -4  -7  -3   11.58   12.14
  -4  -7  -2   -2.31   11.55
  -4  -7  -1   47.05   12.71
  -4  -7   0   45.26   12.29
  -4  -7   1   10.96    8.33
  -4  -7   1   20.85   10.96
  -4  -7   2    1.22    8.11
  -4  -7   2    0.67   10.04
  -4  -7   3   -2.03    9.96
  -4  -7   3    1.57    8.67
  -4  -7   4   11.54    9.04
  -4  -7   4    8.70   10.58
  -4  -7   5   11.69   11.73
  -4  -7   5    8.58    8.87
  -4  -7   5    5.49    9.73
  -4  -7   6   21.46    9.38
  -4  -7   6   14.59   10.59
  -4  -7   6   25.25   12.01
  -4  -7   7   10.85    9.60
  -4  -7   7   12.56   11.14
  -4  -7   7   12.34   12.57
  -4  -7   8   28.21   10.36
  -4  -7   8   21.70   11.63
  -4  -7   9   30.54   10.23
  -4  -7   9   17.07   11.97
  -4  -7  10   14.43    9.67
  -4  -7  10   -5.24   11.93
  -4  -7  11   -6.18   11.90
  -4  -6  -2   25.17    8.11
  -4  -6  -1   32.26    8.75
  -4  -6   0   45.85    9.21
  -4  -6   1   31.96    8.80
  -4  -6   1   46.34   11.29
  -4  -6   2    5.07    9.56
  -4  -6   2    1.11    7.43
  -4  -6   3   -3.43    8.10
  -4  -6   3   -3.26    9.77
  -4  -6   4    1.67    7.78
  -4  -6   4   -9.46    8.62
  -4  -6   4   -6.47   10.27
  -4  -6   5   14.01    8.17
  -4  -6   5   13.03    9.17
  -4  -6   5   13.94   11.00
  -4  -6   6   37.23    9.32
  -4  -6   6   28.31   10.80
  -4  -6   7   35.43   11.25
  -4  -6   7   42.14    9.68
  -4  -6   8   50.21   12.30
  -4  -6   8   41.86   10.28
  -4  -6   9   57.57   10.89
  -4  -6   9   55.00   13.36
  -4  -6  10   26.98   12.38
  -4  -6  11   -0.55   11.56
  -4  -6  12    2.38   10.31
  -4  -5  -7   18.05   12.32
  -4  -5  -6   10.51   12.27
  -4  -5  -5  -10.90   12.49
  -4  -5  -1   57.84    9.09
  -4  -5   0   79.42   10.21
  -4  -5   1   43.58    8.58
  -4  -5   2   25.17    8.02
  -4  -5   3   31.74    8.16
  -4  -5   3   28.72    8.41
  -4  -5   4    2.88    7.19
  -4  -5   4    7.04    7.64
  -4  -5   5    7.38    7.22
  -4  -5   5  -11.08    8.33
  -4  -5   6   33.66    8.23
  -4  -5   6   26.99    9.54
  -4  -5   7   70.66   12.04
  -4  -5   7   68.52    9.85
  -4  -5   8  105.84   11.54
  -4  -5   8  112.69   14.44
  -4  -5   9   88.25   11.29
  -4  -5  10   63.36   12.69
  -4  -5  11   12.17   10.56
  -4  -5  12   -3.90    9.18
  -4  -4  -8    7.71   11.79
  -4  -4  -7   18.24   11.79
  -4  -4  -6   66.81   13.72
  -4  -4  -5   71.02   13.51
  -4  -4  -4   54.43   12.28
  -4  -4  -3   15.89   10.13
  -4  -4  -2   -5.93    8.98
  -4  -4  -1    6.20    8.86
  -4  -4   0   66.25   10.75
  -4  -4   1   76.55    9.24
  -4  -4   2  104.08   10.36
  -4  -4   3  117.90   10.47
  -4  -4   3  108.82   11.44
  -4  -4   4  212.08   16.09
  -4  -4   4  225.42   14.23
  -4  -4   5  103.57    9.84
  -4  -4   5  100.42   11.98
  -4  -4   6   14.41    6.40
  -4  -4   6   19.15    8.31
  -4  -4   7    2.59    6.56
  -4  -4   8   44.43    8.22
  -4  -4   9   83.87   12.66
  -4  -4  10   99.69   13.33
  -4  -4  11   62.33   11.01
  -4  -4  12   17.08    8.90
  -4  -4  13   -1.10    7.86
  -4  -3  -9   -0.72   11.43
  -4  -3  -8    0.71   11.18
  -4  -3  -7   12.74   11.04
  -4  -3  -6   83.88   13.77
  -4  -3  -5  181.51   16.85
  -4  -3  -4  135.88   14.49
  -4  -3  -3   95.22   12.14
  -4  -3  -2   77.81   10.99
  -4  -3  -1   20.14    8.30
  -4  -3   0    3.86    7.54
  -4  -3   1   23.75    6.75
  -4  -3   1   37.87    8.66
  -4  -3   2   65.55    8.20
  -4  -3   2   68.73   10.40
  -4  -3   2   74.58    9.12
  -4  -3   3  213.77   12.67
  -4  -3   3  204.72   14.70
  -4  -3   3  207.80   15.46
  -4  -3   4  390.33   19.52
  -4  -3   4  402.36   22.41
  -4  -3   5  422.30   22.87
  -4  -3   5  375.93   20.27
  -4  -3   5  383.80   19.05
  -4  -3   6  155.69   12.13
  -4  -3   6  186.13   11.36
  -4  -3   7   32.56    6.87
  -4  -3   7   31.65    6.81
  -4  -3   8    6.59    8.65
  -4  -3   8    5.56    6.16
  -4  -3   9    6.81    6.82
  -4  -3   9   12.68    9.56
  -4  -3  10   28.18    9.33
  -4  -3  10   34.57    8.55
  -4  -3  11   26.61    8.80
  -4  -3  11   46.31    9.46
  -4  -3  12   40.17    9.14
  -4  -3  12   56.93   10.14
  -4  -3  13   47.60    8.46
  -4  -2 -10    8.97   11.62
  -4  -2  -9   17.90   12.02
  -4  -2  -8   -0.35   11.18
  -4  -2  -7    9.01   10.76
  -4  -2  -6   54.35   12.20
  -4  -2  -5  153.96   15.46
  -4  -2  -4  121.55   13.52
  -4  -2  -3   99.31   11.66
  -4  -2  -2   61.93    9.68
  -4  -2  -1   68.58    9.27
  -4  -2   0    4.68    6.90
  -4  -2   1   24.62    7.88
  -4  -2   2   63.06    7.63
  -4  -2   2   62.86    6.08
  -4  -2   2   78.86    9.51
  -4  -2   2   55.08    7.02
  -4  -2   3  196.90   11.10
  -4  -2   3  197.07   13.43
  -4  -2   3  190.75   11.54
  -4  -2   4  418.74   20.19
  -4  -2   4  466.64   22.01
  -4  -2   4  492.88   23.82
  -4  -2   5  493.65   23.43
  -4  -2   5  461.41   19.32
  -4  -2   5  478.69   21.08
  -4  -2   6  263.05   11.76
  -4  -2   6  277.99   16.00
  -4  -2   6  281.10   14.04
  -4  -2   7   32.32    6.79
  -4  -2   7   37.78    9.03
  -4  -2   7   23.45    3.43
  -4  -2   8   17.75    6.38
  -4  -2   8   15.58    8.61
  -4  -2   9    3.51    6.37
  -4  -2   9    3.08    7.53
  -4  -2  10   20.72    8.08
  -4  -2  10   21.24    7.62
  -4  -2  11   38.14    8.70
  -4  -2  11   38.82    8.89
  -4  -2  12   25.55    9.08
  -4  -2  12   28.67    7.87
  -4  -2  13   49.76    5.52
  -4  -1 -10   31.48   12.46
  -4  -1  -9   48.34   12.93
  -4  -1  -8   12.34   10.86
  -4  -1  -7   11.69   10.60
  -4  -1  -6   -8.24   10.08
  -4  -1  -5  127.19   14.26
  -4  -1  -4  131.99   13.13
  -4  -1  -3  144.07   12.73
  -4  -1  -2  149.22   12.47
  -4  -1  -1  306.10   17.51
  -4  -1   0  108.74    9.85
  -4  -1   0   88.71    5.78
  -4  -1   1   73.17    9.01
  -4  -1   1   79.71    6.06
  -4  -1   1   78.10    6.16
  -4  -1   2   10.77    4.03
  -4  -1   2    5.91    4.51
  -4  -1   2   10.56    3.88
  -4  -1   3   99.76    6.58
  -4  -1   3   99.20    7.72
  -4  -1   3  106.94    8.99
  -4  -1   3   92.31    6.64
  -4  -1   4  404.52   19.45
  -4  -1   4  353.34   16.72
  -4  -1   4  414.66   17.22
  -4  -1   5  599.00   26.09
  -4  -1   5  644.79   29.23
  -4  -1   5  657.37   26.28
  -4  -1   6  218.02   13.95
  -4  -1   6  256.93   15.47
  -4  -1   6  222.77   11.34
  -4  -1   7  192.46   13.16
  -4  -1   7  209.51   14.13
  -4  -1   8   67.50    8.89
  -4  -1   8   56.50    7.92
  -4  -1   9   36.68    7.58
  -4  -1   9   29.27    8.04
  -4  -1  10    4.59    6.60
  -4  -1  10   -2.80    7.55
  -4  -1  11   14.09    7.61
  -4  -1  11    8.02    7.27
  -4  -1  12   73.55    9.13
  -4  -1  14   52.07   11.04
  -4  -1  15   47.72   11.74
  -4   0 -10   89.67   14.20
  -4   0  -9  153.47   15.81
  -4   0  -8  158.40   15.70
  -4   0  -7  144.57   15.08
  -4   0  -6   42.91   10.95
  -4   0  -5    1.16    9.34
  -4   0  -4   40.00    9.57
  -4   0  -3   70.10    9.60
  -4   0  -2  237.48   14.95
  -4   0  -1  782.01   31.33
  -4   0  -1  786.21   34.93
  -4   0  -1  773.24   32.98
  -4   0   0 1459.48   55.68
  -4   0   0 1347.10   56.14
  -4   0   0 1357.78   57.96
  -4   0   1  544.77   23.53
  -4   0   1  521.51   25.34
  -4   0   1  537.09   23.49
  -4   0   2  375.22   17.24
  -4   0   2  356.64   17.51
  -4   0   2  341.52   16.45
  -4   0   3  120.53    8.26
  -4   0   3   99.25    5.71
  -4   0   3  118.44    7.38
  -4   0   4   16.38    4.77
  -4   0   4    9.59    4.27
  -4   0   5  260.33   15.44
  -4   0   5  244.36   14.21
  -4   0   6  383.32   19.52
  -4   0   6  361.58   19.28
  -4   0   7  180.22   12.33
  -4   0   7  190.36   12.60
  -4   0   8  294.76   16.32
  -4   0   8  285.23   17.12
  -4   0   9  316.95   19.58
  -4   0   9  369.05   18.54
  -4   0  10  231.17   13.71
  -4   0  10  216.17   15.49
  -4   0  11   26.97    7.40
  -4   0  13   18.86    9.10
  -4   0  14   25.19   10.05
  -4   0  15   28.02   11.07
  -4   1  -9  114.90   14.49
  -4   1  -8  111.21   13.57
  -4   1  -7  210.03   16.68
  -4   1  -6  242.91   17.52
  -4   1  -5   59.51   10.73
  -4   1  -4    2.07    8.20
  -4   1  -3    5.86    7.04
  -4   1  -3    9.94    4.91
  -4   1  -3    3.32    1.95
  -4   1  -2   58.77    6.32
  -4   1  -2   48.78    4.07
  -4   1  -2   59.00    8.17
  -4   1  -1  605.32   26.44
  -4   1  -1  610.30   27.60
  -4   1  -1  595.00   25.24
  -4   1   0 1141.81   49.21
  -4   1   0 1203.19   47.73
  -4   1   0 1180.96   48.30
  -4   1   1 1340.98   55.12
  -4   1   1 1295.82   56.22
  -4   1   1 1386.69   54.79
  -4   1   1 1433.16   55.47
  -4   1   2  897.63   38.04
  -4   1   2  865.59   37.42
  -4   1   2  887.19   39.08
  -4   1   2  962.30   37.65
  -4   1   3  481.01   22.32
  -4   1   3  477.09   21.55
  -4   1   4  188.59   11.70
  -4   1   5    3.26    5.84
  -4   1   5   -0.42    4.10
  -4   1   6   44.75    6.58
  -4   1   6   48.84    7.31
  -4   1   7  138.69   10.70
  -4   1   7  145.59   10.61
  -4   1   8  314.74   16.47
  -4   1   8  286.90   17.39
  -4   1   9  472.36   24.84
  -4   1   9  475.94   22.83
  -4   1  10  436.48   21.38
  -4   1  12   37.54    9.64
  -4   1  13    2.79    8.72
  -4   1  14    2.58    9.41
  -4   1  15   14.32   10.79
  -4   2  -9   41.92    9.43
  -4   2  -9   35.90    5.64
  -4   2  -8   30.60    5.03
  -4   2  -8   44.64   10.87
  -4   2  -7   70.26    5.82
  -4   2  -7   90.78   11.78
  -4   2  -6  114.80    6.89
  -4   2  -6  130.60   12.83
  -4   2  -5  119.23    6.87
  -4   2  -5  143.89   12.56
  -4   2  -4   58.72    9.68
  -4   2  -4   60.05    6.97
  -4   2  -3   34.17    5.81
  -4   2  -3   42.08    8.16
  -4   2  -2    1.66    5.96
  -4   2  -2    2.71    5.48
  -4   2  -2    0.75    4.73
  -4   2  -1  250.78   13.28
  -4   2  -1  218.97   13.94
  -4   2  -1  246.22   12.45
  -4   2  -1  264.31   13.75
  -4   2   0  845.39   35.48
  -4   2   0  829.71   34.88
  -4   2   0  805.11   36.08
  -4   2   0  835.62   35.12
  -4   2   1  943.54   39.07
  -4   2   1  892.63   37.20
  -4   2   1  943.89   39.00
  -4   2   1  958.94   37.11
  -4   2   1  923.07   39.73
  -4   2   2  314.15   16.36
  -4   2   2  313.43   13.03
  -4   2   2  323.99   15.92
  -4   2   3  119.78    8.52
  -4   2   3  120.27    9.08
  -4   2   4  394.63   19.63
  -4   2   5   47.99    6.29
  -4   2   6    6.20    4.83
  -4   2   6    6.33    5.76
  -4   2   7   29.56    6.69
  -4   2   7   23.69    6.35
  -4   2   8  129.08   11.21
  -4   2   8  134.58   10.38
  -4   2  12   36.18    9.71
  -4   2  13   -2.94    9.65
  -4   2  14   -8.66   10.25
  -4   2  15    3.40   10.53
  -4   3 -11   -6.61   13.76
  -4   3  -9   10.27    5.36
  -4   3  -9    2.86    6.78
  -4   3  -8   12.07    4.81
  -4   3  -8   11.82    6.90
  -4   3  -7   45.66    5.43
  -4   3  -7   46.72    9.36
  -4   3  -7   40.69    7.43
  -4   3  -6  193.66   11.78
  -4   3  -6  158.98    9.72
  -4   3  -6  201.64   13.98
  -4   3  -5  441.61   21.32
  -4   3  -5  472.42   23.40
  -4   3  -4  327.31   16.84
  -4   3  -4  337.37   18.37
  -4   3  -3  136.20   10.82
  -4   3  -3  123.64    9.33
  -4   3  -3  131.32    9.64
  -4   3  -2  226.01   12.86
  -4   3  -2  235.98   13.38
  -4   3  -2  214.28   12.79
  -4   3  -2  226.09   12.54
  -4   3  -1    2.64    5.11
  -4   3  -1    5.87    5.01
  -4   3  -1   -0.37    3.97
  -4   3  -1    5.74    4.71
  -4   3   0  361.68   16.64
  -4   3   0  336.02   15.87
  -4   3   0  326.56   17.02
  -4   3   0  361.16   17.34
  -4   3   1  434.34   18.24
  -4   3   1  393.61   19.92
  -4   3   1  409.22   20.24
  -4   3   1  442.17   20.26
  -4   3   2  192.77   11.88
  -4   3   2  204.79    9.29
  -4   3   2  188.42   11.71
  -4   3   3 1363.68   56.06
  -4   3   3 1369.98   57.06
  -4   3   4  101.85    8.66
  -4   3   5  390.15   20.41
  -4   3   6   98.61    9.24
  -4   3   6   92.31    8.53
  -4   3   7    9.35    5.87
  -4   3   7   15.88    6.21
  -4   3  11  110.23   12.81
  -4   3  11  123.54   11.26
  -4   3  12   31.46   10.00
  -4   3  13   28.89   10.45
  -4   3  14    1.92   10.51
  -4   3  15   -2.59   11.33
  -4   4 -11   72.80   14.80
  -4   4 -10   50.88   12.78
  -4   4 -10   30.44    6.89
  -4   4  -9   20.96   10.70
  -4   4  -9   13.12    5.97
  -4   4  -8   -0.21    6.05
  -4   4  -8    4.87    5.19
  -4   4  -8   -5.31    8.70
  -4   4  -7   -3.92    8.01
  -4   4  -7   -2.42    6.29
  -4   4  -7    4.95    4.65
  -4   4  -6  174.28   11.70
  -4   4  -6  184.06   13.59
  -4   4  -6  187.64   11.27
  -4   4  -6  155.48   10.28
  -4   4  -5  513.74   24.08
  -4   4  -5  522.22   25.61
  -4   4  -5  528.70   23.77
  -4   4  -4  832.34   35.38
  -4   4  -4  852.92   35.11
  -4   4  -4  773.60   36.16
  -4   4  -3 1269.41   50.95
  -4   4  -3 1218.02   51.67
  -4   4  -3 1234.99   50.85
  -4   4  -2  593.48   26.40
  -4   4  -2  602.08   26.64
  -4   4  -2  608.76   26.33
  -4   4  -2  563.25   26.77
  -4   4  -1  474.81   21.75
  -4   4  -1  448.03   22.03
  -4   4  -1  470.54   21.36
  -4   4  -1  473.25   20.89
  -4   4   0   10.61    5.45
  -4   4   0   12.45    5.50
  -4   4   0   15.67    4.38
  -4   4   0   12.40    4.30
  -4   4   1   36.37    4.86
  -4   4   1   35.45    6.05
  -4   4   2  168.64    8.87
  -4   4   2  150.16   10.35
  -4   4   3   26.79    5.90
  -4   4   3   36.37    6.38
  -4   4   4 1892.57   77.73
  -4   4   4 1860.20   75.28
  -4   4   5 1287.24   55.80
  -4   4   6  590.55   29.55
  -4   4   7  302.34   18.67
  -4   4   9    8.42    6.65
  -4   4  10   25.48    9.41
  -4   4  10   33.32    7.91
  -4   4  11   66.90   11.58
  -4   4  11   81.06   10.06
  -4   4  12   54.89   11.76
  -4   4  13   55.14   12.73
  -4   4  14   62.81   13.62
  -4   5 -11   33.79   12.88
  -4   5 -10   33.69    7.57
  -4   5 -10   47.55   12.30
  -4   5  -9   23.89    6.86
  -4   5  -9   36.66   10.81
  -4   5  -8   51.67    7.44
  -4   5  -8   60.23   10.73
  -4   5  -7   51.62    7.76
  -4   5  -7   61.03    9.80
  -4   5  -7   37.49    6.47
  -4   5  -6   17.23    5.71
  -4   5  -6    6.62    7.39
  -4   5  -6    8.91    6.29
  -4   5  -5  204.76   13.57
  -4   5  -5  245.44   12.78
  -4   5  -5  225.36   14.76
  -4   5  -4  478.84   23.11
  -4   5  -4  426.96   22.33
  -4   5  -4  481.08   21.44
  -4   5  -3  475.65   22.88
  -4   5  -3  473.85   21.82
  -4   5  -2  807.82   32.22
  -4   5  -2  815.20   33.01
  -4   5  -1  749.62   30.32
  -4   5  -1  765.66   32.68
  -4   5  -1  746.19   32.33
  -4   5   0  241.67   12.82
  -4   5   0  229.68   10.82
  -4   5   0  229.79   13.01
  -4   5   1   88.08    8.00
  -4   5   1   91.80    5.54
  -4   5   1   99.84    7.50
  -4   5   2   10.01    5.40
  -4   5   2    9.50    4.82
  -4   5   4  382.69   21.73
  -4   5   5  779.78   37.58
  -4   5   6  751.36   31.87
  -4   5   6  744.38   36.52
  -4   5   7  496.57   23.00
  -4   5   8  252.08   14.42
  -4   5   9   66.89   11.43
  -4   5   9   67.84    9.02
  -4   5  10   18.08    8.06
  -4   5  10   -6.66    9.30
  -4   5  11    9.97    8.44
  -4   5  11   -4.82    9.90
  -4   5  12   14.31   11.24
  -4   5  13   36.02   13.00
  -4   5  14   59.33   14.80
  -4   6 -11    1.99   10.87
  -4   6 -10   30.67   11.20
  -4   6 -10   31.49    7.85
  -4   6  -9   36.49    7.84
  -4   6  -9   36.21   10.51
  -4   6  -8   77.21   11.36
  -4   6  -8   72.36    9.15
  -4   6  -8   61.86    8.43
  -4   6  -7   63.40    8.78
  -4   6  -7   70.33   10.22
  -4   6  -6   19.54    7.07
  -4   6  -6   26.75    7.79
  -4   6  -5   41.20    8.20
  -4   6  -5   23.62    7.35
  -4   6  -4  118.11   10.56
  -4   6  -4  120.98   10.10
  -4   6  -3   97.04    9.46
  -4   6  -3  103.20    9.46
  -4   6  -2  152.93   11.10
  -4   6  -1  369.72   18.86
  -4   6   0  300.73   15.98
  -4   6   1  126.65    8.17
  -4   6   1  150.52   10.16
  -4   6   1  140.21    6.87
  -4   6   2   80.75    5.60
  -4   6   3   16.69    4.26
  -4   6   4   77.97    6.74
  -4   6   5  356.00   16.94
  -4   6   5  331.25   21.83
  -4   6   6  396.92   19.20
  -4   6   7  108.99    9.51
  -4   6   8  105.36   13.33
  -4   6   8   92.32    9.84
  -4   6   9   73.14    9.81
  -4   6   9   61.44   12.12
  -4   6  10   16.51    8.93
  -4   6  10   10.49   10.59
  -4   6  11   -3.17   10.81
  -4   6  12    1.13   11.84
  -4   6  13   16.41   13.23
  -4   6  14   48.09   15.51
  -4   7 -11   -1.18   11.03
  -4   7 -10   26.59    8.44
  -4   7 -10   24.73   10.94
  -4   7  -9   73.51   10.10
  -4   7  -9   94.37   12.60
  -4   7  -8  111.43   10.63
  -4   7  -8   86.66   10.23
  -4   7  -8  106.50   12.66
  -4   7  -7  211.79   15.63
  -4   7  -7  191.38   13.44
  -4   7  -6  166.28   12.89
  -4   7  -6  178.63   14.12
  -4   7  -5    6.21    7.54
  -4   7  -5    6.06    7.21
  -4   7  -4    5.01    6.54
  -4   7  -4    7.55    7.24
  -4   7  -3   15.02    7.31
  -4   7  -3    8.85    6.48
  -4   7  -2   63.12    8.89
  -4   7  -2   74.47    8.82
  -4   7  -1  324.78   17.81
  -4   7   0  333.57   18.18
  -4   7   1  488.90   23.11
  -4   7   1  431.95   21.56
  -4   7   2  329.81   15.38
  -4   7   2  310.48   18.22
  -4   7   3  166.13   10.70
  -4   7   4   -6.15    6.41
  -4   7   5   72.46    8.71
  -4   7   6   32.17    7.97
  -4   7   7  108.15   14.47
  -4   7   7  103.94   10.70
  -4   7   8   79.31   13.92
  -4   7   8   71.11   10.34
  -4   7   9   85.55   14.42
  -4   7   9   76.10   11.16
  -4   7  10   37.55   10.91
  -4   7  10   47.04   13.94
  -4   7  11   22.87   13.28
  -4   7  12  -25.59   14.25
  -4   7  13   -9.02   14.66
  -4   8 -10   22.03   10.62
  -4   8  -9   64.27   12.02
  -4   8  -9   39.06    9.32
  -4   8  -8  112.81   11.86
  -4   8  -8  131.43   11.75
  -4   8  -8  137.91   14.35
  -4   8  -7  301.32   19.40
  -4   8  -7  264.13   17.06
  -4   8  -6  175.14   14.63
  -4   8  -6  168.07   13.31
  -4   8  -5  235.77   16.40
  -4   8  -5  226.93   15.11
  -4   8  -4   50.26    9.21
  -4   8  -4   51.17    8.87
  -4   8  -3   40.17    8.62
  -4   8  -3   25.89    8.17
  -4   8  -2   -0.73    7.10
  -4   8  -1  101.65   10.79
  -4   8   0  705.99   33.15
  -4   8   1  412.96   22.53
  -4   8   1  485.08   24.25
  -4   8   2  595.27   29.32
  -4   8   2  548.57   24.16
  -4   8   3  507.76   23.85
  -4   8   4  212.05   14.04
  -4   8   5   18.56    8.20
  -4   8   6   11.33    8.45
  -4   8   7    2.50    8.51
  -4   8   7    3.95   11.12
  -4   8   8   36.26   10.15
  -4   8   8   22.53   12.78
  -4   8   9  120.09   13.41
  -4   8   9  112.03   17.89
  -4   8  10  157.42   20.00
  -4   8  11  107.57   18.34
  -4   8  12   45.66   16.72
  -4   9  -9    4.74    9.93
  -4   9  -8   11.07    9.81
  -4   9  -7   54.54   10.03
  -4   9  -7   57.58   11.82
  -4   9  -6  165.52   15.01
  -4   9  -6  141.24   13.06
  -4   9  -5   90.81   12.06
  -4   9  -5   79.83   10.18
  -4   9  -4  113.36   12.36
  -4   9  -4   91.29   11.06
  -4   9  -3  124.04   12.26
  -4   9  -3  104.12   12.04
  -4   9  -2   67.81   10.28
  -4   9  -1    0.28    7.87
  -4   9   0   62.65   10.76
  -4   9   1  214.48   15.37
  -4   9   2  276.84   19.57
  -4   9   3  242.50   15.42
  -4   9   3  279.69   21.29
  -4   9   4  196.90   14.75
  -4   9   5   61.99   11.15
  -4   9   6   24.64   10.13
  -4   9   6   21.42   12.81
  -4   9   7    0.28    9.66
  -4   9   7   13.42   13.09
  -4   9   8    2.72   10.00
  -4   9   8   -9.69   13.68
  -4   9   9   27.42   11.12
  -4   9   9   23.65   15.67
  -4   9  10  120.65   20.17
  -4   9  11   95.40   19.07
  -4  10  -8    2.60   10.02
  -4  10  -7   -4.26   10.13
  -4  10  -6   16.57    9.33
  -4  10  -6   17.36   10.31
  -4  10  -5   38.20    9.39
  -4  10  -5   42.30   10.78
  -4  10  -4   40.00   10.01
  -4  10  -4   59.75   11.09
  -4  10  -3   68.37   11.45
  -4  10  -3   55.04   10.47
  -4  10  -2   96.18   12.47
  -4  10  -1    9.78    9.71
  -4  10   0   -3.66    9.58
  -4  10   1   19.25    8.58
  -4  10   2   22.96   10.64
  -4  10   3   23.52    9.55
  -4  10   3   29.42   12.84
  -4  10   4   80.34   12.23
  -4  10   4   76.59   16.33
  -4  10   5   54.26   11.66
  -4  10   5   33.11   15.40
  -4  10   6   19.63   11.53
  -4  10   6   33.96   15.30
  -4  10   7    0.31   10.90
  -4  10   7   27.60   15.66
  -4  10   8   -2.90   11.17
  -4  10   8    1.44   14.97
  -4  10   9  -15.42   16.16
  -4  10  10   22.55   16.71
  -4  11  -7   -4.52    9.97
  -4  11  -6    0.36    9.80
  -4  11  -5   28.43   11.00
  -4  11  -4   55.19   11.03
  -4  11  -4   59.20   12.09
  -4  11  -3   93.30   13.37
  -4  11  -3   80.71   12.58
  -4  11  -2  150.37   15.66
  -4  11  -1   71.55   13.31
  -4  11   2   -5.29   11.39
  -4  11   3   20.70   13.69
  -4  11   4   18.37   15.53
  -4  11   5   56.54   17.24
  -4  11   7   45.05   18.23
  -4  11   8   18.99   17.48
  -4  12  -5   13.75   11.02
  -4  12  -4   34.22   11.89
  -4  12  -3   58.65   13.46
  -4  12  -2   90.87   15.15
  -4  12   2    3.04   12.56
  -4  12   3    3.58   14.63
  -3 -11   4   10.58   11.76
  -3 -11   5   12.88   11.87
  -3 -10  -1    5.96   12.33
  -3 -10   0    5.75   12.12
  -3 -10   1    9.65   11.74
  -3 -10   2   -6.48   11.41
  -3 -10   3   11.67   11.28
  -3 -10   4   10.71   11.68
  -3 -10   5   -1.02   11.50
  -3 -10   6   11.28   12.33
  -3 -10   7    6.59   12.55
  -3 -10   8   -0.38   12.70
  -3 -10   9    5.05   12.99
  -3  -9  -3   -8.27   12.31
  -3  -9  -2   -4.67   11.89
  -3  -9  -1   10.15   11.52
  -3  -9   0   15.94   11.86
  -3  -9   1   -1.04   10.95
  -3  -9   2   20.75   11.66
  -3  -9   3   18.15   11.03
  -3  -9   4   -2.28   10.43
  -3  -9   5    4.36   10.90
  -3  -9   6    2.45   10.06
  -3  -9   6    5.32   11.62
  -3  -9   7   25.35   12.27
  -3  -9   7    6.51   10.77
  -3  -9   8    4.38   12.14
  -3  -8  -5    2.66   12.32
  -3  -8  -4  -15.70   12.92
  -3  -8  -3  -16.18   11.80
  -3  -8  -2  -11.80   11.55
  -3  -8  -1   -1.77   10.84
  -3  -8   0   16.84   11.07
  -3  -8   1   13.00    8.80
  -3  -8   1   14.65   10.54
  -3  -8   2   29.76   10.56
  -3  -8   2   59.75   11.63
  -3  -8   3   33.99   10.78
  -3  -8   3   27.46   10.63
  -3  -8   4   14.20   10.62
  -3  -8   4   17.53    9.64
  -3  -8   5   -6.23    8.85
  -3  -8   5   -3.10    8.91
  -3  -8   5   -7.28   10.92
  -3  -8   6    0.98    8.65
  -3  -8   6    9.52    9.52
  -3  -8   6   -0.98   10.47
  -3  -8   7    6.84   11.04
  -3  -8   7    6.49    9.08
  -3  -8   7    5.78    9.68
  -3  -8   8    5.48   10.02
  -3  -7  -6   18.94   12.41
  -3  -7  -5   -2.92   11.87
  -3  -7  -4  -16.86   11.85
  -3  -7  -3   -5.38   10.66
  -3  -7  -2    2.40    9.95
  -3  -7  -2    1.74    7.00
  -3  -7  -1    3.26    9.64
  -3  -7  -1    6.98    7.74
  -3  -7   0    9.26    7.92
  -3  -7   0   27.76   10.42
  -3  -7   1   38.25    9.63
  -3  -7   1   34.71   10.44
  -3  -7   2   61.24   10.32
  -3  -7   2   56.45   11.17
  -3  -7   3   75.53   11.15
  -3  -7   3   61.42   11.48
  -3  -7   4   51.52   10.38
  -3  -7   4   37.77    9.68
  -3  -7   4   40.43   11.26
  -3  -7   5   -8.76    9.99
  -3  -7   5    3.46    8.16
  -3  -7   5    4.05    7.98
  -3  -7   6   -8.20    9.03
  -3  -7   6    2.31    7.75
  -3  -7   7   -0.58    8.05
  -3  -7   7    2.65    8.56
  -3  -7   8    9.59    8.78
  -3  -7   8   -0.47    9.39
  -3  -7   9   22.00   10.94
  -3  -7   9   16.02    9.42
  -3  -7  10   30.52   10.14
  -3  -7  11   24.31   10.27
  -3  -6  -2   12.09    9.85
  -3  -6  -2   12.81    7.29
  -3  -6  -1   -1.20    8.78
  -3  -6  -1    7.58    6.97
  -3  -6   0    5.48    8.78
  -3  -6   0    4.57    7.19
  -3  -6   1   38.14   10.00
  -3  -6   1   37.27    8.59
  -3  -6   2   59.24   10.87
  -3  -6   2   87.11   10.30
  -3  -6   3  119.37   13.27
  -3  -6   3  122.67   12.07
  -3  -6   3  108.48   12.13
  -3  -6   4   85.07   12.18
  -3  -6   4  105.89   12.03
  -3  -6   4  117.66   11.67
  -3  -6   5   37.97    8.69
  -3  -6   5   36.00    9.39
  -3  -6   6    6.66    8.13
  -3  -6   6   10.89    7.73
  -3  -6   7    3.74    8.27
  -3  -6   7   -2.04    7.44
  -3  -6   8    1.86    7.75
  -3  -6   8   10.92    8.89
  -3  -6   9   12.95    8.53
  -3  -6  11   50.62   10.50
  -3  -6  12   33.95    8.39
  -3  -5  -9   35.72   12.17
  -3  -5  -8   -1.04   10.96
  -3  -5   0   41.84    7.97
  -3  -5   1    6.99    6.74
  -3  -5   2   12.75    7.03
  -3  -5   3   55.94    9.70
  -3  -5   3   59.80    8.69
  -3  -5   3   52.35    8.82
  -3  -5   4  137.60   12.84
  -3  -5   4  136.12   11.28
  -3  -5   5  124.22   12.60
  -3  -5   5  156.49   11.74
  -3  -5   6  112.14   10.28
  -3  -5   6  112.29   12.21
  -3  -5   7  128.98   11.43
  -3  -5   8   98.12   10.36
  -3  -5  10   -0.20    8.43
  -3  -5  11   25.45    8.07
  -3  -5  12   24.12    7.57
  -3  -5  13   26.30    6.50
  -3  -4  -9   38.76   12.21
  -3  -4  -8   24.71   11.33
  -3  -4  -7   15.22   10.63
  -3  -4  -6   -3.23   10.05
  -3  -4  -4   26.36    9.94
  -3  -4   1   78.20    8.84
  -3  -4   2   32.54    6.70
  -3  -4   2   31.25    6.99
  -3  -4   3    2.45    5.52
  -3  -4   3    1.98    5.70
  -3  -4   4   43.05    6.65
  -3  -4   4   35.58    7.38
  -3  -4   5  123.48    9.66
  -3  -4   5  124.94   11.47
  -3  -4   6  177.51   11.89
  -3  -4   7  293.81   16.53
  -3  -4   8  306.66   17.51
  -3  -4   9  170.95   13.27
  -3  -4  10   19.97    7.81
  -3  -4  11   -6.77    6.77
  -3  -4  12   -1.52    6.07
  -3  -3 -10   40.29   11.84
  -3  -3  -9   32.43   11.71
  -3  -3  -8   13.49   10.72
  -3  -3  -7   45.16   11.26
  -3  -3  -6   16.52    9.79
  -3  -3  -5  -16.24    9.95
  -3  -3  -4    8.68    8.31
  -3  -3  -3   57.47    9.39
  -3  -3  -2  293.55   17.41
  -3  -3  -1  457.35   23.25
  -3  -3   0  183.47   12.60
  -3  -3   1   85.37    9.25
  -3  -3   1   76.30    8.02
  -3  -3   2   37.82    6.20
  -3  -3   2   32.64    6.15
  -3  -3   3   26.69    5.44
  -3  -3   3   25.25    6.23
  -3  -3   4   21.47    5.01
  -3  -3   4   24.39    6.22
  -3  -3   5   69.99    7.52
  -3  -3   5   90.49    7.40
  -3  -3   6  173.77   11.85
  -3  -3   6  177.04   11.02
  -3  -3   7  241.59   15.15
  -3  -3   7  268.38   14.41
  -3  -3   8  393.60   19.87
  -3  -3   8  347.66   19.83
  -3  -3   9  184.76   13.33
  -3  -3   9  185.64   12.46
  -3  -3  10   65.18    8.87
  -3  -3  10   61.15    7.79
  -3  -3  11   -1.14    3.83
  -3  -3  11    0.52    6.24
  -3  -3  12   -4.78    4.60
  -3  -3  12    9.93    5.89
  -3  -3  13  -10.06    5.44
  -3  -3  13    1.44    7.94
  -3  -2 -11   18.90   11.33
  -3  -2 -10   26.82   11.19
  -3  -2  -9   31.13   10.79
  -3  -2  -8   56.58   11.58
  -3  -2  -7  172.48   15.38
  -3  -2  -6   77.15   11.64
  -3  -2  -5  107.18   12.06
  -3  -2  -4   11.63    8.21
  -3  -2  -3    4.62    6.92
  -3  -2  -2  166.87   12.12
  -3  -2  -1  412.34   20.81
  -3  -2   0  446.55   21.89
  -3  -2   1  179.95   11.87
  -3  -2   1  174.30   11.22
  -3  -2   2  208.08   11.63
  -3  -2   2  217.50   11.32
  -3  -2   2  223.96   13.03
  -3  -2   3  320.25   15.71
  -3  -2   3  343.08   16.51
  -3  -2   3  364.15   18.02
  -3  -2   4   56.34    5.99
  -3  -2   4   53.26    5.30
  -3  -2   5    8.01    2.19
  -3  -2   5   15.14    4.70
  -3  -2   5   15.27    4.30
  -3  -2   6  122.83    9.33
  -3  -2   6  117.67    8.22
  -3  -2   7  206.08   13.26
  -3  -2   7  216.31   13.34
  -3  -2   8  365.87   19.94
  -3  -2   8  376.75   18.69
  -3  -2   9  259.67   15.85
  -3  -2   9  235.79   13.71
  -3  -2  10   58.72    7.72
  -3  -2  11   45.41    7.08
  -3  -2  13    3.70    4.95
  -3  -2  13    4.33    8.14
  -3  -2  14    6.73    5.60
  -3  -2  14   21.01    9.42
  -3  -2  15   20.05   10.53
  -3  -1 -10   12.37   10.53
  -3  -1  -9   11.91    9.92
  -3  -1  -8   63.31   11.40
  -3  -1  -7  227.62   16.99
  -3  -1  -6  736.13   35.07
  -3  -1  -5  332.62   19.75
  -3  -1  -4  269.70   16.86
  -3  -1  -3  199.26   13.49
  -3  -1  -2   26.11    6.36
  -3  -1  -1   74.86    7.77
  -3  -1   0  244.09   10.90
  -3  -1   0  232.63   13.56
  -3  -1   1  371.49   15.82
  -3  -1   1  337.74   17.51
  -3  -1   1  344.37   16.98
  -3  -1   1  343.15   15.26
  -3  -1   2  995.15   42.82
  -3  -1   2 1113.57   43.71
  -3  -1   2 1086.41   42.45
  -3  -1   2 1104.55   44.67
  -3  -1   3 1298.70   52.50
  -3  -1   3 1404.05   54.35
  -3  -1   3 1333.35   52.31
  -3  -1   4 1330.60   51.38
  -3  -1   4 1235.66   48.94
  -3  -1   4 1210.82   48.68
  -3  -1   5  473.10   22.29
  -3  -1   5  470.58   22.14
  -3  -1   6   23.05    5.16
  -3  -1   6   19.21    6.10
  -3  -1   7    3.99    4.57
  -3  -1   7    5.12    5.46
  -3  -1   8  110.10    9.81
  -3  -1   8  135.60    9.28
  -3  -1   9  224.35   15.20
  -3  -1   9  260.21   13.70
  -3  -1  10  184.06   11.35
  -3  -1  12  143.09   13.22
  -3  -1  13   90.64   11.84
  -3  -1  14   13.58    9.27
  -3  -1  15    1.45    6.85
  -3  -1  15    1.28    9.50
  -3   0  -9    1.17    9.20
  -3   0  -8   13.90    9.44
  -3   0  -7  155.08   13.48
  -3   0  -6  393.93   21.91
  -3   0  -5  550.47   27.43
  -3   0  -4  467.35   23.89
  -3   0  -3  437.53   22.02
  -3   0  -2  268.91   14.95
  -3   0  -1   40.86    4.53
  -3   0  -1   36.37    5.99
  -3   0  -1   37.96    2.87
  -3   0   0   26.24    4.07
  -3   0   0   25.97    5.44
  -3   0   0   26.23    2.93
  -3   0   1   48.42    4.56
  -3   0   1   49.50    4.21
  -3   0   1   43.35    4.38
  -3   0   2  694.25   27.99
  -3   0   2  631.95   26.88
  -3   0   3 1782.57   64.33
  -3   0   3 1554.59   61.45
  -3   0   4 1888.22   75.79
  -3   0   5  812.32   34.81
  -3   0   5  790.31   33.92
  -3   0   6  416.98   19.53
  -3   0   6  427.09   20.71
  -3   0   7   98.66    8.49
  -3   0   7   90.76    7.86
  -3   0   8   -1.69    5.18
  -3   0   8    1.97    5.31
  -3   0   9   29.02    6.23
  -3   0  11  132.50   12.21
  -3   0  12  116.50   12.25
  -3   0  13  157.95   14.76
  -3   0  14   76.29   12.26
  -3   0  15   10.30   10.16
  -3   1 -10   21.24    6.31
  -3   1  -9   16.67    5.64
  -3   1  -8   13.53    8.75
  -3   1  -8    4.93    4.33
  -3   1  -7   38.47    9.00
  -3   1  -7   29.14    4.51
  -3   1  -6  210.31   10.51
  -3   1  -6  237.41   15.09
  -3   1  -5  235.30   10.77
  -3   1  -5  257.26   15.56
  -3   1  -4  138.59   11.15
  -3   1  -4  129.88    6.38
  -3   1  -3  181.60   10.25
  -3   1  -3  183.45   12.19
  -3   1  -2  377.68   18.67
  -3   1  -2  388.92   17.57
  -3   1  -1  233.35   12.19
  -3   1  -1  213.59   10.28
  -3   1  -1  239.89   11.63
  -3   1   0    5.83    2.35
  -3   1   0    4.63    3.32
  -3   1   0    8.16    4.35
  -3   1   1    0.28    3.07
  -3   1   1    1.04    2.26
  -3   1   1    1.78    2.18
  -3   1   1    1.61    4.03
  -3   1   2  171.84    9.31
  -3   1   2  164.25   10.01
  -3   1   3 1160.06   47.63
  -3   1   4 1434.53   58.63
  -3   1   5  421.46   19.50
  -3   1   5  427.02   20.58
  -3   1   6  134.50    9.74
  -3   1   6  135.72    9.16
  -3   1   7  106.93    8.30
  -3   1   7  109.43    9.11
  -3   1   8   58.58    6.84
  -3   1  10   29.06    7.54
  -3   1  11   52.39    9.45
  -3   1  12   81.34   10.73
  -3   1  12   92.26   11.72
  -3   1  13  101.95   13.12
  -3   1  14   65.30   12.24
  -3   1  15    4.59   10.22
  -3   2 -11   63.91    8.61
  -3   2 -10   33.67    7.09
  -3   2 -10   59.06    7.78
  -3   2  -9  144.44   10.17
  -3   2  -8   76.26    7.16
  -3   2  -7   23.53    7.88
  -3   2  -7   20.05    4.46
  -3   2  -6   52.20    8.20
  -3   2  -6   38.89    4.68
  -3   2  -5  117.60    7.11
  -3   2  -5  133.61   10.56
  -3   2  -4   70.60    8.00
  -3   2  -3  606.61   25.94
  -3   2  -3  609.56   26.96
  -3   2  -3  568.99   25.44
  -3   2  -2  831.33   33.51
  -3   2  -2  781.62   33.76
  -3   2  -2  774.60   33.24
  -3   2  -1  882.60   36.17
  -3   2  -1  908.19   36.59
  -3   2  -1  849.66   36.17
  -3   2   0  337.28   14.79
  -3   2   0  339.63   15.53
  -3   2   0  334.64   15.98
  -3   2   0  348.68   15.79
  -3   2   1  146.86    8.40
  -3   2   1  141.71    6.81
  -3   2   1  139.28    8.51
  -3   2   2    9.72    3.18
  -3   2   2   11.29    4.11
  -3   2   3  110.02    7.71
  -3   2   4  822.03   35.48
  -3   2   5  649.69   28.89
  -3   2   5  618.84   27.39
  -3   2   6  222.03   14.04
  -3   2   6  248.74   12.91
  -3   2   9   74.64    9.51
  -3   2  10   -0.32    6.46
  -3   2  11   13.46    8.01
  -3   2  11   12.70    7.54
  -3   2  12   56.99   10.15
  -3   2  12   46.77   10.45
  -3   2  13   65.56   12.10
  -3   2  14   33.60   11.61
  -3   2  15   18.70   11.55
  -3   3 -12    9.97   12.63
  -3   3 -11   76.24    9.54
  -3   3 -11  101.25   14.84
  -3   3 -10  168.57   11.93
  -3   3  -9  156.12    9.73
  -3   3  -9   70.29    6.81
  -3   3  -8  270.96   13.40
  -3   3  -8  286.04   14.97
  -3   3  -7  270.59   14.58
  -3   3  -7  292.79   13.65
  -3   3  -6   37.05    5.16
  -3   3  -6   33.78    5.39
  -3   3  -5    9.78    5.57
  -3   3  -5    4.14    4.35
  -3   3  -4   20.80    5.44
  -3   3  -4   17.51    5.29
  -3   3  -4   17.89    4.56
  -3   3  -3   96.93    6.85
  -3   3  -3   98.79    7.66
  -3   3  -3   91.81    7.61
  -3   3  -2 1541.08   61.73
  -3   3  -2 1589.52   62.20
  -3   3  -2 1468.49   61.98
  -3   3  -2 1597.21   61.74
  -3   3  -1 2550.85   99.88
  -3   3  -1 2551.64   99.40
  -3   3  -1 2584.46  100.08
  -3   3  -1 2534.33  100.44
  -3   3   0 2362.13   93.73
  -3   3   0 2448.07   93.97
  -3   3   0 2440.32   94.71
  -3   3   1 1260.43   49.47
  -3   3   1 1241.72   50.70
  -3   3   2  419.70   19.12
  -3   3   3   46.80    5.84
  -3   3   3   48.17    5.66
  -3   3   4   26.88    5.18
  -3   3   5  167.69   11.48
  -3   3   8  993.83   41.84
  -3   3   9  412.01   23.30
  -3   3   9  416.36   20.77
  -3   3  10  153.51   14.09
  -3   3  10  178.33   12.39
  -3   3  11   35.08    8.80
  -3   3  11   24.03    8.68
  -3   3  12    6.18    8.65
  -3   3  13   12.38   10.05
  -3   3  14   38.01   12.36
  -3   3  15   34.22   12.84
  -3   4 -12  -14.58   12.18
  -3   4 -11   20.70    7.02
  -3   4 -11    9.66   10.99
  -3   4 -10   48.24    7.80
  -3   4 -10   38.94   11.16
  -3   4  -9  110.83    9.85
  -3   4  -9  124.59   13.04
  -3   4  -8  136.12   10.27
  -3   4  -8  142.13   13.04
  -3   4  -7  263.56   14.90
  -3   4  -7  299.05   17.45
  -3   4  -6  221.44   10.49
  -3   4  -6  220.84   14.04
  -3   4  -6  196.57   12.01
  -3   4  -6  180.46   11.67
  -3   4  -5  109.55    8.71
  -3   4  -5  124.78    7.68
  -3   4  -5  119.03    9.78
  -3   4  -4   65.58    7.09
  -3   4  -4   71.13    7.53
  -3   4  -4   76.92    6.21
  -3   4  -3    1.70    4.68
  -3   4  -3    3.21    4.12
  -3   4  -2  356.67   15.32
  -3   4  -2  373.12   17.43
  -3   4  -2  382.18   16.94
  -3   4  -1 1323.12   50.26
  -3   4  -1 1242.25   52.06
  -3   4  -1 1252.52   51.82
  -3   4   0 1102.14   43.13
  -3   4   0 1116.57   44.75
  -3   4   0 1088.42   44.78
  -3   4   1 1134.11   44.41
  -3   4   1 1057.77   44.73
  -3   4   4   66.64    7.80
  -3   4   6   44.44    5.84
  -3   4   7  212.87   12.31
  -3   4   8  480.59   26.21
  -3   4   8  488.02   23.03
  -3   4   9  529.09   29.24
  -3   4   9  567.52   26.39
  -3   4  10  269.88   19.36
  -3   4  10  278.87   16.74
  -3   4  11   90.89   12.44
  -3   4  11   80.36   10.74
  -3   4  12   20.71    9.95
  -3   4  13    4.77    9.83
  -3   4  14    7.01   11.38
  -3   4  15   17.91   12.70
  -3   5 -12    6.25    7.35
  -3   5 -12   -3.31   11.66
  -3   5 -11    3.25    6.88
  -3   5 -11   -4.89   10.50
  -3   5 -10    1.81    6.59
  -3   5 -10   -2.05    9.33
  -3   5  -9    6.76    6.29
  -3   5  -9   12.75    9.06
  -3   5  -8   37.73    7.09
  -3   5  -8   33.31    9.04
  -3   5  -7  126.38    9.66
  -3   5  -7   99.32    9.29
  -3   5  -7  126.52   11.57
  -3   5  -6  194.78   12.12
  -3   5  -6  206.94   13.66
  -3   5  -5  186.27   11.65
  -3   5  -5  181.03   12.33
  -3   5  -4  158.08   10.86
  -3   5  -4  159.96   10.26
  -3   5  -3  110.62    8.31
  -3   5  -3   80.65    7.50
  -3   5  -2   10.76    4.85
  -3   5  -1  450.95   20.92
  -3   5   0  275.81   13.70
  -3   5   0  255.16   12.24
  -3   5   1  169.25   10.28
  -3   5   1  173.28    8.16
  -3   5   1  179.52   10.16
  -3   5   2  269.19   12.20
  -3   5   3  367.31   16.37
  -3   5   4  155.52    9.12
  -3   5   5   55.27    6.09
  -3   5   6   15.04    5.59
  -3   5   7   20.34    6.43
  -3   5   7    9.24    7.29
  -3   5   8  205.29   13.33
  -3   5   8  181.28   15.55
  -3   5   9  243.29   15.44
  -3   5   9  225.87   18.23
  -3   5  10  111.12   14.09
  -3   5  10  114.50   11.76
  -3   5  11   13.76   10.14
  -3   5  11   13.06    8.99
  -3   5  12   23.22   11.77
  -3   5  13    3.07   11.01
  -3   5  14   -0.53   12.03
  -3   5  15  -11.43   12.85
  -3   6 -12   42.57    9.46
  -3   6 -12   54.73   12.72
  -3   6 -11    6.32    7.75
  -3   6 -11    8.44   10.34
  -3   6 -10    0.57    7.06
  -3   6 -10    2.02    9.32
  -3   6  -9    2.16    6.78
  -3   6  -9   -0.62    8.44
  -3   6  -8   12.44    6.49
  -3   6  -8   19.91    8.39
  -3   6  -8   10.39    6.40
  -3   6  -7  207.00   14.23
  -3   6  -7  173.68   12.02
  -3   6  -6  218.36   13.54
  -3   6  -6  227.73   14.95
  -3   6  -5  422.98   21.54
  -3   6  -5  402.74   20.17
  -3   6  -4  492.90   23.88
  -3   6  -4  481.83   22.82
  -3   6  -3  389.00   19.16
  -3   6  -3  383.66   19.66
  -3   6  -2   75.18    7.82
  -3   6  -1    9.66    5.17
  -3   6   0  150.85   10.18
  -3   6   0  136.49    8.83
  -3   6   1   81.07    5.39
  -3   6   1   79.30    7.85
  -3   6   1   77.24    7.50
  -3   6   2  180.33   10.33
  -3   6   3  664.06   28.76
  -3   6   4  521.76   23.93
  -3   6   5  224.94   13.52
  -3   6   6   89.33   12.44
  -3   6   6   85.95    9.41
  -3   6   7    1.63    7.09
  -3   6   7    3.83    8.67
  -3   6   8    7.75    8.04
  -3   6   8   10.95    9.69
  -3   6   9   57.33   10.26
  -3   6   9   64.30   12.02
  -3   6  10   17.16    9.79
  -3   6  10   40.53   12.23
  -3   6  11   86.07   14.84
  -3   6  12    6.56   11.88
  -3   6  13   40.84   14.28
  -3   6  14   -4.44   12.56
  -3   7 -11   61.51   12.43
  -3   7 -10   27.97    8.77
  -3   7 -10   28.18   10.64
  -3   7  -9   29.16    8.45
  -3   7  -9   35.29   10.28
  -3   7  -8    8.55    6.64
  -3   7  -8   17.53    8.75
  -3   7  -8   11.88    6.83
  -3   7  -7    7.01    6.55
  -3   7  -7   18.65    8.24
  -3   7  -6  447.06   22.58
  -3   7  -6  475.32   24.30
  -3   7  -5  362.58   19.86
  -3   7  -5  336.81   18.01
  -3   7  -4  530.93   25.75
  -3   7  -4  504.55   24.34
  -3   7  -3  681.20   31.17
  -3   7  -3  704.93   32.02
  -3   7  -2  443.10   22.28
  -3   7  -1  131.84   10.67
  -3   7   0   19.12    6.53
  -3   7   0   14.61    5.04
  -3   7   1   -2.80    6.00
  -3   7   1   -0.26    5.72
  -3   7   1    1.95    4.05
  -3   7   2  138.09    9.59
  -3   7   2  130.81   12.58
  -3   7   3  489.73   23.32
  -3   7   4  757.57   34.01
  -3   7   5  640.60   30.20
  -3   7   6  316.00   18.56
  -3   7   6  326.79   22.89
  -3   7   7  158.31   13.37
  -3   7   7  150.16   17.05
  -3   7   8   30.87    9.49
  -3   7   8   24.97   11.51
  -3   7   9    4.06    9.10
  -3   7   9   10.87   11.96
  -3   7  10    7.82   10.15
  -3   7  10   17.47   11.88
  -3   7  11   -0.57   11.98
  -3   7  12   58.44   15.40
  -3   7  13   71.25   16.49
  -3   7  14   25.28   14.87
  -3   8 -11   29.62   11.39
  -3   8 -10   16.40   10.46
  -3   8  -9   57.16    8.58
  -3   8  -9   46.20    9.68
  -3   8  -9   62.28   11.42
  -3   8  -8   53.36    9.70
  -3   8  -8   75.12   11.27
  -3   8  -8   66.91    8.74
  -3   8  -7    5.76    7.01
  -3   8  -7   13.61    8.35
  -3   8  -6   -3.43    6.75
  -3   8  -6    9.59    7.90
  -3   8  -5  116.95   12.02
  -3   8  -5  116.23   10.14
  -3   8  -4  150.42   12.66
  -3   8  -4  134.77   11.10
  -3   8  -3  267.47   15.92
  -3   8  -3  223.24   14.82
  -3   8  -2  295.12   17.64
  -3   8  -1  218.56   14.90
  -3   8   0   77.41    9.77
  -3   8   0   70.98    8.73
  -3   8   1   86.54   10.77
  -3   8   2    3.11    8.10
  -3   8   2    5.79    6.87
  -3   8   3   82.87    9.93
  -3   8   4  285.81   17.67
  -3   8   5  246.00   16.79
  -3   8   6  209.55   15.72
  -3   8   6  196.45   19.77
  -3   8   7  124.98   13.54
  -3   8   7  123.20   17.19
  -3   8   8   44.75   11.24
  -3   8   8   73.70   15.07
  -3   8   9   21.69   10.58
  -3   8   9    8.52   13.01
  -3   8  10   11.44   12.73
  -3   8  11   -8.00   14.29
  -3   8  12   17.27   14.75
  -3   8  13   17.48   15.26
  -3   9 -10   17.75   10.88
  -3   9  -9   39.31   11.18
  -3   9  -9   43.08    8.47
  -3   9  -8   65.32    9.31
  -3   9  -8   73.56   12.20
  -3   9  -7   30.23   10.17
  -3   9  -7   34.90    8.78
  -3   9  -6    1.53    8.27
  -3   9  -6    0.20    7.42
  -3   9  -5   -2.38    8.08
  -3   9  -5   -2.21    6.83
  -3   9  -4    4.61    6.84
  -3   9  -4    3.37    7.54
  -3   9  -3   24.34    8.45
  -3   9  -2   85.71   11.02
  -3   9  -1   97.55   11.66
  -3   9   0   93.62   11.89
  -3   9   1   76.88   11.56
  -3   9   2   43.78   11.81
  -3   9   2   43.15    9.33
  -3   9   3   -1.92    9.17
  -3   9   3   -0.53   10.39
  -3   9   4   35.90   10.74
  -3   9   5   36.19   10.68
  -3   9   6   31.94   11.25
  -3   9   7   36.46   11.77
  -3   9   7   43.52   14.83
  -3   9   8   34.41   11.83
  -3   9   8   44.83   15.57
  -3   9   9   18.72   15.41
  -3   9  10   11.98   14.54
  -3   9  11   -1.30   14.34
  -3   9  12  -16.76   15.75
  -3  10  -9   55.45    9.20
  -3  10  -9   54.37   12.32
  -3  10  -8   82.16   10.48
  -3  10  -8   95.97   13.39
  -3  10  -7   67.08   12.00
  -3  10  -7   58.22    9.91
  -3  10  -6   17.73    7.99
  -3  10  -6   25.96   10.04
  -3  10  -5    9.33    7.62
  -3  10  -5   14.35    9.27
  -3  10  -4    9.67    8.65
  -3  10  -4   -3.61    7.59
  -3  10  -3   11.61    9.00
  -3  10  -2   39.61   10.21
  -3  10  -1   97.97   13.03
  -3  10   1  114.17   14.81
  -3  10   2  106.29   15.93
  -3  10   3   35.94   13.97
  -3  10   3   24.58   11.60
  -3  10   4  -11.13   13.16
  -3  10   4  -13.59   11.81
  -3  10   5   -0.69   13.47
  -3  10   5   -4.84   11.52
  -3  10   6    6.36   11.55
  -3  10   7    3.59   15.31
  -3  10   7   11.78   11.92
  -3  10   8   32.02   16.78
  -3  10   8   22.11   12.44
  -3  10   9   35.23   16.80
  -3  10  10   31.38   17.08
  -3  11  -9   32.37    8.63
  -3  11  -8   61.37   10.14
  -3  11  -8   57.24   12.50
  -3  11  -7   46.75   10.43
  -3  11  -7   71.38   12.73
  -3  11  -6   62.52    9.96
  -3  11  -6   43.52   11.64
  -3  11  -5   40.23    9.58
  -3  11  -5   21.41   10.50
  -3  11  -4   22.46    9.32
  -3  11  -4   32.48   11.02
  -3  11  -3    0.35    9.44
  -3  11  -2    0.36    9.83
  -3  11   1  129.11   16.94
  -3  11   2  120.24   18.81
  -3  11   3   68.95   17.20
  -3  11   4   22.78   13.98
  -3  11   7   -3.89   16.78
  -3  11   8   50.16   19.06
  -3  12  -7   -5.50    9.48
  -3  12  -6   29.61    9.25
  -3  12  -6   28.79   12.03
  -3  12  -5   14.53   11.08
  -3  12  -5    7.92    9.12
  -3  12  -4   28.04   10.37
  -3  12  -4   35.68   11.84
  -3  12  -3   24.25   12.10
  -2 -12   1    0.36   11.71
  -2 -12   2   10.19   11.51
  -2 -12   3   -3.08   11.17
  -2 -12   4   -9.68   11.01
  -2 -12   5  -13.18   11.06
  -2 -12   6  -21.70   11.44
  -2 -12   7    0.32   11.06
  -2 -12   8   -9.24   11.55
  -2 -11  -1    4.45   11.84
  -2 -11   0   11.61   11.85
  -2 -11   1   13.57   11.68
  -2 -11   2    9.43   11.29
  -2 -11   3   -2.29   10.63
  -2 -11   4    8.07   10.89
  -2 -11   5   -6.95   10.83
  -2 -11   6    0.31   10.50
  -2 -11   7   -7.48   11.41
  -2 -11   8   11.20   11.84
  -2 -11   9   13.11   12.57
  -2 -11  10    1.43   12.22
  -2 -10  -4   21.81   12.71
  -2 -10  -3    2.54   12.07
  -2 -10  -2   28.16   11.87
  -2 -10  -1   -7.11   11.23
  -2 -10   0   -2.73   10.89
  -2 -10   1    7.89   10.71
  -2 -10   2   28.84   11.28
  -2 -10   3   13.96   10.67
  -2 -10   4   12.06   10.55
  -2 -10   5    9.68   10.45
  -2 -10   6   10.16   10.27
  -2 -10   6    4.98   10.63
  -2 -10   7   -8.29   10.02
  -2 -10   7    0.33   10.83
  -2 -10   8    0.51   10.13
  -2 -10   8   -8.17   11.05
  -2 -10   9   19.82   12.19
  -2  -9  -5    4.20   11.51
  -2  -9  -4   10.63   11.80
  -2  -9  -3   25.88   12.09
  -2  -9  -2   11.18   11.30
  -2  -9  -1    7.37   10.69
  -2  -9   0   -7.03    9.98
  -2  -9   1   -0.31    9.64
  -2  -9   2   15.72   10.11
  -2  -9   3    4.29    9.75
  -2  -9   4   19.77   10.49
  -2  -9   5   21.75   10.77
  -2  -9   6   32.58   11.40
  -2  -9   7    6.98   10.71
  -2  -9   8   -0.98    9.93
  -2  -9   9    4.06   10.10
  -2  -9  10    5.43   10.96
  -2  -8  -7    5.25   11.37
  -2  -8  -6    6.80   11.26
  -2  -8  -5    7.60   11.35
  -2  -8  -4    4.76   11.07
  -2  -8  -3   33.76   11.49
  -2  -8  -2   21.97   10.73
  -2  -8  -1    4.09    7.91
  -2  -8  -1    8.06    9.51
  -2  -8   0    2.53    8.05
  -2  -8   0   -6.75    8.98
  -2  -8   1    5.37    7.86
  -2  -8   1    7.34    8.81
  -2  -8   2   -6.78    8.54
  -2  -8   2   -7.04    9.07
  -2  -8   3   12.35    9.03
  -2  -8   3   20.65    9.73
  -2  -8   4   60.01   10.61
  -2  -8   4   31.66   10.58
  -2  -8   5   55.67   10.40
  -2  -8   5   38.51   10.61
  -2  -8   6   55.41   10.46
  -2  -8   6   32.31   10.74
  -2  -8   7   43.76   10.21
  -2  -8   8   13.94    9.18
  -2  -8   9   -0.97   10.10
  -2  -8  10   -5.15   10.10
  -2  -8  11   -0.53   10.72
  -2  -7  -8   21.34   11.60
  -2  -7  -7    9.11   11.19
  -2  -7  -6   -7.83   10.65
  -2  -7  -5   -3.94   10.51
  -2  -7  -4    5.21   10.47
  -2  -7  -3   40.31   11.33
  -2  -7  -3   46.83    9.21
  -2  -7  -2   74.43   11.58
  -2  -7  -2   55.41    9.68
  -2  -7  -1   21.39    8.19
  -2  -7  -1   40.26   10.07
  -2  -7   0   14.74    7.80
  -2  -7   0    8.03    8.70
  -2  -7   1   25.47    8.54
  -2  -7   1   42.30    9.20
  -2  -7   2   -2.48    7.91
  -2  -7   2    2.57    7.43
  -2  -7   3   -0.28    7.37
  -2  -7   3    1.41    6.99
  -2  -7   3    1.26    8.00
  -2  -7   4   48.16    9.13
  -2  -7   4   42.89    9.32
  -2  -7   4   30.23    8.79
  -2  -7   5   86.04   10.65
  -2  -7   6   99.51   11.15
  -2  -7   7   77.49   10.64
  -2  -7   8   53.73   10.01
  -2  -7   9   11.16    8.40
  -2  -7  11   -3.32    7.49
  -2  -7  12    0.36    5.67
  -2  -6  -6   40.47   11.41
  -2  -6  -5   12.78   10.11
  -2  -6  -4   -6.46    9.47
  -2  -6  -3    7.09    8.95
  -2  -6  -2   65.75   10.14
  -2  -6  -2   50.63    8.99
  -2  -6  -1   95.65   10.56
  -2  -6  -1  112.48   11.52
  -2  -6   0  123.11   11.61
  -2  -6   0  131.71   12.16
  -2  -6   1  180.97   13.33
  -2  -6   1  165.37   13.10
  -2  -6   2  343.66   18.86
  -2  -6   2  311.30   18.81
  -2  -6   3   65.97    8.83
  -2  -6   3   78.07    9.62
  -2  -6   3   58.32    9.83
  -2  -6   4    6.47    6.57
  -2  -6   4   -1.60    6.31
  -2  -6   5   11.56    6.93
  -2  -6   5   19.27    6.94
  -2  -6   6   55.11    8.26
  -2  -6   6   38.61    8.95
  -2  -6   7  104.19   10.81
  -2  -6   8  111.56   11.39
  -2  -6   9   89.12   10.81
  -2  -6  11   19.21    6.33
  -2  -6  12    1.93    5.01
  -2  -5  -1   69.09    9.15
  -2  -5   0  145.45   11.64
  -2  -5   0  156.34   11.87
  -2  -5   1  352.75   18.96
  -2  -5   1  346.38   18.92
  -2  -5   2  527.24   24.61
  -2  -5   2  503.71   25.00
  -2  -5   2  484.43   25.57
  -2  -5   3  307.80   17.83
  -2  -5   3  351.84   17.65
  -2  -5   3  301.54   18.61
  -2  -5   4  101.86    9.09
  -2  -5   4  103.69   10.49
  -2  -5   5    2.49    5.56
  -2  -5   5    2.37    6.00
  -2  -5   6    7.73    5.73
  -2  -5   7   18.70    7.00
  -2  -5   8   93.30    9.84
  -2  -5  10  103.75    8.78
  -2  -5  11   90.65    7.62
  -2  -4 -11    0.33   10.62
  -2  -4 -10   -0.32   10.34
  -2  -4  -9   32.24   10.97
  -2  -4  -8   60.36   11.30
  -2  -4  -7  129.65   13.51
  -2  -4   0  123.56   10.00
  -2  -4   1  264.18   14.90
  -2  -4   2  531.91   24.12
  -2  -4   2  509.66   25.27
  -2  -4   3  406.50   19.15
  -2  -4   3  373.33   20.29
  -2  -4   4  116.78    8.56
  -2  -4   4  101.99    9.67
  -2  -4   5    9.37    4.92
  -2  -4   6    9.32    5.26
  -2  -4   7   -1.85    5.21
  -2  -4   9   94.31    8.21
  -2  -4  10   72.42    6.89
  -2  -4  11  137.37    8.08
  -2  -4  11  101.40    7.50
  -2  -4  12   62.35    6.47
  -2  -4  13   11.14    5.69
  -2  -3 -10    0.93    9.96
  -2  -3  -9    4.19    9.41
  -2  -3  -8   22.36    9.65
  -2  -3  -7  117.04   12.67
  -2  -3  -6  100.37   11.47
  -2  -3  -5  112.02   11.46
  -2  -3  -4  203.04   14.32
  -2  -3  -3  367.23   19.88
  -2  -3   1  164.95   10.14
  -2  -3   1  160.02   10.60
  -2  -3   2  531.38   24.20
  -2  -3   2  574.39   25.63
  -2  -3   3  615.81   27.49
  -2  -3   3  686.56   29.49
  -2  -3   4  154.83    9.29
  -2  -3   5  309.13   15.31
  -2  -3   6   90.81    7.83
  -2  -3   6   99.92    7.87
  -2  -3   7   96.76    8.40
  -2  -3   8    5.28    4.97
  -2  -3   8    7.72    5.04
  -2  -3   8   -2.51    2.90
  -2  -3   9   59.74    6.18
  -2  -3   9   43.42    4.59
  -2  -3  10  116.82    7.66
  -2  -3  10  145.46    8.73
  -2  -3  11   59.69    8.99
  -2  -3  11   41.68    5.64
  -2  -3  12   67.04    7.15
  -2  -3  13   35.97    6.60
  -2  -3  14   -2.10    6.26
  -2  -2 -10   88.34   12.29
  -2  -2  -9   79.83   11.78
  -2  -2  -8   20.85    9.13
  -2  -2  -7   16.42    8.16
  -2  -2  -6   80.46   10.40
  -2  -2  -5  100.54   10.52
  -2  -2  -4  531.53   26.05
  -2  -2  -3 1264.18   53.22
  -2  -2  -2 1620.84   66.14
  -2  -2  -1  352.03   17.37
  -2  -2   0  325.63   16.15
  -2  -2   1   70.40    6.71
  -2  -2   1   80.66    6.39
  -2  -2   1   76.96    6.14
  -2  -2   2   62.12    5.08
  -2  -2   2   63.12    5.89
  -2  -2   3  472.09   20.45
  -2  -2   3  486.17   21.29
  -2  -2   4  622.75   27.14
  -2  -2   4  620.12   26.04
  -2  -2   5  427.45   19.84
  -2  -2   5  410.53   18.72
  -2  -2   6  870.62   38.56
  -2  -2   6  915.59   37.17
  -2  -2   7  862.83   37.90
  -2  -2   7  868.56   35.75
  -2  -2   8  341.27   15.88
  -2  -2   9   11.29    4.71
  -2  -2  10    2.72    5.85
  -2  -2  11   54.90    8.81
  -2  -2  11   47.40    5.79
  -2  -2  12   49.43    6.47
  -2  -2  12   55.91    9.58
  -2  -2  13   50.15    7.24
  -2  -2  13   46.17   10.04
  -2  -2  14   35.61   10.30
  -2  -2  14   26.87    7.17
  -2  -2  15    8.85    7.49
  -2  -1  -9  133.03   12.97
  -2  -1  -8  158.37   13.28
  -2  -1  -7   26.90    8.47
  -2  -1  -6    7.17    7.17
  -2  -1  -5    0.86    6.12
  -2  -1  -4  226.12   13.99
  -2  -1  -3  983.46   42.05
  -2  -1  -2 1297.19   53.22
  -2  -1  -1 1346.17   54.57
  -2  -1   0  523.37   20.92
  -2  -1   0  498.60   22.79
  -2  -1   1  385.80   16.44
  -2  -1   1  424.35   17.23
  -2  -1   1  418.03   18.12
  -2  -1   2  191.96    9.06
  -2  -1   2  197.64    9.87
  -2  -1   2  203.50    8.68
  -2  -1   3   21.22    3.44
  -2  -1   3   22.62    2.76
  -2  -1   4  165.86    9.42
  -2  -1   4  159.14    8.15
  -2  -1   5  492.08   22.39
  -2  -1   5  488.60   21.41
  -2  -1   6  899.91   38.24
  -2  -1   6  885.00   36.32
  -2  -1   7 1105.81   44.60
  -2  -1   8  693.07   29.00
  -2  -1  10   44.81    7.58
  -2  -1  11    1.51    6.30
  -2  -1  12    1.01    7.19
  -2  -1  13   35.78    9.54
  -2  -1  14   39.50   10.59
  -2  -1  14   32.26    7.86
  -2  -1  15   32.52    8.76
  -2  -1  15   51.08   11.72
  -2  -1  16   26.09    9.09
  -2  -1  16   36.58   11.97
  -2   0 -11   20.64    7.74
  -2   0 -10   19.43    6.81
  -2   0  -9   51.10    7.17
  -2   0  -8  131.53    9.24
  -2   0  -8  117.92   11.60
  -2   0  -7  136.05    8.85
  -2   0  -7  156.08   11.92
  -2   0  -6   45.85    4.70
  -2   0  -6   55.51    7.97
  -2   0  -5   10.42    6.32
  -2   0  -5    8.86    2.56
  -2   0  -4   17.79    2.13
  -2   0  -4   15.39    5.99
  -2   0  -3  451.28   21.31
  -2   0  -2  907.78   37.91
  -2   0  -1  466.51   19.15
  -2   0  -1  438.91   20.02
  -2   0   0   47.83    3.86
  -2   0   0   49.16    4.66
  -2   0   0   47.00    3.14
  -2   0   1  271.16   11.53
  -2   0   1  242.97   11.04
  -2   0   2  553.02   22.09
  -2   0   2  620.98   23.95
  -2   0   3   45.79    4.18
  -2   0   4   49.67    4.69
  -2   0   4   39.13    4.52
  -2   0   5  102.94    6.62
  -2   0   5  105.67    7.52
  -2   0   6  447.65   19.66
  -2   0   7  810.63   33.44
  -2   0   9   98.17    9.44
  -2   0  10   21.52    6.90
  -2   0  11    9.60    7.19
  -2   0  12   -5.48    7.71
  -2   0  13    3.75    8.28
  -2   0  14   17.39   10.21
  -2   0  15   24.38   11.16
  -2   0  16   36.94   10.75
  -2   0  16   34.03   12.05
  -2   1 -12    7.42    7.71
  -2   1 -11    3.76    6.89
  -2   1 -10    8.82    5.91
  -2   1  -9   69.34    7.78
  -2   1  -8  326.05   16.57
  -2   1  -7  532.08   24.30
  -2   1  -7  569.13   26.10
  -2   1  -6  356.52   17.96
  -2   1  -6  338.59   15.89
  -2   1  -5  135.60    7.62
  -2   1  -5  161.39   10.27
  -2   1  -4  204.34   11.49
  -2   1  -4  185.29    8.96
  -2   1  -3   51.22    6.08
  -2   1  -3   57.43    4.71
  -2   1  -2  613.39   24.34
  -2   1  -2  538.06   24.74
  -2   1  -1  333.77   15.18
  -2   1  -1  348.78   15.03
  -2   1   0  452.45   19.22
  -2   1   0  454.02   19.35
  -2   1   0  462.61   19.09
  -2   1   1 2763.78  105.67
  -2   1   1 2680.14  105.70
  -2   1   2  148.91    8.29
  -2   1   2  173.70    8.57
  -2   1   3 1062.16   43.36
  -2   1   4  132.25    8.26
  -2   1   5    1.38    3.51
  -2   1   5    0.17    3.21
  -2   1   8  597.57   28.34
  -2   1   9  139.05   10.94
  -2   1  10   66.31    8.70
  -2   1  10   42.38    8.07
  -2   1  11  109.65   10.64
  -2   1  11   65.76   10.30
  -2   1  12   33.76    9.12
  -2   1  13   -2.34    8.83
  -2   1  14   11.45   10.17
  -2   1  15   21.60   11.48
  -2   1  16   17.05   11.84
  -2   2 -12   22.09    7.76
  -2   2 -11    7.69    6.92
  -2   2 -10   -2.71    5.77
  -2   2  -9   20.66    5.91
  -2   2  -8  369.88   18.42
  -2   2  -7  643.32   28.22
  -2   2  -6  935.20   38.85
  -2   2  -5 1072.21   44.23
  -2   2  -5 1108.59   44.72
  -2   2  -4  410.31   17.77
  -2   2  -4  431.48   18.97
  -2   2  -3  417.20   18.08
  -2   2  -3  438.67   18.80
  -2   2  -2    3.75    3.39
  -2   2  -2    4.74    2.96
  -2   2  -1   87.08    5.28
  -2   2  -1   89.93    5.41
  -2   2  -1   81.81    5.07
  -2   2  -1   84.23    5.44
  -2   2   0  468.05   19.21
  -2   2   0  471.00   19.85
  -2   2   1  107.11    5.29
  -2   2   1  112.23    6.58
  -2   2   2 9800.99  378.33
  -2   2   2 9999.00  379.39
  -2   2   3 2275.33   90.23
  -2   2   4  988.20   41.78
  -2   2   7   43.55    6.62
  -2   2   7   50.84    6.10
  -2   2   8   82.23    8.67
  -2   2   8   75.21    7.72
  -2   2   9  185.67   13.78
  -2   2   9  217.94   13.03
  -2   2  10  233.29   14.37
  -2   2  10  190.98   14.70
  -2   2  11  194.96   15.53
  -2   2  11  220.52   14.89
  -2   2  12  211.81   16.76
  -2   2  12  195.12   15.46
  -2   2  13   79.40   12.59
  -2   2  14    2.20   10.09
  -2   2  15   -1.88   10.39
  -2   2  16    3.97   11.85
  -2   3 -13   29.42    8.83
  -2   3 -12   33.80    8.33
  -2   3 -11   24.35    7.46
  -2   3 -10   63.37    8.21
  -2   3 -10   46.07   11.07
  -2   3  -9    8.79    5.58
  -2   3  -9   13.74    8.43
  -2   3  -8   58.44    8.77
  -2   3  -8   42.55    6.61
  -2   3  -7  310.78   16.49
  -2   3  -7  347.07   18.28
  -2   3  -6  370.08   18.32
  -2   3  -6  405.10   19.75
  -2   3  -5  322.48   16.37
  -2   3  -5  324.92   15.23
  -2   3  -5  310.86   13.45
  -2   3  -4  981.05   41.48
  -2   3  -4 1011.66   42.27
  -2   3  -4 1031.67   40.07
  -2   3  -3  686.27   29.62
  -2   3  -3  701.33   28.12
  -2   3  -2  205.12    9.71
  -2   3  -2  207.19   10.55
  -2   3  -1   99.43    6.28
  -2   3  -1  105.19    6.04
  -2   3   0    7.17    1.86
  -2   3   0    6.33    2.65
  -2   3   0    5.23    2.74
  -2   3   1  413.20   17.63
  -2   3   4 1310.27   51.97
  -2   3   5  493.28   21.48
  -2   3   6  298.61   17.35
  -2   3   6  336.99   15.67
  -2   3   7   89.63    9.24
  -2   3   7  110.08    8.41
  -2   3   8   11.97    6.07
  -2   3   8    3.13    5.69
  -2   3   9   40.52    7.61
  -2   3   9   34.11    8.08
  -2   3  10   80.97   10.53
  -2   3  10   80.50    9.85
  -2   3  11  151.96   13.36
  -2   3  11  156.17   14.44
  -2   3  12  210.15   17.17
  -2   3  13  106.01   14.40
  -2   3  14   17.92   11.22
  -2   3  15    4.82   11.11
  -2   3  16    1.00   11.73
  -2   4 -13    9.01    8.16
  -2   4 -12   40.75    8.92
  -2   4 -11   34.51    8.06
  -2   4 -10   76.33   11.82
  -2   4 -10   56.72    8.42
  -2   4  -9   43.76    9.35
  -2   4  -9   34.78    7.20
  -2   4  -8    4.33    6.88
  -2   4  -8    8.73    5.67
  -2   4  -7   63.89    7.36
  -2   4  -7   68.81    8.51
  -2   4  -6   67.55    7.04
  -2   4  -6   84.13    8.40
  -2   4  -6   76.09    6.80
  -2   4  -5   51.30    5.76
  -2   4  -5   42.22    6.48
  -2   4  -4  197.49   11.56
  -2   4  -4  196.92   10.78
  -2   4  -3  536.68   23.85
  -2   4  -3  529.85   23.17
  -2   4  -2  472.76   21.17
  -2   4  -1  196.47   10.49
  -2   4   0  109.60    6.76
  -2   4   0  116.22    7.13
  -2   4   1    2.90    3.49
  -2   4   1    1.88    2.67
  -2   4   2  289.33   13.00
  -2   4   3  674.95   28.01
  -2   4   4  344.12   16.02
  -2   4   5   82.55    7.00
  -2   4   6  159.42   12.74
  -2   4   6  175.76   10.78
  -2   4   7  169.00   11.22
  -2   4   7  151.39   12.81
  -2   4   8   22.20    7.09
  -2   4   8   25.75    7.75
  -2   4   9    0.87    7.11
  -2   4   9    2.46    7.11
  -2   4  10   -0.25    7.74
  -2   4  10   -1.15    8.17
  -2   4  11   52.66   10.59
  -2   4  11   68.56   11.52
  -2   4  12   81.59   12.79
  -2   4  13   54.24   12.53
  -2   4  14   -2.83   11.20
  -2   4  15  -11.80   11.89
  -2   4  16  -12.00   12.39
  -2   5 -12   64.00   10.08
  -2   5 -11   94.07   10.87
  -2   5 -10  119.53   11.71
  -2   5 -10  155.50   14.06
  -2   5  -9  164.64   13.14
  -2   5  -9  214.73   15.05
  -2   5  -8   78.54    9.11
  -2   5  -8   97.08   10.50
  -2   5  -7   11.28    5.35
  -2   5  -7    3.83    5.44
  -2   5  -7    4.88    6.27
  -2   5  -6   12.77    5.03
  -2   5  -6   11.39    6.25
  -2   5  -5   35.89    6.36
  -2   5  -5   28.87    5.43
  -2   5  -4  202.10   12.33
  -2   5  -4  211.59   11.36
  -2   5  -3  700.62   30.98
  -2   5  -3  715.09   30.24
  -2   5  -2  903.31   38.21
  -2   5  -1  880.19   37.09
  -2   5   0  512.46   22.82
  -2   5   0  492.45   22.65
  -2   5   1  168.91    8.93
  -2   5   1  167.32   10.44
  -2   5   2    5.86    4.30
  -2   5   3  178.08   10.72
  -2   5   4   59.11    7.05
  -2   5   5  247.81   14.05
  -2   5   5  242.23   16.69
  -2   5   6  227.83   14.17
  -2   5   6  249.86   17.14
  -2   5   7  297.07   17.34
  -2   5   7  323.31   20.15
  -2   5   8  142.29   12.53
  -2   5   8  160.16   14.80
  -2   5   9   33.69    9.46
  -2   5   9   48.22   10.31
  -2   5  10  -14.42    9.50
  -2   5  10    1.26    9.00
  -2   5  11  -13.46   11.02
  -2   5  12   29.95   11.60
  -2   5  13   32.22   12.07
  -2   5  14   17.51   12.14
  -2   5  15   15.90   12.43
  -2   6 -11   70.98   10.73
  -2   6 -10  124.58   12.51
  -2   6 -10  162.21   14.47
  -2   6  -9  221.03   15.92
  -2   6  -9  270.43   17.37
  -2   6  -8  133.89   11.77
  -2   6  -8  161.75   12.90
  -2   6  -7  202.57   12.04
  -2   6  -7  185.67   13.48
  -2   6  -7  224.35   14.61
  -2   6  -6   44.75    7.62
  -2   6  -6   30.97    6.09
  -2   6  -5   30.35    6.84
  -2   6  -5   22.27    5.62
  -2   6  -4   39.11    5.84
  -2   6  -4   40.97    6.72
  -2   6  -3  524.87   24.23
  -2   6  -3  494.40   22.86
  -2   6  -2 1575.33   64.39
  -2   6  -1  695.26   30.91
  -2   6   0  951.33   40.30
  -2   6   0  926.17   40.55
  -2   6   1  650.58   27.82
  -2   6   1  640.75   30.66
  -2   6   2  249.49   13.69
  -2   6   3    4.49    6.31
  -2   6   4   48.46    7.73
  -2   6   5   16.18    7.48
  -2   6   6  248.58   16.36
  -2   6   6  295.71   20.23
  -2   6   7  455.39   23.85
  -2   6   7  448.92   27.19
  -2   6   8  408.69   23.68
  -2   6   8  508.98   28.38
  -2   6   9  145.16   13.87
  -2   6   9  150.38   16.30
  -2   6  10  104.71   14.52
  -2   6  10   70.13   11.86
  -2   6  11    1.91   11.00
  -2   6  12  -18.74   11.99
  -2   6  13    0.99   11.67
  -2   6  14    3.97   11.98
  -2   6  15   15.19   12.36
  -2   7 -10    9.87    9.14
  -2   7 -10    9.43    8.22
  -2   7  -9   56.26   10.66
  -2   7  -9   61.84    9.87
  -2   7  -8  145.52   12.85
  -2   7  -8  157.04   13.65
  -2   7  -8  166.14   10.93
  -2   7  -7   66.83    9.91
  -2   7  -7   69.93    7.83
  -2   7  -6  138.57   12.02
  -2   7  -6  138.43   10.20
  -2   7  -5  151.57   12.00
  -2   7  -5  157.08   10.31
  -2   7  -4   53.37    7.94
  -2   7  -4   47.59    6.78
  -2   7  -3   46.48    7.49
  -2   7  -2  164.51   11.79
  -2   7  -1  415.35   21.10
  -2   7   0  278.03   16.28
  -2   7   0  268.21   16.43
  -2   7   1  300.89   16.20
  -2   7   1  326.20   19.46
  -2   7   2  292.37   16.81
  -2   7   2  315.13   20.48
  -2   7   3  107.56   10.94
  -2   7   4   45.09    9.15
  -2   7   5    1.49    8.07
  -2   7   6   24.70    9.22
  -2   7   6   29.85   11.18
  -2   7   7  140.72   13.57
  -2   7   7  129.90   16.73
  -2   7   8  185.21   15.95
  -2   7   8  202.95   19.85
  -2   7   9  108.34   16.12
  -2   7   9   76.78   12.60
  -2   7  10   64.25   14.15
  -2   7  11   25.66   12.83
  -2   7  12    6.29   12.24
  -2   7  13   -4.08   12.12
  -2   7  14    3.48   11.51
  -2   8 -10    9.94    9.76
  -2   8  -9    0.35    7.76
  -2   8  -9    4.82    8.87
  -2   8  -8   40.24    7.32
  -2   8  -8   39.64    9.03
  -2   8  -8   52.13   10.17
  -2   8  -7   84.84    8.98
  -2   8  -7   98.91   11.67
  -2   8  -6  108.26   11.52
  -2   8  -6   98.83    9.21
  -2   8  -5  125.99   11.95
  -2   8  -5  126.74    9.94
  -2   8  -4  134.40   11.79
  -2   8  -4  127.70   10.16
  -2   8  -3    9.82    7.11
  -2   8  -2    1.72    6.61
  -2   8  -1   22.26    7.57
  -2   8   0   15.49    6.99
  -2   8   1   53.98   10.29
  -2   8   2  153.48   13.56
  -2   8   2  145.45   15.53
  -2   8   3  113.84   12.34
  -2   8   3  119.26   15.63
  -2   8   4   85.08   11.86
  -2   8   5   28.13   10.58
  -2   8   6   12.92    9.92
  -2   8   7   13.51   10.10
  -2   8   7    3.48   12.28
  -2   8   8   32.66   11.21
  -2   8   8   38.07   13.79
  -2   8   9   37.32   14.07
  -2   8  10    5.45   12.28
  -2   8  11    3.81   12.77
  -2   8  12   12.79   12.94
  -2   8  13   -5.21   12.42
  -2   9  -9    3.82    6.11
  -2   9  -9    5.18    9.56
  -2   9  -8   14.81    6.81
  -2   9  -8   19.28    9.75
  -2   9  -7   80.73    9.35
  -2   9  -7   92.01   11.99
  -2   9  -6  153.35   13.48
  -2   9  -6  119.91   10.52
  -2   9  -5  177.17   14.54
  -2   9  -5  161.95   11.89
  -2   9  -4  183.25   14.61
  -2   9  -4  172.06   12.38
  -2   9  -3   77.58   10.80
  -2   9  -2    3.07    7.54
  -2   9  -1   -2.03    7.91
  -2   9   0    3.49    7.62
  -2   9   1   69.65   12.30
  -2   9   2   95.20   15.38
  -2   9   2   86.80   12.81
  -2   9   3  184.32   17.48
  -2   9   3  180.93   19.98
  -2   9   4  159.58   16.31
  -2   9   4  144.42   18.94
  -2   9   5   93.05   14.06
  -2   9   6   23.46   11.66
  -2   9   7   15.44   14.13
  -2   9   7   -3.18   11.46
  -2   9   8   11.33   14.00
  -2   9   8    0.36   11.47
  -2   9   9    7.42   13.71
  -2   9  10   -2.34   13.18
  -2   9  11   13.05   13.90
  -2   9  12   26.07   13.95
  -2  10  -9   27.22    7.15
  -2  10  -9   29.26   11.18
  -2  10  -8   -4.28    6.61
  -2  10  -8    7.71    9.54
  -2  10  -7   32.77   10.13
  -2  10  -7   15.96    7.69
  -2  10  -6   57.67    8.73
  -2  10  -6   69.78   11.61
  -2  10  -5  134.91   13.54
  -2  10  -5  103.16   10.93
  -2  10  -4  121.10   13.64
  -2  10  -3  117.86   13.26
  -2  10  -2   44.18   11.13
  -2  10   0    7.15    9.01
  -2  10   1   -4.81   10.74
  -2  10   2   90.54   16.21
  -2  10   3  120.54   16.95
  -2  10   3  119.38   19.22
  -2  10   4  150.26   18.20
  -2  10   4  123.54   19.55
  -2  10   5  103.75   17.16
  -2  10   6   94.63   15.86
  -2  10   7    8.20   12.58
  -2  10   7   13.19   15.91
  -2  10   8    4.77   15.10
  -2  10   9   -7.81   14.81
  -2  10  10   -9.88   14.26
  -2  10  11    1.16   13.56
  -2  11  -8   15.79    7.57
  -2  11  -8   13.56   10.65
  -2  11  -7  -12.54    7.85
  -2  11  -7    5.80    9.80
  -2  11  -6   -4.00    7.01
  -2  11  -6    5.05    9.75
  -2  11  -5    3.52    9.68
  -2  11  -5    6.34    7.77
  -2  11  -4   24.00   10.61
  -2  11  -3   34.74   11.67
  -2  11   1    9.73   12.36
  -2  11   4   25.21   15.50
  -2  11   5   31.35   16.21
  -2  11   6   27.14   15.58
  -2  11   7   40.76   17.97
  -2  11   8   26.59   16.63
  -2  11   9   -3.37   15.72
  -2  12  -6    3.14   10.92
  -2  12  -6    5.29    7.84
  -2  12  -5   -0.22    8.00
  -2  12  -5    5.89   10.58
  -2  12  -4   -7.79    8.93
  -2  12  -4  -11.68   11.27
  -2  12   7   10.91   18.04
  -1 -13   0  -19.24   11.69
  -1 -13   1    4.64   10.62
  -1 -13   2   13.16   10.74
  -1 -12  -2  -14.52   11.57
  -1 -12   0    0.32   10.49
  -1 -12   1   -1.25   10.54
  -1 -12   2   -5.43   10.44
  -1 -12   3    7.31   10.43
  -1 -12   4   11.61   10.18
  -1 -12   5    2.79    9.99
  -1 -12   6    7.41    9.79
  -1 -12   7   -8.22    9.73
  -1 -11  -4    0.64   11.24
  -1 -11  -3   -6.17   11.54
  -1 -11  -2  -16.69   11.81
  -1 -11  -1   -3.84   10.87
  -1 -11   0    7.20   10.51
  -1 -11   1    0.30   10.03
  -1 -11   2   -4.05    9.92
  -1 -11   3   10.32    9.68
  -1 -11   4   10.16    9.74
  -1 -11   5   -8.05   10.04
  -1 -11   6   -5.66   10.19
  -1 -11   7    1.48   10.21
  -1 -11   7    0.56   10.12
  -1 -11   8   -3.26   10.58
  -1 -11   9    1.19   10.31
  -1 -11  10   -3.40   10.88
  -1 -10  -6   -1.65   10.77
  -1 -10  -5    4.25   10.90
  -1 -10  -4  -12.81   11.02
  -1 -10  -3   -5.43   11.19
  -1 -10  -2    6.02   11.00
  -1 -10  -1   23.10   11.17
  -1 -10   0   38.95   11.07
  -1 -10   1   32.26   10.42
  -1 -10   2    5.68    9.40
  -1 -10   3   -1.32    8.98
  -1 -10   4    0.77    8.99
  -1 -10   5   -0.26    9.14
  -1 -10   6    7.09    9.64
  -1 -10   6    2.70    9.66
  -1 -10   7   16.88   10.16
  -1 -10   7   25.26   10.53
  -1 -10   8   24.73   10.96
  -1 -10   8   24.10   11.54
  -1 -10   9   13.54   10.92
  -1 -10  10   22.86   11.52
  -1  -9  -7   10.21   11.09
  -1  -9  -6   -0.33   10.89
  -1  -9  -5   -4.72   10.59
  -1  -9  -4  -17.71   11.07
  -1  -9  -3  -12.65   11.08
  -1  -9  -2   27.01   10.70
  -1  -9  -1   32.93   10.35
  -1  -9   0   32.57    9.71
  -1  -9   0   34.43   10.24
  -1  -9   1   47.02   10.60
  -1  -9   1   49.91   10.36
  -1  -9   2   18.00    9.04
  -1  -9   2   11.32    8.73
  -1  -9   3   -5.48    8.37
  -1  -9   3    0.24    8.22
  -1  -9   4    4.12    7.94
  -1  -9   4   -1.70    8.24
  -1  -9   5    7.23    8.30
  -1  -9   5   -1.97    8.24
  -1  -9   5   -6.14    8.88
  -1  -9   6   13.50    9.06
  -1  -9   6   -1.23    8.74
  -1  -9   6    7.53    8.35
  -1  -9   7   22.92   10.32
  -1  -9   8   23.55   10.61
  -1  -9   9   11.85   10.55
  -1  -9  10   16.98   11.24
  -1  -9  11   -5.24   11.10
  -1  -8  -8   30.49   11.73
  -1  -8  -7   13.06   10.42
  -1  -8  -6   13.58   10.79
  -1  -8  -5   19.40   10.71
  -1  -8  -4   17.19   10.20
  -1  -8  -3   -7.98    9.78
  -1  -8  -3   -2.70    7.45
  -1  -8  -2    2.71    7.88
  -1  -8  -2    9.14    9.26
  -1  -8  -1   35.67    9.18
  -1  -8  -1   37.09    9.62
  -1  -8   0   55.84    9.94
  -1  -8   0   53.70    9.80
  -1  -8   1   79.73   10.94
  -1  -8   1   87.19   10.75
  -1  -8   2   73.30    9.92
  -1  -8   2   45.11    9.70
  -1  -8   3   20.02    8.32
  -1  -8   3   19.04    8.11
  -1  -8   4   10.25    7.63
  -1  -8   4    7.20    8.41
  -1  -8   5    1.38    7.13
  -1  -8   5    4.76    7.78
  -1  -8   5    8.00    7.47
  -1  -8   6   -1.11    7.37
  -1  -8   6    1.50    7.55
  -1  -8   7   23.81    8.82
  -1  -8   7   28.96    9.33
  -1  -8   8   61.76   10.48
  -1  -8   8   57.73   11.55
  -1  -8   9   56.47   11.64
  -1  -8  11    9.63    5.86
  -1  -7  -9    3.25   10.66
  -1  -7  -8   21.33   10.98
  -1  -7  -7   24.00   10.44
  -1  -7  -6   69.42   12.09
  -1  -7  -5  122.03   13.34
  -1  -7  -4  175.93   15.21
  -1  -7  -3   76.64   10.31
  -1  -7  -3   79.11   11.02
  -1  -7  -2    1.39    6.89
  -1  -7  -2   14.73    8.69
  -1  -7  -1   -1.66    7.03
  -1  -7  -1    4.12    7.52
  -1  -7   0   21.05    7.66
  -1  -7   0   10.76    7.20
  -1  -7   1   67.95    9.34
  -1  -7   1   69.81    9.15
  -1  -7   2  143.44   12.21
  -1  -7   2  171.51   12.96
  -1  -7   3  155.86   12.77
  -1  -7   3  180.53   13.16
  -1  -7   4  132.98   11.71
  -1  -7   4  151.10   12.03
  -1  -7   5  186.89   13.37
  -1  -7   6   98.91   11.44
  -1  -7   6  114.75   10.76
  -1  -7   7    4.41    7.15
  -1  -7   7   -1.09    7.31
  -1  -7   8   10.84    7.76
  -1  -7   9   45.56    9.36
  -1  -7  11   11.76    3.94
  -1  -6 -10    7.10   10.59
  -1  -6  -9   11.36   10.63
  -1  -6  -8    2.18    9.81
  -1  -6  -7   22.68    9.87
  -1  -6  -6   56.58   10.77
  -1  -6  -5  141.56   13.50
  -1  -6  -4  277.26   18.11
  -1  -6  -3  194.90   14.75
  -1  -6  -2   64.79    9.15
  -1  -6  -2   53.98    8.67
  -1  -6  -1   31.61    7.57
  -1  -6  -1   29.50    7.32
  -1  -6   0   10.09    6.40
  -1  -6   0    7.36    6.36
  -1  -6   1    7.17    5.93
  -1  -6   1   -2.04    6.22
  -1  -6   2   88.54    9.14
  -1  -6   2   87.93    9.15
  -1  -6   3  182.81   12.53
  -1  -6   3  206.10   13.03
  -1  -6   4  284.64   16.14
  -1  -6   5  430.86   21.59
  -1  -6   6  333.64   18.33
  -1  -6   7  106.87   10.26
  -1  -6   8    8.03    7.00
  -1  -6  10    4.33    4.35
  -1  -5  -4  217.59   15.33
  -1  -5  -3  226.49   14.98
  -1  -5  -2   61.54    8.23
  -1  -5  -1   34.78    6.67
  -1  -5  -1   27.65    6.67
  -1  -5   0   30.88    6.58
  -1  -5   0   38.27    6.50
  -1  -5   1   10.04    5.30
  -1  -5   1   14.66    5.70
  -1  -5   2   48.67    6.72
  -1  -5   2   55.13    6.82
  -1  -5   2   44.13    6.88
  -1  -5   3  143.20    9.93
  -1  -5   4  239.66   13.64
  -1  -5   5  317.29   16.72
  -1  -5   6  405.99   20.36
  -1  -5   7  125.63   10.28
  -1  -5   9    1.37    4.21
  -1  -5  10    2.26    2.98
  -1  -5  13   26.86    6.88
  -1  -4   0  448.72   20.74
  -1  -4   0  405.30   19.87
  -1  -4   1  398.60   19.38
  -1  -4   1  413.81   19.55
  -1  -4   1  419.33   20.24
  -1  -4   2   46.44    5.61
  -1  -4   2   51.06    6.10
  -1  -4   3   79.44    6.63
  -1  -4   3   74.62    7.22
  -1  -4   4  168.89   10.09
  -1  -4   5  274.22   14.41
  -1  -4   6  463.00   21.96
  -1  -4   8   58.05    5.51
  -1  -4   9   71.53    5.88
  -1  -4   9   52.27    4.95
  -1  -4  10   11.36    4.94
  -1  -4  11    3.34    5.17
  -1  -4  12    8.68    5.73
  -1  -4  13   23.17    6.64
  -1  -4  14   26.48    7.22
  -1  -3  -9  279.57   18.15
  -1  -3  -8  581.63   28.86
  -1  -3  -7  167.92   13.44
  -1  -3  -6  175.08   13.27
  -1  -3   0 2159.92   85.80
  -1  -3   1 1914.55   77.04
  -1  -3   1 1994.60   77.99
  -1  -3   2 1557.41   63.43
  -1  -3   2 1658.64   64.76
  -1  -3   3  246.63   12.20
  -1  -3   4    0.46    3.31
  -1  -3   5   21.78    4.56
  -1  -3   6  232.77   10.34
  -1  -3   7  412.93   17.32
  -1  -3   7  399.02   17.36
  -1  -3   8  329.23   13.80
  -1  -3   8  294.04   14.16
  -1  -3   9  173.47    9.58
  -1  -3  10  314.84   15.26
  -1  -3  11   98.51    8.21
  -1  -3  12    0.14    6.00
  -1  -3  12    8.28    8.32
  -1  -3  13    3.50    6.52
  -1  -3  14   -1.22    7.29
  -1  -3  15   12.69    7.85
  -1  -2  -8  237.53   15.54
  -1  -2  -7  354.12   19.47
  -1  -2  -6  237.26   14.75
  -1  -2  -5  275.94   15.82
  -1  -2  -4  162.83   11.18
  -1  -2  -3    2.68    4.80
  -1  -2  -2   84.25    7.07
  -1  -2   1 2750.03  103.82
  -1  -2   1 2582.35  102.97
  -1  -2   2 1863.06   72.79
  -1  -2   3  430.97   18.47
  -1  -2   4  378.38   17.17
  -1  -2   4  385.08   16.76
  -1  -2   4  371.24   14.88
  -1  -2   5   84.32    6.41
  -1  -2   5   83.91    4.30
  -1  -2   6    2.02    2.24
  -1  -2   6    3.86    2.79
  -1  -2   7   98.80    5.77
  -1  -2   7  103.82    5.96
  -1  -2   8  251.31   11.99
  -1  -2   8  273.51   14.80
  -1  -2   9  318.76   16.92
  -1  -2   9  286.12   13.92
  -1  -2  10  243.28   12.93
  -1  -2  10  287.51   16.16
  -1  -2  11  293.68   17.54
  -1  -2  11  313.99   17.10
  -1  -2  12   59.91    7.74
  -1  -2  12   77.60   10.36
  -1  -2  13   -1.71    6.74
  -1  -2  14  -11.66    7.88
  -1  -2  15   -6.71    8.55
  -1  -2  16    5.43    9.35
  -1  -1 -10   -1.51    6.62
  -1  -1  -9   30.17    6.84
  -1  -1  -8  141.63   10.22
  -1  -1  -7  100.02    9.45
  -1  -1  -7   91.25    7.57
  -1  -1  -6   68.19    5.88
  -1  -1  -6   79.00    8.16
  -1  -1  -5  191.50   10.11
  -1  -1  -5  229.72   12.72
  -1  -1  -4  461.97   21.54
  -1  -1  -3  194.14   11.08
  -1  -1  -2    5.40    3.62
  -1  -1  -1   23.72    3.59
  -1  -1   0  355.03   15.59
  -1  -1   1 1657.34   63.80
  -1  -1   1 1687.05   64.36
  -1  -1   1 1600.86   63.63
  -1  -1   2 1174.72   45.44
  -1  -1   2 1128.87   44.78
  -1  -1   3  114.01    6.43
  -1  -1   3  108.63    5.85
  -1  -1   4   36.26    3.92
  -1  -1   4   37.23    3.25
  -1  -1   5  270.10   11.82
  -1  -1   6   80.62    5.01
  -1  -1   7    6.84    4.05
  -1  -1   8   84.76    7.79
  -1  -1   9  144.42   10.74
  -1  -1  10  209.10   13.89
  -1  -1  10  199.95   13.57
  -1  -1  11  165.02   13.33
  -1  -1  11  190.94   13.45
  -1  -1  12   70.78    8.65
  -1  -1  12   77.09   10.62
  -1  -1  12   97.35   11.41
  -1  -1  13    8.83    7.32
  -1  -1  13   -1.44    8.15
  -1  -1  14   -2.62    8.07
  -1  -1  14    4.74    8.91
  -1  -1  15   -4.07    8.90
  -1  -1  16   -2.93    9.88
  -1   0 -13   51.52   11.07
  -1   0 -12   63.79   10.25
  -1   0 -12   26.13    7.15
  -1   0 -11  105.47   10.72
  -1   0 -11   50.31    7.03
  -1   0 -10   34.14    7.59
  -1   0  -9    2.20    5.43
  -1   0  -8   58.16    6.72
  -1   0  -7   82.07    6.87
  -1   0  -6  150.32    9.15
  -1   0  -6  180.51   10.66
  -1   0  -5  997.38   39.81
  -1   0  -5  920.45   38.64
  -1   0  -4 1192.95   48.47
  -1   0  -4 1284.86   49.87
  -1   0  -3 1166.78   46.75
  -1   0  -3 1151.37   45.21
  -1   0  -2  300.87   13.95
  -1   0  -1  131.05    7.00
  -1   0  -1  143.58    6.34
  -1   0   0    2.64    1.18
  -1   0   0    2.88    1.31
  -1   0   0    2.52    1.76
  -1   0   1  322.56   13.42
  -1   0   2 1534.26   60.12
  -1   0   3 1135.87   45.42
  -1   0   4  301.85   12.89
  -1   0   7  133.00    9.28
  -1   0   8    4.41    4.63
  -1   0   9   40.30    6.76
  -1   0  10  117.06   10.64
  -1   0  11  155.09   12.96
  -1   0  12   77.04   10.74
  -1   0  13   46.00   10.37
  -1   0  14   17.40    9.67
  -1   0  14    9.74    9.97
  -1   0  15   17.68   10.40
  -1   0  15    6.61   10.94
  -1   0  16   -3.33   10.73
  -1   1 -13   81.08   11.61
  -1   1 -12  117.88   11.96
  -1   1 -11   91.49    9.82
  -1   1 -11   30.93    5.20
  -1   1 -10  195.73   11.88
  -1   1 -10   76.70    6.68
  -1   1  -9  156.57   11.27
  -1   1  -8    8.62    4.92
  -1   1  -7   -1.44    3.77
  -1   1  -6   97.92    6.88
  -1   1  -5  338.13   15.52
  -1   1  -4 3042.64  119.30
  -1   1  -4 3116.13  119.44
  -1   1  -3 3774.58  144.25
  -1   1  -3 3714.75  144.46
  -1   1  -2 2170.64   84.09
  -1   1  -1 1035.78   42.70
  -1   1  -1 1074.70   42.64
  -1   1   0  255.23   10.58
  -1   1   0  268.49   10.92
  -1   1   1    7.12    1.78
  -1   1   2   81.16    4.92
  -1   1   6 2456.10   97.36
  -1   1   6 2445.53   96.11
  -1   1   7  551.25   25.92
  -1   1   7  572.58   24.98
  -1   1   8  169.19   11.79
  -1   1   8  193.98   11.60
  -1   1   9   11.69    6.29
  -1   1   9    4.47    5.70
  -1   1  10    2.83    6.26
  -1   1  11   46.42    8.86
  -1   1  12  118.44   12.92
  -1   1  13   36.87   10.46
  -1   1  14   53.88   12.14
  -1   1  15   35.72   12.36
  -1   1  15   60.20   13.05
  -1   1  16   29.83   12.78
  -1   2 -14   -8.54   13.04
  -1   2 -14    0.69    8.32
  -1   2 -13   21.15    8.42
  -1   2 -13   27.42   12.90
  -1   2 -12   25.47    8.31
  -1   2 -11   67.26    9.33
  -1   2 -10   94.28    9.69
  -1   2  -9  220.47   13.76
  -1   2  -8  149.07   10.34
  -1   2  -7   83.31    7.28
  -1   2  -6   24.16    4.44
  -1   2  -5   56.76    5.15
  -1   2  -4  641.84   26.06
  -1   2  -4  624.08   26.70
  -1   2  -3 1662.61   65.72
  -1   2  -2  693.55   28.35
  -1   2  -1 1372.03   53.77
  -1   2   0 1578.87   63.31
  -1   2   0 1678.65   63.27
  -1   2   1  347.73   14.05
  -1   2   2   35.30    3.01
  -1   2   3   34.24    3.44
  -1   2   4  148.00    8.03
  -1   2   5  688.32   30.12
  -1   2   5  690.57   28.98
  -1   2   6  985.48   42.18
  -1   2   6  992.65   40.90
  -1   2   7  885.51   38.29
  -1   2   7  851.29   36.74
  -1   2   8  285.68   15.43
  -1   2   8  269.96   16.13
  -1   2   9   76.24    8.90
  -1   2   9   80.01    8.96
  -1   2  10   38.68    8.47
  -1   2  10   44.30    8.47
  -1   2  11    7.31    8.39
  -1   2  11   -5.64    7.73
  -1   2  12    9.51    8.80
  -1   2  13   43.41   11.10
  -1   2  14   38.20   11.75
  -1   2  15   38.67   12.74
  -1   2  16   32.07   12.86
  -1   3 -14    0.35    8.57
  -1   3 -14  -14.51   12.67
  -1   3 -13  -10.62    8.70
  -1   3 -13  -17.62   12.17
  -1   3 -12   -0.74   10.30
  -1   3 -12   -5.70    7.68
  -1   3 -11    1.32    9.53
  -1   3 -11    8.03    6.95
  -1   3 -10   51.57    7.98
  -1   3  -9  147.55   11.26
  -1   3  -8  231.70   14.00
  -1   3  -7  213.27   12.70
  -1   3  -6  163.82   10.42
  -1   3  -6  177.74   11.14
  -1   3  -5   49.39    4.64
  -1   3  -5   40.51    5.03
  -1   3  -5   48.22    5.66
  -1   3  -4   69.36    5.11
  -1   3  -4   68.29    5.99
  -1   3  -3  511.32   22.56
  -1   3  -3  527.96   21.73
  -1   3  -2   82.28    5.69
  -1   3  -1   61.32    4.75
  -1   3   0  378.23   17.06
  -1   3   0  410.12   16.09
  -1   3   0  380.23   17.35
  -1   3   1  826.49   33.25
  -1   3   2  258.06   12.26
  -1   3   3   55.56    5.23
  -1   3   4    8.28    4.15
  -1   3   4    3.45    3.84
  -1   3   5   73.17    6.68
  -1   3   5   70.85    7.14
  -1   3   6  371.35   19.37
  -1   3   6  379.81   18.33
  -1   3   7  307.44   16.14
  -1   3   7  286.24   16.89
  -1   3   8   77.02    8.87
  -1   3   8   82.78    9.25
  -1   3   9   25.75    7.91
  -1   3   9   27.20    7.62
  -1   3  10   67.61    9.83
  -1   3  10   55.50    9.88
  -1   3  11   -3.14    9.60
  -1   3  11   29.92    9.05
  -1   3  12   -7.23    9.08
  -1   3  13    2.06    9.62
  -1   3  14    6.53   10.35
  -1   3  15   19.54   12.05
  -1   3  16    9.43   12.25
  -1   4 -14   19.72   12.45
  -1   4 -13    7.08    8.59
  -1   4 -13    1.19   11.17
  -1   4 -12    4.93    7.57
  -1   4 -12   -2.88    9.88
  -1   4 -11   -1.52    6.95
  -1   4 -11    1.94    9.17
  -1   4 -10   37.51    8.00
  -1   4  -9  260.60   16.20
  -1   4  -8  346.14   18.77
  -1   4  -7  483.50   23.62
  -1   4  -6  539.12   22.67
  -1   4  -6  483.43   24.46
  -1   4  -6  548.07   24.79
  -1   4  -5  294.45   13.90
  -1   4  -5  297.40   15.37
  -1   4  -4   20.89    3.88
  -1   4  -4   19.94    4.76
  -1   4  -3   44.81    5.27
  -1   4  -3   47.32    4.39
  -1   4  -2  267.18   13.35
  -1   4  -1  129.20    7.94
  -1   4   0  642.65   27.84
  -1   4   0  670.66   26.72
  -1   4   0  638.68   28.61
  -1   4   1 1642.40   64.94
  -1   4   2 1076.95   44.18
  -1   4   3  284.63   14.70
  -1   4   4  119.91    9.06
  -1   4   5   -4.24    5.69
  -1   4   5   -1.06    5.54
  -1   4   6   65.25    8.63
  -1   4   6   53.12    7.82
  -1   4   7  106.65   10.39
  -1   4   7  120.25   10.97
  -1   4   8   74.90    9.66
  -1   4   8   64.04    9.51
  -1   4   9  129.32   12.71
  -1   4   9  160.43   13.51
  -1   4  10   42.67   10.34
  -1   4  10   69.62   10.60
  -1   4  11   79.23   12.21
  -1   4  12   18.73   10.30
  -1   4  13   -5.44   10.24
  -1   4  14    5.26   10.79
  -1   4  15   -2.70   11.37
  -1   5 -14   22.76   12.05
  -1   5 -13   41.26   12.23
  -1   5 -12   42.92   11.23
  -1   5 -12   13.94    8.66
  -1   5 -11   -0.65    7.94
  -1   5 -11   15.06    9.17
  -1   5 -10   -9.83    7.91
  -1   5  -9   75.42    9.63
  -1   5  -8  564.30   27.81
  -1   5  -7  363.38   19.60
  -1   5  -6  494.18   25.40
  -1   5  -6  549.49   23.24
  -1   5  -6  545.52   25.48
  -1   5  -5  686.07   31.05
  -1   5  -5  702.91   29.30
  -1   5  -4  376.92   18.28
  -1   5  -4  354.20   16.39
  -1   5  -3   86.01    7.68
  -1   5  -2    1.36    4.10
  -1   5  -1   20.02    4.81
  -1   5  -1   19.51    4.48
  -1   5   0  650.73   29.22
  -1   5   0  681.94   30.23
  -1   5   1 1243.90   50.76
  -1   5   1 1246.52   53.41
  -1   5   2 1630.83   66.09
  -1   5   3  919.37   39.75
  -1   5   4  394.38   20.27
  -1   5   5  162.21   12.16
  -1   5   6   12.38    7.31
  -1   5   6   11.63    7.62
  -1   5   7   26.02    8.28
  -1   5   7   23.64    8.39
  -1   5   8   75.30   10.51
  -1   5   8   60.74   10.15
  -1   5   9   23.26    9.22
  -1   5   9   36.50    9.63
  -1   5  10  247.68   18.31
  -1   5  10  188.70   16.31
  -1   5  11  170.58   16.95
  -1   5  12   61.54   12.73
  -1   5  13   11.92   10.96
  -1   5  14    0.44   10.84
  -1   6 -13   16.73   10.92
  -1   6 -12   51.00   11.74
  -1   6 -11   46.36   10.11
  -1   6 -11   76.98   11.93
  -1   6 -10   34.51    9.26
  -1   6  -9   -3.11    7.23
  -1   6  -8   14.74    6.97
  -1   6  -7  132.42    8.54
  -1   6  -7  110.51   10.79
  -1   6  -6  112.18   10.23
  -1   6  -6  110.19    7.95
  -1   6  -5  248.71   14.69
  -1   6  -5  233.09   12.18
  -1   6  -4  358.49   18.33
  -1   6  -4  335.09   16.11
  -1   6  -3  257.78   14.65
  -1   6  -2  116.12    9.32
  -1   6  -1  116.96    9.27
  -1   6  -1  106.10    8.95
  -1   6   0    4.12    5.23
  -1   6   1  255.99   14.46
  -1   6   1  226.87   15.85
  -1   6   2  500.10   24.23
  -1   6   3  257.02   15.75
  -1   6   4  244.75   16.12
  -1   6   5  192.00   14.49
  -1   6   6   87.43   12.64
  -1   6   6   76.04   10.84
  -1   6   7   10.13    8.92
  -1   6   7   21.06    9.40
  -1   6   8    6.54    8.74
  -1   6   8   -3.70    8.59
  -1   6   9   29.65   10.03
  -1   6   9   18.98   10.02
  -1   6  10    8.24   10.94
  -1   6  11   76.24   13.82
  -1   6  12   50.85   12.70
  -1   6  13   16.69   11.38
  -1   6  14   10.62   11.42
  -1   7 -13   21.61   11.54
  -1   7 -12   44.45   11.89
  -1   7 -11   45.69   11.39
  -1   7 -10   42.07    9.84
  -1   7  -9   16.04    8.09
  -1   7  -8    0.96    7.03
  -1   7  -7    3.97    4.72
  -1   7  -7    0.30    6.51
  -1   7  -6    4.22    7.22
  -1   7  -6    1.93    4.74
  -1   7  -5   31.30    5.43
  -1   7  -5   33.77    7.72
  -1   7  -4  196.94   13.38
  -1   7  -3  208.95   13.93
  -1   7  -2  184.33   12.99
  -1   7  -1  146.19   11.82
  -1   7  -1  145.93   11.36
  -1   7   0   51.97    8.78
  -1   7   1    0.38    7.49
  -1   7   1    4.79    7.12
  -1   7   2   40.78   10.34
  -1   7   2   40.64    9.22
  -1   7   3   21.56    9.20
  -1   7   4   30.55    9.98
  -1   7   5   86.97   12.25
  -1   7   6   98.12   12.96
  -1   7   6  107.22   14.86
  -1   7   7   36.29   10.77
  -1   7   7   50.83   12.78
  -1   7   8   16.00   10.22
  -1   7   8    3.25   10.51
  -1   7   9   -4.88   10.37
  -1   7  10  -20.34   12.15
  -1   7  11   -5.71   10.98
  -1   7  12   14.78   11.43
  -1   7  13   17.69   11.18
  -1   8 -12   40.93   11.87
  -1   8 -11   83.05   13.00
  -1   8  -8   17.85    5.58
  -1   8  -8    8.45    8.00
  -1   8  -7    6.76    7.66
  -1   8  -7    0.63    5.32
  -1   8  -6   -1.52    5.02
  -1   8  -5   23.32    5.66
  -1   8  -5   24.69    8.08
  -1   8  -4  161.49   13.10
  -1   8  -3  260.19   16.76
  -1   8  -2  259.01   16.66
  -1   8   0  115.18   12.69
  -1   8   1   22.05    9.75
  -1   8   2   -1.77    9.74
  -1   8   2   -6.60   10.06
  -1   8   3    7.27   10.89
  -1   8   3    3.51   10.14
  -1   8   4    7.46   10.61
  -1   8   5   49.49   12.04
  -1   8   6  131.99   15.07
  -1   8   7  115.87   17.30
  -1   8   7   84.58   13.85
  -1   8   8   49.42   13.74
  -1   8   9   24.15   12.51
  -1   8  10    0.93   11.40
  -1   8  11   -3.60   11.25
  -1   8  12   -2.65   11.01
  -1   9 -11   19.15   11.03
  -1   9 -10   53.50   12.08
  -1   9  -8   46.72    6.74
  -1   9  -7   35.19    6.96
  -1   9  -6   25.23    6.17
  -1   9  -5    2.75    5.78
  -1   9  -5    2.07    8.06
  -1   9  -4   60.70   10.50
  -1   9  -3  146.85   13.73
  -1   9  -2  190.91   15.44
  -1   9   0  165.71   16.42
  -1   9   1   47.62   13.02
  -1   9   2    9.00   11.98
  -1   9   3   -5.73   12.36
  -1   9   3    3.80   12.24
  -1   9   4   -2.77   12.44
  -1   9   4   11.31   12.36
  -1   9   5   21.94   13.13
  -1   9   5   20.39   13.68
  -1   9   6  106.55   16.03
  -1   9   7  112.35   18.33
  -1   9   8   69.29   15.78
  -1   9   9   20.91   13.34
  -1   9  10   14.32   12.03
  -1   9  11    4.56   11.43
  -1  10 -10    7.52   10.28
  -1  10  -8   29.38    6.54
  -1  10  -7   19.86    7.23
  -1  10  -6   45.21    7.56
  -1  10  -5   34.68   10.10
  -1  10  -5   20.69    7.11
  -1  10  -4    4.65    8.95
  -1  10  -3    1.71    9.36
  -1  10   0   37.68   12.10
  -1  10   1   63.21   14.72
  -1  10   2   18.62   13.29
  -1  10   3   16.78   14.83
  -1  10   4    8.55   14.69
  -1  10   5   -9.35   14.94
  -1  10   7   16.26   14.55
  -1  10   8   20.15   14.20
  -1  10   9   13.50   13.45
  -1  10  10    5.81   11.92
  -1  11  -7    9.94    7.06
  -1  11  -6   30.17    7.59
  -1  11  -5   38.76   11.80
  -1  11  -5   27.15    8.14
  -1  11  -4   14.89   10.77
  -1  11   7   11.07   15.07
  -1  11   8    8.87   14.01
  -1  12  -5   22.33    8.45
  -1  12  -5   21.47   12.68
  -1  12   7   -1.33   15.76
   0 -13  -3   17.76   10.25
   0 -13  -2    7.96    9.89
   0 -13  -1    5.85    9.49
   0 -13   0   -1.27    9.58
   0 -13   1  -14.33    9.96
   0 -13   2   -0.24    8.80
   0 -12  -5   17.63   10.89
   0 -12  -4    5.41   10.37
   0 -12  -3   -0.28   10.23
   0 -12  -2    2.69    9.72
   0 -12  -1   -6.94    9.94
   0 -12   0   -7.06   10.10
   0 -12   1   14.56    9.70
   0 -12   2   12.09    9.26
   0 -12   3    8.69    8.92
   0 -12   4    0.23    8.42
   0 -12   5    1.77    8.31
   0 -12   6   15.04    8.56
   0 -12   7   19.22    8.66
   0 -11  -6   36.67   11.89
   0 -11  -5   15.63   10.85
   0 -11  -4   11.92   10.76
   0 -11  -3   -5.01    9.78
   0 -11  -2  -18.91   10.39
   0 -11  -1  -14.47   10.23
   0 -11   0    5.45    9.13
   0 -11   1   12.78    9.69
   0 -11   2   12.99    9.07
   0 -11   3   22.97    9.10
   0 -11   4   26.97    9.08
   0 -11   5   10.11    8.40
   0 -11   6   -7.39    8.19
   0 -11   6    0.45    9.31
   0 -11   7    5.23    8.64
   0 -11   7   -2.26    9.33
   0 -11   8    4.35    9.13
   0 -11   8   -2.34   10.11
   0 -11   9  -17.59   11.25
   0 -11   9   -3.91    9.09
   0 -10  -7    3.74   10.61
   0 -10  -6   18.87   11.32
   0 -10  -5   18.01   10.78
   0 -10  -4   -2.59    9.85
   0 -10  -3  -11.04    9.67
   0 -10  -2   -5.14    9.57
   0 -10  -1   -6.05    9.53
   0 -10   0   -4.50    8.91
   0 -10   1   12.17    8.94
   0 -10   2   42.54    9.46
   0 -10   3   42.21    9.17
   0 -10   4   38.88    8.79
   0 -10   5    7.33    8.00
   0 -10   5   10.57    8.73
   0 -10   6   -4.46    8.86
   0 -10   6    3.34    8.37
   0 -10   7   -2.13    8.68
   0 -10   7  -10.05    8.69
   0 -10   8   12.97    9.76
   0 -10   9   -0.46    9.77
   0 -10  10   17.43   10.87
   0 -10  11    7.04   11.21
   0  -9  -9    3.88   11.07
   0  -9  -8   17.22   10.87
   0  -9  -7   12.05   10.79
   0  -9  -6    8.70   10.53
   0  -9  -5   40.33   11.12
   0  -9  -4   34.87   10.60
   0  -9  -3   18.22    9.96
   0  -9  -2   31.61    9.44
   0  -9  -2   14.33    9.47
   0  -9  -1   25.67    9.14
   0  -9  -1   25.77    9.30
   0  -9   0   -3.22    8.48
   0  -9   0   -7.64    8.20
   0  -9   1    0.43    7.50
   0  -9   1    3.11    8.04
   0  -9   2   41.84    8.37
   0  -9   2   53.16   10.10
   0  -9   3   58.47   10.01
   0  -9   3   55.17    9.01
   0  -9   4   48.69    9.95
   0  -9   4   62.72    9.87
   0  -9   4   45.69    9.08
   0  -9   5   49.44    9.46
   0  -9   5   49.35    9.59
   0  -9   5   40.73    9.58
   0  -9   6   35.61    9.17
   0  -9   6   26.44    8.76
   0  -9   6   32.91    9.75
   0  -9   7    4.29    8.55
   0  -9   8   -1.24    8.64
   0  -9   9    3.47    8.92
   0  -9  10   10.51   10.08
   0  -9  11    9.82   10.44
   0  -8  -9   34.68   11.94
   0  -8  -8   35.40   11.45
   0  -8  -7    0.30    9.87
   0  -8  -6    1.45    9.54
   0  -8  -5   17.53   10.35
   0  -8  -4   92.73   12.01
   0  -8  -3  117.31   12.65
   0  -8  -2  144.46   12.88
   0  -8  -2  129.22   12.97
   0  -8  -1  157.16   13.29
   0  -8  -1  168.24   13.82
   0  -8   0  221.62   14.84
   0  -8   0  245.99   16.09
   0  -8   1   18.11    7.66
   0  -8   1   10.66    6.90
   0  -8   2   -5.38    6.64
   0  -8   2   -3.16    6.77
   0  -8   3   17.07    7.33
   0  -8   3   17.60    7.07
   0  -8   3   16.36    7.16
   0  -8   4   46.66    8.38
   0  -8   4   40.01    8.55
   0  -8   4   39.97    8.24
   0  -8   5  127.56   11.09
   0  -8   5   93.46   11.58
   0  -8   6  147.40   12.62
   0  -8   6  129.12   12.96
   0  -8   7  130.27   12.17
   0  -8   7  108.91   12.49
   0  -8   8   89.50   10.83
   0  -8   8   76.98   11.56
   0  -7  -9   58.99   12.06
   0  -7  -8   28.59   10.60
   0  -7  -7   28.75   10.24
   0  -7  -6   11.17    9.81
   0  -7  -5   -2.70    8.82
   0  -7  -4   28.28    9.07
   0  -7  -3   95.64   11.22
   0  -7  -2  195.78   14.11
   0  -7  -2  173.25   13.47
   0  -7  -1  315.81   18.09
   0  -7  -1  343.72   19.11
   0  -7   0  291.51   16.54
   0  -7   0  311.00   17.58
   0  -7   1  162.65   11.31
   0  -7   1  167.49   12.38
   0  -7   2   21.37    6.82
   0  -7   2   22.43    6.22
   0  -7   3   -3.58    5.78
   0  -7   3    0.66    5.59
   0  -7   3    0.16    5.83
   0  -7   4   -2.86    5.63
   0  -7   4    7.49    6.14
   0  -7   5   45.88    7.84
   0  -7   5   46.72    8.05
   0  -7   6  168.08   12.39
   0  -7   6  142.92   12.71
   0  -7   7  187.44   13.82
   0  -7   8  189.28   14.09
   0  -7  12    0.71    8.49
   0  -6  -9   39.62   11.01
   0  -6  -8   16.94    9.90
   0  -6  -7   28.75    9.83
   0  -6  -6   32.10    9.57
   0  -6  -5   53.96    9.82
   0  -6  -4    5.90    7.71
   0  -6  -3   43.71    8.38
   0  -6  -2  112.02   10.78
   0  -6  -2  137.60   10.95
   0  -6  -1  206.71   12.99
   0  -6  -1  221.57   13.85
   0  -6   0  326.88   16.89
   0  -6   0  341.34   18.05
   0  -6   1  179.57   10.95
   0  -6   1  181.89   11.85
   0  -6   2   17.70    5.58
   0  -6   2   23.50    5.91
   0  -6   2   15.66    5.60
   0  -6   3   14.59    5.34
   0  -6   3    6.34    5.08
   0  -6   4    5.95    5.27
   0  -6   4    6.45    5.29
   0  -6   5    4.41    5.38
   0  -6   5    3.58    5.29
   0  -6   6  134.81   10.76
   0  -6   7  165.54   12.16
   0  -6  12   10.95    8.89
   0  -5  -8   90.84   11.73
   0  -5  -7  121.32   12.40
   0  -5  -6  305.11   18.84
   0  -5  -5  343.48   19.60
   0  -5  -4   91.85    9.83
   0  -5  -3   12.54    6.78
   0  -5  -2   68.83    7.82
   0  -5  -1  134.90    9.88
   0  -5  -1  123.80    9.05
   0  -5   0  428.36   20.50
   0  -5   0  421.73   19.55
   0  -5   1  429.83   19.79
   0  -5   1  442.15   20.63
   0  -5   2  175.22   10.46
   0  -5   2  163.89    9.92
   0  -5   3  442.46   20.71
   0  -5   4  161.56   10.30
   0  -5   5   96.94    8.40
   0  -5   6   23.66    6.12
   0  -5  10  130.68    9.68
   0  -5  11   47.33    7.46
   0  -5  11   80.27   10.05
   0  -5  12    3.13    6.58
   0  -5  12   16.40    8.92
   0  -5  13   -5.08    7.09
   0  -5  14   -5.18    7.64
   0  -4 -13   39.71   10.53
   0  -4  -3  110.18    9.22
   0  -4  -2  160.07   10.49
   0  -4  -1    9.85    4.30
   0  -4  -1   13.69    4.53
   0  -4   0  174.46    9.87
   0  -4   0  157.44    9.12
   0  -4   1  625.84   27.31
   0  -4   1  675.54   27.92
   0  -4   2  974.42   40.13
   0  -4   3  704.59   30.06
   0  -4   4 1822.76   72.93
   0  -4   5 1095.33   45.58
   0  -4   7    3.80    4.04
   0  -4   8   13.00    4.73
   0  -4   9  135.22    9.24
   0  -4  10  109.74   10.10
   0  -4  10   80.86    7.85
   0  -4  11  160.16   12.55
   0  -4  11  121.03    9.80
   0  -4  12  118.47   12.11
   0  -4  12   76.48    8.68
   0  -4  13   46.37    8.05
   0  -4  14   21.66    7.77
   0  -4  15   -0.61    7.81
   0  -3 -13   13.46    9.25
   0  -3 -12   21.32    8.85
   0  -3   0   94.45    6.17
   0  -3   1  107.72    6.51
   0  -3   2  434.36   18.87
   0  -3   3  945.59   38.62
   0  -3   4 1451.71   58.31
   0  -3   5 1263.70   49.91
   0  -3   6  538.24   22.64
   0  -3   7   69.53    5.73
   0  -3   8   20.58    4.78
   0  -3   9    3.63    4.91
   0  -3   9    4.31    5.95
   0  -3  10   13.29    5.83
   0  -3  10   32.24    7.77
   0  -3  11   83.22    8.75
   0  -3  11  126.17   11.46
   0  -3  12   99.39   11.84
   0  -3  12   73.87    8.81
   0  -3  13   60.30    9.10
   0  -3  14   33.46    8.81
   0  -3  15   13.47    8.80
   0  -2 -13    6.53    8.51
   0  -2 -12    9.90    7.69
   0  -2 -11   43.19    8.00
   0  -2  -6   43.24    6.58
   0  -2   0  651.12   26.47
   0  -2   1    8.21    2.06
   0  -2   2  113.59    6.22
   0  -2   3  183.08    9.27
   0  -2   3  187.48    8.27
   0  -2   4  693.35   27.81
   0  -2   5  757.13   30.52
   0  -2   6  295.23   13.31
   0  -2   7   38.45    4.51
   0  -2   8   34.10    4.85
   0  -2   8   34.78    6.05
   0  -2   9   43.30    5.75
   0  -2   9   57.56    7.56
   0  -2  10    7.76    5.45
   0  -2  10    9.33    7.11
   0  -2  11   17.90    6.63
   0  -2  11   24.30    8.41
   0  -2  12   31.99    7.97
   0  -2  12   49.67   10.34
   0  -2  13   33.40    8.64
   0  -2  14   32.07    9.51
   0  -2  15   11.76    9.59
   0  -2  16   -5.90   10.60
   0  -1 -13  -11.57    8.95
   0  -1 -13   -5.59    9.64
   0  -1 -12   17.09    8.74
   0  -1 -12   16.26    7.74
   0  -1 -11   98.48   11.45
   0  -1 -11   94.62    9.09
   0  -1 -10  341.99   19.01
   0  -1 -10  279.81   15.21
   0  -1  -9  358.70   19.66
   0  -1  -8  204.00   12.91
   0  -1  -7   82.09    7.22
   0  -1  -6   62.99    5.88
   0  -1  -5  110.28    7.16
   0  -1  -4  482.50   19.75
   0  -1  -4  415.07   19.19
   0  -1  -3  289.42   13.60
   0  -1  -3  344.59   14.36
   0  -1  -2 1363.89   53.72
   0  -1  -1 2232.49   86.39
   0  -1   0  964.09   37.52
   0  -1   1 1151.59   44.74
   0  -1   2   86.45    4.02
   0  -1   3   34.41    2.46
   0  -1   5  397.88   17.88
   0  -1   6  963.24   39.96
   0  -1   7  147.45    9.38
   0  -1   8  157.94   10.47
   0  -1   8  164.60   10.68
   0  -1   9  224.35   12.64
   0  -1   9  226.29   13.81
   0  -1   9  246.82   14.12
   0  -1  10   57.63    7.63
   0  -1  10   67.73    8.20
   0  -1  10   66.23    8.99
   0  -1  11    7.86    6.86
   0  -1  11   11.51    8.45
   0  -1  11    2.51    6.47
   0  -1  12   24.33    8.24
   0  -1  12   29.82   10.05
   0  -1  12   38.62    8.78
   0  -1  13   18.94    8.81
   0  -1  14   19.96    9.79
   0  -1  15    4.75   10.46
   0  -1  16    3.91   11.43
   0   0 -14    6.23    9.43
   0   0 -13   -2.14    8.59
   0   0 -13    0.88    6.95
   0   0 -12    3.00    7.90
   0   0 -12    4.13    6.56
   0   0 -11   73.06    9.89
   0   0 -11   47.27    7.27
   0   0 -10  395.90   20.76
   0   0 -10  349.94   17.08
   0   0  -9  499.40   23.65
   0   0  -9  456.66   20.31
   0   0  -8  589.81   27.21
   0   0  -8  584.85   24.38
   0   0  -7  540.56   24.83
   0   0  -6  205.39   11.36
   0   0  -5  178.43    9.71
   0   0  -4   38.88    3.66
   0   0  -3  250.64   11.26
   0   0  -2 1007.82   39.49
   0   0   2  979.88   38.26
   0   0   4   36.97    3.49
   0   0   5  187.95    9.85
   0   0   6  197.43   10.75
   0   0   7  549.20   24.84
   0   0   8  618.57   28.17
   0   0   9  512.31   24.84
   0   0  10  401.86   21.50
   0   0  11   80.52    9.95
   0   0  11   63.23   10.20
   0   0  12   12.67    8.75
   0   0  12    9.09    7.71
   0   0  13   -6.38    9.83
   0   0  13    6.52    8.73
   0   0  14   10.71   10.84
   0   0  15   15.61   11.80
   0   1 -15    2.48   14.09
   0   1 -14   24.78    9.98
   0   1 -13   15.50    8.38
   0   1 -12   34.40    8.75
   0   1 -11   -0.29    6.54
   0   1 -10   63.76    8.47
   0   1  -9  220.69   13.25
   0   1  -9  177.81    9.09
   0   1  -8  146.66    7.54
   0   1  -8  162.85   10.81
   0   1  -7  158.25   10.29
   0   1  -7  165.61    7.66
   0   1  -6  912.00   39.28
   0   1  -6  947.28   36.72
   0   1  -5  386.30   17.64
   0   1  -5  385.15   15.42
   0   1  -4  188.26    9.53
   0   1  -3   33.58    3.13
   0   1  -2   86.92    4.56
   0   1  -2   80.05    4.51
   0   1  -1 1128.53   43.86
   0   1   0  884.16   35.68
   0   1   0  971.10   36.07
   0   1   1 2297.88   88.88
   0   1   2 1366.91   53.82
   0   1   3  310.80   13.76
   0   1   3  296.62   13.30
   0   1   4  450.83   20.01
   0   1   4  466.95   19.91
   0   1   5  112.32    7.60
   0   1   5  111.10    7.10
   0   1   6   67.10    6.66
   0   1   6   70.07    6.10
   0   1   7   93.23    7.61
   0   1   8  209.38   12.93
   0   1   9  413.45   21.42
   0   1  10  360.17   20.33
   0   1  11  101.26   11.34
   0   1  12   38.71    9.85
   0   1  13   -5.52   11.15
   0   1  13   10.81    9.26
   0   1  14   -0.35   11.98
   0   1  14   -0.81    9.56
   0   1  15   -1.90   12.85
   0   2 -15   24.55   14.24
   0   2 -14   21.79   13.26
   0   2 -14   31.55    9.88
   0   2 -13   41.58    9.59
   0   2 -13   27.62   12.28
   0   2 -12   30.87   11.19
   0   2 -12   39.47    8.99
   0   2 -11    7.91    9.19
   0   2 -11   21.14    7.82
   0   2 -10   -1.61    7.59
   0   2 -10    2.75    6.24
   0   2  -9   47.02    7.14
   0   2  -9   52.19    8.22
   0   2  -8   40.54    6.95
   0   2  -8   27.97    5.88
   0   2  -7   51.83    6.01
   0   2  -6  328.24   16.36
   0   2  -5  754.45   32.07
   0   2  -4  680.40   28.76
   0   2  -3  202.54   10.13
   0   2  -3  204.06    8.71
   0   2  -2  108.98    6.07
   0   2  -2  110.19    5.08
   0   2  -1    5.26    2.04
   0   2   0  613.43   25.23
   0   2   0  639.12   25.98
   0   2   1  534.15   22.43
   0   2   2   70.08    5.83
   0   2   3   83.41    6.47
   0   2   3   63.72    5.26
   0   2   4  443.35   20.00
   0   2   4  415.84   19.29
   0   2   5  329.95   17.04
   0   2   5  351.19   16.52
   0   2   6    9.81    5.96
   0   2   6   27.30    4.81
   0   2   7    2.49    4.20
   0   2   8   16.26    7.09
   0   2   8   22.83    5.86
   0   2   9  103.96   11.20
   0   2   9  136.20   11.03
   0   2  10  141.87   12.48
   0   2  11   48.35    9.69
   0   2  12   11.25    8.77
   0   2  13   13.06    9.93
   0   2  14   11.89   13.13
   0   2  14   10.97   10.42
   0   2  15   -2.96   11.06
   0   3 -15   21.17   13.33
   0   3 -14   54.17   13.90
   0   3 -13   93.39   14.25
   0   3 -13   84.17   11.93
   0   3 -12  101.82   12.02
   0   3 -12  109.25   13.55
   0   3 -11  111.28   11.53
   0   3 -11  119.32   12.88
   0   3 -10   28.73    8.46
   0   3 -10   18.21    6.99
   0   3  -9    1.41    6.45
   0   3  -9    7.43    5.61
   0   3  -8   11.45    5.42
   0   3  -8   19.47    6.33
   0   3  -7   68.84    7.37
   0   3  -6  534.43   24.71
   0   3  -5 1221.32   50.52
   0   3  -4 1469.84   57.05
   0   3  -4 1453.78   59.32
   0   3  -3  927.60   36.46
   0   3  -2  428.06   18.88
   0   3  -1   97.01    6.25
   0   3  -1   99.01    6.51
   0   3   0   88.92    6.07
   0   3   0   88.58    6.61
   0   3   1  260.48   12.84
   0   3   2  132.34    8.67
   0   3   3  671.33   29.63
   0   3   4  703.99   29.93
   0   3   4  622.53   29.29
   0   3   5  735.68   32.21
   0   3   5  694.14   31.63
   0   3   6  281.05   15.91
   0   3   6  257.60   14.98
   0   3   7   31.29    7.42
   0   3   7   30.60    6.09
   0   3   8   -1.51    7.06
   0   3   8   -3.91    5.93
   0   3   9   -7.66    8.38
   0   3   9    1.87    6.22
   0   3  10   76.65   10.07
   0   3  10   47.79   10.67
   0   3  11   69.90   11.21
   0   3  12   28.19    9.93
   0   3  13   11.60   10.45
   0   3  14   29.81   11.53
   0   4 -15   -5.63   12.31
   0   4 -14   31.01   12.49
   0   4 -13   41.93   12.03
   0   4 -12   78.76   11.36
   0   4 -12  100.58   12.93
   0   4 -11  121.57   12.45
   0   4 -11  159.75   13.70
   0   4 -10   95.04   10.60
   0   4 -10  111.37   11.41
   0   4  -9  117.64   11.44
   0   4  -9  155.15   11.89
   0   4  -8    5.82    5.82
   0   4  -8   14.21    6.34
   0   4  -7    1.16    4.72
   0   4  -6  221.40   13.41
   0   4  -5 1040.13   45.17
   0   4  -5 1073.52   42.14
   0   4  -4 1796.16   69.86
   0   4  -2  891.22   37.31
   0   4  -1  618.17   26.93
   0   4  -1  624.05   27.61
   0   4   0  156.70    9.35
   0   4   0  143.35   10.08
   0   4   1   10.68    4.99
   0   4   1   11.45    4.95
   0   4   2  149.36   10.29
   0   4   3   97.22    9.03
   0   4   4  919.59   40.33
   0   4   5 1044.84   45.26
   0   4   5 1034.53   45.75
   0   4   6  620.79   30.00
   0   4   6  635.77   30.06
   0   4   7  137.85   12.09
   0   4   7  124.24   11.12
   0   4   8  102.61   11.46
   0   4   8   92.88   10.19
   0   4   9    4.44    8.53
   0   4   9    2.37    7.08
   0   4  10   -1.56    7.77
   0   4  10   -3.17    9.34
   0   4  11   27.74    9.45
   0   4  12   27.57   10.57
   0   4  13   18.07   11.10
   0   4  14   55.92   12.79
   0   5 -14  -14.74   11.20
   0   5 -13    3.20   10.12
   0   5 -12   12.00    8.67
   0   5 -12    5.85    9.26
   0   5 -11   56.75   10.19
   0   5 -11   62.26   10.55
   0   5 -10  129.10   12.73
   0   5 -10  164.89   13.32
   0   5  -9   54.19    9.00
   0   5  -9   77.70    9.80
   0   5  -8  193.59   13.98
   0   5  -8  189.73   13.36
   0   5  -7  127.76   10.81
   0   5  -7  130.26   10.85
   0   5  -6   20.45    3.60
   0   5  -6   15.31    5.73
   0   5  -5   86.02    8.57
   0   5  -5   91.21    5.94
   0   5  -4  129.07    7.15
   0   5  -2  136.90    9.90
   0   5  -1  426.49   20.43
   0   5  -1  413.21   20.99
   0   5   0  418.25   21.72
   0   5   1  131.05   10.20
   0   5   1  115.32   10.85
   0   5   2   60.76    8.11
   0   5   3   10.04    7.01
   0   5   4   64.52    9.47
   0   5   5  292.00   18.06
   0   5   6  262.36   17.10
   0   5   6  244.23   17.29
   0   5   7  103.07   11.93
   0   5   7   91.08   11.04
   0   5   8   79.07   10.24
   0   5   8   69.73   11.45
   0   5   9   40.33    9.41
   0   5   9   40.19   10.76
   0   5  10   -1.00    8.62
   0   5  11  -10.48    9.16
   0   5  12   19.65    9.96
   0   5  13    9.07   10.64
   0   6 -14    4.31   10.85
   0   6 -13   -0.72    9.85
   0   6 -12    6.35    9.63
   0   6 -11    5.55    8.92
   0   6 -11   -0.38    8.56
   0   6 -10   65.98   10.58
   0   6 -10   57.70   10.41
   0   6  -9  156.55   13.55
   0   6  -9  148.05   13.14
   0   6  -8  138.89   12.55
   0   6  -8  140.72   12.00
   0   6  -7  144.79   12.35
   0   6  -7  141.28   11.88
   0   6  -6  116.98    7.07
   0   6  -6  115.39   10.79
   0   6  -5    1.88    3.23
   0   6  -1  157.30   11.95
   0   6   0  304.60   18.58
   0   6   1  208.27   14.00
   0   6   1  178.36   14.95
   0   6   2  115.77   11.62
   0   6   2  118.81   12.99
   0   6   3   48.71    9.47
   0   6   4   -6.69    8.39
   0   6   5   30.22    9.72
   0   6   6   39.95   10.31
   0   6   6   48.66   10.87
   0   6   7   20.20    9.21
   0   6   7   21.17    9.98
   0   6   8   12.20    8.63
   0   6   8    9.85    9.88
   0   6   9   28.12    9.80
   0   6  10   26.66   10.26
   0   6  11    7.14    9.70
   0   6  12   -8.30   10.08
   0   7 -13    4.08   10.23
   0   7 -12   -2.07    9.25
   0   7 -11   11.94    9.27
   0   7 -10   58.88   10.56
   0   7  -9  138.81   13.79
   0   7  -9  143.65   13.56
   0   7  -8  179.12   14.84
   0   7  -8  181.26   14.38
   0   7  -7  222.52   14.95
   0   7  -7  183.47   10.01
   0   7  -7  188.36   14.94
   0   7  -6  147.29   12.88
   0   7  -6  143.72    8.63
   0   7  -5   33.51    4.86
   0   7  -1  151.91   12.89
   0   7   0  279.78   19.18
   0   7   1  321.28   21.84
   0   7   2  167.30   15.67
   0   7   2  174.13   16.84
   0   7   3   98.57   14.16
   0   7   3   76.91   12.72
   0   7   4   30.12   10.63
   0   7   5   -1.33    9.91
   0   7   6   16.14    9.91
   0   7   6    6.49   10.45
   0   7   7   14.88   10.29
   0   7   7   15.03   10.95
   0   7   8   21.59   10.05
   0   7   9   56.62   11.31
   0   7  10   48.84   11.39
   0   7  11   19.38   10.58
   0   8 -12   21.86   10.76
   0   8 -11    5.88    9.84
   0   8 -10    9.48    9.29
   0   8  -9   40.32   10.16
   0   8  -8   83.04   11.35
   0   8  -8   65.35   11.43
   0   8  -7  107.33    7.66
   0   8  -7  133.97   12.65
   0   8  -7  123.78   13.22
   0   8  -6  114.93    7.94
   0   8  -5   85.69    7.30
   0   8   0  203.28   17.59
   0   8   1  145.46   16.71
   0   8   2  155.76   16.99
   0   8   2  151.00   17.82
   0   8   3  122.46   16.65
   0   8   3  110.70   16.00
   0   8   4   81.55   15.20
   0   8   4   81.32   14.57
   0   8   5   32.76   12.88
   0   8   6    1.46   10.83
   0   8   6    7.75   11.77
   0   8   7   -1.35   10.57
   0   8   8   13.75   10.70
   0   8   9   26.99   10.50
   0   8  10   37.15   11.54
   0   9 -11   29.70   11.34
   0   9 -10    3.85    9.84
   0   9  -9    0.67    9.14
   0   9  -8    0.98    8.72
   0   9  -7   -4.47    8.51
   0   9  -7   -1.80    4.56
   0   9  -6   28.48    5.48
   0   9  -6   33.94   10.47
   0   9  -5   40.44    6.38
   0   9   0   -1.53    9.34
   0   9   1   24.75   11.83
   0   9   2   22.08   12.59
   0   9   3    8.75   12.60
   0   9   3   12.59   13.66
   0   9   4   28.08   15.04
   0   9   5   22.91   15.33
   0   9   7    2.92   11.67
   0   9   8    1.75   10.65
   0   9   9    1.18    9.75
   0  10 -10   15.82   10.92
   0  10  -9    7.29    9.86
   0  10  -8    7.60    9.80
   0  10  -7   -2.15    9.84
   0  10  -7    5.87    4.89
   0  10  -6   -1.79    4.96
   0  10  -6   -1.07    9.84
   0  10  -5    9.64    5.96
   0  10   4   -0.51   15.71
   0  10   7    5.59   12.63
   0  10   8   -4.96   11.30
   0  11  -8   -7.47   10.59
   0  11  -7    1.18   10.56
   0  11  -6    1.24    5.39
   0  11  -6   -5.27   10.88
   0  11  -5    6.83    6.51
   0  11   6   19.66   14.96
   0  11   7   20.24   13.71
   1 -13  -3   19.68    9.36
   1 -13  -2   16.91    9.12
   1 -13  -1    5.22    8.40
   1 -13   0    2.76    8.07
   1 -13   1    0.93    7.82
   1 -12  -6    4.92    9.90
   1 -12  -5   24.13   10.46
   1 -12  -4   31.85   10.20
   1 -12  -3   18.26    9.72
   1 -12  -2   25.99    9.60
   1 -12  -1    6.74    8.83
   1 -12   0   -7.57    8.24
   1 -12   1   -7.66    8.19
   1 -12   2  -10.29    8.01
   1 -12   3   -1.24    7.37
   1 -12   4   -0.66    7.09
   1 -12   5   16.53    7.37
   1 -12   6   20.67    7.44
   1 -12   8    2.75   10.00
   1 -12   8   17.85   11.15
   1 -11  -7   16.03   10.83
   1 -11  -6   12.52   10.81
   1 -11  -5   17.89   10.04
   1 -11  -4   20.74   10.11
   1 -11  -3   32.36    9.92
   1 -11  -2   24.37    9.59
   1 -11  -1    7.47    8.61
   1 -11   0   -4.41    8.40
   1 -11   1  -12.69    8.31
   1 -11   2   -7.75    7.32
   1 -11   3   -3.22    6.97
   1 -11   4    9.89    6.86
   1 -11   5   23.29    7.23
   1 -11   6   18.18    9.82
   1 -11   6   25.79    7.42
   1 -11   7   13.37    7.50
   1 -11   7   10.32    9.41
   1 -11   8    6.00    9.55
   1 -11   8    7.49    7.83
   1 -11   9   -6.29    9.51
   1 -11   9   -3.42    8.26
   1 -11   9    1.70    7.69
   1 -11  10  -11.49    9.93
   1 -10  -7   19.54   11.23
   1 -10  -6    5.78   10.49
   1 -10  -5   12.39    9.86
   1 -10  -4   34.16   10.32
   1 -10  -3   30.31   10.06
   1 -10  -2   35.18    9.70
   1 -10  -1   48.07   10.05
   1 -10   0   31.91    9.32
   1 -10   1   16.99    7.76
   1 -10   2    8.20    6.87
   1 -10   3   14.07    8.03
   1 -10   3    3.13    6.33
   1 -10   4    3.33    6.17
   1 -10   5   14.62    6.79
   1 -10   5   15.25    8.82
   1 -10   6   41.88   10.22
   1 -10   6   37.29    8.19
   1 -10   7   23.93    9.99
   1 -10   7   33.20    8.10
   1 -10   8   12.13    9.56
   1 -10   9   10.82    9.44
   1 -10   9   10.88    7.29
   1 -10  10   -0.44    9.34
   1 -10  11    7.71   10.04
   1 -10  12    3.28    9.85
   1  -9  -7   80.51   13.06
   1  -9  -6  108.56   13.50
   1  -9  -5   28.31   10.61
   1  -9  -5   15.14    8.72
   1  -9  -4    9.05    9.24
   1  -9  -4   -5.86    8.15
   1  -9  -3   -4.15    8.04
   1  -9  -3    7.39    8.97
   1  -9  -2   14.46    8.69
   1  -9  -1   60.48    9.82
   1  -9   0  156.17   12.37
   1  -9   1  136.55   11.38
   1  -9   2  143.24   10.95
   1  -9   3  129.01   10.02
   1  -9   3  128.99   12.16
   1  -9   4   46.69    8.76
   1  -9   4   54.92    7.34
   1  -9   4   50.76    9.12
   1  -9   5   12.63    7.46
   1  -9   5    2.32    7.11
   1  -9   5   -3.35    6.39
   1  -9   6   20.36    8.49
   1  -9   6   21.33    8.55
   1  -9   7   27.62    9.04
   1  -9   8   40.87   10.06
   1  -9   8   35.89    7.84
   1  -9   9   61.44   11.46
   1  -9   9   36.34    6.73
   1  -9  10   58.31   11.77
   1  -9  11   55.53   10.27
   1  -8  -7  103.36   13.18
   1  -8  -6  124.26   13.33
   1  -8  -6   93.55   11.64
   1  -8  -5   65.86   11.35
   1  -8  -5   58.56   10.01
   1  -8  -4   13.56    9.00
   1  -8  -4   14.31    7.69
   1  -8  -3    4.44    7.22
   1  -8  -3   17.49    8.64
   1  -8  -2    3.45    7.64
   1  -8  -1   21.76    7.94
   1  -8   0  102.84    9.93
   1  -8   1  181.66   11.96
   1  -8   2  271.54   14.47
   1  -8   3  248.51   13.43
   1  -8   3  260.52   15.72
   1  -8   3  248.19   16.33
   1  -8   4  162.40   10.99
   1  -8   4  178.01   12.52
   1  -8   4  151.01   12.60
   1  -8   5   22.65    7.41
   1  -8   5   14.35    6.79
   1  -8   6    1.31    6.69
   1  -8   6    4.67    6.81
   1  -8   7   11.17    7.35
   1  -8   7    6.49    6.91
   1  -8   8    9.37    5.77
   1  -8   9   12.59    3.64
   1  -8  10   95.93   10.77
   1  -8  11  110.02   11.88
   1  -8  12   63.64   11.77
   1  -7 -13   14.44   12.15
   1  -7 -12   35.02   12.79
   1  -7  -7   31.37   10.65
   1  -7  -6  104.46   12.29
   1  -7  -5   93.35   11.99
   1  -7  -4   37.62    9.38
   1  -7  -4   23.69    7.96
   1  -7  -3   45.77    8.90
   1  -7  -3   22.29    7.55
   1  -7  -2   56.57    8.71
   1  -7  -1    1.07    6.30
   1  -7   0   58.57    7.43
   1  -7   1  159.80   10.01
   1  -7   2  172.27   10.00
   1  -7   3  194.52   11.32
   1  -7   3  210.66   12.85
   1  -7   3  190.52   13.31
   1  -7   4  206.06   13.01
   1  -7   4  188.02   13.36
   1  -7   5   37.87    7.43
   1  -7   5   31.48    6.98
   1  -7   6    9.32    6.55
   1  -7   6   -3.52    5.91
   1  -7   7    2.00    6.47
   1  -7   8   -5.94    4.21
   1  -7  10   72.75   10.01
   1  -7  11   80.66   11.18
   1  -7  12   48.74   11.26
   1  -6 -13   21.11   11.96
   1  -6 -12   65.34   12.94
   1  -6  -7   25.21    9.03
   1  -6  -6   93.13   11.33
   1  -6  -5  215.51   15.08
   1  -6  -4  296.53   17.55
   1  -6  -3  283.15   15.86
   1  -6  -3  224.37   15.33
   1  -6  -2  566.03   26.49
   1  -6  -1  267.46   14.68
   1  -6   0    8.60    4.84
   1  -6   1  128.07    7.88
   1  -6   2  125.21    7.81
   1  -6   2  119.21    9.22
   1  -6   2  136.94    9.77
   1  -6   3  261.31   14.32
   1  -6   3  252.52   14.72
   1  -6   4  331.88   18.25
   1  -6   4  365.74   18.17
   1  -6   5  260.95   15.14
   1  -6   6  121.76   10.35
   1  -6   7   70.02    5.66
   1  -6   9   -2.11    6.80
   1  -6  10   64.38    9.62
   1  -6  11   52.63   10.72
   1  -6  12   43.35   11.10
   1  -5 -13   23.86   11.22
   1  -5 -12   51.80   11.93
   1  -5  -6    2.22    7.11
   1  -5  -5  166.97   12.28
   1  -5  -4  410.90   20.98
   1  -5  -3  963.07   41.24
   1  -5  -2 1798.34   72.38
   1  -5  -1 1298.59   52.79
   1  -5   0  702.92   29.35
   1  -5   1   29.31    3.77
   1  -5   2    1.01    4.09
   1  -5   2    5.32    3.72
   1  -5   2    3.41    3.12
   1  -5   3   94.46    7.47
   1  -5   3   82.49    7.13
   1  -5   4  383.26   18.85
   1  -5   5  696.66   31.06
   1  -5   6  402.12   16.92
   1  -5   8  618.09   27.60
   1  -5   9   68.60    8.32
   1  -5   9  106.37    9.43
   1  -5  10   -6.29    6.69
   1  -5  10    8.92    7.81
   1  -5  11    7.82    7.22
   1  -5  11   17.48    8.85
   1  -5  12   14.35    7.67
   1  -5  12   32.33   10.78
   1  -5  13   22.88    8.46
   1  -5  14   14.04    8.48
   1  -4 -13    1.27   10.01
   1  -4 -12   11.29    9.87
   1  -4 -11   76.93   11.39
   1  -4  -5   -1.21    5.67
   1  -4  -4  133.87    9.34
   1  -4  -3  288.63   14.81
   1  -4  -2 1056.28   43.34
   1  -4  -1 1669.15   66.13
   1  -4   0  657.18   26.89
   1  -4   1  131.54    6.61
   1  -4   1  147.81    8.20
   1  -4   2  261.95   12.66
   1  -4   2  240.77   12.55
   1  -4   3   51.36    5.48
   1  -4   4   23.87    4.76
   1  -4   5  252.37   10.89
   1  -4   6  541.08   23.88
   1  -4   7  507.77   22.58
   1  -4   7  494.11   22.64
   1  -4   8  396.71   18.56
   1  -4   8  350.20   17.90
   1  -4   9  267.00   15.25
   1  -4   9  330.79   16.78
   1  -4  10   45.14    7.22
   1  -4  10   47.18    8.61
   1  -4  11   -6.88    6.46
   1  -4  11    4.10    8.66
   1  -4  12   -6.25    7.07
   1  -4  12   -8.12    9.89
   1  -4  13    0.21    7.44
   1  -4  14   12.63    8.42
   1  -4  15   19.80    8.99
   1  -3 -13    3.52    9.71
   1  -3 -12   -3.44    8.67
   1  -3 -11   14.40    8.50
   1  -3 -10   62.48    9.35
   1  -3  -2  274.53   12.53
   1  -3  -1  873.84   34.86
   1  -3   0  362.41   14.96
   1  -3   1   70.88    4.74
   1  -3   2   71.00    5.42
   1  -3   3  543.80   22.78
   1  -3   3  515.35   20.99
   1  -3   4   67.49    5.15
   1  -3   4   56.52    3.47
   1  -3   5   38.53    4.70
   1  -3   5   44.24    4.83
   1  -3   6  161.77    9.63
   1  -3   6  171.79    9.49
   1  -3   7  217.67   11.95
   1  -3   7  191.50   11.06
   1  -3   8  247.46   13.86
   1  -3   8  231.74   12.85
   1  -3   9  137.69   10.08
   1  -3   9  176.26   11.96
   1  -3  10   41.87    7.16
   1  -3  10   57.73    9.44
   1  -3  11    3.76    6.67
   1  -3  11   -9.10    8.81
   1  -3  12  -13.72   10.08
   1  -3  12   -3.31    7.39
   1  -3  13   -1.59    7.97
   1  -3  14   -5.17    8.79
   1  -3  15    2.37    9.14
   1  -2 -13   29.75    9.85
   1  -2 -12    2.68    8.92
   1  -2 -12   15.53    8.46
   1  -2 -11   -0.34    7.60
   1  -2 -11    3.87    7.42
   1  -2 -10   32.65    8.16
   1  -2 -10   38.73    7.32
   1  -2  -9   81.93    9.35
   1  -2  -9   66.40    7.89
   1  -2  -8  260.62   16.05
   1  -2  -8  284.34   14.43
   1  -2  -7  837.78   38.17
   1  -2  -7  899.21   36.53
   1  -2  -6  913.17   39.05
   1  -2  -5  602.66   26.67
   1  -2   2  664.50   26.60
   1  -2   2  685.01   27.32
   1  -2   2  677.23   26.61
   1  -2   3 1607.37   64.14
   1  -2   3 1697.07   64.62
   1  -2   4  625.07   26.44
   1  -2   4  657.47   26.60
   1  -2   5   56.77    5.06
   1  -2   5   60.41    5.61
   1  -2   6   24.56    4.45
   1  -2   6   29.37    5.11
   1  -2   7   88.26    6.99
   1  -2   7   95.96    8.26
   1  -2   8  152.97   10.82
   1  -2   8  144.42    9.80
   1  -2   9  218.21   13.94
   1  -2   9  195.95   12.25
   1  -2  10   81.26    8.76
   1  -2  10   94.15   10.77
   1  -2  11   58.99    8.85
   1  -2  11   65.25   10.96
   1  -2  12   21.21   10.77
   1  -2  12   29.41    8.96
   1  -2  13    8.54    9.30
   1  -2  14  -13.94   10.18
   1  -2  15   -9.77   10.82
   1  -1 -14   40.57   11.68
   1  -1 -13   34.77   10.75
   1  -1 -13   28.20    9.47
   1  -1 -12   92.90   12.22
   1  -1 -12  104.69   10.45
   1  -1 -11   44.12    9.13
   1  -1 -11   50.10    8.25
   1  -1 -10    6.80    6.63
   1  -1 -10   -5.30    6.56
   1  -1  -9    2.38    5.59
   1  -1  -9    7.05    5.67
   1  -1  -8  161.68   11.89
   1  -1  -8  185.63   10.24
   1  -1  -7  593.74   25.08
   1  -1  -7  585.09   27.24
   1  -1  -6 2483.71   98.57
   1  -1  -6 2474.86   96.47
   1  -1  -5 1833.26   73.15
   1  -1  -5 1824.89   71.46
   1  -1  -4  687.41   29.61
   1  -1  -4  709.93   28.39
   1  -1  -3  512.02   21.22
   1  -1  -3  484.14   20.21
   1  -1  -2   82.93    5.05
   1  -1  -2   84.63    4.61
   1  -1  -1    7.29    1.80
   1  -1   1 1187.15   46.39
   1  -1   2 2280.76   88.31
   1  -1   3 3772.40  145.37
   1  -1   4 2933.46  113.68
   1  -1   5  350.45   16.44
   1  -1   5  332.65   15.30
   1  -1   6   85.15    7.72
   1  -1   6   93.97    6.63
   1  -1   7   -0.13    4.24
   1  -1   7    4.32    5.58
   1  -1   8    8.90    5.16
   1  -1   8    5.59    6.47
   1  -1   9  142.64   10.39
   1  -1   9  144.35   11.99
   1  -1  10  187.23   12.81
   1  -1  10  184.52   14.52
   1  -1  11   93.65   10.44
   1  -1  11   84.49   11.95
   1  -1  12  125.39   12.84
   1  -1  13   80.03   12.67
   1  -1  14   20.29   11.59
   1  -1  15  -17.21   12.83
   1   0 -14   13.44    9.42
   1   0 -13   32.23    9.81
   1   0 -12   43.36    9.67
   1   0 -12   52.41    8.04
   1   0 -11  149.24   10.64
   1   0 -11  147.87   13.22
   1   0 -10  104.77   10.33
   1   0 -10  111.98    8.56
   1   0  -9   43.40    7.05
   1   0  -9   39.83    5.86
   1   0  -8    1.35    4.83
   1   0  -8    3.61    4.43
   1   0  -7  146.98   10.10
   1   0  -7  153.25    8.49
   1   0  -6  398.48   19.59
   1   0  -6  423.40   17.90
   1   0  -5  799.59   34.97
   1   0  -5  850.54   33.50
   1   0  -4  299.48   13.95
   1   0  -4  291.65   12.86
   1   0  -3 1145.56   43.55
   1   0  -3 1043.84   42.61
   1   0  -2 1551.49   60.78
   1   0   1  138.92    6.38
   1   0   2  303.18   12.87
   1   0   3 1173.62   45.67
   1   0   4 1219.72   47.98
   1   0   5  919.44   37.13
   1   0   6  163.09    9.01
   1   0   7   80.59    6.46
   1   0   8   59.41    6.25
   1   0   8   37.63    8.56
   1   0   8   44.54    7.13
   1   0   9    7.98    7.00
   1   0   9    7.26    5.21
   1   0   9   -6.49    8.41
   1   0  10   42.20    8.80
   1   0  10   41.92    7.43
   1   0  10   31.40    9.73
   1   0  11   91.97   11.53
   1   0  11   72.69   11.76
   1   0  12   62.67   11.57
   1   0  13   55.75   12.52
   1   0  14   39.84   13.61
   1   1 -16  -17.20   13.57
   1   1 -15   -7.39   12.30
   1   1 -14   -5.51   11.40
   1   1 -13    5.55    8.33
   1   1 -13   -3.18   10.16
   1   1 -12   81.12   10.87
   1   1 -11  164.50   13.62
   1   1 -10  186.57   13.59
   1   1  -9  143.60   11.29
   1   1  -8   89.08    8.54
   1   1  -7    2.37    4.01
   1   1  -6   74.37    6.46
   1   1  -5  258.93   13.00
   1   1  -5  254.36   12.32
   1   1  -4   44.53    4.18
   1   1  -4   40.21    3.89
   1   1  -3  108.44    6.29
   1   1   0  359.02   15.65
   1   1   1   22.15    3.68
   1   1   2    3.04    1.22
   1   1   2    2.53    3.79
   1   1   3  183.64   10.90
   1   1   3  178.64    8.08
   1   1   4  456.74   19.07
   1   1   5  220.87   10.70
   1   1   6   73.10    5.82
   1   1   7   97.35    7.37
   1   1   8  152.37   10.26
   1   1   9   32.37    6.86
   1   1  10   -3.10    6.24
   1   1  11   12.01    9.99
   1   1  11   13.29    7.37
   1   1  11   11.75    9.60
   1   1  12   25.19   11.92
   1   1  13   41.95   13.52
   1   1  14   20.37   13.97
   1   2 -15  -12.89   12.03
   1   2 -14  -15.84   11.49
   1   2 -13   10.85    9.89
   1   2 -13   -4.16    8.71
   1   2 -12   74.59   11.72
   1   2 -12   59.35   10.19
   1   2 -11  270.85   18.39
   1   2 -11  314.61   18.87
   1   2 -10  284.16   18.02
   1   2 -10  315.21   17.92
   1   2  -9  312.38   18.67
   1   2  -9  373.56   18.81
   1   2  -8  264.46   15.93
   1   2  -8  321.81   16.16
   1   2  -7  104.37    8.50
   1   2  -7  106.30    8.32
   1   2  -6    2.89    3.82
   1   2  -6    2.11    3.72
   1   2  -5   86.32    6.82
   1   2  -5   94.27    6.51
   1   2  -4  381.10   17.73
   1   2  -4  384.77   17.09
   1   2   0 1305.74   52.47
   1   2   1  144.02    8.93
   1   2   2   87.25    7.18
   1   2   3    4.34    4.90
   1   2   3    3.09    2.34
   1   2   4  156.04   10.82
   1   2   4  129.84    7.46
   1   2   5  243.67   14.92
   1   2   5  235.32   12.03
   1   2   6  225.87   14.89
   1   2   6  226.34   12.04
   1   2   7  334.08   16.81
   1   2   8  225.01   13.63
   1   2   9  190.19   13.25
   1   2  10    8.04    7.07
   1   2  11   -3.14    7.59
   1   2  12   -2.37   12.50
   1   2  12    4.00    7.97
   1   2  13    6.03   14.09
   1   2  13   -2.65    8.99
   1   3 -15   14.73   11.57
   1   3 -14   14.22   10.99
   1   3 -13   10.23    9.40
   1   3 -12   20.80    9.21
   1   3 -12   12.53    8.56
   1   3 -11  125.28   12.52
   1   3 -11  143.35   12.95
   1   3 -10  382.22   21.99
   1   3 -10  420.06   21.75
   1   3  -9  181.49   13.32
   1   3  -9  205.26   13.18
   1   3  -8  340.29   19.04
   1   3  -8  368.10   18.44
   1   3  -7  438.84   22.36
   1   3  -7  468.91   21.61
   1   3  -6  238.22   13.91
   1   3  -6  251.08   13.29
   1   3  -5   23.08    4.81
   1   3  -5   23.63    4.59
   1   3  -4    1.74    3.63
   1   3  -1 1781.55   71.69
   1   3   0 1990.87   80.21
   1   3   1  701.58   30.97
   1   3   2  313.80   16.55
   1   3   3  126.49   10.30
   1   3   4   -5.05    6.63
   1   3   4    1.60    3.54
   1   3   5  108.42   10.51
   1   3   5   88.99    7.26
   1   3   6  148.43   12.45
   1   3   6  141.43    9.75
   1   3   7  165.60   13.47
   1   3   7  143.93   10.70
   1   3   8  530.25   28.46
   1   3   8  577.40   26.83
   1   3   9  244.36   18.04
   1   3   9  270.67   16.51
   1   3  10   76.90   10.52
   1   3  11   26.23    8.96
   1   3  12  -10.38    8.92
   1   3  13    3.21    9.32
   1   4 -15   24.94   11.78
   1   4 -14   36.88   11.17
   1   4 -13   42.61   10.56
   1   4 -12   17.03    9.01
   1   4 -12   27.70    9.13
   1   4 -11    4.82    7.45
   1   4 -11   11.62    7.88
   1   4 -10    4.17    6.71
   1   4 -10    9.21    7.35
   1   4  -9   91.28   10.19
   1   4  -9   92.71    9.60
   1   4  -8   79.75    9.13
   1   4  -8   87.97    8.97
   1   4  -7  235.50   14.84
   1   4  -7  240.65   14.04
   1   4  -6  415.76   21.95
   1   4  -6  461.05   21.38
   1   4  -5  265.10   15.23
   1   4  -5  270.41   14.49
   1   4  -4  184.36   10.09
   1   4  -4  136.00    6.11
   1   4  -3   66.83    6.68
   1   4  -1  361.84   18.63
   1   4   0  399.43   20.60
   1   4   1  178.64   12.00
   1   4   1  150.50   11.86
   1   4   2  298.49   17.08
   1   4   3  276.70   16.77
   1   4   4  137.27   12.17
   1   4   5   17.93    5.72
   1   4   5   11.04    8.22
   1   4   6    4.09    4.95
   1   4   6    0.58    8.06
   1   4   7   24.40    7.38
   1   4   7   63.95   10.62
   1   4   8   47.67    8.25
   1   4   8   57.59   10.99
   1   4   9  134.10   14.59
   1   4   9  135.25   12.19
   1   4  10   61.30   10.24
   1   4  11   16.36    8.91
   1   4  12   12.59    9.42
   1   5 -15    8.38   10.87
   1   5 -14   26.03   11.03
   1   5 -13   43.14   11.02
   1   5 -12   23.35    9.16
   1   5 -11   13.26    8.27
   1   5 -11    6.70    8.39
   1   5 -10    4.59    7.32
   1   5 -10   -3.10    7.71
   1   5  -9   16.80    7.05
   1   5  -9    4.23    7.02
   1   5  -8   11.50    6.81
   1   5  -8   14.36    6.88
   1   5  -7  103.13   10.42
   1   5  -7  112.73    9.97
   1   5  -6  352.60   20.40
   1   5  -6  386.90   19.60
   1   5  -5  325.11   17.28
   1   5  -4  261.62   14.83
   1   5  -3  131.18    9.96
   1   5  -1   12.64    5.50
   1   5   0   34.66    6.76
   1   5   1   30.21    7.22
   1   5   1   39.39    8.13
   1   5   2   52.13    9.00
   1   5   2   50.06    9.45
   1   5   3  218.26   16.03
   1   5   4  207.66   15.59
   1   5   5   66.31    9.03
   1   5   5   68.37   10.97
   1   5   6   25.61    7.19
   1   5   6    4.12    9.30
   1   5   7    6.20    6.37
   1   5   7   -0.33    9.42
   1   5   8   -6.27    7.98
   1   5   8   -2.04    9.76
   1   5   9   18.24    8.08
   1   5  10   18.14    8.49
   1   5  11   -6.85    8.95
   1   6 -14   26.45   11.25
   1   6 -13   53.38   11.74
   1   6 -12   38.90   10.69
   1   6 -11   31.97    9.74
   1   6 -10   -4.95    8.69
   1   6 -10    2.20    7.71
   1   6  -9   -7.51    8.30
   1   6  -9   15.72    7.72
   1   6  -8   -3.06    7.69
   1   6  -8   14.69    7.27
   1   6  -7   94.93   11.10
   1   6  -7  121.59   10.89
   1   6  -6  326.23   18.56
   1   6  -5  403.43   19.51
   1   6  -5  327.18   14.08
   1   6  -4  251.82   15.88
   1   6  -4  278.82   17.16
   1   6  -3  179.05   12.94
   1   6  -1    6.87    5.80
   1   6   0    4.55    6.50
   1   6   1   25.40    8.52
   1   6   2   57.51   10.88
   1   6   2   65.53   11.26
   1   6   3  200.32   16.75
   1   6   3  182.05   16.97
   1   6   4  255.22   19.16
   1   6   5  119.71   14.32
   1   6   6   45.14    9.39
   1   6   6   56.60   11.84
   1   6   7   16.78    8.06
   1   6   7   25.00   10.71
   1   6   8   -2.44    7.52
   1   6   9    5.65    7.99
   1   6  10    9.82    8.26
   1   6  11    9.18    8.98
   1   7 -14    2.59   10.28
   1   7 -13    9.76   10.19
   1   7 -12   33.09   10.99
   1   7 -11   31.49   10.48
   1   7 -10   41.22   10.13
   1   7  -9   25.87    9.74
   1   7  -9   52.73    9.89
   1   7  -8   23.01    8.49
   1   7  -8    8.43    8.53
   1   7  -7    7.26    7.63
   1   7  -6  123.91   12.03
   1   7  -5  175.98   12.95
   1   7  -5  181.00   14.05
   1   7  -4  157.32   13.25
   1   7  -4  158.94   13.86
   1   7  -1   67.82    9.99
   1   7   0   13.69    8.61
   1   7   1   -1.37    8.41
   1   7   2    7.54   10.00
   1   7   2    3.57   10.74
   1   7   3   63.21   12.74
   1   7   3   85.07   14.23
   1   7   4  192.23   18.23
   1   7   4  152.77   17.85
   1   7   5  129.99   16.25
   1   7   6   60.20   11.35
   1   7   6   68.01   13.75
   1   7   7   26.22    9.18
   1   7   8   10.63    7.92
   1   7   9   -3.98    8.00
   1   7  10    0.28    8.39
   1   8 -13    5.11   10.03
   1   8 -12   -4.94    9.98
   1   8 -11   25.12   10.49
   1   8 -10   42.00   10.66
   1   8  -9   62.78   11.36
   1   8  -8   55.22   10.95
   1   8  -7   24.12    9.32
   1   8  -6    7.53    8.43
   1   8  -6    3.37    2.92
   1   8  -6   -0.41    8.85
   1   8  -5    2.03    3.61
   1   8  -5    5.57    8.48
   1   8  -5    5.47    8.60
   1   8  -4    7.81    8.84
   1   8   0   47.73   11.43
   1   8   1   38.20   11.78
   1   8   2    9.88   10.86
   1   8   3    3.06   11.13
   1   8   3  -24.10   13.79
   1   8   4    6.22   13.07
   1   8   5   16.06   13.80
   1   8   6   11.40   10.28
   1   8   7    8.41    9.21
   1   8   8   12.34    8.68
   1   8   9   -2.90    8.37
   1   9 -11   20.67   10.45
   1   9 -10    9.17   10.01
   1   9  -9   42.70   11.21
   1   9  -8   45.69   11.62
   1   9  -7   17.75   10.16
   1   9  -6   -1.24    3.50
   1   9  -6   15.22   10.05
   1   9  -5    6.32    9.76
   1   9  -5    1.77    9.51
   1   9  -4   -7.10    9.78
   1   9   0   37.50   12.04
   1   9   6   -3.22    9.87
   1   9   7   10.94    9.44
   1  10 -10   17.04   11.23
   1  10  -9   26.13   11.57
   1  10  -8   27.75   11.73
   1  10  -7   27.98   12.15
   1  10  -6   -2.16    3.77
   1  10  -6   15.49   11.70
   1  10  -5   -2.67    4.77
   1  10   6    1.26   10.78
   1  11  -7   22.38   12.96
   2 -14   4    1.55   14.25
   2 -14   5    7.98   14.77
   2 -13   5   14.18   13.84
   2 -13   6    7.41   13.14
   2 -12  -3    2.71    8.29
   2 -12  -2    1.94    8.14
   2 -12  -1   17.47    8.03
   2 -12   0   22.29    7.77
   2 -12   1   14.39    7.11
   2 -12   2   10.34    6.44
   2 -12   3    7.07    5.79
   2 -12   4    2.21    5.15
   2 -12   5   -7.43    4.89
   2 -12   5   -3.38   12.38
   2 -12   6    9.10   12.11
   2 -12   7   -0.50   11.14
   2 -12   8    5.70    9.49
   2 -12   9    2.83    9.24
   2 -12  10   12.09    9.88
   2 -11  -4   11.24    9.58
   2 -11  -3   17.14    9.15
   2 -11  -2    5.21    8.18
   2 -11  -1   16.23    8.20
   2 -11   0   24.10    8.28
   2 -11   1   27.84    7.66
   2 -11   2   27.84    7.06
   2 -11   3   26.55    6.52
   2 -11   4   15.11    5.48
   2 -11   5   -2.96    4.86
   2 -11   5    4.82   11.29
   2 -11   6    1.98    4.52
   2 -11   6   11.45    8.32
   2 -11   6    2.20   10.29
   2 -11   7   -1.86    4.85
   2 -11   7   -2.95    8.02
   2 -11   7  -13.49   10.08
   2 -11   8   10.25    8.51
   2 -11   8    5.66    5.72
   2 -11   8    0.86    8.83
   2 -11   9   17.91    9.73
   2 -11  10   16.63    9.86
   2 -11  11   12.77    9.77
   2 -10  -4  107.73   12.72
   2 -10  -3  107.80   13.15
   2 -10  -3  112.21   12.31
   2 -10  -2   72.25   11.83
   2 -10  -2   87.81   10.60
   2 -10  -1    2.76    7.73
   2 -10  -1   -2.94    8.36
   2 -10   0   11.01    7.29
   2 -10   0    1.86    7.78
   2 -10   1   24.45    8.46
   2 -10   1   27.22    7.11
   2 -10   2   61.35    9.94
   2 -10   2   48.35    7.30
   2 -10   3   95.11    8.40
   2 -10   4   81.60    7.35
   2 -10   5  103.59    7.68
   2 -10   5  102.02   12.04
   2 -10   5  129.87   13.34
   2 -10   6   53.35    9.91
   2 -10   6   45.95    6.27
   2 -10   6   63.25   10.67
   2 -10   7   19.91    8.82
   2 -10   7   19.22    8.70
   2 -10   7   23.80    6.14
   2 -10   7   42.14    6.64
   2 -10   8   20.02    6.88
   2 -10   8    5.72    8.22
   2 -10   9    3.82    5.36
   2 -10   9   11.51    8.69
   2 -10  10   10.83    9.05
   2 -10  11   11.99    9.68
   2 -10  12   -1.65    9.37
   2  -9 -10   44.92   15.00
   2  -9  -6   26.39    9.14
   2  -9  -5   62.79   10.82
   2  -9  -4  107.74   12.76
   2  -9  -4  127.35   12.52
   2  -9  -3  150.09   13.77
   2  -9  -3  139.56   12.90
   2  -9  -2   76.66   10.52
   2  -9  -2   77.89   10.47
   2  -9  -1   43.30    8.36
   2  -9  -1   37.50    8.72
   2  -9   0    5.01    6.69
   2  -9   0   -0.27    6.91
   2  -9   1    0.78    6.67
   2  -9   1    7.54    6.21
   2  -9   2   11.82    7.21
   2  -9   2    6.48    5.47
   2  -9   3   49.51    5.91
   2  -9   4  173.85    9.47
   2  -9   4  161.80   13.36
   2  -9   5  151.48    9.31
   2  -9   5  157.97   13.14
   2  -9   5  160.31   12.90
   2  -9   6  138.04   12.55
   2  -9   6  121.60   11.18
   2  -9   7   69.13    9.50
   2  -9   7   59.35   10.24
   2  -9   8   14.48    6.09
   2  -9   8   16.98    8.35
   2  -9   9   16.83    8.07
   2  -9   9   -1.75    7.80
   2  -9  10   14.31    9.43
   2  -9  11    1.38   10.13
   2  -8 -12   -0.81   13.70
   2  -8 -11   26.92   14.11
   2  -8 -10   24.76   13.18
   2  -8  -7   15.98    8.58
   2  -8  -6    4.58    7.87
   2  -8  -5   24.55    8.84
   2  -8  -4   55.04    9.75
   2  -8  -4   51.49    9.40
   2  -8  -3   97.20   10.61
   2  -8  -3   74.54   10.00
   2  -8  -2  143.18   11.75
   2  -8  -2  111.03   10.64
   2  -8  -1   59.56    8.66
   2  -8  -1   53.90    8.12
   2  -8   0   20.97    6.57
   2  -8   0   14.41    6.52
   2  -8   1   15.73    6.67
   2  -8   1   24.71    6.00
   2  -8   2    4.73    4.68
   2  -8   3    8.19    3.78
   2  -8   4  113.54    7.32
   2  -8   4  119.65   10.44
   2  -8   5  121.87   10.71
   2  -8   5  104.02   10.02
   2  -8   6   97.40    9.39
   2  -8   6  103.64   10.43
   2  -8   6  114.19    8.10
   2  -8   7   77.31    8.10
   2  -8   7   67.35    9.86
   2  -8   8   59.49    8.51
   2  -8   9   13.97    8.15
   2  -8  10    2.48    9.23
   2  -8  11   -7.11   10.39
   2  -8  12   -0.33   11.75
   2  -7 -13   -5.60   13.25
   2  -7 -12    2.62   13.07
   2  -7 -11   32.95   13.51
   2  -7 -10   48.89   13.73
   2  -7  -5   -2.48    7.18
   2  -7  -4   43.22    8.45
   2  -7  -3  104.31    9.86
   2  -7  -3   65.67    8.83
   2  -7  -2  314.10   16.37
   2  -7  -2  239.69   14.58
   2  -7  -1  323.98   16.45
   2  -7  -1  249.22   14.30
   2  -7   0  281.55   15.13
   2  -7   0  240.10   13.17
   2  -7   1  392.90   20.13
   2  -7   1  408.62   18.02
   2  -7   2  161.74    8.46
   2  -7   3   24.75    3.63
   2  -7   3   27.74    5.99
   2  -7   4   49.76    6.95
   2  -7   4   53.48    7.19
   2  -7   5  149.96   11.27
   2  -7   5  157.11   10.31
   2  -7   6  123.24    9.30
   2  -7   6  164.63    9.58
   2  -7   7   45.16    5.74
   2  -7   7   84.52    8.18
   2  -7   8  199.87   13.39
   2  -7   9   89.03   11.00
   2  -7  10    7.33    9.22
   2  -7  11   -4.10   10.75
   2  -6 -14   -5.29   13.38
   2  -6 -13   -3.07   12.27
   2  -6 -12   -2.36   11.89
   2  -6 -11    2.32   11.48
   2  -6 -10   70.14   12.99
   2  -6  -9  124.82   14.52
   2  -6  -4   45.27    7.56
   2  -6  -3    3.48    5.70
   2  -6  -2  242.33   13.91
   2  -6  -1  651.15   27.85
   2  -6  -1  592.73   25.61
   2  -6   0  988.04   39.17
   2  -6   0  886.46   36.52
   2  -6   1  704.20   27.17
   2  -6   1  557.88   23.63
   2  -6   2 1536.33   62.66
   2  -6   3  500.68   23.26
   2  -6   3  495.35   22.30
   2  -6   4   40.17    5.87
   2  -6   4   42.85    5.95
   2  -6   4   49.77    4.36
   2  -6   5   25.36    5.46
   2  -6   5   24.58    4.89
   2  -6   6   31.99    4.89
   2  -6   6   39.44    6.25
   2  -6   7  238.70   13.91
   2  -6   8  168.20   12.64
   2  -6   9  272.74   17.54
   2  -6  10  147.96   14.16
   2  -6  11   59.49   12.95
   2  -6  12   -1.38   12.70
   2  -5 -14   -9.29   12.43
   2  -5 -13   29.21   12.51
   2  -5 -12    5.66   10.82
   2  -5 -11   -7.21   10.40
   2  -5 -10   -9.17    9.97
   2  -5  -9   41.98   10.49
   2  -5  -8  161.80   13.86
   2  -5  -3  176.09   11.12
   2  -5  -2    7.22    4.16
   2  -5  -1  166.88    9.93
   2  -5   0  488.63   21.92
   2  -5   1  846.83   35.86
   2  -5   1  855.46   35.49
   2  -5   2  957.09   38.14
   2  -5   2  880.95   37.56
   2  -5   3  723.13   31.03
   2  -5   3  732.17   30.36
   2  -5   3  725.44   29.21
   2  -5   4  227.70   11.25
   2  -5   4  212.70   11.03
   2  -5   5   27.55    5.35
   2  -5   5   32.87    4.36
   2  -5   6    9.96    5.75
   2  -5   7    5.95    6.36
   2  -5   8   86.27    9.99
   2  -5   8   91.56    9.07
   2  -5   9  233.29   15.51
   2  -5   9  179.55   13.10
   2  -5  10  129.65   13.60
   2  -5  10  116.10   10.99
   2  -5  11   97.57   14.09
   2  -5  11   86.60   10.11
   2  -5  12   48.02    9.45
   2  -5  12   36.11   13.19
   2  -5  13   11.09    8.77
   2  -5  14   -2.29    8.94
   2  -5  15   -3.72    9.41
   2  -4 -14    1.46   11.66
   2  -4 -13   34.32   11.61
   2  -4 -12   70.82   12.60
   2  -4 -11   57.83   10.79
   2  -4 -10   -0.23    8.57
   2  -4  -9   10.59    7.80
   2  -4  -8   20.40    7.85
   2  -4  -7  168.85   12.01
   2  -4  -6  166.84   11.67
   2  -4  -5   77.72    7.95
   2  -4  -4  339.50   16.97
   2  -4  -3  707.54   29.82
   2  -4  -3  668.09   29.60
   2  -4  -2  290.46   13.69
   2  -4  -2  279.01   14.22
   2  -4  -1    1.80    3.13
   2  -4   0  114.62    7.16
   2  -4   1  192.91   10.28
   2  -4   1  193.57   10.01
   2  -4   2  484.19   21.34
   2  -4   2  512.57   21.30
   2  -4   3  492.47   21.90
   2  -4   3  541.46   22.02
   2  -4   4  188.71   10.45
   2  -4   4  174.71    9.06
   2  -4   5   42.10    6.46
   2  -4   5   48.06    6.20
   2  -4   6   81.03    8.40
   2  -4   6   79.80    7.61
   2  -4   7   67.52    8.92
   2  -4   7   69.29    7.55
   2  -4   8    8.00    5.86
   2  -4   8   -1.78    8.41
   2  -4   9   40.57    7.39
   2  -4   9   33.40    9.75
   2  -4  10   58.97   11.34
   2  -4  10   65.53    8.59
   2  -4  11   44.69    8.42
   2  -4  11   36.01   11.62
   2  -4  12   34.94    8.96
   2  -4  12   25.74   12.77
   2  -4  13   18.03    8.93
   2  -4  14    1.33    9.24
   2  -4  15   -9.30    9.66
   2  -3 -14   20.59   11.34
   2  -3 -13   92.58   12.84
   2  -3 -12  214.41   15.95
   2  -3 -11  168.31   13.54
   2  -3 -10   69.19    9.78
   2  -3  -9   38.05    7.80
   2  -3  -8    3.20    5.93
   2  -3  -7   97.19    8.34
   2  -3  -6  329.36   16.40
   2  -3  -5  510.31   22.90
   2  -3  -4 1325.07   53.48
   2  -3  -3 1644.53   65.34
   2  -3  -2  978.96   39.27
   2  -3  -2  980.85   39.81
   2  -3  -1  359.36   15.64
   2  -3   0    5.92    2.61
   2  -3   1  102.14    6.61
   2  -3   1  119.17    5.56
   2  -3   1  112.35    6.68
   2  -3   2  211.79    9.64
   2  -3   2  209.24   10.22
   2  -3   3  589.95   25.43
   2  -3   4  969.16   41.87
   2  -3   4 1033.58   41.48
   2  -3   5  316.54   16.46
   2  -3   5  296.56   15.07
   2  -3   6  408.51   20.37
   2  -3   6  382.91   18.66
   2  -3   7  331.31   18.55
   2  -3   7  317.02   16.38
   2  -3   8   43.63    9.34
   2  -3   8   47.21    6.79
   2  -3   9   16.67    6.40
   2  -3   9   -4.34    9.43
   2  -3  10   48.25    8.03
   2  -3  10   42.23   11.25
   2  -3  11   27.79    8.11
   2  -3  11   27.16   11.21
   2  -3  12   28.98    9.07
   2  -3  12   36.93   12.29
   2  -3  13   31.56    9.73
   2  -3  14    5.16    9.94
   2  -2 -14    1.93   10.59
   2  -2 -13   68.17   12.21
   2  -2 -13   77.11   11.61
   2  -2 -12  192.84   17.21
   2  -2 -12  238.55   15.46
   2  -2 -11  182.05   15.68
   2  -2 -11  218.85   14.10
   2  -2 -10  212.13   15.78
   2  -2 -10  237.94   14.16
   2  -2  -9  165.55   13.44
   2  -2  -9  210.89   12.48
   2  -2  -8   72.30    7.81
   2  -2  -8   75.86    8.58
   2  -2  -7   49.33    6.99
   2  -2  -7   58.35    6.53
   2  -2  -6   73.70    7.31
   2  -2  -6   78.84    6.69
   2  -2  -5  382.82   19.00
   2  -2  -5  400.63   18.01
   2  -2  -4  944.13   40.96
   2  -2  -4 1003.04   39.95
   2  -2  -3 2210.54   86.62
   2  -2  -2 9728.17  370.79
   2  -2  -2 9665.08  372.08
   2  -2  -1  100.48    6.29
   2  -2  -1  103.69    5.15
   2  -2   1   86.62    4.88
   2  -2   2    5.11    3.17
   2  -2   2    9.42    3.43
   2  -2   3  378.46   18.84
   2  -2   3  432.92   18.42
   2  -2   4  407.77   20.40
   2  -2   4  421.90   18.80
   2  -2   5 1183.55   48.39
   2  -2   5 1098.81   46.08
   2  -2   6 1074.36   43.29
   2  -2   6  932.39   40.79
   2  -2   7  663.78   30.19
   2  -2   7  731.89   32.56
   2  -2   8  355.60   19.05
   2  -2   8  426.98   21.73
   2  -2   9   14.45    6.86
   2  -2   9   31.64    9.03
   2  -2  10   -0.66    7.25
   2  -2  10   -5.11    8.99
   2  -2  11    1.48    8.16
   2  -2  11   13.60   10.35
   2  -2  12   12.55    9.58
   2  -2  13   27.27   11.31
   2  -2  14   12.09   11.41
   2  -1 -13   15.68    9.52
   2  -1 -13    1.00    9.21
   2  -1 -12   35.94    9.71
   2  -1 -12   35.39    9.29
   2  -1 -11   72.77   10.56
   2  -1 -11   92.28   10.11
   2  -1 -10   53.18    8.77
   2  -1 -10   68.45    8.51
   2  -1  -9  125.62   11.29
   2  -1  -9  154.47   10.33
   2  -1  -8  602.17   29.93
   2  -1  -8  668.02   28.24
   2  -1  -7  213.32   12.98
   2  -1  -7  202.08   11.50
   2  -1  -6  119.68    8.90
   2  -1  -6  117.51    7.97
   2  -1  -5    1.38    3.30
   2  -1  -5    1.50    3.84
   2  -1  -4  138.67    8.43
   2  -1  -4  128.83    7.82
   2  -1  -3 1076.51   43.20
   2  -1  -3 1035.98   42.53
   2  -1  -2  160.12    8.42
   2  -1   1  343.24   15.16
   2  -1   2  551.84   24.53
   2  -1   2  585.66   24.08
   2  -1   3   45.98    4.62
   2  -1   3   46.15    5.89
   2  -1   4  196.56   10.48
   2  -1   4  191.44   12.42
   2  -1   5  150.79    9.21
   2  -1   5  155.59   11.66
   2  -1   6  335.06   16.81
   2  -1   6  362.74   19.65
   2  -1   7  525.76   24.98
   2  -1   7  588.03   27.89
   2  -1   8  318.27   17.42
   2  -1   8  340.86   20.05
   2  -1   9   64.35    8.98
   2  -1   9   82.28   11.49
   2  -1  10   11.08    8.23
   2  -1  10   18.04    9.64
   2  -1  11    3.07    9.15
   2  -1  11    3.55   10.21
   2  -1  12   -3.47   10.57
   2  -1  13    8.41   11.86
   2  -1  14   14.26   13.42
   2   0 -16   13.22   13.28
   2   0 -15   -0.78   11.80
   2   0 -14  -13.04   11.48
   2   0 -13   10.90    9.16
   2   0 -12    4.46    8.09
   2   0 -11   11.41    7.37
   2   0 -10   19.23    6.83
   2   0  -9   95.68    9.39
   2   0  -8  388.32   20.26
   2   0  -7  769.07   34.32
   2   0  -6  456.98   21.72
   2   0  -5  110.94    7.81
   2   0  -4   50.70    4.82
   2   0  -4   42.46    3.35
   2   0  -3   36.47    2.65
   2   0  -1  251.63   11.41
   2   0   0   48.50    3.35
   2   0   0   51.91    3.76
   2   0   3  422.13   18.67
   2   0   4   16.41    4.11
   2   0   5   11.32    4.37
   2   0   5    3.14    6.52
   2   0   6   54.50    6.43
   2   0   6   58.76    9.17
   2   0   7  153.94   10.94
   2   0   7  161.66   13.56
   2   0   8  149.54   11.51
   2   0   8  143.14   13.69
   2   0   9   67.42    9.59
   2   0   9   51.96   10.81
   2   0  10   19.35    9.01
   2   0  10   14.14    9.78
   2   0  11   19.82   10.79
   2   0  12    8.22   11.54
   2   0  13   -4.83   13.04
   2   1 -16   26.19   12.83
   2   1 -15   33.57   12.33
   2   1 -14   33.67   11.10
   2   1 -13   27.79   10.17
   2   1 -13   25.54    9.40
   2   1 -12   -3.45    8.57
   2   1 -12    6.11    7.93
   2   1 -11   -4.97    7.49
   2   1 -11   -3.27    7.11
   2   1 -10   48.99    7.70
   2   1 -10   35.88    7.99
   2   1  -9  143.86   11.62
   2   1  -9  161.79   10.80
   2   1  -8  638.73   31.40
   2   1  -8  720.41   30.12
   2   1  -7 1067.81   46.76
   2   1  -7 1116.56   45.02
   2   1  -6  914.38   38.94
   2   1  -6  900.49   37.11
   2   1  -5  486.45   22.46
   2   1  -5  494.52   20.95
   2   1  -4  179.55    8.78
   2   1  -3   22.79    2.84
   2   1  -1  397.42   16.87
   2   1  -1  392.03   16.41
   2   1   0  506.33   20.99
   2   1   0  491.16   20.62
   2   1   0  544.69   22.27
   2   1   1 1285.09   49.73
   2   1   5    0.15    4.59
   2   1   6    4.63    5.48
   2   1   7   15.02    6.87
   2   1   8  154.41   12.95
   2   1   8  143.46   14.32
   2   1   9  137.60   13.09
   2   1   9  120.75   13.99
   2   1  10   56.60   11.65
   2   1  10   63.96   11.99
   2   1  11   71.19   13.80
   2   1  12   51.82   14.43
   2   1  13   -0.45   14.43
   2   2 -16    3.06   11.35
   2   2 -15   13.40   10.92
   2   2 -14   28.18   10.73
   2   2 -13   65.52   11.23
   2   2 -12   64.05   10.42
   2   2 -12   66.61   10.62
   2   2 -11   52.53    9.28
   2   2 -11   69.50    9.03
   2   2 -10    5.84    6.21
   2   2 -10    3.41    6.55
   2   2  -9    6.13    5.78
   2   2  -9   12.29    5.68
   2   2  -8  322.13   18.40
   2   2  -8  354.89   17.21
   2   2  -7  834.78   38.88
   2   2  -7  939.22   37.72
   2   2  -6  868.53   39.35
   2   2  -6  956.40   38.23
   2   2  -5  421.57   19.00
   2   2  -4  660.30   27.68
   2   2  -3  457.81   19.83
   2   2  -2   54.07    4.62
   2   2  -2   58.26    3.61
   2   2  -1   68.78    4.32
   2   2  -1   68.69    4.82
   2   2   0  313.26   13.67
   2   2   0  312.04   13.73
   2   2   1  326.85   14.22
   2   2   1  378.40   17.74
   2   2   1  332.88   17.20
   2   2   2 1669.57   68.69
   2   2   3 1217.59   45.40
   2   2   3  986.89   39.62
   2   2   4  434.47   17.58
   2   2   5   77.19    4.80
   2   2   6   64.83    4.97
   2   2   7   10.96    3.71
   2   2   8    4.06    8.96
   2   2   8    2.66    4.07
   2   2   9   68.96   12.31
   2   2  10   90.69   14.51
   2   2  11   80.64   15.87
   2   2  12  104.93   18.13
   2   3 -16   -6.93   11.01
   2   3 -15    4.37   10.07
   2   3 -14    9.21    9.34
   2   3 -13   43.50    9.80
   2   3 -12  100.07   12.70
   2   3 -12  113.19   11.46
   2   3 -11   68.43    9.04
   2   3 -11   58.53   10.20
   2   3 -10  151.26   13.04
   2   3 -10  167.42   12.03
   2   3  -9   59.46    8.29
   2   3  -9   58.99    7.80
   2   3  -8    1.38    5.25
   2   3  -8    1.30    5.24
   2   3  -7   81.46    8.08
   2   3  -7   68.15    7.50
   2   3  -6   92.23    7.89
   2   3  -5  310.58   15.56
   2   3  -4  147.36    9.41
   2   3  -3  645.19   27.31
   2   3  -3  585.53   26.67
   2   3  -2  500.50   20.69
   2   3  -2  553.21   23.17
   2   3  -1  158.35    9.18
   2   3   0   49.56    4.73
   2   3   1   59.95    7.98
   2   3   2  111.95   10.96
   2   3   3  380.00   21.20
   2   3   4  188.50   14.27
   2   3   4  169.63    9.23
   2   3   5  114.82   12.02
   2   3   5   88.59    6.58
   2   3   6   93.35    6.61
   2   3   6   72.76   12.12
   2   3   7   76.91    7.03
   2   3   8   -1.05    4.93
   2   3   9   -2.05    5.24
   2   3  10  -14.83   13.58
   2   3  11   13.57   15.14
   2   4 -16   -4.68   10.49
   2   4 -15    0.33    9.45
   2   4 -14    4.30    8.84
   2   4 -13   18.44    9.06
   2   4 -12   88.48   11.15
   2   4 -11  138.98   13.65
   2   4 -11  137.21   12.32
   2   4 -10   82.29   10.72
   2   4 -10   86.93    9.85
   2   4  -9   90.95   10.42
   2   4  -9   90.21    9.52
   2   4  -8   55.39    8.38
   2   4  -8   54.45    8.00
   2   4  -7    0.19    5.67
   2   4  -6    9.70    5.56
   2   4  -5    6.34    5.33
   2   4  -4  108.79    8.87
   2   4  -4  117.20    9.31
   2   4  -3  408.04   17.98
   2   4  -3  307.06   13.21
   2   4  -2  553.71   25.76
   2   4  -1  288.60   15.25
   2   4   1   49.97    8.52
   2   4   2    3.39    7.58
   2   4   3   50.14   10.05
   2   4   4   36.13    9.95
   2   4   5   33.40    5.49
   2   4   5   46.46   10.76
   2   4   6   35.37    6.20
   2   4   6   59.42   11.28
   2   4   7  108.79   13.55
   2   4   7   87.25    8.22
   2   4   8   42.33    6.99
   2   4   8   38.53   11.82
   2   4   9   -3.78    6.15
   2   4  11   20.23   15.71
   2   5 -15    0.34    9.55
   2   5 -14   -0.94    9.01
   2   5 -13   17.57    9.08
   2   5 -12   68.03   10.71
   2   5 -11  114.67   12.17
   2   5 -10  106.09   12.48
   2   5 -10  118.30   11.81
   2   5  -9   98.14   11.54
   2   5  -9  115.55   11.30
   2   5  -8   85.91    9.82
   2   5  -7   22.95    7.19
   2   5  -6    5.29    6.12
   2   5  -5    6.03    6.19
   2   5  -5    1.37    5.60
   2   5  -4  107.49   10.05
   2   5  -4  120.96   10.47
   2   5  -3  361.80   19.78
   2   5  -2  550.28   26.77
   2   5  -1  382.02   20.17
   2   5   2    0.63    9.22
   2   5   3   -8.40    9.67
   2   5   4   32.84   11.14
   2   5   5   29.99    6.76
   2   5   5   38.80   11.37
   2   5   6   67.66    7.67
   2   5   6   74.05   12.89
   2   5   7  112.38   14.66
   2   5   7   94.68    9.69
   2   5   8   59.51    8.37
   2   5   9   23.46    7.16
   2   5  10   -5.74    6.32
   2   6 -15    5.87   10.06
   2   6 -14    9.78    9.58
   2   6 -13   -5.88    9.23
   2   6 -12   15.92    9.12
   2   6 -11   26.06    9.52
   2   6 -10   52.72   10.11
   2   6  -9   80.44   10.68
   2   6  -8  108.63   11.46
   2   6  -7  105.81   11.23
   2   6  -6   53.33    9.02
   2   6  -6   48.45    9.46
   2   6  -5   18.95    7.91
   2   6  -5   17.71    7.71
   2   6  -4    2.93    6.96
   2   6  -3   91.68   10.62
   2   6  -2  309.88   19.13
   2   6   2   59.27   12.49
   2   6   3   -2.68   11.05
   2   6   4    2.05    9.63
   2   6   4   -4.93   11.15
   2   6   5    7.07    6.92
   2   6   5   -2.07   11.42
   2   6   6   28.14    7.41
   2   6   7   47.78    8.35
   2   6   8   56.12    8.87
   2   6   9   24.48    7.41
   2   7 -14   24.88   10.73
   2   7 -13    6.25    9.64
   2   7 -12   -1.59    9.19
   2   7 -11    5.46    8.84
   2   7 -10    1.18    8.46
   2   7  -9    1.48    8.44
   2   7  -8   64.28   10.74
   2   7  -7   76.80   11.33
   2   7  -7   65.90   11.85
   2   7  -6   90.16   12.26
   2   7  -6  109.97   13.20
   2   7  -5   90.38   12.69
   2   7  -5   85.51   11.78
   2   7  -4   46.51   10.30
   2   7  -3    1.91    7.94
   2   7  -2   -7.87    8.63
   2   7   3   54.24   14.71
   2   7   4    9.33   13.05
   2   7   5   -0.27    7.50
   2   7   6   -1.18    6.87
   2   7   7    3.19    6.73
   2   7   8   12.00    7.39
   2   8 -13   17.07   10.46
   2   8 -12    4.00    9.41
   2   8 -11    4.34    9.38
   2   8 -10    0.65    9.10
   2   8  -9   -5.96    9.46
   2   8  -8    7.48    9.40
   2   8  -7   43.68   12.56
   2   8  -7   39.34   11.13
   2   8  -6   59.07   12.47
   2   8  -6   67.83   12.13
   2   8  -5   71.89   13.21
   2   8  -4   53.45   12.28
   2   8  -3   18.52   10.77
   2   8  -2  -10.59    9.93
   2   8   0   -0.51    9.29
   2   8   6    0.26    7.51
   2   8   7    0.45    6.91
   2   9 -11   -0.36   10.24
   2   9 -10    5.74   10.25
   2   9  -9    7.64   10.14
   2   9  -8    3.71   10.50
   2   9  -7   24.09   11.77
   2   9  -4   23.26   12.00
   2   9  -3   11.34   11.14
   2   9  -2   -6.51   10.43
   2   9  -1   -0.96    9.96
   2  10  -9    7.38   11.62
   2  10  -8   -2.11   11.30
   2  10  -1    8.29   10.28
   3 -14   3   22.82   16.35
   3 -14   4   32.43   16.78
   3 -14   5    9.51   15.77
   3 -13  -1   -0.44   13.39
   3 -13   0   -9.63   13.86
   3 -13   1    0.43   14.52
   3 -13   2   12.28   14.95
   3 -13   3   15.56   15.35
   3 -13   4   28.94   15.48
   3 -13   5   16.29   14.58
   3 -13   6    1.59   13.17
   3 -12  -3   29.67   13.72
   3 -12  -2    7.77   13.11
   3 -12  -1   -9.26   13.18
   3 -12   0   -3.28   13.32
   3 -12   1   -5.20   14.08
   3 -12   2   -7.69   13.88
   3 -12   3   12.43   13.97
   3 -12   4   42.91   14.53
   3 -12   5   32.93   13.53
   3 -12   6   19.12   12.42
   3 -12   7    8.10   10.56
   3 -12   8    6.28    8.04
   3 -12   9   -5.55    8.03
   3 -12  10   -1.77    7.83
   3 -11  -7    2.46   14.18
   3 -11  -6   -2.38   13.41
   3 -11  -2   34.57   13.30
   3 -11  -1   62.89   14.34
   3 -11   0   80.53   15.22
   3 -11   1   48.47   13.86
   3 -11   2    3.06   12.30
   3 -11   3   13.71   12.46
   3 -11   4   12.34   11.87
   3 -11   5   32.96   12.45
   3 -11   6   39.56   11.56
   3 -11   7   49.36    9.97
   3 -11   7   65.00   10.71
   3 -11   8   33.45    9.05
   3 -11   8   41.29    8.49
   3 -11   9    5.72    8.05
   3 -11  10    0.35    8.16
   3 -11  11    0.35    7.72
   3 -10  -9   49.79   17.18
   3 -10  -8   27.73   15.65
   3 -10  -7    5.73   13.99
   3 -10  -6  -22.42   14.60
   3 -10  -5   -6.73    9.01
   3 -10  -5  -20.53   13.99
   3 -10  -4   -6.98    9.07
   3 -10  -3   23.68    9.83
   3 -10  -2   84.18   11.72
   3 -10  -2   43.98   13.12
   3 -10  -1  125.87   12.73
   3 -10  -1   95.84   15.00
   3 -10   0  132.26   12.68
   3 -10   0  108.12   15.09
   3 -10   1  107.87   11.58
   3 -10   1   99.07   14.31
   3 -10   2   38.11    8.86
   3 -10   2   49.45   12.27
   3 -10   3    2.02    7.52
   3 -10   3    0.82   10.15
   3 -10   4    7.15    7.96
   3 -10   4   -4.50    9.98
   3 -10   5   -2.11   10.01
   3 -10   6   15.93    7.47
   3 -10   6    5.82    9.40
   3 -10   7   48.81    9.57
   3 -10   7   61.30    9.31
   3 -10   8   62.89    6.82
   3 -10   8   49.38    7.82
   3 -10   8   55.65   10.39
   3 -10   9   34.47    9.23
   3 -10  10   12.94    8.50
   3 -10  11    9.96    8.59
   3 -10  12   -0.35    7.85
   3  -9 -11   -5.42   16.44
   3  -9 -10   -2.45   15.51
   3  -9  -9   -9.61   15.03
   3  -9  -8   14.00   14.00
   3  -9  -8   22.41    9.51
   3  -9  -7   30.34    9.56
   3  -9  -7    2.25   13.52
   3  -9  -6   18.29    9.29
   3  -9  -6   -5.54   12.92
   3  -9  -5   20.04    9.06
   3  -9  -5   -2.81   12.73
   3  -9  -4   20.92    8.61
   3  -9  -3   -1.79    8.17
   3  -9  -2   54.58    9.51
   3  -9  -2   30.97   11.33
   3  -9  -1  100.68   10.66
   3  -9  -1   88.55   12.95
   3  -9   0   93.08   10.42
   3  -9   0   93.60   12.75
   3  -9   1   92.71   10.41
   3  -9   1  116.84   12.88
   3  -9   2   93.47   10.25
   3  -9   2   91.09   12.03
   3  -9   3   11.93    7.40
   3  -9   3   16.72    9.06
   3  -9   4    1.92    7.28
   3  -9   4   -0.65    9.00
   3  -9   5   -5.98    7.49
   3  -9   5   -3.96    5.97
   3  -9   5   -8.82    9.08
   3  -9   6   -2.07    7.63
   3  -9   6   -1.66    7.83
   3  -9   6    5.81    6.24
   3  -9   7   20.44    6.23
   3  -9   7   25.40    7.34
   3  -9   7   21.06    7.46
   3  -9   8   25.73    8.25
   3  -9   8   60.87    9.41
   3  -9   9    9.13    8.55
   3  -9   9   19.18    8.40
   3  -9  10    1.05    9.39
   3  -8 -12   -6.81   15.12
   3  -8 -11   -4.53   14.97
   3  -8 -10  -13.45   14.65
   3  -8  -9   24.98    8.86
   3  -8  -9    2.19   13.56
   3  -8  -8   50.93   10.33
   3  -8  -8   34.52   13.77
   3  -8  -7   99.30   12.08
   3  -8  -7  113.62   16.27
   3  -8  -6  177.10   14.36
   3  -8  -6  152.61   17.39
   3  -8  -5  209.12   15.55
   3  -8  -5  191.82   17.68
   3  -8  -4  268.76   17.12
   3  -8  -4  259.18   19.42
   3  -8  -3   74.08    9.52
   3  -8  -2    4.50    6.88
   3  -8  -1   90.17    9.34
   3  -8  -1   80.43   11.50
   3  -8   0   88.80    9.27
   3  -8   0   82.97   11.01
   3  -8   1  240.22   14.43
   3  -8   1  206.96   15.11
   3  -8   2  291.58   17.00
   3  -8   2  297.02   17.31
   3  -8   3  273.05   16.80
   3  -8   3  289.88   16.85
   3  -8   4  165.96   12.55
   3  -8   4  128.61   10.59
   3  -8   4  140.03   11.78
   3  -8   5  117.75   10.43
   3  -8   5  102.47    9.87
   3  -8   5  119.26   11.25
   3  -8   6    3.03    5.40
   3  -8   6    7.29    6.56
   3  -8   6    9.59    5.99
   3  -8   7    8.89    6.39
   3  -8   8    5.21    8.76
   3  -8   9   34.16    9.93
   3  -8  10   23.20   10.08
   3  -8  11   24.90   11.22
   3  -7 -14    9.05   14.57
   3  -7 -13   31.01   15.60
   3  -7 -12   40.83   15.12
   3  -7 -11   -0.40   13.13
   3  -7 -10   11.40   13.44
   3  -7  -9   -3.05   12.25
   3  -7  -8   11.30   11.94
   3  -7  -7  136.61   15.71
   3  -7  -7  138.24   12.78
   3  -7  -6  283.17   18.01
   3  -7  -6  303.05   20.63
   3  -7  -5  647.02   31.65
   3  -7  -5  692.32   33.78
   3  -7  -4  702.11   33.09
   3  -7  -4  745.29   35.30
   3  -7  -3  412.08   20.99
   3  -7  -2  139.20   10.41
   3  -7  -1    0.37    5.09
   3  -7  -1    0.85    6.85
   3  -7   0   16.00    5.79
   3  -7   0   15.43    7.40
   3  -7   1  149.42   10.38
   3  -7   1  123.26   10.74
   3  -7   2  454.23   22.41
   3  -7   2  455.43   22.25
   3  -7   3  745.48   32.70
   3  -7   3  678.60   31.18
   3  -7   3  717.20   31.69
   3  -7   4  520.63   24.83
   3  -7   4  547.42   26.24
   3  -7   4  537.04   24.79
   3  -7   5  341.27   15.87
   3  -7   5  347.45   18.12
   3  -7   5  363.18   17.61
   3  -7   6  349.55   18.02
   3  -7   8   -7.23    8.60
   3  -7   9   33.40   10.18
   3  -7  10   50.59   11.57
   3  -7  11   76.42   13.38
   3  -7  12   90.10   14.97
   3  -6 -14    1.12   13.61
   3  -6 -13    0.37   13.15
   3  -6 -12   32.27   13.29
   3  -6 -11   78.60   14.32
   3  -6 -10   32.97   12.12
   3  -6  -9   54.99   12.48
   3  -6  -8   16.96   10.27
   3  -6  -7   12.54    9.39
   3  -6  -6   99.50   11.93
   3  -6  -6   85.02   10.18
   3  -6  -5  216.58   14.00
   3  -6  -5  215.71   15.48
   3  -6  -4  500.46   23.80
   3  -6  -4  491.15   25.18
   3  -6  -3  601.54   27.26
   3  -6  -2  161.85   10.45
   3  -6  -1   78.64    7.34
   3  -6  -1   74.61    8.28
   3  -6   0  164.31   10.26
   3  -6   0  149.95   10.79
   3  -6   1    6.77    5.96
   3  -6   1    7.61    4.94
   3  -6   2   87.68    8.24
   3  -6   2   79.54    8.17
   3  -6   3  384.22   18.19
   3  -6   3  390.04   19.74
   3  -6   3  395.94   18.96
   3  -6   4  479.72   20.37
   3  -6   4  495.80   22.50
   3  -6   4  521.07   22.65
   3  -6   5  408.87   19.40
   3  -6   6  148.02   11.72
   3  -6   7  106.12   11.54
   3  -6   8   14.53    8.98
   3  -6   9    7.65    9.33
   3  -6  10   21.54   10.82
   3  -6  11   30.73   12.10
   3  -6  12   74.60   15.07
   3  -5 -14  -12.77   13.16
   3  -5 -13    5.56   11.95
   3  -5 -12   10.75   11.56
   3  -5 -11   22.41   10.92
   3  -5 -10  122.58   13.94
   3  -5  -9  281.21   18.40
   3  -5  -8  214.76   15.78
   3  -5  -7   17.39    8.09
   3  -5  -6   14.31    7.21
   3  -5  -5   51.59    7.50
   3  -5  -5   51.39    8.09
   3  -5  -4  148.24    9.91
   3  -5  -4  138.62   10.63
   3  -5  -3  374.47   17.89
   3  -5  -3  385.20   19.05
   3  -5  -2  267.89   13.57
   3  -5  -1  165.85    9.74
   3  -5   0  284.23   14.23
   3  -5   0  280.11   14.77
   3  -5   1  459.22   21.26
   3  -5   1  457.15   21.14
   3  -5   2   17.55    5.01
   3  -5   2   14.37    3.11
   3  -5   2   17.27    5.28
   3  -5   3   81.71    5.18
   3  -5   3  100.32    6.34
   3  -5   3   94.82    7.66
   3  -5   4  181.84   10.07
   3  -5   5  158.08   11.07
   3  -5   6  141.73   12.35
   3  -5   7   93.30   11.56
   3  -5   8   36.58    8.02
   3  -5   8   43.27   10.45
   3  -5   9   12.36    7.39
   3  -5   9   29.21   10.83
   3  -5  10    4.48    7.65
   3  -5  10   36.51   12.05
   3  -5  11   -4.21    8.30
   3  -5  11   15.08   12.08
   3  -5  12    0.26    8.86
   3  -5  12    8.68   13.19
   3  -5  13   16.82    9.67
   3  -4 -14   -5.14   11.62
   3  -4 -13    0.58   10.83
   3  -4 -12   22.36   10.55
   3  -4 -11   85.35   11.79
   3  -4 -10  283.08   17.86
   3  -4  -9  534.09   26.53
   3  -4  -8  524.93   25.74
   3  -4  -7  217.20   13.85
   3  -4  -6   39.23    7.04
   3  -4  -5    2.55    5.49
   3  -4  -4   74.91    6.27
   3  -4  -4   68.12    7.32
   3  -4  -3  383.89   16.85
   3  -4  -3  362.18   18.16
   3  -4  -2 1256.52   50.15
   3  -4  -1 1123.33   45.21
   3  -4   0 1148.72   45.59
   3  -4   0 1096.23   46.04
   3  -4   1 1293.97   51.99
   3  -4   1 1278.16   52.28
   3  -4   2  407.65   16.72
   3  -4   2  390.41   18.61
   3  -4   3    1.05    3.71
   3  -4   4   77.28    7.46
   3  -4   5  105.67    9.84
   3  -4   5  112.21    9.14
   3  -4   6  135.58   13.02
   3  -4   6  200.60   12.12
   3  -4   7  295.18   19.03
   3  -4   7  277.23   16.08
   3  -4   8  152.24   14.73
   3  -4   8  132.18   10.96
   3  -4   9  141.30   15.22
   3  -4   9  124.62   11.04
   3  -4  10   33.66    8.39
   3  -4  10   71.03   13.37
   3  -4  11   18.57    8.56
   3  -4  11   31.96   12.74
   3  -4  12  -10.09    9.11
   3  -4  13    4.82    9.71
   3  -3 -14   42.51   12.62
   3  -3 -13   14.46   10.90
   3  -3 -12   -3.23    9.31
   3  -3 -11   23.85    9.10
   3  -3 -10  168.59   13.12
   3  -3  -9  439.91   22.30
   3  -3  -8 1034.76   44.22
   3  -3  -7  460.11   22.09
   3  -3  -6  207.88   12.48
   3  -3  -5  152.28   10.12
   3  -3  -4   35.86    5.59
   3  -3  -4   31.43    3.99
   3  -3  -3   49.83    3.97
   3  -3  -3   52.88    5.89
   3  -3  -2  430.60   17.43
   3  -3  -2  381.03   19.11
   3  -3  -1 1208.39   47.77
   3  -3   2 1574.99   62.31
   3  -3   3  106.88    7.63
   3  -3   3   94.09    7.62
   3  -3   4   16.60    5.30
   3  -3   4   22.53    6.19
   3  -3   5   -0.50    4.94
   3  -3   5   -3.82    7.28
   3  -3   6   42.41    6.71
   3  -3   6   32.04    9.15
   3  -3   7  283.86   18.95
   3  -3   7  273.07   15.50
   3  -3   8  359.88   21.55
   3  -3   8  290.82   17.13
   3  -3   9  216.36   17.71
   3  -3   9  161.42   12.55
   3  -3  10  205.90   18.09
   3  -3  10  157.03   13.08
   3  -3  11   74.83   10.88
   3  -3  11  113.05   15.95
   3  -3  12    4.53    9.29
   3  -3  13    9.56   10.29
   3  -2 -14   47.44   12.07
   3  -2 -13   78.70   12.72
   3  -2 -12   28.11    9.74
   3  -2 -12   50.76   10.84
   3  -2 -11    4.89    7.96
   3  -2 -11   14.36    8.66
   3  -2 -10    3.09    7.15
   3  -2 -10    3.67    7.70
   3  -2  -9  107.31    9.91
   3  -2  -9   94.52   10.43
   3  -2  -8  158.19   12.17
   3  -2  -8  158.24   11.35
   3  -2  -7  293.63   17.17
   3  -2  -7  306.79   16.01
   3  -2  -6  260.76   14.84
   3  -2  -6  238.00   13.60
   3  -2  -5  701.70   30.42
   3  -2  -5  640.10   29.13
   3  -2  -4  813.12   34.73
   3  -2  -3  109.69    8.17
   3  -2  -2   10.20    4.28
   3  -2   2  832.94   34.48
   3  -2   2  804.98   34.49
   3  -2   3  642.32   27.73
   3  -2   3  592.87   26.84
   3  -2   4   78.21    8.92
   3  -2   4   73.44    6.87
   3  -2   5  108.36   11.44
   3  -2   5  122.84    8.81
   3  -2   6   44.91    6.64
   3  -2   6   32.78    9.61
   3  -2   7   15.24    6.12
   3  -2   7    5.68    9.44
   3  -2   8  107.87   13.59
   3  -2   8   80.73    9.29
   3  -2   9  156.64   16.12
   3  -2   9  136.19   11.81
   3  -2  10   73.05   10.52
   3  -2  10   92.65   14.66
   3  -2  11   76.53   11.65
   3  -2  12   29.13   10.85
   3  -2  13    6.18   11.02
   3  -1 -17    3.17   11.28
   3  -1 -16   -2.57   10.83
   3  -1 -15   -2.01   10.44
   3  -1 -14   59.71   11.91
   3  -1 -12   78.87   11.66
   3  -1 -11   50.19    9.52
   3  -1 -10   20.22    7.59
   3  -1 -10   14.19    7.61
   3  -1  -9    0.30    5.97
   3  -1  -9    0.36    6.55
   3  -1  -8   65.22    8.09
   3  -1  -8   58.31    7.80
   3  -1  -7  128.91    9.97
   3  -1  -7  112.70    9.27
   3  -1  -6  138.19   10.00
   3  -1  -6  132.35    9.45
   3  -1  -2  185.68   10.31
   3  -1   1  259.93   11.83
   3  -1   2  426.41   20.50
   3  -1   3  198.19   12.64
   3  -1   3  181.98   10.64
   3  -1   4  148.00   11.99
   3  -1   4  143.01    9.40
   3  -1   5  231.17   16.56
   3  -1   5  241.46   13.34
   3  -1   6  222.01   13.30
   3  -1   6  222.85   17.04
   3  -1   7   26.97    7.06
   3  -1   7   24.54   10.44
   3  -1   8    5.74    7.16
   3  -1   8   12.38   10.49
   3  -1   9   20.48    8.44
   3  -1   9   13.71   10.88
   3  -1  10   28.26    9.94
   3  -1  10   35.32   12.55
   3  -1  11   30.66   11.22
   3  -1  12   10.12   11.60
   3   0 -17   -2.98   10.78
   3   0 -16    0.34   10.10
   3   0 -15   21.05   10.19
   3   0 -14   54.92   11.13
   3   0 -13  163.05   14.41
   3   0 -12  114.86   13.05
   3   0 -12  112.16   11.32
   3   0 -11  127.91   12.44
   3   0 -11  110.57   10.31
   3   0 -10   79.17    9.78
   3   0 -10   79.46    8.47
   3   0  -9   24.18    6.49
   3   0  -9   27.51    5.71
   3   0  -8    1.85    4.13
   3   0  -8    7.67    5.31
   3   0  -7  116.26    9.09
   3   0  -7  100.45    6.95
   3   0  -6  429.72   18.29
   3   0  -5  822.93   32.80
   3   0  -3 1769.87   70.92
   3   0  -2  727.85   30.91
   3   0  -1   45.94    4.40
   3   0   0   29.55    3.73
   3   0   0   31.97    4.25
   3   0   1   36.84    4.52
   3   0   2  294.09   16.26
   3   0   3  486.13   24.40
   3   0   4  431.99   23.35
   3   0   5  504.14   23.10
   3   0   5  447.09   25.71
   3   0   6  367.54   19.20
   3   0   6  371.45   23.01
   3   0   7  136.26   12.06
   3   0   7  169.03   15.88
   3   0   8    5.15    8.02
   3   0   8    5.24   10.11
   3   0   9   -1.77    8.99
   3   0   9   -2.33   10.82
   3   0  10    0.34   10.57
   3   0  11    6.45   11.93
   3   0  12   25.50   14.04
   3   1 -17   11.57   10.36
   3   1 -16   -3.24    9.67
   3   1 -15   -4.45    9.12
   3   1 -14   -3.24    9.61
   3   1 -13   39.41   10.07
   3   1 -12  102.87   12.45
   3   1 -12  128.64   11.28
   3   1 -11   76.05   10.27
   3   1 -11   63.95    8.44
   3   1 -10  157.59   12.84
   3   1 -10  153.70   10.79
   3   1  -9  207.65   14.79
   3   1  -9  247.36   13.04
   3   1  -8  104.52    9.67
   3   1  -8  122.07    8.14
   3   1  -7    6.49    3.99
   3   1  -6   20.01    4.16
   3   1  -5  492.26   20.89
   3   1  -4 1278.91   52.75
   3   1  -3 1361.73   55.46
   3   1  -2 1079.56   44.27
   3   1  -1  359.46   16.22
   3   1  -1  351.05   15.90
   3   1   0  228.52   11.14
   3   1   0  247.66   12.84
   3   1   0  238.38   11.79
   3   1   1   74.39    6.03
   3   1   1   56.54    4.14
   3   1   1   70.23    6.64
   3   1   2   15.03    4.78
   3   1   5  340.09   21.24
   3   1   6  776.39   38.38
   3   1   7  242.29   16.22
   3   1   7  235.15   18.80
   3   1   8   50.70   10.60
   3   1   8   57.40   12.96
   3   1   9    2.01   10.36
   3   1   9   12.35   11.69
   3   1  10   -2.69   11.86
   3   1  11   -3.94   13.94
   3   2 -17   14.75   10.22
   3   2 -16   22.87    9.84
   3   2 -15   13.87    8.98
   3   2 -14   -7.48    8.74
   3   2 -13   -9.57    8.13
   3   2 -12   -1.06    6.81
   3   2 -12    1.90    8.04
   3   2 -11   50.13    7.66
   3   2 -11   48.19    9.41
   3   2 -10   72.67    9.60
   3   2 -10   74.83    8.17
   3   2  -9  217.29   15.14
   3   2  -9  237.10   13.42
   3   2  -8  382.56   18.56
   3   2  -7  217.47   12.26
   3   2  -6  124.45    8.41
   3   2  -5   18.71    4.73
   3   2  -5   18.91    4.68
   3   2  -4   56.28    6.00
   3   2  -3  326.71   16.11
   3   2  -2  218.29   11.37
   3   2  -2  207.87   10.30
   3   2  -1  181.83    9.71
   3   2  -1  180.10    9.49
   3   2   0  455.15   19.29
   3   2   0  415.26   18.61
   3   2   0  404.57   20.82
   3   2   1  395.03   17.77
   3   2   1  362.32   16.31
   3   2   1  400.26   20.00
   3   2   2  177.54   10.13
   3   2   2  116.22   10.73
   3   2   3    8.44    5.18
   3   2   4    7.58    5.93
   3   2   8   71.17   13.05
   3   2   9   14.48   11.99
   3   2  10    2.17   13.20
   3   2  11  -25.26   16.14
   3   3 -16   16.84    9.57
   3   3 -15   14.14    9.11
   3   3 -14    2.61    8.04
   3   3 -13   -1.92    7.50
   3   3 -12   -2.43    6.86
   3   3 -11   -6.65    7.84
   3   3 -11    2.24    6.60
   3   3 -10   58.15    9.38
   3   3 -10   54.94    8.07
   3   3  -9  188.26   12.46
   3   3  -8  383.99   19.43
   3   3  -7  263.74   14.54
   3   3  -6  164.51   10.80
   3   3  -6  164.85   11.57
   3   3  -5   82.65    7.67
   3   3  -5   72.99    7.55
   3   3  -4   19.71    4.93
   3   3  -3   19.47    4.61
   3   3  -2   37.73    5.21
   3   3  -2   43.43    4.44
   3   3  -1   86.62    6.39
   3   3  -1   75.36    6.42
   3   3   0  187.26   10.22
   3   3   0  166.00    9.57
   3   3   0  161.88   12.14
   3   3   1  447.61   19.55
   3   3   1  387.13   17.88
   3   3   1  398.90   21.86
   3   3   2  292.04   14.63
   3   3   2  236.27   11.34
   3   3   2  292.22   17.76
   3   3   2  225.67   16.11
   3   3   3   66.06    8.48
   3   3   3   59.04    9.42
   3   3   3   68.81   11.44
   3   3   4   20.11    7.89
   3   3   5    7.07    7.97
   3   3   6   26.31   10.05
   3   4 -16   11.36    9.40
   3   4 -15   22.65    9.49
   3   4 -14    8.57    8.35
   3   4 -13   -2.50    7.89
   3   4 -12    0.71    7.21
   3   4 -11    5.41    7.04
   3   4 -10   23.65    7.58
   3   4  -9  182.57   13.00
   3   4  -8  317.70   17.66
   3   4  -7  296.51   16.60
   3   4  -7  265.32   17.18
   3   4  -6  152.81   11.79
   3   4  -6  172.87   12.45
   3   4  -5  123.43   10.23
   3   4  -5  105.21   10.20
   3   4  -4   32.34    6.49
   3   4  -3    4.73    3.02
   3   4  -3   -5.98    5.14
   3   4  -2   27.56    4.84
   3   4  -2   27.84    5.56
   3   4  -1   95.18    7.35
   3   4  -1   90.87    7.91
   3   4   0  167.50   10.75
   3   4   0  155.97   13.12
   3   4   1  357.43   17.78
   3   4   1  319.25   21.16
   3   4   2  355.92   17.29
   3   4   2  265.16   13.87
   3   4   2  323.76   20.19
   3   4   2  228.35   17.91
   3   4   3  112.44   10.69
   3   4   3   73.95    5.94
   3   4   3   99.50   13.57
   3   4   3   75.76   11.25
   3   4   4   22.96    8.75
   3   4   4   15.44    2.59
   3   4   4   12.72    2.61
   3   4   4   10.61    8.28
   3   4   4   28.14   11.74
   3   4   5   -5.87    9.50
   3   4   5   -1.66   10.95
   3   4   6  -15.75   11.23
   3   4   6    8.46   11.47
   3   4   7   12.28   11.60
   3   4   8   19.15   13.76
   3   4   9   10.34   15.03
   3   5 -16   12.89    9.34
   3   5 -15    5.07    8.88
   3   5 -14   26.62    9.72
   3   5 -13   37.11    9.65
   3   5 -12   33.15    8.95
   3   5 -11   21.66    8.41
   3   5 -10   13.98    7.83
   3   5  -9   24.11    7.94
   3   5  -8  107.42   10.87
   3   5  -8  105.70   11.71
   3   5  -7  111.18   10.96
   3   5  -7  103.90   11.43
   3   5  -6   98.89   10.96
   3   5  -6  110.38   11.39
   3   5  -5  148.83   12.58
   3   5  -4  139.94   12.07
   3   5  -3   55.55    8.44
   3   5  -3   44.75    4.88
   3   5  -2   16.81    4.96
   3   5  -2   14.83    6.28
   3   5  -1    6.88    5.43
   3   5  -1    9.13    5.56
   3   5   0   55.26    7.95
   3   5   0   40.08    6.96
   3   5   0   37.50    8.69
   3   5   1  137.28   10.55
   3   5   1  119.42   13.51
   3   5   2  143.52   10.59
   3   5   2  164.88   15.50
   3   5   3   62.18    7.00
   3   5   3   67.51   12.00
   3   5   3   84.04   13.97
   3   5   4   18.77    4.92
   3   5   4   31.89    5.63
   3   5   4   31.69   10.32
   3   5   4   28.99   12.93
   3   5   5   10.05   11.12
   3   5   5   10.19    3.28
   3   5   5   15.96    3.74
   3   5   5   31.70   10.76
   3   5   5    5.42   12.64
   3   5   6   -3.58   11.78
   3   5   7   -3.96   13.25
   3   5   8    5.33   14.47
   3   5   9   24.43   16.14
   3   6 -15    0.94    9.00
   3   6 -14   10.56    9.34
   3   6 -13   39.09   10.01
   3   6 -12   41.33    9.96
   3   6 -11   44.20    9.85
   3   6 -10   45.41   10.01
   3   6  -9   21.16    8.81
   3   6  -9    5.91    9.20
   3   6  -8   -0.40    8.49
   3   6  -8    2.97    8.11
   3   6  -7    7.46    8.60
   3   6  -7    7.46    8.42
   3   6  -6    3.04    8.20
   3   6  -5   45.91    9.86
   3   6  -4  108.45   12.19
   3   6  -3  134.14   12.82
   3   6  -3  106.34    7.72
   3   6  -2   80.60    7.89
   3   6  -2   82.15   10.81
   3   6  -1   44.26    8.02
   3   6  -1   41.59    8.95
   3   6   0    4.53    7.23
   3   6   0   10.91    8.02
   3   6   1   -6.13    6.92
   3   6   1   -0.45    8.00
   3   6   2   -6.78    6.45
   3   6   2   25.25   10.05
   3   6   3    5.27    5.71
   3   6   3   14.63   10.41
   3   6   4    4.40    5.23
   3   6   4   23.97   11.17
   3   6   5   14.32    5.34
   3   6   5   16.50    5.50
   3   6   6   11.79    3.10
   3   6   6   11.34    3.30
   3   6   7   43.78   15.17
   3   6   8   39.13   15.66
   3   7 -14   -2.81    8.98
   3   7 -13   13.51    9.53
   3   7 -12   27.29   10.08
   3   7 -11   25.03   10.05
   3   7 -10   24.64   10.19
   3   7  -9   11.97    9.57
   3   7  -8   -1.26    9.46
   3   7  -7    0.47    9.65
   3   7  -7    2.29    9.61
   3   7  -6   -2.28    9.72
   3   7  -5   -1.80    9.62
   3   7  -4   18.62    3.77
   3   7  -4   67.93   12.37
   3   7  -3   70.48    7.36
   3   7  -3   64.05   12.35
   3   7  -2   64.88    8.63
   3   7  -2   49.69   11.37
   3   7  -1   26.40    8.75
   3   7  -1   31.91   10.04
   3   7   0    8.73    8.42
   3   7   0   27.78    9.99
   3   7   1    2.06    9.21
   3   7   3  -10.00    6.85
   3   7   4    3.06    6.16
   3   7   5    9.03    6.23
   3   7   5    7.12    5.95
   3   7   6   72.36   15.75
   3   7   7   65.37   16.03
   3   8 -13    0.66    9.58
   3   8 -12    5.38   10.08
   3   8 -11   13.58   10.44
   3   8 -10   17.18   10.76
   3   8  -9   16.58   10.75
   3   8  -8    0.37   10.60
   3   8  -6   -4.93   11.49
   3   8  -5    1.08   11.12
   3   8  -4   11.66    4.15
   3   8  -4   39.57   12.93
   3   8  -3   41.45    7.52
   3   8  -3   43.67   12.64
   3   8  -2   33.97    9.03
   3   8  -2   38.45   11.98
   3   8  -1    3.35    9.30
   3   8  -1    9.22   10.28
   3   8   0   -4.06    8.82
   3   8   1   -3.29    8.16
   3   8   2    2.58    7.92
   3   8   3    1.29    7.48
   3   8   4    4.12    7.67
   3   8   6   94.34   16.48
   3   9 -11   -0.74   10.47
   3   9 -10   10.02   11.31
   3   9  -4   -6.06    4.41
   3   9  -3    5.03    7.26
   3   9  -3   -1.81   12.01
   3   9  -2   13.78    8.97
   3   9  -2   11.61   11.26
   3   9  -1   -3.15    9.88
   3   9  -1   -6.04   10.38
   3   9   0   24.84   10.77
   3   9   1   16.41    9.73
   3   9   2   19.81    9.94
   3   9   5   62.47   14.43
   3  10  -2   -4.12    9.18
   3  10  -1  -14.50   10.66
   3  10   0   19.19   11.37
   3  10   0    2.14   10.81
   3  10   1   49.41   12.57
   3  10   2   64.93   13.55
   3  10   3   67.82   13.85
   4 -14   2   -9.62   17.90
   4 -14   3  -15.01   17.98
   4 -14   4   -4.36   16.56
   4 -13  -1   11.87   16.50
   4 -13   0   14.44   16.32
   4 -13   1   39.58   17.31
   4 -13   2   26.99   16.95
   4 -13   3  -13.43   16.46
   4 -13   4   -8.90   15.41
   4 -13   5   -8.48   13.95
   4 -12  -3  -13.09   16.38
   4 -12  -2  -11.51   15.53
   4 -12  -1   16.61   15.20
   4 -12   0   76.14   17.62
   4 -12   1  112.93   18.37
   4 -12   2   99.08   17.97
   4 -12   3   90.44   16.96
   4 -12   4   32.02   14.26
   4 -12   5    0.60   12.39
   4 -12   6  -13.11   11.06
   4 -11  -7   -0.59   17.37
   4 -11  -6    0.57   16.34
   4 -11  -3    2.40   14.19
   4 -11  -2    8.57    9.23
   4 -11  -2   -6.30   14.16
   4 -11  -1   10.93    8.71
   4 -11  -1   -8.02   14.05
   4 -11   0    4.35   13.67
   4 -11   1   98.40   15.97
   4 -11   2  157.35   18.28
   4 -11   3   88.01   15.59
   4 -11   4   63.07   13.67
   4 -11   5   43.09   12.03
   4 -11   6   -0.22    9.84
   4 -11   7   -3.72    8.83
   4 -11   8   -0.27    6.49
   4 -11   9    8.13    6.93
   4 -10  -9  -18.77   18.69
   4 -10  -7    3.28    9.82
   4 -10  -7  -10.88   16.37
   4 -10  -6   27.81   10.48
   4 -10  -6    8.25   14.84
   4 -10  -5   37.76   11.13
   4 -10  -4   57.77   11.27
   4 -10  -3   15.82    9.12
   4 -10  -3   39.18   13.87
   4 -10  -2   26.62   13.18
   4 -10  -2   23.43    8.98
   4 -10  -1   26.39    8.93
   4 -10  -1   12.74   12.31
   4 -10   0   -0.29    7.80
   4 -10   0    7.49   11.58
   4 -10   1   30.07    9.01
   4 -10   1   26.47   12.10
   4 -10   2   93.78   11.55
   4 -10   2  107.58   14.56
   4 -10   3   73.95   11.00
   4 -10   3   70.33   12.72
   4 -10   4   54.07   11.83
   4 -10   5   42.37   10.48
   4 -10   6    9.61    8.94
   4 -10   7    2.84    6.12
   4 -10   8   -3.00    6.32
   4 -10   9    1.81    6.42
   4 -10  10   -4.60    6.75
   4  -9 -11   24.20   18.67
   4  -9 -10   49.89   19.05
   4  -9  -9   16.72    9.82
   4  -9  -9   10.61   16.65
   4  -9  -8  -12.32    9.51
   4  -9  -8   12.16   15.01
   4  -9  -7    0.33    9.09
   4  -9  -7   -0.96   14.25
   4  -9  -6   22.61    9.52
   4  -9  -6   37.36   14.42
   4  -9  -5   76.88   11.66
   4  -9  -5   91.30   16.28
   4  -9  -4  187.11   15.24
   4  -9  -3  249.51   16.79
   4  -9  -2  254.42   16.94
   4  -9  -2  290.16   20.14
   4  -9  -1  230.89   15.74
   4  -9  -1  257.18   18.47
   4  -9   0   74.82    9.59
   4  -9   0   70.87   12.25
   4  -9   1    5.88    7.18
   4  -9   1    4.16    9.50
   4  -9   2   68.51    9.79
   4  -9   2   73.54   11.42
   4  -9   3  131.88   12.21
   4  -9   3  115.46   13.15
   4  -9   4  104.77   11.50
   4  -9   4   87.64   11.52
   4  -9   5   82.13   10.63
   4  -9   6  111.44   10.52
   4  -9   6  153.83   11.34
   4  -9   7   41.78    7.86
   4  -9   8    3.86    3.95
   4  -9   8   10.01    6.34
   4  -9   9    4.93    6.28
   4  -9  10    2.85    6.42
   4  -8 -12   29.94   16.96
   4  -8 -11   89.66   18.83
   4  -8 -10  147.29   20.20
   4  -8 -10  123.68   13.89
   4  -8  -9   93.66   12.28
   4  -8  -9  105.79   17.56
   4  -8  -8   46.68   14.64
   4  -8  -8   23.52    9.38
   4  -8  -7    5.48    8.33
   4  -8  -7    5.31   12.77
   4  -8  -6   14.10    8.20
   4  -8  -6   24.65   12.21
   4  -8  -5   31.96    8.64
   4  -8  -5   36.12   11.91
   4  -8  -4  199.79   14.35
   4  -8  -3  470.18   23.90
   4  -8  -2  600.57   28.64
   4  -8  -2  613.48   30.89
   4  -8  -1  458.37   23.68
   4  -8  -1  512.82   25.91
   4  -8   0  696.22   32.11
   4  -8   0  705.46   33.28
   4  -8   1  109.61   10.49
   4  -8   1  103.82   11.38
   4  -8   2   -1.21    6.46
   4  -8   2    1.37    8.15
   4  -8   3   38.10    8.24
   4  -8   3   39.89    8.60
   4  -8   4   49.56    9.22
   4  -8   5  189.24   12.45
   4  -8   5  233.40   14.11
   4  -8   6  137.81   10.52
   4  -8   7  197.86   10.65
   4  -8   7  212.42   13.50
   4  -8   8  124.72    9.79
   4  -8   9   55.06    8.95
   4  -8  10   17.22    8.84
   4  -7 -14   -0.86   14.46
   4  -7 -13   -7.33   15.12
   4  -7 -12   -1.71   14.34
   4  -7 -11   44.60   14.76
   4  -7 -10   61.02   14.70
   4  -7  -9   79.08   11.36
   4  -7  -9  122.78   15.83
   4  -7  -8   57.88   10.33
   4  -7  -8   93.02   14.26
   4  -7  -7   95.26   11.20
   4  -7  -7  139.88   14.62
   4  -7  -6   33.59    8.40
   4  -7  -6   48.40   11.32
   4  -7  -5   82.06    9.34
   4  -7  -5  100.31   12.72
   4  -7  -4   -1.62    6.34
   4  -7  -3  146.46   10.87
   4  -7  -2  314.89   16.72
   4  -7  -2  304.01   18.54
   4  -7  -1  516.12   24.10
   4  -7  -1  499.30   25.30
   4  -7   0  342.90   17.80
   4  -7   0  325.82   18.68
   4  -7   1  311.26   17.22
   4  -7   1  315.21   17.81
   4  -7   2   75.56    8.68
   4  -7   2   76.02    9.39
   4  -7   3   22.55    7.62
   4  -7   4    3.38    4.02
   4  -7   4    8.59    7.23
   4  -7   5    6.50    4.34
   4  -7   6  139.58    8.94
   4  -7   6  147.31   10.03
   4  -7   7  191.41   12.33
   4  -7   8  117.52   11.27
   4  -7   9   72.90   10.88
   4  -7  10   17.39    9.83
   4  -7  11  -14.49   11.32
   4  -6 -14   36.30   14.27
   4  -6 -13   23.19   13.33
   4  -6 -12  -21.07   13.28
   4  -6 -11   -5.31   12.11
   4  -6 -10   16.95   11.52
   4  -6  -9   65.95   12.47
   4  -6  -8  111.71   13.03
   4  -6  -8   98.11   11.25
   4  -6  -7  112.03   11.08
   4  -6  -7  124.43   13.17
   4  -6  -6  401.58   20.85
   4  -6  -6  400.91   22.29
   4  -6  -5  364.55   18.70
   4  -6  -5  376.44   20.70
   4  -6  -4   75.17    7.55
   4  -6  -4   77.91    9.55
   4  -6  -3   12.59    5.01
   4  -6  -2   87.70    7.69
   4  -6  -1  152.66    9.92
   4  -6  -1  136.82   11.10
   4  -6   0  309.43   15.82
   4  -6   0  289.98   16.57
   4  -6   1  371.07   18.55
   4  -6   1  366.62   19.23
   4  -6   2  166.39   11.98
   4  -6   3  102.00    9.41
   4  -6   4  119.35    7.40
   4  -6   5   34.25    5.70
   4  -6   6    5.51    6.71
   4  -6   7   89.08   10.16
   4  -6   8   79.14   11.27
   4  -6   9   11.75    9.70
   4  -6  10  -11.33   11.36
   4  -6  11  -22.24   12.86
   4  -5 -14   72.93   15.08
   4  -5 -13   32.31   12.97
   4  -5 -12   19.85   11.23
   4  -5 -11   -0.60   10.65
   4  -5 -10    0.29   10.00
   4  -5  -9   67.03   11.22
   4  -5  -8  244.59   16.54
   4  -5  -7  482.37   24.70
   4  -5  -6  841.16   35.30
   4  -5  -6  776.98   36.53
   4  -5  -5  857.12   35.32
   4  -5  -5  802.59   36.99
   4  -5  -4  412.26   18.73
   4  -5  -4  399.78   20.77
   4  -5  -3   59.20    5.85
   4  -5  -2    7.55    4.26
   4  -5  -1   96.30    7.29
   4  -5  -1   99.72    8.97
   4  -5   0  226.27   12.15
   4  -5   0  227.03   13.78
   4  -5   1  797.21   35.11
   4  -5   2  804.02   34.77
   4  -5   3  459.68   18.96
   4  -5   4  448.17   20.32
   4  -5   5  247.56   14.22
   4  -5   6    2.93    8.10
   4  -5   7   62.76   10.51
   4  -5   8   57.36    9.45
   4  -5   8   37.34   11.21
   4  -5   9   31.74    9.05
   4  -5   9    2.79   11.17
   4  -5  10   48.80   10.02
   4  -5  10   17.39   12.44
   4  -5  11   38.76   10.40
   4  -5  11   38.98   14.56
   4  -5  12   18.97   10.24
   4  -4 -14   68.94   14.46
   4  -4 -13   57.56   12.90
   4  -4 -12   57.28   12.14
   4  -4 -11   76.43   11.84
   4  -4 -10   19.05    9.33
   4  -4  -9   16.05    8.52
   4  -4  -8   87.08    9.97
   4  -4  -7  299.84   17.10
   4  -4  -6  573.62   27.76
   4  -4  -6  615.74   26.24
   4  -4  -5 1310.36   51.54
   4  -4  -5 1255.06   53.85
   4  -4  -4 1884.75   73.29
   4  -4  -4 1847.55   75.94
   4  -4  -3   31.48    4.03
   4  -4  -3   32.68    6.70
   4  -4  -2  160.86    8.43
   4  -4   0   10.45    5.61
   4  -4   3 1181.66   48.08
   4  -4   4  878.95   37.78
   4  -4   5  570.18   27.46
   4  -4   6  183.96   15.02
   4  -4   6  156.20   12.06
   4  -4   7    6.60    7.04
   4  -4   7   -7.25   10.17
   4  -4   8   -2.39    7.58
   4  -4   9   15.95    8.47
   4  -4   9   -7.38   12.76
   4  -4  10   28.56    9.77
   4  -4  10   16.17   13.47
   4  -4  11   54.54   10.99
   4  -4  11   71.24   16.46
   4  -4  12   34.15   10.87
   4  -3 -14   27.40   12.15
   4  -3 -13   34.60   11.99
   4  -3 -12   32.12   11.22
   4  -3 -11  129.09   13.30
   4  -3 -10  355.77   20.61
   4  -3  -9   89.67   10.71
   4  -3  -8   35.75    8.20
   4  -3  -7    8.63    6.93
   4  -3  -6   93.79    9.05
   4  -3  -5  352.36   14.98
   4  -3  -5  394.33   19.09
   4  -3  -4  107.39    9.25
   4  -3  -3 1385.97   57.24
   4  -3   3  161.02   10.84
   4  -3   4  384.69   19.19
   4  -3   4  315.78   17.80
   4  -3   5  473.67   24.08
   4  -3   5  405.17   21.34
   4  -3   6  191.95   16.55
   4  -3   6  181.74   12.61
   4  -3   7   40.60    7.79
   4  -3   7   13.07   11.28
   4  -3   8   13.51    7.68
   4  -3   8  -13.34   13.01
   4  -3   9   14.29    8.26
   4  -3   9  -20.22   14.36
   4  -3  10   -3.60    8.91
   4  -3  10  -23.98   14.84
   4  -3  11    9.95    9.77
   4  -3  12   29.82   11.05
   4  -2 -16   10.03    9.43
   4  -2 -15   -0.28    8.71
   4  -2 -14   -6.20    8.46
   4  -2 -11  132.98   13.83
   4  -2 -11  148.16   13.22
   4  -2 -10  286.71   19.75
   4  -2 -10  330.62   18.80
   4  -2  -9  419.01   23.96
   4  -2  -9  446.29   22.68
   4  -2  -8  142.45   12.02
   4  -2  -8  147.42   11.85
   4  -2  -7   31.82    7.38
   4  -2  -6    2.77    6.16
   4  -2   2    1.55    2.68
   4  -2   3   37.24    7.60
   4  -2   4   68.15   10.16
   4  -2   4   58.25    7.37
   4  -2   5  150.40   14.42
   4  -2   5  129.51   10.28
   4  -2   6  106.24   14.90
   4  -2   6  144.28   11.01
   4  -2   7   37.74   13.17
   4  -2   7   93.04    9.64
   4  -2   8   50.08    9.06
   4  -2   8    8.03   12.73
   4  -2   9   40.02    9.32
   4  -2   9    0.94   14.09
   4  -2  10   10.01    9.25
   4  -2  11   -7.52   10.31
   4  -1 -16   23.65    9.56
   4  -1 -15   -2.30    8.73
   4  -1 -14    1.84    8.05
   4  -1 -13   -0.41    7.03
   4  -1 -12   29.97    6.98
   4  -1 -11  144.57   13.33
   4  -1 -11  130.25    9.98
   4  -1 -10  365.76   21.48
   4  -1 -10  355.19   17.37
   4  -1  -9  444.82   23.02
   4  -1  -9  388.36   18.22
   4  -1  -8  288.79   17.16
   4  -1  -8  268.44   12.76
   4  -1  -7  118.93    6.49
   4  -1  -6   45.35    2.99
   4  -1  -5    4.16    4.46
   4  -1  -4  206.84   12.71
   4  -1  -3  521.91   24.60
   4  -1   1  588.27   25.40
   4  -1   1  613.89   26.82
   4  -1   2   43.05    5.23
   4  -1   3    5.05    7.21
   4  -1   4   14.66    9.09
   4  -1   5   37.35   11.21
   4  -1   6  189.83   18.47
   4  -1   6  225.55   14.17
   4  -1   7  170.68   18.54
   4  -1   7  180.43   13.28
   4  -1   8  115.84   16.32
   4  -1   8   95.95   11.14
   4  -1   9  127.22   16.91
   4  -1   9  101.15   12.66
   4  -1  10   41.44   11.55
   4  -1  11   -5.17   11.49
   4   0 -16    9.98    8.29
   4   0 -15   26.14    8.81
   4   0 -14   21.08    8.19
   4   0 -13   14.52    6.88
   4   0 -12   -4.69    6.24
   4   0 -11    8.55    6.27
   4   0 -11   34.12    8.93
   4   0 -10  211.56   15.06
   4   0 -10  178.56   11.05
   4   0  -9  335.43   19.72
   4   0  -9  325.89   15.58
   4   0  -8  293.65   13.90
   4   0  -7  201.27   10.02
   4   0  -6  374.94   19.76
   4   0  -5  270.15   15.41
   4   0  -4   22.77    5.21
   4   0  -3  120.10    8.87
   4   0  -2  382.12   18.75
   4   0  -1  581.60   26.00
   4   0   0 1397.56   56.79
   4   0   1  780.19   34.17
   4   0   1  811.52   34.24
   4   0   2  244.36   15.18
   4   0   2  209.24   12.75
   4   0   2  213.20   12.60
   4   0   3   80.94   11.13
   4   0   3   65.86    7.61
   4   0   4   46.60   11.04
   4   0   5   10.54   10.99
   4   0   6   20.06   11.80
   4   0   7  146.34   17.79
   4   0   8  127.01   13.45
   4   0   8  138.21   17.53
   4   0   9  115.83   14.49
   4   0  10   74.32   14.43
   4   1 -16    0.26    8.08
   4   1 -15   27.17    8.86
   4   1 -14   44.20    8.84
   4   1 -13   25.02    7.50
   4   1 -12   61.12    8.11
   4   1 -11    8.15    5.91
   4   1 -11   10.63    7.42
   4   1 -10   -4.28    6.92
   4   1 -10    6.63    5.22
   4   1  -9   36.23    5.90
   4   1  -8   61.16    6.46
   4   1  -7  197.14   10.43
   4   1  -7  167.62   12.65
   4   1  -6  227.40   14.19
   4   1  -5  621.13   28.84
   4   1  -4  387.18   19.57
   4   1  -3   98.99    8.03
   4   1  -2   10.54    4.20
   4   1  -1   78.39    6.84
   4   1  -1   76.99    6.81
   4   1   0   82.03    6.79
   4   1   0  104.15    8.05
   4   1   1  291.94   16.62
   4   1   1  330.18   16.12
   4   1   2  147.30   11.44
   4   1   2  161.95   10.70
   4   1   3  151.59   14.01
   4   1   3  112.51   11.25
   4   1   3  142.39   10.53
   4   1   4  154.55   11.90
   4   1   4  150.69   15.96
   4   1   5  150.90   12.71
   4   1   5  152.40   17.05
   4   1   6  -13.54   11.87
   4   1   7    3.29   12.35
   4   1  10   38.34   14.61
   4   2 -16   11.62    8.22
   4   2 -15   24.71    8.33
   4   2 -14   48.34    8.91
   4   2 -13   62.94    8.93
   4   2 -12   22.26    6.97
   4   2 -11   37.02    9.18
   4   2 -11   33.34    7.10
   4   2 -10   13.39    6.14
   4   2  -9    1.38    5.50
   4   2  -8   14.74    5.66
   4   2  -8    8.39    6.26
   4   2  -7   29.75    6.67
   4   2  -7   26.15    5.94
   4   2  -6  272.21   16.09
   4   2  -5  479.91   23.75
   4   2  -4  458.53   22.60
   4   2  -3  199.34   12.26
   4   2  -2   71.10    7.02
   4   2  -2   60.75    6.10
   4   2  -1   20.48    5.22
   4   2  -1   25.69    5.00
   4   2   0    7.77    5.07
   4   2   0   13.33    4.18
   4   2   0    8.49    5.17
   4   2   1   47.10    4.88
   4   2   1   66.42    8.04
   4   2   1   68.01    7.56
   4   2   2   81.93    8.77
   4   2   2   48.16    8.41
   4   2   3  122.04   10.36
   4   2   3   69.15   10.22
   4   2   4  154.14   12.32
   4   2   4   94.34   11.89
   4   2   5  179.02   14.49
   4   2   5  148.61   18.38
   4   2   6   62.79   11.55
   4   2   6   52.55   14.21
   4   2   7    2.90   10.72
   4   3 -16    1.28    7.95
   4   3 -15   14.62    8.06
   4   3 -14   34.12    8.74
   4   3 -13   38.82    8.89
   4   3 -12   39.20    8.41
   4   3 -11   42.95    8.04
   4   3 -10   34.26    7.57
   4   3  -9    5.46    6.28
   4   3  -9    7.76    7.30
   4   3  -8    2.52    6.61
   4   3  -8    3.76    6.22
   4   3  -7   26.63    7.08
   4   3  -7   36.35    7.60
   4   3  -6  168.28   12.55
   4   3  -5  358.82   19.51
   4   3  -4  409.46   21.09
   4   3  -3  211.14   13.10
   4   3  -2   88.67    8.07
   4   3  -2   77.18    6.82
   4   3  -1   42.31    6.05
   4   3  -1   29.82    5.71
   4   3   0   -3.42    6.04
   4   3   0   -1.13    4.31
   4   3   0    9.48    6.08
   4   3   1   11.16    6.94
   4   3   1    9.37    4.45
   4   3   1   16.33    6.90
   4   3   2   79.37    9.55
   4   3   2   56.88    9.74
   4   3   3  101.57   11.06
   4   3   3   66.69   10.91
   4   3   4  181.46   14.27
   4   3   4   94.61   12.82
   4   3   5  161.90   15.05
   4   3   5  113.13   14.09
   4   3   6   90.44   14.11
   4   3   7    7.11   12.44
   4   3   8  -13.25   14.09
   4   3   9  -20.17   16.21
   4   4 -16    6.66    7.98
   4   4 -15    6.56    8.01
   4   4 -14    9.16    7.92
   4   4 -13    8.90    8.04
   4   4 -12   24.75    8.21
   4   4 -11   48.96    9.05
   4   4 -10   65.90   10.04
   4   4  -9   66.05    9.86
   4   4  -9   80.95   11.23
   4   4  -8   36.38    8.46
   4   4  -8   26.34    8.13
   4   4  -7    2.24    6.65
   4   4  -6   13.06    6.68
   4   4  -5   92.07    9.91
   4   4  -4  224.34   14.68
   4   4  -3  116.75    9.84
   4   4  -3   91.15    6.95
   4   4  -2  104.70    9.52
   4   4  -2   98.72    8.17
   4   4  -1  100.70    9.30
   4   4  -1  114.59    9.32
   4   4   0   69.09    9.02
   4   4   0   67.76    7.47
   4   4   0   57.32    9.28
   4   4   1    9.69    7.76
   4   4   1    2.91    4.92
   4   4   1    6.74    7.24
   4   4   2    6.23    8.30
   4   4   2    1.92    4.06
   4   4   2   -4.06    7.95
   4   4   3   38.80   10.42
   4   4   3   20.56    9.51
   4   4   4   61.04   12.04
   4   4   4   27.42   10.10
   4   4   5   67.61   13.46
   4   4   5   67.63   12.34
   4   4   6   58.29   14.45
   4   4   7    5.22   13.94
   4   4   8  -22.76   16.15
   4   5 -15    5.33    8.11
   4   5 -14    4.59    7.68
   4   5 -13    2.99    7.69
   4   5 -12    0.25    7.81
   4   5 -11    9.82    8.37
   4   5 -10   57.22   10.53
   4   5  -9   84.57   11.23
   4   5  -9   78.76   12.54
   4   5  -8   89.24   12.05
   4   5  -8   82.00   11.63
   4   5  -7   60.28   10.61
   4   5  -6   19.59    8.48
   4   5  -5   -0.67    7.31
   4   5  -4   -4.74    7.17
   4   5  -3   15.84    4.99
   4   5  -3   27.43    7.64
   4   5  -2   28.10    6.26
   4   5  -2   33.83    7.56
   4   5  -1   75.21    9.15
   4   5  -1   75.90    9.31
   4   5   0  111.17   10.25
   4   5   0   88.00   11.62
   4   5   1   57.23    8.15
   4   5   1   61.09   11.01
   4   5   2   16.08   10.21
   4   5   2   11.97    5.63
   4   5   2   12.10    9.24
   4   5   3   12.36   10.72
   4   5   3    4.91    2.91
   4   5   3   -1.19    2.41
   4   5   3    1.49    9.29
   4   5   4  -15.78   11.64
   4   5   4   -2.10    9.50
   4   5   5    0.86   12.30
   4   5   6   -0.95   13.75
   4   5   7  -11.53   15.69
   4   6 -15    9.36    8.72
   4   6 -14    0.83    8.47
   4   6 -13    7.67    8.38
   4   6 -12   -2.79    8.48
   4   6 -11    0.55    8.41
   4   6 -10   18.08    9.36
   4   6  -9   43.81   11.30
   4   6  -7   53.51   11.52
   4   6  -6   24.77   10.38
   4   6  -5   16.59    9.37
   4   6  -4   -0.39    8.16
   4   6  -3   -3.52    5.03
   4   6  -3  -10.73    8.29
   4   6  -2    0.16    6.77
   4   6  -2    5.62    7.68
   4   6  -1   36.28    9.39
   4   6  -1   27.60    8.30
   4   6   0   70.22   11.73
   4   6   0   58.68    9.36
   4   6   1   66.49   12.60
   4   6   1   63.59    8.78
   4   6   1   39.41   11.13
   4   6   2   22.68   12.00
   4   6   2   24.62    7.11
   4   6   3   -2.76   11.69
   4   6   3    5.69    5.91
   4   6   6   -7.23   15.06
   4   7 -14    4.57    9.07
   4   7 -13    3.29    8.98
   4   7 -12   -1.83    9.16
   4   7 -11   -3.14    9.41
   4   7 -10    5.26    9.90
   4   7  -6   17.32   11.17
   4   7  -5   22.29   11.18
   4   7  -4    5.78   10.33
   4   7  -3   -0.81    5.55
   4   7  -3    3.25    9.40
   4   7  -2   -4.82    7.81
   4   7  -2   -1.76    8.82
   4   7  -1   18.47   10.14
   4   7  -1   20.93    8.94
   4   7   0   57.30   12.74
   4   7   0   35.18    9.44
   4   7   1   32.49   12.92
   4   7   1   23.17    8.50
   4   7   2   -6.41   12.15
   4   7   2   16.31    8.07
   4   7   3    6.26    7.31
   4   7   4  -22.39   14.67
   4   7   5  -18.33   15.17
   4   8 -13    6.94    9.84
   4   8 -12    6.89   10.17
   4   8 -11    1.07   10.56
   4   8  -4   18.91   12.56
   4   8  -3    1.72    6.12
   4   8  -3   13.57   11.44
   4   8  -2    4.33    8.47
   4   8  -2  -12.74   10.57
   4   8  -1   -1.11   10.40
   4   8  -1  -14.19    9.73
   4   8   0    2.75   12.23
   4   8   0  -12.80    9.70
   4   8   1    1.98   12.55
   4   8   1    5.04    9.33
   4   8   2  -26.03   14.29
   4   8   3    1.40   14.03
   4   8   4    9.39   14.71
   4   9  -2   10.41    9.16
   4   9  -2  -15.76   12.45
   4   9  -1   19.47   11.84
   4   9   0  -11.68   13.11
   4   9   1  -16.98   14.26
   4   9   2   -5.84   15.01
   4   9   3   14.13   15.26
   5 -14   3   32.69   17.86
   5 -13  -1   12.39   18.29
   5 -13   0    1.58   17.54
   5 -13   1   20.17   17.42
   5 -13   2   26.72   16.95
   5 -13   3   34.67   16.06
   5 -13   4   49.93   15.52
   5 -13   5   60.72   14.58
   5 -12  -4   69.63   20.20
   5 -12  -3  101.84   20.59
   5 -12  -2   43.78   17.20
   5 -12  -1   42.14   17.02
   5 -12   0    1.84   15.46
   5 -12   1    3.44   15.04
   5 -12   2   20.77   14.72
   5 -12   3    5.72   13.55
   5 -12   4   21.43   13.58
   5 -12   5   58.76   13.59
   5 -12   6   55.47   11.86
   5 -11  -5   -1.86   10.14
   5 -11  -4   51.56   17.51
   5 -11  -4   30.63   10.96
   5 -11  -3   25.61   10.36
   5 -11  -3   66.25   17.20
   5 -11  -2   48.79   10.81
   5 -11  -2   71.67   16.78
   5 -11  -1   55.79   11.09
   5 -11  -1   61.82   16.07
   5 -11   0   40.25   10.46
   5 -11   0   53.98   14.90
   5 -11   1   17.96   13.64
   5 -11   2   -2.41   12.85
   5 -11   3   -8.57   12.87
   5 -11   4  -21.00   12.59
   5 -11   5   41.98   11.80
   5 -10  -8   80.38   13.29
   5 -10  -8  118.28   21.85
   5 -10  -7   73.70   13.36
   5 -10  -7  136.37   21.19
   5 -10  -6   71.22   12.87
   5 -10  -6  120.93   19.56
   5 -10  -5   13.36    9.53
   5 -10  -4   42.20   15.10
   5 -10  -4   10.79    8.94
   5 -10  -3   48.05   10.29
   5 -10  -3   73.80   15.26
   5 -10  -2   66.51   10.50
   5 -10  -2   98.84   15.56
   5 -10  -1  142.73   13.54
   5 -10  -1  166.30   17.27
   5 -10   0  231.49   16.79
   5 -10   0  240.33   19.38
   5 -10   1  204.44   16.14
   5 -10   1  237.26   18.77
   5 -10   2  103.03   12.30
   5 -10   2  110.45   14.30
   5 -10   3   62.75   12.97
   5 -10   3   66.62   10.88
   5 -10   4    2.95   10.51
   5 -10   5   11.07    9.71
   5  -9 -10   15.69    9.79
   5  -9 -10   21.13   17.85
   5  -9  -9   62.43   12.38
   5  -9  -9  110.11   19.49
   5  -9  -8  120.14   14.11
   5  -9  -8  192.86   21.58
   5  -9  -7  212.08   18.20
   5  -9  -7  337.15   24.69
   5  -9  -6  160.28   15.18
   5  -9  -6  235.79   20.58
   5  -9  -5   71.75   10.96
   5  -9  -4    8.07    7.98
   5  -9  -3    8.00    7.49
   5  -9  -3   -1.06   10.81
   5  -9  -2   28.83    8.39
   5  -9  -2   34.42   11.44
   5  -9  -1  123.10   11.58
   5  -9  -1  134.71   14.66
   5  -9   0  346.87   20.39
   5  -9   0  382.77   22.56
   5  -9   1  464.29   24.83
   5  -9   1  482.06   26.18
   5  -9   2  331.18   19.93
   5  -9   2  356.50   21.39
   5  -9   3  196.95   16.01
   5  -9   4  158.15   14.20
   5  -9   7   22.66    5.79
   5  -9   8   18.94    6.09
   5  -8 -12    9.82    8.64
   5  -8 -12   -0.98   16.12
   5  -8 -11   11.63   16.24
   5  -8 -11   18.00    9.43
   5  -8 -10    9.77   14.94
   5  -8 -10    4.99    8.92
   5  -8  -9   11.23    9.38
   5  -8  -9   14.18   13.88
   5  -8  -8   42.44   10.20
   5  -8  -8   74.94   15.02
   5  -8  -7   72.43   10.82
   5  -8  -7  105.06   14.88
   5  -8  -6  175.74   14.22
   5  -8  -6  227.60   18.20
   5  -8  -5  186.25   13.71
   5  -8  -4   59.72    8.75
   5  -8  -3   64.70    8.59
   5  -8  -3   76.86   11.86
   5  -8  -2   62.41    8.67
   5  -8  -2   86.92   11.71
   5  -8  -1   -2.16    6.79
   5  -8  -1    6.75    9.14
   5  -8   0  102.75   10.11
   5  -8   0  105.80   12.10
   5  -8   1  284.81   17.05
   5  -8   1  295.07   18.59
   5  -8   2  312.56   19.31
   5  -8   3  204.04   15.37
   5  -8   6    0.63    4.18
   5  -8   7    1.00    4.47
   5  -8   8    2.32    5.05
   5  -8   8    1.13    4.83
   5  -7 -13   27.37   14.89
   5  -7 -12  105.10   16.89
   5  -7 -12   93.25   11.89
   5  -7 -11   82.69   11.77
   5  -7 -11  114.77   16.73
   5  -7 -10   31.13    9.71
   5  -7 -10   36.99   13.81
   5  -7  -9   -2.94   12.37
   5  -7  -9    0.27    8.35
   5  -7  -8    9.66    7.75
   5  -7  -8    9.09   11.50
   5  -7  -7   32.21    7.94
   5  -7  -7   32.47   11.25
   5  -7  -6   80.05    9.34
   5  -7  -6   79.69   12.18
   5  -7  -5  179.84   12.24
   5  -7  -5  194.91   15.33
   5  -7  -4  226.04   13.43
   5  -7  -3  224.24   13.10
   5  -7  -2  264.76   14.87
   5  -7  -2  265.36   16.96
   5  -7  -1  196.47   12.36
   5  -7  -1  184.64   14.21
   5  -7   0    1.13    5.81
   5  -7   0   10.08    8.26
   5  -7   1   91.18   11.24
   5  -7   2  117.05   11.78
   5  -7   6   29.57    4.79
   5  -7   7   21.26    6.42
   5  -7   8    6.60    7.52
   5  -7   9  -14.76    9.01
   5  -6 -14    9.56   14.05
   5  -6 -13   58.38   14.96
   5  -6 -12  130.13   16.91
   5  -6 -11  206.75   18.36
   5  -6 -10  130.31   14.64
   5  -6 -10   94.52   11.84
   5  -6  -9   24.67    8.64
   5  -6  -9   33.63   10.78
   5  -6  -8    8.16    9.24
   5  -6  -8    4.09    6.72
   5  -6  -7    4.11    6.06
   5  -6  -7    6.88    8.72
   5  -6  -6   70.95    7.64
   5  -6  -6   78.08   10.59
   5  -6  -5  304.69   15.58
   5  -6  -5  322.77   18.69
   5  -6  -4  774.12   32.80
   5  -6  -3  685.87   29.47
   5  -6  -2  712.20   31.00
   5  -6  -2  742.34   33.68
   5  -6  -1  530.57   26.46
   5  -6   0   84.00   10.17
   5  -6   1   18.08    7.69
   5  -6   5  247.82   11.58
   5  -6   6  183.24   12.13
   5  -6   7  144.74   12.64
   5  -6   8   36.09   10.37
   5  -6   9   -4.61   10.78
   5  -6  10  -10.65   11.91
   5  -5 -15   12.58   13.76
   5  -5 -14   -1.12   13.52
   5  -5 -13   29.91   13.37
   5  -5 -12   80.92   14.01
   5  -5 -11  199.59   17.37
   5  -5 -10  282.30   19.34
   5  -5  -9   69.28    9.36
   5  -5  -9   84.88   11.57
   5  -5  -8   79.98   11.06
   5  -5  -8   62.08    8.06
   5  -5  -7   51.12    6.53
   5  -5  -7   57.56    9.83
   5  -5  -6    5.20    4.37
   5  -5  -6    8.03    7.63
   5  -5  -5   68.12    5.71
   5  -5  -5   77.16    9.75
   5  -5  -4  310.97   14.45
   5  -5  -4  339.66   18.47
   5  -5  -1  892.07   39.50
   5  -5   5  366.27   18.94
   5  -5   6  417.29   22.55
   5  -5   7  175.28   15.64
   5  -5   8  152.97   16.40
   5  -5   9   32.17   13.09
   5  -5  10   -1.77    9.53
   5  -5  10  -24.20   13.58
   5  -4 -14    7.69   12.21
   5  -4 -13   -3.93   11.73
   5  -4 -12   -7.93   11.10
   5  -4 -11   35.55   11.29
   5  -4 -10   56.44   11.36
   5  -4  -9  145.16   13.64
   5  -4  -8  211.46   15.03
   5  -4  -8  183.20   10.71
   5  -4  -7  310.24   14.53
   5  -4  -7  414.65   20.22
   5  -4  -6  224.25   10.21
   5  -4  -6  336.39   17.03
   5  -4  -5   29.71    8.23
   5  -4  -4   26.28    7.77
   5  -4   5   48.52    9.51
   5  -4   6  158.14   15.23
   5  -4   6  112.91   11.38
   5  -4   7  138.37   16.05
   5  -4   7  119.43   11.97
   5  -4   8   55.96   10.24
   5  -4   8   63.96   15.01
   5  -4   9   52.37   10.41
   5  -4   9   39.07   14.74
   5  -4  10   18.93    9.82
   5  -4  10  -18.11   14.14
   5  -3 -15   20.24    8.25
   5  -3 -14    4.63    7.15
   5  -3 -13   10.24    6.29
   5  -3 -10   38.54   10.03
   5  -3  -9   74.20   10.73
   5  -3  -8  199.47   14.45
   5  -3  -7  439.12   22.80
   5  -3   3  245.78   11.51
   5  -3   4  190.98   13.92
   5  -3   4  147.83   12.35
   5  -3   5    2.61    7.17
   5  -3   5   14.01    9.58
   5  -3   6   17.07    7.91
   5  -3   6   32.75   12.40
   5  -3   7   17.70    8.13
   5  -3   7    6.38   13.31
   5  -3   8   29.85    9.46
   5  -3   8   14.35   14.42
   5  -3   9   35.33   10.02
   5  -3   9  -12.17   15.19
   5  -3  10   16.25   10.19
   5  -2 -15   30.33    8.51
   5  -2 -14   23.05    7.15
   5  -2 -13   16.60    6.43
   5  -2 -12   10.06    5.64
   5  -2 -11    2.85    4.57
   5  -2 -10    6.01    3.98
   5  -2 -10    5.66    7.64
   5  -2  -9   67.81    4.97
   5  -2  -7  620.41   30.87
   5  -2  -6  909.41   41.61
   5  -2   3  445.87   20.71
   5  -2   4  359.71   21.75
   5  -2   5   71.95   13.55
   5  -2   6   -1.47    7.52
   5  -2   6   11.99   12.89
   5  -2   7   -1.33    8.22
   5  -2   7    2.06   13.54
   5  -2   8    3.75    8.97
   5  -2   8  -16.32   15.43
   5  -2   9   27.96   10.77
   5  -2  10   66.51   12.72
   5  -1 -15   13.47    7.15
   5  -1 -14   24.18    6.75
   5  -1 -13   11.42    5.88
   5  -1 -12   55.74    7.10
   5  -1 -11   62.57    6.68
   5  -1 -10   26.36    4.79
   5  -1  -9   -7.76    4.03
   5  -1  -8   37.77    8.16
   5  -1  -7  332.69   19.55
   5  -1  -6  568.42   28.49
   5  -1  -5  600.50   29.40
   5  -1  -4  400.78   21.48
   5  -1   1  221.03   13.61
   5  -1   2  246.30   14.12
   5  -1   2  304.71   16.05
   5  -1   3  371.17   19.40
   5  -1   3  381.18   19.87
   5  -1   4  660.73   30.02
   5  -1   4  423.52   24.81
   5  -1   5  134.63   16.88
   5  -1   6   11.34   13.74
   5  -1   7  -20.18   15.14
   5  -1   8   -6.54    9.76
   5  -1   9    4.48   10.51
   5   0 -15   -0.92    6.59
   5   0 -14   -0.33    5.94
   5   0 -13   27.40    6.47
   5   0 -12   48.75    7.04
   5   0 -11  138.93    9.48
   5   0 -10  183.59   10.52
   5   0  -9   80.07   10.31
   5   0  -9   88.67    6.68
   5   0  -8   32.20    7.61
   5   0  -7    4.90    6.31
   5   0  -6   55.22    8.29
   5   0  -5  186.51   13.23
   5   0  -4  160.22   11.97
   5   0  -3  277.04   16.59
   5   0  -2  547.41   26.51
   5   0   0   96.52    8.88
   5   0   1   -0.20    5.93
   5   0   2   20.82    6.70
   5   0   2   20.03    5.96
   5   0   3   65.99    9.21
   5   0   3   90.31    9.45
   5   0   4   57.43    9.68
   5   0   4   99.29   14.33
   5   0   4   82.12    9.83
   5   0   5  162.36   18.93
   5   0   5  152.02   12.92
   5   0   6   31.34   15.39
   5   1 -15    0.56    6.67
   5   1 -14    1.21    6.11
   5   1 -13    3.52    6.05
   5   1 -12   66.26    8.02
   5   1 -11  152.48   10.53
   5   1 -10  171.35   11.01
   5   1 -10  169.63   14.50
   5   1  -9   96.71   10.98
   5   1  -9  106.25    8.55
   5   1  -8   63.01    8.80
   5   1  -7   23.41    6.95
   5   1  -6    1.41    5.48
   5   1  -5   33.84    7.07
   5   1  -4   77.54    8.99
   5   1  -3  198.26   13.56
   5   1  -2  346.72   18.95
   5   1  -1  469.39   23.24
   5   1   0  204.12   12.88
   5   1   1   35.27    7.41
   5   1   1   31.14    6.55
   5   1   2    8.43    6.95
   5   1   2    6.83    6.22
   5   1   3   -2.34    7.29
   5   1   3    1.99    7.12
   5   1   4   38.63    9.10
   5   1   4   22.57    8.81
   5   1   4   52.55   13.53
   5   1   5   53.39   10.39
   5   1   5   20.86    9.46
   5   1   5   38.49   14.50
   5   1   6   40.40   10.98
   5   1   7   40.91   12.00
   5   2 -15    5.98    6.97
   5   2 -14    3.02    6.62
   5   2 -13    6.09    6.59
   5   2 -12   22.89    6.92
   5   2 -11  103.48    9.80
   5   2 -10  117.15   10.52
   5   2 -10  116.57   12.64
   5   2  -9   82.00   10.65
   5   2  -8   78.62   10.20
   5   2  -7   51.64    8.73
   5   2  -6   11.57    6.46
   5   2  -5   -4.83    6.58
   5   2  -4   55.94    8.37
   5   2  -3  127.57   11.00
   5   2  -2  280.90   16.70
   5   2  -1  374.36   19.85
   5   2  -1  363.33   18.69
   5   2   0  173.45   11.94
   5   2   0  221.77   13.19
   5   2   1   52.67    8.61
   5   2   1   68.84    9.15
   5   2   2    5.17    7.67
   5   2   2    3.09    7.03
   5   2   3   -3.17    8.23
   5   2   3   -3.84    7.76
   5   2   4    4.15    9.18
   5   2   4   -5.12    8.44
   5   2   4    4.82   12.46
   5   2   5   27.56   10.69
   5   2   5    9.05    9.27
   5   2   6   50.83   12.59
   5   2   6   31.69   10.80
   5   2   7   62.14   13.92
   5   2   7   26.36   10.90
   5   2   8   55.51   15.83
   5   3 -14   15.76    7.42
   5   3 -13    1.78    7.15
   5   3 -12    3.45    6.57
   5   3 -11   15.34    7.43
   5   3 -10   41.32    8.63
   5   3  -9   39.21    9.42
   5   3  -8   74.21   10.73
   5   3  -7  107.95   11.74
   5   3  -6  108.87   11.40
   5   3  -5   56.81    8.83
   5   3  -4    0.87    6.23
   5   3  -3    3.62    6.42
   5   3  -2   64.02    8.92
   5   3  -2   57.51    7.43
   5   3  -1  127.08   11.12
   5   3  -1  130.41   10.43
   5   3   0  118.49   10.27
   5   3   0  137.13   11.43
   5   3   1   51.71    9.63
   5   3   1   80.54   10.48
   5   3   2   46.05   10.10
   5   3   2   37.60    9.58
   5   3   3   43.32   10.57
   5   3   3   23.61    9.32
   5   3   4   35.89   11.50
   5   3   4   13.62    9.79
   5   3   5   10.67   12.26
   5   3   5   -1.51    9.61
   5   3   6    6.21   12.85
   5   3   7    0.99   14.34
   5   4 -14   18.78    8.26
   5   4 -13   15.94    8.36
   5   4 -12    6.62    8.01
   5   4 -11    5.41    7.69
   5   4  -8   11.28    8.68
   5   4  -7   65.03   10.85
   5   4  -6  122.47   13.02
   5   4  -5  116.12   12.53
   5   4  -4   64.57   10.17
   5   4  -3   33.70    8.48
   5   4  -2    0.48    6.15
   5   4  -2    0.59    7.05
   5   4  -1   13.55    7.25
   5   4  -1    1.09    6.99
   5   4   0   14.09    8.47
   5   4   0   22.01    7.34
   5   4   1   43.72   10.18
   5   4   1   21.49    5.81
   5   4   1   40.90    9.69
   5   4   2   49.57   11.19
   5   4   2   29.17   10.24
   5   4   3   78.09   13.22
   5   4   3   27.21   10.95
   5   4   4   69.24   14.56
   5   4   4   45.70   12.03
   5   4   5    5.60   13.52
   5   4   6  -16.08   14.91
   5   5 -13    9.55    8.87
   5   5 -12    4.87    8.58
   5   5 -11    7.55    9.23
   5   5  -7   21.13    9.68
   5   5  -6   68.14   11.75
   5   5  -5   72.25   11.71
   5   5  -4   42.13   10.11
   5   5  -3   22.54    8.97
   5   5  -2   13.23    6.78
   5   5  -2   18.73    8.59
   5   5  -1   -7.71    8.12
   5   5  -1    0.32    7.73
   5   5   0   -5.02    9.49
   5   5   0   -1.63    7.41
   5   5   1   39.35   11.17
   5   5   1    6.95    6.43
   5   5   2   33.66   12.47
   5   5   3   51.93   14.45
   5   5   4   34.71   15.74
   5   5   5    8.11   15.37
   5   5   6  -31.93   18.23
   5   6 -13    4.30    9.34
   5   6 -12   -0.89    9.66
   5   6  -6   32.64   11.52
   5   6  -5   45.37   11.78
   5   6  -4   26.66   10.58
   5   6  -3    9.72    9.40
   5   6  -2    6.75    7.38
   5   6  -2    9.93    9.47
   5   6  -1   -2.14    9.10
   5   6  -1    1.09    8.48
   5   6   0    3.64   10.54
   5   6   0   -9.77    8.72
   5   6   1   13.42   11.76
   5   6   1    9.60    7.90
   5   6   2   40.71   14.30
   5   6   3    9.05   14.46
   5   6   4    8.33   15.95
   5   7  -5   -5.98   10.76
   5   7  -4   -1.56   10.59
   5   7  -3    4.42   10.22
   5   7  -2   18.61    8.34
   5   7  -2    8.72   10.17
   5   7  -1    2.85   10.19
   5   7  -1    9.73   10.12
   5   7   0   14.60   12.23
   5   7   1    5.88   13.69
   5   7   2  -27.27   16.10
   5   8  -3  -13.24   11.52
   5   8  -1   13.84   10.96
   5   8   0    6.13   12.91
   5   8   1   -0.45   15.03
   6 -13   0   70.94   19.41
   6 -13   1   53.34   17.78
   6 -13   2   20.73   16.04
   6 -13   3   15.74   15.23
   6 -13   4  -17.74   14.21
   6 -12  -3    2.20   17.74
   6 -12  -1    4.70   16.61
   6 -12   0   37.14   16.50
   6 -12   1   40.82   16.19
   6 -12   2   34.48   15.18
   6 -12   3   27.56   14.34
   6 -12   4    8.00   12.64
   6 -11  -7   43.16   11.83
   6 -11  -6   99.90   13.83
   6 -11  -5  128.35   14.67
   6 -11  -5  200.60   23.36
   6 -11  -4  127.25   13.83
   6 -11  -4  123.46   20.41
   6 -11  -3   65.98   11.82
   6 -11  -3   67.23   17.68
   6 -11  -2    5.04    9.32
   6 -11  -2   10.41   14.91
   6 -11  -1    3.46    8.88
   6 -11  -1  -11.38   14.60
   6 -11   0   60.12   11.23
   6 -11   0   36.67   15.04
   6 -11   1   69.18   15.25
   6 -11   2   58.34   14.44
   6 -11   3  101.44   15.55
   6 -11   4  123.22   14.73
   6 -10  -8   -4.00    9.84
   6 -10  -7   37.03   10.53
   6 -10  -7   17.94   17.34
   6 -10  -6   92.51   12.54
   6 -10  -5  211.67   16.39
   6 -10  -4  213.91   16.39
   6 -10  -4  255.61   22.03
   6 -10  -3  154.24   14.00
   6 -10  -3  172.34   18.78
   6 -10  -2  148.89   13.70
   6 -10  -2  168.27   17.83
   6 -10  -1   11.64   12.46
   6 -10  -1   16.72    8.72
   6 -10   0    3.49   11.65
   6 -10   0   11.45    8.35
   6 -10   1   31.82   12.80
   6 -10   2   69.97   13.89
   6 -10   3  181.91   16.54
   6  -9  -9   32.05   10.36
   6  -9  -9   58.91   17.18
   6  -9  -8   20.51    9.60
   6  -9  -8   28.72   15.41
   6  -9  -7   19.92    8.66
   6  -9  -7   11.72   14.34
   6  -9  -6   17.64    8.32
   6  -9  -5   69.94    9.91
   6  -9  -4  122.51   11.38
   6  -9  -4  131.29   15.80
   6  -9  -3  157.41   13.00
   6  -9  -3  187.06   16.90
   6  -9  -2   87.44   10.39
   6  -9  -2   96.53   13.86
   6  -9  -1  119.40   11.52
   6  -9  -1  137.68   15.20
   6  -9   0   30.19   12.17
   6  -9   1    6.39   11.88
   6  -9   2   -7.31   11.25
   6  -8 -11   20.82   15.41
   6  -8 -10   45.32   10.06
   6  -8 -10   56.22   15.72
   6  -8  -9   80.45   11.25
   6  -8  -9  116.28   17.05
   6  -8  -8  191.74   14.70
   6  -8  -8  241.74   19.94
   6  -8  -7   83.75    9.87
   6  -8  -7   99.17   15.06
   6  -8  -6    5.97   11.12
   6  -8  -6    8.76    6.89
   6  -8  -5    8.28    6.57
   6  -8  -4   41.17    7.50
   6  -8  -3   76.18    8.53
   6  -8  -3   74.77   12.05
   6  -8  -2  183.82   12.37
   6  -8  -2  190.80   16.26
   6  -8  -1  221.67   17.54
   6  -8   0  135.58   14.35
   6  -8   1  119.75   13.59
   6  -7 -12    2.12   13.59
   6  -7 -11   20.65    8.66
   6  -7 -11   32.26   14.36
   6  -7 -10  105.31   11.29
   6  -7 -10  160.55   17.16
   6  -7  -9  226.71   15.00
   6  -7  -9  269.78   20.62
   6  -7  -8  258.07   15.26
   6  -7  -8  315.42   20.73
   6  -7  -7  224.58   13.35
   6  -7  -7  272.79   18.81
   6  -7  -6   60.03    7.16
   6  -7  -6   77.16   12.40
   6  -7  -5    0.13    5.18
   6  -7  -4   12.58    5.36
   6  -7  -3   69.71   11.51
   6  -7  -2  236.26   17.12
   6  -7  -1  574.31   29.36
   6  -7   0  541.95   27.85
   6  -6 -13   32.50   14.03
   6  -6 -12   14.72   13.24
   6  -6 -11  -12.99   13.12
   6  -6 -11    4.76    7.39
   6  -6 -10   47.36    7.90
   6  -6 -10   53.78   13.29
   6  -6  -9  114.47    9.34
   6  -6  -9  135.93   14.72
   6  -6  -8  198.00   11.28
   6  -6  -8  266.61   17.92
   6  -6  -7  317.29   15.24
   6  -6  -7  442.44   22.50
   6  -6  -6  234.62   11.72
   6  -6  -6  334.22   19.05
   6  -6  -5   25.43    9.99
   6  -6  -2   39.90    9.63
   6  -6   8   68.25   10.91
   6  -5 -14   29.82   13.24
   6  -5 -13   92.02   15.18
   6  -5 -12   72.18    9.74
   6  -5 -12   99.59   14.84
   6  -5 -11   11.76    7.08
   6  -5 -11   16.59   11.94
   6  -5 -10    1.91   10.63
   6  -5 -10    4.29    5.16
   6  -5  -9   13.21   10.37
   6  -5  -9    3.58    3.95
   6  -5  -8   12.44    2.07
   6  -5  -8   55.75   10.76
   6  -5  -7  121.97   12.85
   6  -5  -6   77.81   10.90
   6  -5  -5  603.00   29.75
   6  -5   7   23.40    9.96
   6  -5   8   18.44   11.22
   6  -5   9   50.85   13.89
   6  -4 -13   47.53    6.53
   6  -4 -12   58.37    6.13
   6  -4 -11   57.44    5.21
   6  -4 -11   67.64    7.47
   6  -4 -10    4.15    2.02
   6  -4 -10    3.35    2.59
   6  -4   5   58.26    5.46
   6  -4   7   81.88   14.19
   6  -4   8   -0.91    9.30
   6  -4   8   29.00   13.41
   6  -3 -13   51.19    5.89
   6  -3 -12   67.35    5.82
   6  -3 -11   35.70    3.27
   6  -3   4  185.23   10.16
   6  -3   5  167.24   11.56
   6  -3   6  171.15   17.24
   6  -3   6   74.89   10.67
   6  -3   7   66.82   11.35
   6  -3   7  133.88   17.94
   6  -3   8   13.71   10.04
   6  -2 -13    6.70    4.81
   6  -2 -12   20.56    4.65
   6  -2  -9   98.56   12.23
   6  -2  -8  203.13   15.98
   6  -2   4   48.39    9.51
   6  -2   4   38.61    6.99
   6  -2   5  120.17   11.97
   6  -2   6  182.96   19.49
   6  -2   6   77.87   12.32
   6  -2   8   47.49   11.78
   6  -1 -13   -8.20    5.36
   6  -1 -12    3.19    4.53
   6  -1  -9  144.98   14.11
   6  -1  -8  224.30   17.02
   6  -1  -7  414.68   24.14
   6  -1  -6  191.42   15.08
   6  -1  -5   28.37    8.31
   6  -1   2  189.42   13.83
   6  -1   3   85.13    9.08
   6  -1   3  104.24   11.29
   6  -1   4    8.21    8.37
   6  -1   4   -1.10    6.84
   6  -1   5   13.31    9.01
   6  -1   5    3.14    8.25
   6  -1   6   13.79    9.62
   6  -1   6   16.68    9.59
   6  -1   7    7.37   10.19
   6   0 -13    6.80    5.53
   6   0 -12    0.94    5.14
   6   0  -9   71.55   10.89
   6   0  -8  268.38   18.48
   6   0  -7  336.86   21.05
   6   0  -6  232.87   16.88
   6   0  -5   82.18   10.98
   6   0  -4   26.19    8.51
   6   0   1  151.95   12.49
   6   0   2  182.91   13.93
   6   0   3  107.04   11.44
   6   0   3  127.08   12.41
   6   0   4   20.95    9.21
   6   0   4   24.64    9.02
   6   0   5  -12.09   10.01
   6   0   5   -5.97    9.50
   6   0   6    2.03   10.23
   6   0   6   -4.71    9.73
   6   0   7   -4.07   11.30
   6   0   7    6.54   10.00
   6   0   8    7.90   10.50
   6   1 -13   18.72    6.68
   6   1  -9   41.63    9.46
   6   1  -8  124.31   13.02
   6   1  -7  249.48   17.97
   6   1  -6  192.48   15.72
   6   1  -5   89.38   11.43
   6   1  -4   36.64    9.13
   6   1  -3   10.33    8.15
   6   1  -2    0.61    7.32
   6   1   0   99.88   10.70
   6   1   1  121.50   12.03
   6   1   2  184.84   14.81
   6   1   3   93.77   12.44
   6   1   3  108.46   12.44
   6   1   4   41.16   10.95
   6   1   4   33.85   10.35
   6   1   5   -1.38   10.13
   6   1   5    0.49    9.76
   6   1   6   -8.37   11.35
   6   1   6   -3.70   10.43
   6   1   7  -12.60   12.66
   6   1   7   11.52   10.83
   6   2  -8   17.11    8.23
   6   2  -7   66.16   10.70
   6   2  -6  100.71   12.32
   6   2  -5   70.62   11.01
   6   2  -4   99.92   12.34
   6   2  -3  102.48   12.59
   6   2  -2   57.31   10.41
   6   2   0    7.39    8.23
   6   2   1   38.31    9.86
   6   2   2   59.85   11.35
   6   2   3   75.42   12.74
   6   2   3   60.47   11.67
   6   2   4   51.70   12.68
   6   2   4   34.99   11.57
   6   2   5   13.83   12.57
   6   2   5   11.25   10.68
   6   2   6   -2.62   13.40
   6   3  -8    8.55    8.54
   6   3  -7   -3.98    8.44
   6   3  -6    2.72    8.53
   6   3  -5   14.90    9.62
   6   3  -4   40.05   10.10
   6   3  -3  120.31   14.01
   6   3  -2  108.04   13.37
   6   3  -1   60.24    9.69
   6   3  -1   53.85   10.09
   6   3   0   11.26    8.99
   6   3   1   15.62    9.54
   6   3   2    3.63   10.51
   6   3   3   17.04   11.98
   6   3   3    1.49    9.49
   6   3   4   15.70   12.62
   6   3   5   14.56   13.37
   6   4  -7   -2.63    9.35
   6   4  -6   -7.30    9.60
   6   4  -5   10.12    9.52
   6   4  -4   30.57   10.27
   6   4  -3   45.88   11.05
   6   4  -2   66.24   12.13
   6   4  -1   49.70    9.76
   6   4  -1   54.85   10.85
   6   4   0   39.08   10.51
   6   4   0   13.08    6.64
   6   4   1    6.22   11.03
   6   4   2  -11.69   12.81
   6   4   3  -12.46   13.91
   6   4   4   -8.61   14.57
   6   4   5  -12.23   15.82
   6   5  -6    0.48    9.82
   6   5  -5   -6.60    9.52
   6   5  -4    5.49    9.89
   6   5  -3   34.31   11.18
   6   5  -2   24.97   10.69
   6   5  -1   33.51   10.07
   6   5  -1   26.53   10.71
   6   5   0   16.34   10.88
   6   5   0   16.03    7.51
   6   5   1   -5.18   12.51
   6   5   2  -16.88   14.36
   6   5   3  -16.23   15.64
   6   6  -5    7.53   10.99
   6   6  -4   -2.06   10.28
   6   6  -3    0.49   10.12
   6   6  -1    8.60   10.05
   6   6   0   17.87   11.76
   6   6   1    2.45   13.67
   6   6   2    3.88   15.27
   6   6   3   -6.63   16.92
   6   7   2    8.32   16.24
   7 -13   3   36.24   14.59
   7 -12  -1  128.76   19.76
   7 -12   0   46.55   16.95
   7 -12   1    9.37   15.10
   7 -12   2   -8.79   13.84
   7 -11  -4   12.90    8.94
   7 -11  -4   31.04   16.59
   7 -11  -3   88.78   17.76
   7 -11  -3   75.25   11.30
   7 -11  -2  162.47   14.57
   7 -11  -2  200.33   20.96
   7 -11  -1  197.21   21.04
   7 -11   0  134.68   18.27
   7 -11   1   66.23   15.79
   7 -10  -6   33.56    8.66
   7 -10  -5   31.18    8.52
   7 -10  -5   46.31   15.49
   7 -10  -4   11.95    7.74
   7 -10  -4   17.32   14.39
   7 -10  -3    2.01    7.31
   7 -10  -3   -3.26   13.70
   7 -10  -2   83.01   15.88
   7 -10  -1  125.96   16.86
   7 -10   0  104.95   16.03
   7 -10   1   86.62   14.72
   7  -9  -8   33.51   15.11
   7  -9  -7   69.86    8.78
   7  -9  -7  125.11   17.28
   7  -9  -6  121.14   10.19
   7  -9  -5   98.95    9.58
   7  -9  -4   90.89    9.05
   7  -9  -4   87.53   15.45
   7  -9  -3   35.23   13.44
   7  -9  -2    2.90   12.63
   7  -9  -1   54.46   12.93
   7  -8  -9    6.35   13.67
   7  -8  -8   28.56    5.97
   7  -8  -8   75.44   14.94
   7  -8  -7  127.98    8.94
   7  -8  -7  213.50   18.48
   7  -8  -6  249.96   12.86
   7  -8  -4  237.73   18.96
   7  -8  -3   91.37   13.89
   7  -8  -2   11.34   10.87
   7  -7 -11   28.17   14.00
   7  -7 -10   31.42   13.55
   7  -7  -9   40.64   13.29
   7  -7  -8    2.53   12.11
   7  -7  -7   62.75   12.95
   7  -7  -6  156.26   15.70
   7  -6 -12   40.52   13.29
   7  -6 -11   93.93   14.86
   7  -6 -10  122.46   15.32
   7  -6  -9  171.28   16.33
   7  -6  -8   91.05   13.25
   7  -6  -7   -7.15   10.00
   7  -2   6   24.69   11.10
   7  -1  -8    2.19    8.79
   7  -1  -7   29.60   10.34
   7  -1   4   53.47   11.31
   7  -1   5   51.61   11.82
   7  -1   5   38.00    9.66
   7   0  -8   -5.00    9.26
   7   0  -7   -3.68    9.28
   7   0  -6   58.18   12.10
   7   0  -5  136.45   15.78
   7   0   3   37.68   11.18
   7   0   4   60.67   12.24
   7   0   5   66.19   13.14
   7   0   5   45.25   11.59
   7   1  -7   30.43   10.80
   7   1  -6    0.47    9.96
   7   1  -5   21.63   11.16
   7   1  -4   46.81   12.05
   7   1   2    8.06   10.33
   7   1   3    7.39   10.70
   7   1   4    8.77   11.44
   7   1   5   31.98   13.12
   7   2  -7   73.73   13.38
   7   2  -6   28.58   11.52
   7   2  -5    7.80   10.79
   7   2  -4   -1.47   10.81
   7   2  -3   15.38   11.03
   7   2   1   76.22   12.66
   7   2   2   43.85   12.40
   7   2   3   12.13   11.80
   7   2   4    6.02   12.63
   7   3  -6   25.87   11.99
   7   3  -5   13.49   11.79
   7   3  -4   11.52   11.67
   7   3  -3    4.22   11.08
   7   3   1   58.13   12.82
   7   3   2   51.95   13.98
   7   3   3   19.42   13.56
   7   4  -6    7.73   11.74
   7   4  -5   -7.21   12.06
   7   4  -4   10.22   12.56
   7   4  -3    1.44   11.81
   7   4   0   10.48   10.84
   7   4   1   21.85   12.49
   7   4   2   42.62   14.81
   7   4   3   32.02   15.51
   7   5  -5    2.92   12.65
   7   5   0    0.67   11.06
   7   5   1   13.06   13.23
   7   5   2   17.83   15.04
   8 -10  -3  136.92   17.61
   8  -9  -5   41.94   13.57
   8  -9  -4  154.94   17.27
   8  -8  -7   17.56   12.14
   8   1  -6   71.53   16.21
   8   2  -6   19.62   15.05
   8   2  -5   66.75   16.63
   0   0   0    0.00    0.00


TITL 4_auto in P1
REM P1 (#1 in standard setting)
CELL 0.71073   7.220913  10.182434  12.134603  93.1100 104.1313 109.6674
ZERR    4.00   0.000426   0.000891   0.000759   0.0060   0.0053   0.0066
LATT -1
SFAC C H N O
UNIT 44.00 40.00 4.00 4.00
REM  CrysAlisPro recorded range (K): Min=100.0; max=100.1; aver:100.0
TEMP -173
TREF
HKLF 4
END
_computing_structure_solution     'SHELXT 2018/2 (Sheldrick, 2018)'
;
_shelx_hkl_checksum              53840
_shelx_fab_file
;
  -10    3    4     -0.34      0.00
  -10    5    6      0.34      0.00
  -10    6    5     -0.29      0.00
   -9    0    7     -0.21      0.00
   -9    0    8      0.47      0.00
   -9    0    9     -0.54      0.00
   -9    1    0     -0.51      0.00
   -9    1    1      0.32      0.00
   -9    1    2     -0.29      0.00
   -9    1    3      0.50      0.00
   -9    1    4     -0.70      0.00
   -9    1    5      0.58      0.00
   -9    1    6     -0.11      0.00
   -9    1    7     -0.44      0.00
   -9    1    8      0.76      0.00
   -9    1    9     -0.73      0.00
    9   -2    2     -0.33      0.00
    9   -2    1      0.36      0.00
   -9    2    0     -0.22      0.00
   -9    2    1      0.11      0.00
   -9    2    2     -0.24      0.00
   -9    2    3      0.54      0.00
   -9    2    4     -0.70      0.00
   -9    2    5      0.47      0.00
   -9    2    6      0.10      0.00
   -9    2    7     -0.66      0.00
   -9    2    8      0.86      0.00
   -9    2    9     -0.67      0.00
    9   -3    2     -0.05      0.00
    9   -3    1     -0.06      0.00
   -9    3    0      0.15      0.00
   -9    3    1     -0.09      0.00
   -9    3    3      0.43      0.00
   -9    3    4     -0.48      0.00
   -9    3    5      0.17      0.00
   -9    3    6      0.36      0.00
   -9    3    7     -0.78      0.00
   -9    3    8      0.84      0.00
   -9    3    9     -0.55      0.00
   -9    4    0      0.28      0.00
   -9    4    1     -0.07      0.00
   -9    4    2     -0.16      0.00
   -9    4    3      0.28      0.00
   -9    4    4     -0.18      0.00
   -9    4    5     -0.16      0.00
   -9    4    6      0.59      0.00
   -9    4    7     -0.86      0.00
   -9    4    8      0.82      0.00
   -9    5    2     -0.15      0.00
   -9    5    3      0.09      0.00
   -9    5    4      0.10      0.00
   -9    5    5     -0.39      0.00
   -9    5    6      0.69      0.00
   -9    5    7     -0.86      0.00
   -9    5    8      0.81      0.00
   -9    6    1      0.00      0.00
   -9    6    2      0.04      0.00
   -9    6    3     -0.14      0.00
   -9    6    4      0.25      0.00
   -9    6    5     -0.39      0.00
   -9    6    6      0.55      0.00
   -9    6    7     -0.68      0.00
   -9    7    1     -0.30      0.00
   -9    7    2      0.36      0.00
   -9    7    3     -0.33      0.00
   -9    7    4      0.20      0.00
   -9    7    5     -0.12      0.00
   -9    7    6      0.17      0.00
   -9    8    0      0.51      0.00
   -9    8    1     -0.61      0.00
   -9    8    2      0.59      0.00
   -9    8    3     -0.34      0.00
   -9    8    4     -0.01      0.00
   -9    8    5      0.25      0.00
   -9    9    0      0.54      0.00
   -9    9    1     -0.67      0.00
   -9    9    2      0.58      0.00
   -9    9    3     -0.24      0.00
   -8   -3    7     -0.25      0.00
   -8   -3    8     -0.15      0.00
   -8   -3    9      0.39      0.00
   -8   -2    2      0.52      0.00
   -8   -2    3     -0.93      0.00
   -8   -2    4      1.18      0.00
   -8   -2    5     -1.09      0.00
   -8   -2    6      0.69      0.00
   -8   -2    7     -0.15      0.00
   -8   -2    8     -0.32      0.00
   -8   -2    9      0.55      0.00
   -8   -2   10     -0.52      0.00
    8    1    1     -0.54      0.00
    8    1    0      0.28      0.00
   -8   -1    1     -0.30      0.00
   -8   -1    2      0.58      0.00
   -8   -1    3     -0.86      0.00
   -8   -1    4      0.91      0.00
   -8   -1    5     -0.66      0.00
   -8   -1    6      0.21      0.00
   -8   -1    7      0.24      0.00
   -8   -1    8     -0.51      0.00
   -8   -1    9      0.50      0.00
   -8   -1   10     -0.32      0.00
   -8   -1   11      0.14      0.00
    8    0    3     -0.92      0.00
    8    0    2      0.72      0.00
    8    0    1     -0.33      0.00
    8    0    0      0.10      0.00
   -8    0    1     -0.16      0.00
   -8    0    2      0.36      0.00
   -8    0    3     -0.44      0.00
   -8    0    4      0.28      0.00
   -8    0    5      0.05      0.00
   -8    0    6     -0.37      0.00
   -8    0    7      0.52      0.00
   -8    0    8     -0.40      0.00
   -8    0    9      0.09      0.00
   -8    0   10      0.17      0.00
    8   -1    4      0.56      0.00
    8   -1    3     -0.56      0.00
    8   -1    2      0.21      0.00
    8   -1    1      0.12      0.00
   -8    1    0     -0.18      0.00
   -8    1    1      0.01      0.00
   -8    1    2      0.12      0.00
   -8    1    3     -0.03      0.00
   -8    1    4     -0.24      0.00
   -8    1    5      0.52      0.00
   -8    1    6     -0.61      0.00
   -8    1    7      0.40      0.00
   -8    1    8      0.05      0.00
   -8    1    9     -0.51      0.00
   -8    1   10      0.71      0.00
    8   -2    6     -0.53      0.00
    8   -2    5      0.08      0.00
    8   -2    4      0.13      0.00
    8   -2    3      0.03      0.00
    8   -2    2     -0.31      0.00
    8   -2    1      0.42      0.00
   -8    2    0     -0.26      0.00
   -8    2    1      0.02      0.00
   -8    2    2      0.06      0.00
   -8    2    3      0.09      0.00
   -8    2    4     -0.34      0.00
   -8    2    5      0.50      0.00
   -8    2    6     -0.39      0.00
   -8    2    7     -0.01      0.00
   -8    2    8      0.56      0.00
   -8    2    9     -1.00      0.00
   -8    2   10      1.05      0.00
    8   -3    6     -0.59      0.00
    8   -3    5      0.39      0.00
    8   -3    4     -0.35      0.00
    8   -3    3      0.43      0.00
    8   -3    2     -0.46      0.00
    8   -3    1      0.34      0.00
   -8    3    0     -0.10      0.00
   -8    3    1     -0.08      0.00
   -8    3    2      0.12      0.00
   -8    3    3     -0.03      0.00
   -8    3    4     -0.11      0.00
   -8    3    5      0.17      0.00
   -8    3    6     -0.02      0.00
   -8    3    7     -0.34      0.00
   -8    3    8      0.81      0.00
   -8    3    9     -1.15      0.00
   -8    3   10      1.13      0.00
    8   -4    6     -0.64      0.00
    8   -4    5      0.68      0.00
    8   -4    4     -0.63      0.00
    8   -4    3      0.47      0.00
    8   -4    2     -0.23      0.00
    8   -4    1      0.04      0.00
   -8    4    0      0.07      0.00
   -8    4    1     -0.13      0.00
   -8    4    2      0.18      0.00
   -8    4    3     -0.21      0.00
   -8    4    4      0.19      0.00
   -8    4    5     -0.14      0.00
   -8    4    6      0.16      0.00
   -8    4    7     -0.34      0.00
   -8    4    8      0.66      0.00
   -8    4    9     -0.96      0.00
   -8    4   10      1.00      0.00
    8   -5    6     -0.72      0.00
    8   -5    5      0.91      0.00
    8   -5    4     -0.73      0.00
    8   -5    3      0.29      0.00
    8   -5    2      0.10      0.00
    8   -5    1     -0.22      0.00
   -8    5    0      0.15      0.00
   -8    5    1     -0.11      0.00
   -8    5    2      0.22      0.00
   -8    5    3     -0.36      0.00
   -8    5    4      0.35      0.00
   -8    5    5     -0.16      0.00
   -8    5    6     -0.05      0.00
   -8    5    7      0.07      0.00
   -8    5    8      0.19      0.00
   -8    5    9     -0.56      0.00
   -8    5   10      0.74      0.00
    8   -6    6     -0.84      0.00
    8   -6    5      1.06      0.00
    8   -6    4     -0.73      0.00
    8   -6    3      0.13      0.00
    8   -6    2      0.30      0.00
    8   -6    1     -0.34      0.00
   -8    6    0      0.21      0.00
   -8    6    1     -0.19      0.00
   -8    6    2      0.34      0.00
   -8    6    3     -0.43      0.00
   -8    6    4      0.23      0.00
   -8    6    5      0.21      0.00
   -8    6    6     -0.62      0.00
   -8    6    7      0.70      0.00
   -8    6    8     -0.38      0.00
   -8    6    9     -0.13      0.00
    8   -7    6     -0.90      0.00
    8   -7    5      1.08      0.00
    8   -7    4     -0.69      0.00
    8   -7    3      0.06      0.00
    8   -7    2      0.36      0.00
    8   -7    1     -0.44      0.00
   -8    7    0      0.39      0.00
   -8    7    1     -0.41      0.00
   -8    7    2      0.46      0.00
   -8    7    3     -0.30      0.00
   -8    7    4     -0.18      0.00
   -8    7    5      0.83      0.00
   -8    7    6     -1.28      0.00
   -8    7    7      1.24      0.00
   -8    7    8     -0.76      0.00
    8   -8    6     -0.79      0.00
    8   -8    5      0.91      0.00
    8   -8    4     -0.56      0.00
    8   -8    3      0.01      0.00
    8   -8    2      0.38      0.00
    8   -8    1     -0.55      0.00
   -8    8    0      0.59      0.00
   -8    8    1     -0.58      0.00
   -8    8    2      0.42      0.00
   -8    8    3      0.02      0.00
   -8    8    4     -0.71      0.00
   -8    8    5      1.36      0.00
   -8    8    6     -1.65      0.00
   -8    8    7      1.40      0.00
    8   -9    5      0.59      0.00
    8   -9    4     -0.35      0.00
    8   -9    3     -0.03      0.00
    8   -9    2      0.37      0.00
   -8    9    0      0.61      0.00
   -8    9    1     -0.50      0.00
   -8    9    2      0.18      0.00
   -8    9    3      0.35      0.00
   -8    9    4     -0.98      0.00
   -8    9    5      1.45      0.00
   -8    9    6     -1.51      0.00
   -8   10    1     -0.25      0.00
   -8   10    2     -0.02      0.00
   -8   10    3      0.39      0.00
   -7   -5    7      0.46      0.00
   -7   -4    2     -0.75      0.00
   -7   -4    3      0.56      0.00
   -7   -4    4     -0.22      0.00
   -7   -4    5      0.07      0.00
   -7   -4    6     -0.14      0.00
   -7   -4    7      0.24      0.00
   -7   -4    8     -0.20      0.00
   -7   -4    9      0.12      0.00
    7    3    1      0.05      0.00
    7    3    0     -0.17      0.00
   -7   -3    1      0.43      0.00
   -7   -3    2     -0.50      0.00
   -7   -3    3      0.27      0.00
   -7   -3    4      0.06      0.00
   -7   -3    5     -0.21      0.00
   -7   -3    6      0.16      0.00
   -7   -3    7     -0.06      0.00
   -7   -3    8      0.01      0.00
   -7   -3    9      0.09      0.00
   -7   -3   10     -0.34      0.00
   -7   -3   11      0.63      0.00
    7    2    3      0.25      0.00
    7    2    2      0.28      0.00
    7    2    1     -0.56      0.00
    7    2    0      0.45      0.00
   -7   -2    1     -0.19      0.00
   -7   -2    2      0.08      0.00
   -7   -2    3     -0.22      0.00
   -7   -2    4      0.41      0.00
   -7   -2    5     -0.42      0.00
   -7   -2    6      0.23      0.00
   -7   -2    7      0.01      0.00
   -7   -2    8     -0.20      0.00
   -7   -2    9      0.38      0.00
   -7   -2   10     -0.63      0.00
   -7   -2   11      0.87      0.00
    7    1    5      0.66      0.00
    7    1    4     -0.33      0.00
    7    1    3     -0.34      0.00
    7    1    2      0.98      0.00
    7    1    1     -1.24      0.00
    7    1    0      1.08      0.00
   -7   -1    1     -0.75      0.00
   -7   -1    2      0.52      0.00
   -7   -1    3     -0.47      0.00
   -7   -1    4      0.42      0.00
   -7   -1    5     -0.21      0.00
   -7   -1    6     -0.17      0.00
   -7   -1    7      0.50      0.00
   -7   -1    8     -0.64      0.00
   -7   -1    9      0.64      0.00
   -7   -1   10     -0.68      0.00
   -7   -1   11      0.79      0.00
    7    0    6     -0.74      0.00
    7    0    5      0.55      0.00
    7    0    4      0.03      0.00
    7    0    3     -0.74      0.00
    7    0    2      1.25      0.00
    7    0    1     -1.40      0.00
    7    0    0      1.20      0.00
   -7    0    1     -0.85      0.00
   -7    0    2      0.55      0.00
   -7    0    3     -0.33      0.00
   -7    0    4      0.08      0.00
   -7    0    5      0.32      0.00
   -7    0    6     -0.75      0.00
   -7    0    7      0.97      0.00
   -7    0    8     -0.81      0.00
   -7    0    9      0.43      0.00
   -7    0   10     -0.19      0.00
   -7    0   11      0.24      0.00
   -7    0   12     -0.43      0.00
    7   -1    7      1.03      0.00
    7   -1    6     -0.92      0.00
    7   -1    5      0.48      0.00
    7   -1    4      0.09      0.00
    7   -1    3     -0.56      0.00
    7   -1    2      0.82      0.00
    7   -1    1     -0.88      0.00
   -7    1    0      0.76      0.00
   -7    1    1     -0.54      0.00
   -7    1    2      0.29      0.00
   -7    1    3     -0.04      0.00
   -7    1    4     -0.30      0.00
   -7    1    5      0.73      0.00
   -7    1    6     -1.05      0.00
   -7    1    7      0.96      0.00
   -7    1    8     -0.39      0.00
   -7    1    9     -0.33      0.00
   -7    1   10      0.71      0.00
   -7    1   11     -0.58      0.00
   -7    1   12      0.17      0.00
    7   -2    8     -1.27      0.00
    7   -2    7      1.32      0.00
    7   -2    6     -0.99      0.00
    7   -2    5      0.53      0.00
    7   -2    4     -0.21      0.00
    7   -2    3      0.07      0.00
    7   -2    2      0.00      0.00
    7   -2    1     -0.09      0.00
   -7    2    0      0.16      0.00
   -7    2    1     -0.15      0.00
   -7    2    2      0.04      0.00
   -7    2    3      0.15      0.00
   -7    2    4     -0.44      0.00
   -7    2    5      0.76      0.00
   -7    2    6     -0.84      0.00
   -7    2    7      0.45      0.00
   -7    2    8      0.37      0.00
   -7    2    9     -1.19      0.00
   -7    2   10      1.52      0.00
   -7    2   11     -1.23      0.00
   -7    2   12      0.65      0.00
    7   -3    8     -1.34      0.00
    7   -3    7      1.22      0.00
    7   -3    6     -0.89      0.00
    7   -3    5      0.65      0.00
    7   -3    4     -0.62      0.00
    7   -3    3      0.68      0.00
    7   -3    2     -0.63      0.00
    7   -3    1      0.44      0.00
   -7    3    0     -0.24      0.00
   -7    3    1      0.14      0.00
   -7    3    2     -0.13      0.00
   -7    3    3      0.20      0.00
   -7    3    4     -0.33      0.00
   -7    3    5      0.44      0.00
   -7    3    6     -0.33      0.00
   -7    3    7     -0.14      0.00
   -7    3    8      0.89      0.00
   -7    3    9     -1.54      0.00
   -7    3   10      1.73      0.00
   -7    3   11     -1.39      0.00
   -7    3   12      0.81      0.00
    7   -4    8     -0.85      0.00
    7   -4    7      0.76      0.00
    7   -4    6     -0.69      0.00
    7   -4    5      0.75      0.00
    7   -4    4     -0.88      0.00
    7   -4    3      0.92      0.00
    7   -4    2     -0.81      0.00
    7   -4    1      0.63      0.00
   -7    4    0     -0.48      0.00
   -7    4    1      0.39      0.00
   -7    4    2     -0.28      0.00
   -7    4    3      0.16      0.00
   -7    4    4     -0.07      0.00
   -7    4    5      0.01      0.00
   -7    4    6      0.09      0.00
   -7    4    7     -0.35      0.00
   -7    4    8      0.75      0.00
   -7    4    9     -1.11      0.00
   -7    4   10      1.23      0.00
   -7    4   11     -1.03      0.00
   -7    4   12      0.64      0.00
    7   -5    8     -0.08      0.00
    7   -5    7      0.22      0.00
    7   -5    6     -0.53      0.00
    7   -5    5      0.83      0.00
    7   -5    4     -0.95      0.00
    7   -5    3      0.88      0.00
    7   -5    2     -0.75      0.00
    7   -5    1      0.70      0.00
   -7    5    0     -0.70      0.00
   -7    5    1      0.63      0.00
   -7    5    2     -0.39      0.00
   -7    5    3      0.05      0.00
   -7    5    4      0.21      0.00
   -7    5    5     -0.28      0.00
   -7    5    6      0.15      0.00
   -7    5    7      0.01      0.00
   -7    5    8     -0.02      0.00
   -7    5    9     -0.16      0.00
   -7    5   10      0.38      0.00
   -7    5   11     -0.45      0.00
    7   -6    8      0.53      0.00
    7   -6    7     -0.10      0.00
    7   -6    6     -0.51      0.00
    7   -6    5      0.93      0.00
    7   -6    4     -0.99      0.00
    7   -6    3      0.83      0.00
    7   -6    2     -0.74      0.00
    7   -6    1      0.79      0.00
   -7    6    0     -0.84      0.00
   -7    6    1      0.71      0.00
   -7    6    2     -0.34      0.00
   -7    6    3     -0.09      0.00
   -7    6    4      0.35      0.00
   -7    6    5     -0.24      0.00
   -7    6    6     -0.20      0.00
   -7    6    7      0.70      0.00
   -7    6    8     -0.92      0.00
   -7    6    9      0.72      0.00
   -7    6   10     -0.30      0.00
   -7    6   11     -0.01      0.00
    7   -7    7     -0.10      0.00
    7   -7    6     -0.62      0.00
    7   -7    5      1.04      0.00
    7   -7    4     -1.04      0.00
    7   -7    3      0.86      0.00
    7   -7    2     -0.75      0.00
    7   -7    1      0.76      0.00
   -7    7    0     -0.72      0.00
   -7    7    1      0.52      0.00
   -7    7    2     -0.17      0.00
   -7    7    3     -0.13      0.00
   -7    7    4      0.18      0.00
   -7    7    5      0.15      0.00
   -7    7    6     -0.75      0.00
   -7    7    7      1.29      0.00
   -7    7    8     -1.40      0.00
   -7    7    9      1.03      0.00
   -7    7   10     -0.46      0.00
    7   -8    7      0.09      0.00
    7   -8    6     -0.71      0.00
    7   -8    5      1.04      0.00
    7   -8    4     -1.01      0.00
    7   -8    3      0.80      0.00
    7   -8    2     -0.60      0.00
    7   -8    1      0.46      0.00
   -7    8    0     -0.33      0.00
   -7    8    1      0.20      0.00
   -7    8    2     -0.09      0.00
   -7    8    3      0.06      0.00
   -7    8    4     -0.22      0.00
   -7    8    5      0.62      0.00
   -7    8    6     -1.13      0.00
   -7    8    7      1.42      0.00
   -7    8    8     -1.27      0.00
   -7    8    9      0.75      0.00
    7   -9    6     -0.64      0.00
    7   -9    5      0.86      0.00
    7   -9    4     -0.82      0.00
    7   -9    3      0.57      0.00
    7   -9    2     -0.25      0.00
    7   -9    1      0.00      0.00
   -7    9    0      0.08      0.00
   -7    9    1      0.01      0.00
   -7    9    3      0.35      0.00
   -7    9    4     -0.56      0.00
   -7    9    5      0.85      0.00
   -7    9    6     -1.11      0.00
   -7    9    7      1.12      0.00
   -7    9    8     -0.79      0.00
    7  -10    6     -0.41      0.00
    7  -10    5      0.56      0.00
    7  -10    4     -0.52      0.00
    7  -10    3      0.25      0.00
    7  -10    2      0.12      0.00
    7  -10    1     -0.34      0.00
   -7   10    0      0.27      0.00
   -7   10    3      0.43      0.00
   -7   10    4     -0.52      0.00
   -7   10    5      0.66      0.00
   -7   10    6     -0.78      0.00
    7  -11    4     -0.29      0.00
    7  -11    3      0.03      0.00
    7  -11    2      0.30      0.00
    7  -11    1     -0.42      0.00
   -7   11    0      0.22      0.00
    7  -12    3     -0.05      0.00
    7  -12    2      0.28      0.00
    7  -12    1     -0.29      0.00
   -6   -6    3     -0.23      0.00
   -6   -6    6      0.52      0.00
   -6   -6    7     -0.23      0.00
   -6   -6    8      0.17      0.00
    6    5    1     -0.70      0.00
    6    5    0      0.36      0.00
   -6   -5    1      0.02      0.00
   -6   -5    2     -0.15      0.00
   -6   -5    3     -0.03      0.00
   -6   -5    4      0.24      0.00
   -6   -5    5     -0.19      0.00
   -6   -5    6     -0.09      0.00
   -6   -5    7      0.24      0.00
   -6   -5    8     -0.06      0.00
   -6   -5    9     -0.21      0.00
   -6   -5   10      0.24      0.00
    6    4    3     -0.36      0.00
    6    4    2      0.27      0.00
    6    4    1     -0.06      0.00
    6    4    0     -0.24      0.00
   -6   -4    1      0.46      0.00
   -6   -4    2     -0.43      0.00
   -6   -4    3      0.20      0.00
   -6   -4    4     -0.08      0.00
   -6   -4    5      0.23      0.00
   -6   -4    6     -0.45      0.00
   -6   -4    7      0.40      0.00
   -6   -4    8     -0.01      0.00
   -6   -4    9     -0.37      0.00
   -6   -4   10      0.40      0.00
    6    3    5      0.06      0.00
    6    3    4     -0.13      0.00
    6    3    3      0.25      0.00
    6    3    2     -0.36      0.00
    6    3    1      0.47      0.00
    6    3    0     -0.57      0.00
   -6   -3    1      0.55      0.00
   -6   -3    2     -0.35      0.00
   -6   -3    3      0.12      0.00
   -6   -3    4     -0.10      0.00
   -6   -3    5      0.32      0.00
   -6   -3    6     -0.49      0.00
   -6   -3    7      0.32      0.00
   -6   -3    8      0.13      0.00
   -6   -3    9     -0.49      0.00
   -6   -3   10      0.45      0.00
   -6   -3   11     -0.10      0.00
   -6   -3   12     -0.22      0.00
    6    2    6     -0.04      0.00
    6    2    5      0.26      0.00
    6    2    4     -0.49      0.00
    6    2    3      0.59      0.00
    6    2    2     -0.52      0.00
    6    2    1      0.35      0.00
    6    2    0     -0.19      0.00
   -6   -2    1      0.02      0.00
   -6   -2    2      0.15      0.00
   -6   -2    3     -0.20      0.00
   -6   -2    4      0.04      0.00
   -6   -2    5      0.28      0.00
   -6   -2    6     -0.50      0.00
   -6   -2    7      0.39      0.00
   -6   -2    8     -0.03      0.00
   -6   -2    9     -0.26      0.00
   -6   -2   10      0.20      0.00
   -6   -2   11      0.14      0.00
   -6   -2   12     -0.42      0.00
    6    1    7     -0.32      0.00
    6    1    6      0.02      0.00
    6    1    5      0.33      0.00
    6    1    4     -0.54      0.00
    6    1    3      0.45      0.00
    6    1    2     -0.08      0.00
    6    1    1     -0.36      0.00
    6    1    0      0.67      0.00
   -6   -1    1     -0.75      0.00
   -6   -1    2      0.66      0.00
   -6   -1    3     -0.44      0.00
   -6   -1    4      0.07      0.00
   -6   -1    5      0.39      0.00
   -6   -1    6     -0.74      0.00
   -6   -1    7      0.77      0.00
   -6   -1    8     -0.49      0.00
   -6   -1    9      0.19      0.00
   -6   -1   10     -0.16      0.00
   -6   -1   11      0.39      0.00
   -6   -1   12     -0.60      0.00
   -6   -1   13      0.56      0.00
    6    0    8      0.54      0.00
    6    0    7     -0.29      0.00
    6    0    6     -0.02      0.00
    6    0    4     -0.36      0.00
    6    0    3      0.08      0.00
    6    0    2      0.48      0.00
    6    0    1     -1.05      0.00
    6    0    0      1.32      0.00
   -6    0    1     -1.20      0.00
   -6    0    2      0.84      0.00
   -6    0    3     -0.40      0.00
   -6    0    4     -0.10      0.00
   -6    0    5      0.66      0.00
   -6    0    6     -1.12      0.00
   -6    0    7      1.20      0.00
   -6    0    8     -0.85      0.00
   -6    0    9      0.37      0.00
   -6    0   10     -0.15      0.00
   -6    0   11      0.29      0.00
   -6    0   12     -0.50      0.00
   -6    0   13      0.51      0.00
    6   -1    9     -0.41      0.00
    6   -1    8      0.15      0.00
    6   -1    7      0.06      0.00
    6   -1    6     -0.17      0.00
    6   -1    5      0.23      0.00
    6   -1    4     -0.21      0.00
    6   -1    3     -0.08      0.00
    6   -1    2      0.64      0.00
    6   -1    1     -1.20      0.00
   -6    1    0      1.40      0.00
   -6    1    1     -1.17      0.00
   -6    1    2      0.71      0.00
   -6    1    3     -0.21      0.00
   -6    1    4     -0.32      0.00
   -6    1    5      0.89      0.00
   -6    1    6     -1.30      0.00
   -6    1    7      1.21      0.00
   -6    1    8     -0.60      0.00
   -6    1    9     -0.11      0.00
   -6    1   10      0.43      0.00
   -6    1   11     -0.24      0.00
   -6    1   12     -0.10      0.00
   -6    1   13      0.25      0.00
    6   -2   10      0.25      0.00
    6   -2    9      0.19      0.00
    6   -2    8     -0.51      0.00
    6   -2    7      0.50      0.00
    6   -2    6     -0.33      0.00
    6   -2    5      0.26      0.00
    6   -2    4     -0.27      0.00
    6   -2    3      0.11      0.00
    6   -2    2      0.35      0.00
    6   -2    1     -0.87      0.00
   -6    2    0      1.09      0.00
   -6    2    1     -0.90      0.00
   -6    2    2      0.48      0.00
   -6    2    3     -0.03      0.00
   -6    2    4     -0.44      0.00
   -6    2    5      0.88      0.00
   -6    2    6     -1.03      0.00
   -6    2    7      0.61      0.00
   -6    2    8      0.27      0.00
   -6    2    9     -1.05      0.00
   -6    2   10      1.23      0.00
   -6    2   11     -0.83      0.00
   -6    2   12      0.30      0.00
   -6    2   13     -0.03      0.00
    6   -3    9      0.76      0.00
    6   -3    8     -0.96      0.00
    6   -3    7      0.73      0.00
    6   -3    6     -0.41      0.00
    6   -3    5      0.34      0.00
    6   -3    4     -0.44      0.00
    6   -3    3      0.39      0.00
    6   -3    2     -0.02      0.00
    6   -3    1     -0.46      0.00
   -6    3    0      0.68      0.00
   -6    3    1     -0.53      0.00
   -6    3    2      0.19      0.00
   -6    3    3      0.18      0.00
   -6    3    4     -0.48      0.00
   -6    3    5      0.60      0.00
   -6    3    6     -0.34      0.00
   -6    3    7     -0.38      0.00
   -6    3    8      1.26      0.00
   -6    3    9     -1.77      0.00
   -6    3   10      1.60      0.00
   -6    3   11     -0.96      0.00
   -6    3   12      0.37      0.00
    6   -4    9      0.86      0.00
    6   -4    8     -0.90      0.00
    6   -4    7      0.62      0.00
    6   -4    6     -0.36      0.00
    6   -4    5      0.36      0.00
    6   -4    4     -0.51      0.00
    6   -4    3      0.50      0.00
    6   -4    2     -0.22      0.00
    6   -4    1     -0.09      0.00
   -6    4    0      0.19      0.00
   -6    4    1     -0.01      0.00
   -6    4    2     -0.27      0.00
   -6    4    3      0.45      0.00
   -6    4    4     -0.42      0.00
   -6    4    5      0.10      0.00
   -6    4    6      0.50      0.00
   -6    4    7     -1.22      0.00
   -6    4    8      1.72      0.00
   -6    4    9     -1.69      0.00
   -6    4   10      1.15      0.00
   -6    4   11     -0.45      0.00
    6   -5    9      0.45      0.00
    6   -5    8     -0.41      0.00
    6   -5    7      0.26      0.00
    6   -5    6     -0.20      0.00
    6   -5    5      0.29      0.00
    6   -5    4     -0.41      0.00
    6   -5    3      0.43      0.00
    6   -5    2     -0.36      0.00
    6   -5    1      0.35      0.00
   -6    5    0     -0.48      0.00
   -6    5    1      0.69      0.00
   -6    5    2     -0.80      0.00
   -6    5    3      0.66      0.00
   -6    5    4     -0.21      0.00
   -6    5    5     -0.46      0.00
   -6    5    6      1.13      0.00
   -6    5    7     -1.49      0.00
   -6    5    8      1.37      0.00
   -6    5    9     -0.83      0.00
   -6    5   10      0.15      0.00
    6   -6    9     -0.13      0.00
    6   -6    8      0.15      0.00
    6   -6    7     -0.08      0.00
    6   -6    6     -0.06      0.00
    6   -6    5      0.19      0.00
    6   -6    4     -0.28      0.00
    6   -6    3      0.40      0.00
    6   -6    2     -0.60      0.00
    6   -6    1      0.89      0.00
   -6    6    0     -1.16      0.00
   -6    6    1      1.29      0.00
   -6    6    2     -1.14      0.00
   -6    6    3      0.65      0.00
   -6    6    4      0.10      0.00
   -6    6    5     -0.86      0.00
   -6    6    6      1.26      0.00
   -6    6    7     -1.12      0.00
   -6    6    8      0.53      0.00
   -6    6    9      0.18      0.00
   -6    6   10     -0.69      0.00
    6   -7    8      0.43      0.00
    6   -7    7     -0.20      0.00
    6   -7    6     -0.02      0.00
    6   -7    5      0.13      0.00
    6   -7    4     -0.21      0.00
    6   -7    3      0.44      0.00
    6   -7    2     -0.84      0.00
    6   -7    1      1.26      0.00
   -6    7    0     -1.51      0.00
   -6    7    1      1.48      0.00
   -6    7    2     -1.13      0.00
   -6    7    3      0.47      0.00
   -6    7    4      0.31      0.00
   -6    7    5     -0.88      0.00
   -6    7    6      0.93      0.00
   -6    7    7     -0.47      0.00
   -6    7    8     -0.18      0.00
   -6    7    9      0.65      0.00
   -6    7   10     -0.85      0.00
    6   -8    8      0.35      0.00
    6   -8    7     -0.12      0.00
    6   -8    6     -0.05      0.00
    6   -8    5      0.08      0.00
    6   -8    4     -0.15      0.00
    6   -8    3      0.41      0.00
    6   -8    2     -0.81      0.00
    6   -8    1      1.17      0.00
   -6    8    0     -1.34      0.00
   -6    8    1      1.26      0.00
   -6    8    2     -0.91      0.00
   -6    8    3      0.32      0.00
   -6    8    4      0.29      0.00
   -6    8    5     -0.60      0.00
   -6    8    6      0.44      0.00
   -6    8    7     -0.01      0.00
   -6    8    8     -0.34      0.00
   -6    8    9      0.43      0.00
    6   -9    7     -0.01      0.00
    6   -9    6     -0.02      0.00
    6   -9    5     -0.03      0.00
    6   -9    4      0.01      0.00
    6   -9    3      0.16      0.00
    6   -9    2     -0.43      0.00
    6   -9    1      0.70      0.00
   -6    9    0     -0.91      0.00
   -6    9    1      0.96      0.00
   -6    9    3      0.31      0.00
   -6    9    4      0.14      0.00
   -6    9    5     -0.31      0.00
   -6    9    6      0.14      0.00
   -6    9    7      0.09      0.00
    6  -10    7     -0.01      0.00
    6  -10    6      0.11      0.00
    6  -10    5     -0.23      0.00
    6  -10    4      0.28      0.00
    6  -10    3     -0.23      0.00
    6  -10    2      0.07      0.00
    6  -10    1      0.22      0.00
   -6   10    0     -0.58      0.00
   -6   10    3      0.32      0.00
   -6   10    4      0.11      0.00
   -6   10    5     -0.24      0.00
   -6   10    6      0.09      0.00
    6  -11    5     -0.42      0.00
    6  -11    4      0.53      0.00
    6  -11    3     -0.55      0.00
    6  -11    2      0.41      0.00
    6  -11    1     -0.01      0.00
   -6   11    0     -0.51      0.00
   -6   11    5     -0.30      0.00
    6  -12    4      0.66      0.00
    6  -12    3     -0.69      0.00
    6  -12    2      0.49      0.00
    6  -12    1     -0.01      0.00
    5    7    0     -0.38      0.00
   -5   -7    1      0.58      0.00
   -5   -7    2     -0.41      0.00
   -5   -7    3     -0.02      0.00
   -5   -7    4      0.40      0.00
   -5   -7    5     -0.46      0.00
   -5   -7    6      0.24      0.00
   -5   -7    7      0.00      0.00
   -5   -7    8     -0.02      0.00
    5    6    0     -0.06      0.00
   -5   -6    1      0.24      0.00
   -5   -6    2     -0.09      0.00
   -5   -6    3     -0.29      0.00
   -5   -6    4      0.57      0.00
   -5   -6    5     -0.51      0.00
   -5   -6    6      0.17      0.00
   -5   -6    7      0.14      0.00
   -5   -6    8     -0.21      0.00
   -5   -6    9      0.07      0.00
   -5   -6   10      0.10      0.00
    5    5    4      0.84      0.00
    5    5    3     -0.90      0.00
    5    5    2      0.66      0.00
    5    5    1     -0.19      0.00
    5    5    0     -0.28      0.00
   -5   -5    1      0.48      0.00
   -5   -5    2     -0.27      0.00
   -5   -5    3     -0.15      0.00
   -5   -5    4      0.41      0.00
   -5   -5    5     -0.29      0.00
   -5   -5    6     -0.07      0.00
   -5   -5    7      0.36      0.00
   -5   -5    8     -0.40      0.00
   -5   -5    9      0.24      0.00
   -5   -5   10      0.00      0.00
   -5   -5   11     -0.25      0.00
   -5   -5   12      0.41      0.00
    5    4    6      0.16      0.00
    5    4    5     -0.62      0.00
    5    4    4      0.87      0.00
    5    4    3     -0.74      0.00
    5    4    2      0.22      0.00
    5    4    1      0.50      0.00
    5    4    0     -1.07      0.00
   -5   -4    1      1.15      0.00
   -5   -4    2     -0.72      0.00
   -5   -4    3      0.12      0.00
   -5   -4    4      0.21      0.00
   -5   -4    5     -0.11      0.00
   -5   -4    6     -0.19      0.00
   -5   -4    7      0.38      0.00
   -5   -4    8     -0.32      0.00
   -5   -4    9      0.08      0.00
   -5   -4   10      0.27      0.00
   -5   -4   11     -0.60      0.00
   -5   -4   12      0.77      0.00
   -5   -4   13     -0.60      0.00
    5    3    7     -0.09      0.00
    5    3    6      0.38      0.00
    5    3    5     -0.65      0.00
    5    3    4      0.67      0.00
    5    3    3     -0.27      0.00
    5    3    2     -0.50      0.00
    5    3    1      1.33      0.00
    5    3    0     -1.79      0.00
   -5   -3    1      1.59      0.00
   -5   -3    2     -0.87      0.00
   -5   -3    3      0.13      0.00
   -5   -3    4      0.22      0.00
   -5   -3    5     -0.13      0.00
   -5   -3    6     -0.13      0.00
   -5   -3    7      0.24      0.00
   -5   -3    8     -0.11      0.00
   -5   -3    9     -0.20      0.00
   -5   -3   10      0.59      0.00
   -5   -3   11     -0.91      0.00
   -5   -3   12      0.99      0.00
   -5   -3   13     -0.73      0.00
    5    2    8      0.55      0.00
    5    2    7     -0.56      0.00
    5    2    6      0.58      0.00
    5    2    5     -0.55      0.00
    5    2    4      0.31      0.00
    5    2    3      0.24      0.00
    5    2    2     -0.99      0.00
    5    2    1      1.61      0.00
    5    2    0     -1.76      0.00
   -5   -2    1      1.32      0.00
   -5   -2    2     -0.55      0.00
   -5   -2    3     -0.10      0.00
   -5   -2    4      0.33      0.00
   -5   -2    5     -0.16      0.00
   -5   -2    6     -0.12      0.00
   -5   -2    7      0.26      0.00
   -5   -2    8     -0.16      0.00
   -5   -2    9     -0.13      0.00
   -5   -2   10      0.48      0.00
   -5   -2   11     -0.74      0.00
   -5   -2   12      0.78      0.00
   -5   -2   13     -0.57      0.00
   -5   -2   14      0.24      0.00
    5    1    9     -1.10      0.00
    5    1    8      1.14      0.00
    5    1    7     -0.98      0.00
    5    1    6      0.73      0.00
    5    1    5     -0.43      0.00
    5    1    4      0.03      0.00
    5    1    3      0.44      0.00
    5    1    2     -0.88      0.00
    5    1    1      1.10      0.00
    5    1    0     -0.99      0.00
   -5   -1    1      0.59      0.00
   -5   -1    2     -0.09      0.00
   -5   -1    3     -0.26      0.00
   -5   -1    4      0.29      0.00
   -5   -1    5     -0.01      0.00
   -5   -1    6     -0.39      0.00
   -5   -1    7      0.66      0.00
   -5   -1    8     -0.66      0.00
   -5   -1    9      0.42      0.00
   -5   -1   10     -0.11      0.00
   -5   -1   11     -0.12      0.00
   -5   -1   12      0.21      0.00
   -5   -1   13     -0.17      0.00
    5    0   10      1.09      0.00
    5    0    9     -1.45      0.00
    5    0    8      1.43      0.00
    5    0    7     -1.16      0.00
    5    0    6      0.78      0.00
    5    0    5     -0.37      0.00
    5    0    4     -0.03      0.00
    5    0    3      0.29      0.00
    5    0    2     -0.33      0.00
    5    0    1      0.20      0.00
    5    0    0     -0.04      0.00
   -5    0    1     -0.07      0.00
   -5    0    2      0.15      0.00
   -5    0    3     -0.19      0.00
   -5    0    4      0.07      0.00
   -5    0    5      0.31      0.00
   -5    0    6     -0.85      0.00
   -5    0    7      1.26      0.00
   -5    0    8     -1.31      0.00
   -5    0    9      1.04      0.00
   -5    0   10     -0.70      0.00
   -5    0   11      0.46      0.00
   -5    0   12     -0.32      0.00
    5   -1   10      1.17      0.00
    5   -1    9     -1.36      0.00
    5   -1    8      1.23      0.00
    5   -1    7     -1.00      0.00
    5   -1    6      0.71      0.00
    5   -1    5     -0.35      0.00
    5   -1    4      0.03      0.00
    5   -1    3      0.03      0.00
    5   -1    2      0.23      0.00
    5   -1    1     -0.55      0.00
   -5    1    0      0.63      0.00
   -5    1    1     -0.45      0.00
   -5    1    2      0.24      0.00
   -5    1    3     -0.11      0.00
   -5    1    4     -0.11      0.00
   -5    1    5      0.60      0.00
   -5    1    6     -1.23      0.00
   -5    1    7      1.61      0.00
   -5    1    8     -1.50      0.00
   -5    1    9      1.07      0.00
   -5    1   10     -0.68      0.00
   -5    1   11      0.52      0.00
    5   -2    9     -0.80      0.00
    5   -2    8      0.62      0.00
    5   -2    7     -0.55      0.00
    5   -2    6      0.47      0.00
    5   -2    5     -0.24      0.00
    5   -2    4      0.01      0.00
    5   -2    3     -0.11      0.00
    5   -2    2      0.58      0.00
    5   -2    1     -1.02      0.00
   -5    2    0      1.06      0.00
   -5    2    1     -0.77      0.00
   -5    2    2      0.44      0.00
   -5    2    3     -0.21      0.00
   -5    2    4     -0.12      0.00
   -5    2    5      0.68      0.00
   -5    2    6     -1.23      0.00
   -5    2    7      1.32      0.00
   -5    2    8     -0.88      0.00
   -5    2    9      0.27      0.00
   -5    2   10      0.01      0.00
   -5    2   11      0.11      0.00
   -5    2   14     -0.35      0.00
    5   -3   10      0.49      0.00
    5   -3    8     -0.08      0.00
    5   -3    7     -0.02      0.00
    5   -3    6      0.11      0.00
    5   -3    5      0.00      0.00
    5   -3    4     -0.10      0.00
    5   -3    3     -0.18      0.00
    5   -3    2      0.81      0.00
    5   -3    1     -1.35      0.00
   -5    3    0      1.42      0.00
   -5    3    1     -1.10      0.00
   -5    3    2      0.71      0.00
   -5    3    3     -0.35      0.00
   -5    3    4     -0.08      0.00
   -5    3    5      0.56      0.00
   -5    3    6     -0.77      0.00
   -5    3    7      0.41      0.00
   -5    3    8      0.34      0.00
   -5    3    9     -0.90      0.00
   -5    3   10      0.83      0.00
   -5    3   13      0.43      0.00
   -5    3   14     -0.32      0.00
    5   -4   10      0.16      0.00
    5   -4    9      0.33      0.00
    5   -4    8     -0.53      0.00
    5   -4    7      0.40      0.00
    5   -4    6     -0.27      0.00
    5   -4    5      0.27      0.00
    5   -4    4     -0.17      0.00
    5   -4    3     -0.30      0.00
    5   -4    2      1.02      0.00
    5   -4    1     -1.54      0.00
   -5    4    0      1.57      0.00
   -5    4    1     -1.21      0.00
   -5    4    2      0.74      0.00
   -5    4    3     -0.28      0.00
   -5    4    4     -0.12      0.00
   -5    4    5      0.32      0.00
   -5    4    6     -0.05      0.00
   -5    4    7     -0.68      0.00
   -5    4    8      1.44      0.00
   -5    4    9     -1.65      0.00
   -5    4   11     -0.25      0.00
   -5    4   12     -0.39      0.00
   -5    4   13      0.52      0.00
   -5    4   14     -0.28      0.00
    5   -5   10      0.13      0.00
    5   -5    9      0.36      0.00
    5   -5    8     -0.62      0.00
    5   -5    7      0.62      0.00
    5   -5    6     -0.54      0.00
    5   -5    5      0.42      0.00
    5   -5    4     -0.12      0.00
    5   -5    3     -0.45      0.00
    5   -5    2      1.07      0.00
    5   -5    1     -1.39      0.00
   -5    5    0      1.27      0.00
   -5    5    1     -0.84      0.00
   -5    5    2      0.35      0.00
   -5    5    3      0.05      0.00
   -5    5    4     -0.23      0.00
   -5    5    5      0.05      0.00
   -5    5    6      0.55      0.00
   -5    5    7     -1.32      0.00
   -5    5    8      1.77      0.00
   -5    5    9     -1.53      0.00
   -5    5   10      0.70      0.00
   -5    5   11      0.23      0.00
   -5    5   12     -0.72      0.00
   -5    5   13      0.66      0.00
    5   -6   10      0.31      0.00
    5   -6    9      0.11      0.00
    5   -6    8     -0.46      0.00
    5   -6    7      0.64      0.00
    5   -6    6     -0.64      0.00
    5   -6    5      0.42      0.00
    5   -6    4     -0.01      0.00
    5   -6    3     -0.49      0.00
    5   -6    2      0.82      0.00
    5   -6    1     -0.83      0.00
   -5    6    0      0.54      0.00
   -5    6    1     -0.12      0.00
   -5    6    2     -0.24      0.00
   -5    6    4     -0.29      0.00
   -5    6    5     -0.13      0.00
   -5    6    6      0.72      0.00
   -5    6    7     -1.21      0.00
   -5    6    8      1.28      0.00
   -5    6    9     -0.81      0.00
   -5    6   10      0.02      0.00
   -5    6   11      0.68      0.00
   -5    6   12     -0.94      0.00
   -5    6   13      0.72      0.00
    5   -7   10      0.47      0.00
    5   -7    9     -0.15      0.00
    5   -7    8     -0.26      0.00
    5   -7    7      0.57      0.00
    5   -7    6     -0.59      0.00
    5   -7    5      0.32      0.00
    5   -7    4      0.09      0.00
    5   -7    3     -0.39      0.00
    5   -7    2      0.39      0.00
    5   -7    1     -0.11      0.00
   -5    7    0     -0.27      0.00
   -5    7    1      0.58      0.00
   -5    7    2     -0.69      0.00
   -5    7    3      0.56      0.00
   -5    7    4     -0.25      0.00
   -5    7    5     -0.15      0.00
   -5    7    6      0.49      0.00
   -5    7    7     -0.64      0.00
   -5    7    8      0.55      0.00
   -5    7    9     -0.21      0.00
   -5    7   10     -0.27      0.00
   -5    7   11      0.70      0.00
   -5    7   12     -0.84      0.00
    5   -8    9     -0.30      0.00
    5   -8    8     -0.09      0.00
    5   -8    7      0.42      0.00
    5   -8    6     -0.45      0.00
    5   -8    5      0.16      0.00
    5   -8    4      0.20      0.00
    5   -8    3     -0.31      0.00
    5   -8    2      0.07      0.00
    5   -8    1      0.40      0.00
   -5    8    0     -0.83      0.00
   -5    8    1      1.02      0.00
   -5    8    2     -0.89      0.00
   -5    8    3      0.51      0.00
   -5    8    4     -0.10      0.00
   -5    8    5     -0.15      0.00
   -5    8    6      0.21      0.00
   -5    8    7     -0.20      0.00
   -5    8    8      0.22      0.00
   -5    8    9     -0.19      0.00
   -5    8   10     -0.01      0.00
   -5    8   11      0.34      0.00
    5   -9    8      0.07      0.00
    5   -9    7      0.24      0.00
    5   -9    6     -0.26      0.00
    5   -9    5     -0.03      0.00
    5   -9    4      0.36      0.00
    5   -9    3     -0.39      0.00
    5   -9    2      0.01      0.00
    5   -9    1      0.62      0.00
   -5    9    0     -1.15      0.00
   -5    9    1      1.30      0.00
   -5    9    2     -0.97      0.00
   -5    9    3      0.36      0.00
   -5    9    4      0.15      0.00
   -5    9    5     -0.32      0.00
   -5    9    6      0.24      0.00
   -5    9    7     -0.23      0.00
   -5    9    8      0.42      0.00
   -5    9    9     -0.59      0.00
   -5    9   10      0.45      0.00
    5  -10    8      0.19      0.00
    5  -10    7      0.09      0.00
    5  -10    6     -0.09      0.00
    5  -10    5     -0.22      0.00
    5  -10    4      0.58      0.00
    5  -10    3     -0.59      0.00
    5  -10    2      0.11      0.00
    5  -10    1      0.70      0.00
   -5   10    0     -1.40      0.00
   -5   10    2     -1.04      0.00
   -5   10    3      0.17      0.00
   -5   10    4      0.50      0.00
   -5   10    5     -0.68      0.00
   -5   10    7     -0.52      0.00
   -5   10    8      0.71      0.00
   -5   10    9     -0.84      0.00
    5  -11    6     -0.01      0.00
    5  -11    5     -0.36      0.00
    5  -11    4      0.77      0.00
    5  -11    3     -0.79      0.00
    5  -11    2      0.21      0.00
    5  -11    1      0.76      0.00
   -5   11    2     -1.05      0.00
   -5   11    3      0.01      0.00
   -5   11    4      0.76      0.00
   -5   11    5     -0.94      0.00
   -5   11    6      0.75      0.00
   -5   11    7     -0.60      0.00
    5  -12    5     -0.45      0.00
    5  -12    4      0.89      0.00
    5  -12    3     -0.89      0.00
    5  -12    2      0.26      0.00
    5  -12    1      0.76      0.00
    5  -13    2      0.27      0.00
   -4   -9    1     -0.15      0.00
   -4   -9    2      0.14      0.00
   -4   -9    3     -0.10      0.00
   -4   -9    4      0.01      0.00
   -4   -9    5      0.06      0.00
   -4   -9    6     -0.09      0.00
   -4   -9    7      0.15      0.00
   -4   -9    8     -0.25      0.00
    4    8    2      0.05      0.00
    4    8    1      0.01      0.00
    4    8    0     -0.02      0.00
   -4   -8    1     -0.06      0.00
   -4   -8    2      0.17      0.00
   -4   -8    3     -0.25      0.00
   -4   -8    4      0.30      0.00
   -4   -8    5     -0.30      0.00
   -4   -8    6      0.24      0.00
   -4   -8    7     -0.09      0.00
   -4   -8    8     -0.13      0.00
    4    7    4     -0.40      0.00
    4    7    3      0.45      0.00
    4    7    2     -0.44      0.00
    4    7    1      0.29      0.00
    4    7    0     -0.03      0.00
   -4   -7    1     -0.20      0.00
   -4   -7    2      0.34      0.00
   -4   -7    3     -0.41      0.00
   -4   -7    4      0.43      0.00
   -4   -7    5     -0.43      0.00
   -4   -7    6      0.34      0.00
   -4   -7    7     -0.14      0.00
   -4   -7    8     -0.15      0.00
   -4   -7    9      0.37      0.00
   -4   -7   10     -0.31      0.00
   -4   -7   11     -0.08      0.00
    4    6    2     -0.52      0.00
    4    6    1      0.19      0.00
    4    6    0      0.15      0.00
   -4   -6    1     -0.31      0.00
   -4   -6    2      0.29      0.00
   -4   -6    3     -0.20      0.00
   -4   -6    4      0.14      0.00
   -4   -6    5     -0.13      0.00
   -4   -6    6      0.10      0.00
   -4   -6    7      0.05      0.00
   -4   -6    8     -0.34      0.00
   -4   -6    9      0.57      0.00
   -4   -6   10     -0.48      0.00
   -4   -6   11     -0.05      0.00
   -4   -6   12      0.72      0.00
    4    5    7      0.16      0.00
    4    5    6      0.13      0.00
    4    5    5     -0.05      0.00
    4    5    1     -0.03      0.00
    4    5    0      0.14      0.00
   -4   -5    1     -0.05      0.00
   -4   -5    2     -0.15      0.00
   -4   -5    3      0.33      0.00
   -4   -5    4     -0.39      0.00
   -4   -5    5      0.30      0.00
   -4   -5    6     -0.18      0.00
   -4   -5    7      0.20      0.00
   -4   -5    8     -0.40      0.00
   -4   -5    9      0.59      0.00
   -4   -5   10     -0.41      0.00
   -4   -5   11     -0.22      0.00
   -4   -5   12      0.88      0.00
    4    4    8     -0.25      0.00
    4    4    7     -0.16      0.00
    4    4    6      0.34      0.00
    4    4    5     -0.23      0.00
    4    4    4      0.05      0.00
    4    4    3     -0.02      0.00
    4    4    2      0.06      0.00
    4    4    1      0.00      0.00
    4    4    0     -0.21      0.00
   -4   -4    1      0.46      0.00
   -4   -4    2     -0.63      0.00
   -4   -4    3      0.69      0.00
   -4   -4    4     -0.62      0.00
   -4   -4    5      0.40      0.00
   -4   -4    6     -0.14      0.00
   -4   -4    7      0.02      0.00
   -4   -4    8     -0.12      0.00
   -4   -4    9      0.22      0.00
   -4   -4   10      0.02      0.00
   -4   -4   11     -0.63      0.00
   -4   -4   12      1.10      0.00
   -4   -4   13     -0.91      0.00
    4    3    9      0.14      0.00
    4    3    8      0.16      0.00
    4    3    7     -0.36      0.00
    4    3    6      0.30      0.00
    4    3    5     -0.14      0.00
    4    3    4      0.08      0.00
    4    3    3     -0.09      0.00
    4    3    2     -0.02      0.00
    4    3    1      0.32      0.00
    4    3    0     -0.64      0.00
   -4   -3    1      0.79      0.00
   -4   -3    2     -0.71      0.00
   -4   -3    3      0.54      0.00
   -4   -3    4     -0.33      0.00
   -4   -3    5      0.05      0.00
   -4   -3    6      0.26      0.00
   -4   -3    7     -0.42      0.00
   -4   -3    8      0.36      0.00
   -4   -3    9     -0.28      0.00
   -4   -3   10      0.48      0.00
   -4   -3   11     -0.92      0.00
   -4   -3   12      1.14      0.00
   -4   -3   13     -0.81      0.00
    4    2   10      0.07      0.00
    4    2    9     -0.43      0.00
    4    2    8      0.64      0.00
    4    2    7     -0.49      0.00
    4    2    6      0.12      0.00
    4    2    5      0.15      0.00
    4    2    4     -0.18      0.00
    4    2    3      0.16      0.00
    4    2    2     -0.31      0.00
    4    2    1      0.63      0.00
    4    2    0     -0.84      0.00
   -4   -2    1      0.76      0.00
   -4   -2    2     -0.48      0.00
   -4   -2    3      0.18      0.00
   -4   -2    4      0.08      0.00
   -4   -2    5     -0.34      0.00
   -4   -2    6      0.61      0.00
   -4   -2    7     -0.71      0.00
   -4   -2    8      0.58      0.00
   -4   -2    9     -0.41      0.00
   -4   -2   10      0.45      0.00
   -4   -2   11     -0.67      0.00
   -4   -2   12      0.76      0.00
   -4   -2   13     -0.53      0.00
    4    1   10      0.53      0.00
    4    1    9     -1.08      0.00
    4    1    8      1.16      0.00
    4    1    7     -0.68      0.00
    4    1    6      0.03      0.00
    4    1    5      0.38      0.00
    4    1    4     -0.45      0.00
    4    1    3      0.42      0.00
    4    1    2     -0.53      0.00
    4    1    1      0.74      0.00
    4    1    0     -0.85      0.00
   -4   -1    1      0.73      0.00
   -4   -1    2     -0.46      0.00
   -4   -1    3      0.17      0.00
   -4   -1    4      0.09      0.00
   -4   -1    5     -0.33      0.00
   -4   -1    6      0.50      0.00
   -4   -1    7     -0.45      0.00
   -4   -1    8      0.19      0.00
   -4   -1    9      0.12      0.00
   -4   -1   10     -0.23      0.00
   -4   -1   11      0.13      0.00
   -4   -1   12      0.03      0.00
   -4   -1   14      0.11      0.00
   -4   -1   15     -0.11      0.00
    4    0   10      0.98      0.00
    4    0    9     -1.61      0.00
    4    0    8      1.57      0.00
    4    0    7     -0.95      0.00
    4    0    6      0.19      0.00
    4    0    5      0.30      0.00
    4    0    4     -0.46      0.00
    4    0    3      0.46      0.00
    4    0    2     -0.53      0.00
    4    0    1      0.72      0.00
    4    0    0     -0.92      0.00
   -4    0    1      1.01      0.00
   -4    0    2     -0.90      0.00
   -4    0    3      0.65      0.00
   -4    0    4     -0.33      0.00
   -4    0    5      0.10      0.00
   -4    0    6     -0.08      0.00
   -4    0    7      0.30      0.00
   -4    0    8     -0.68      0.00
   -4    0    9      1.01      0.00
   -4    0   10     -1.12      0.00
   -4    0   11      0.96      0.00
   -4    0   13      0.27      0.00
   -4    0   14     -0.03      0.00
   -4    0   15     -0.03      0.00
    4   -1    9     -1.74      0.00
    4   -1    8      1.66      0.00
    4   -1    7     -1.14      0.00
    4   -1    6      0.50      0.00
    4   -1    5     -0.01      0.00
    4   -1    4     -0.22      0.00
    4   -1    3      0.27      0.00
    4   -1    2     -0.33      0.00
    4   -1    1      0.57      0.00
   -4    1    0     -0.97      0.00
   -4    1    1      1.30      0.00
   -4    1    2     -1.32      0.00
   -4    1    3      1.03      0.00
   -4    1    4     -0.70      0.00
   -4    1    5      0.58      0.00
   -4    1    6     -0.77      0.00
   -4    1    7      1.12      0.00
   -4    1    8     -1.44      0.00
   -4    1    9      1.60      0.00
   -4    1   10     -1.54      0.00
   -4    1   12     -0.84      0.00
   -4    1   13      0.43      0.00
   -4    1   14     -0.21      0.00
   -4    1   15      0.22      0.00
    4   -2    9     -1.41      0.00
    4   -2    8      1.37      0.00
    4   -2    7     -1.09      0.00
    4   -2    6      0.68      0.00
    4   -2    5     -0.27      0.00
    4   -2    4      0.03      0.00
    4   -2    3     -0.04      0.00
    4   -2    2      0.10      0.00
    4   -2    1      0.09      0.00
   -4    2    0     -0.55      0.00
   -4    2    1      0.95      0.00
   -4    2    2     -1.00      0.00
   -4    2    3      0.75      0.00
   -4    2    4     -0.58      0.00
   -4    2    5      0.75      0.00
   -4    2    6     -1.16      0.00
   -4    2    7      1.48      0.00
   -4    2    8     -1.54      0.00
   -4    2   12     -0.57      0.00
   -4    2   13      0.37      0.00
   -4    2   14     -0.33      0.00
   -4    2   15      0.41      0.00
    4   -3   11     -0.48      0.00
    4   -3    9     -0.86      0.00
    4   -3    8      0.85      0.00
    4   -3    7     -0.76      0.00
    4   -3    6      0.53      0.00
    4   -3    5     -0.22      0.00
    4   -3    4      0.14      0.00
    4   -3    3     -0.42      0.00
    4   -3    2      0.79      0.00
    4   -3    1     -0.85      0.00
   -4    3    0      0.55      0.00
   -4    3    1     -0.22      0.00
   -4    3    2      0.13      0.00
   -4    3    3     -0.15      0.00
   -4    3    4     -0.07      0.00
   -4    3    5      0.59      0.00
   -4    3    6     -1.09      0.00
   -4    3    7      1.20      0.00
   -4    3   11      0.14      0.00
   -4    3   12     -0.15      0.00
   -4    3   13      0.20      0.00
   -4    3   14     -0.30      0.00
   -4    3   15      0.38      0.00
    4   -4   11     -0.57      0.00
    4   -4   10      0.58      0.00
    4   -4    9     -0.42      0.00
    4   -4    8      0.32      0.00
    4   -4    7     -0.23      0.00
    4   -4    6      0.03      0.00
    4   -4    5      0.13      0.00
    4   -4    4      0.08      0.00
    4   -4    3     -0.76      0.00
    4   -4    2      1.54      0.00
    4   -4    1     -1.94      0.00
   -4    4    0      1.88      0.00
   -4    4    1     -1.62      0.00
   -4    4    2      1.36      0.00
   -4    4    3     -1.00      0.00
   -4    4    4      0.38      0.00
   -4    4    5      0.33      0.00
   -4    4    6     -0.71      0.00
   -4    4    7      0.53      0.00
   -4    4    9     -0.45      0.00
   -4    4   10      0.52      0.00
   -4    4   11     -0.33      0.00
   -4    4   12      0.09      0.00
   -4    4   13      0.05      0.00
   -4    4   14     -0.13      0.00
    4   -5   11     -0.77      0.00
    4   -5   10      0.59      0.00
    4   -5    9     -0.23      0.00
    4   -5    8     -0.09      0.00
    4   -5    7      0.36      0.00
    4   -5    6     -0.61      0.00
    4   -5    5      0.63      0.00
    4   -5    4     -0.13      0.00
    4   -5    3     -0.87      0.00
    4   -5    2      1.91      0.00
    4   -5    1     -2.54      0.00
   -4    5    0      2.63      0.00
   -4    5    1     -2.37      0.00
   -4    5    2      1.91      0.00
   -4    5    4      0.47      0.00
   -4    5    5      0.19      0.00
   -4    5    6     -0.35      0.00
   -4    5    7     -0.01      0.00
   -4    5    8      0.55      0.00
   -4    5    9     -0.81      0.00
   -4    5   10      0.66      0.00
   -4    5   11     -0.32      0.00
   -4    5   12      0.09      0.00
   -4    5   13     -0.06      0.00
   -4    5   14      0.12      0.00
    4   -6   11     -0.96      0.00
    4   -6   10      0.67      0.00
    4   -6    9     -0.14      0.00
    4   -6    8     -0.39      0.00
    4   -6    7      0.85      0.00
    4   -6    6     -1.15      0.00
    4   -6    5      1.08      0.00
    4   -6    4     -0.46      0.00
    4   -6    3     -0.59      0.00
    4   -6    2      1.64      0.00
    4   -6    1     -2.27      0.00
   -4    6    0      2.39      0.00
   -4    6    1     -2.11      0.00
   -4    6    2      1.59      0.00
   -4    6    3     -0.91      0.00
   -4    6    4      0.21      0.00
   -4    6    5      0.24      0.00
   -4    6    6     -0.25      0.00
   -4    6    7     -0.10      0.00
   -4    6    8      0.49      0.00
   -4    6    9     -0.59      0.00
   -4    6   10      0.36      0.00
   -4    6   11     -0.07      0.00
   -4    6   12      0.00      0.00
   -4    6   13     -0.18      0.00
   -4    6   14      0.39      0.00
    4   -7   11     -0.89      0.00
    4   -7   10      0.58      0.00
    4   -7    9     -0.03      0.00
    4   -7    8     -0.56      0.00
    4   -7    7      1.08      0.00
    4   -7    6     -1.39      0.00
    4   -7    5      1.31      0.00
    4   -7    4     -0.76      0.00
    4   -7    3     -0.11      0.00
    4   -7    2      0.93      0.00
    4   -7    1     -1.40      0.00
   -4    7    0      1.44      0.00
   -4    7    1     -1.17      0.00
   -4    7    2      0.76      0.00
   -4    7    3     -0.31      0.00
   -4    7    4     -0.09      0.00
   -4    7    5      0.33      0.00
   -4    7    6     -0.31      0.00
   -4    7    7      0.06      0.00
   -4    7    8      0.21      0.00
   -4    7    9     -0.28      0.00
   -4    7   10      0.12      0.00
   -4    7   11      0.05      0.00
   -4    7   12      0.00      0.00
   -4    7   13     -0.30      0.00
    4   -8   10      0.30      0.00
    4   -8    9      0.07      0.00
    4   -8    8     -0.51      0.00
    4   -8    7      0.95      0.00
    4   -8    6     -1.24      0.00
    4   -8    5      1.20      0.00
    4   -8    4     -0.79      0.00
    4   -8    3      0.18      0.00
    4   -8    2      0.32      0.00
    4   -8    1     -0.48      0.00
   -4    8    0      0.32      0.00
   -4    8    1     -0.07      0.00
   -4    8    2     -0.08      0.00
   -4    8    3      0.11      0.00
   -4    8    4     -0.12      0.00
   -4    8    5      0.17      0.00
   -4    8    6     -0.16      0.00
   -4    8    7     -0.02      0.00
   -4    8    8      0.28      0.00
   -4    8    9     -0.40      0.00
   -4    8   10      0.27      0.00
   -4    8   11     -0.06      0.00
   -4    8   12      0.06      0.00
    4   -9    9     -0.02      0.00
    4   -9    8     -0.19      0.00
    4   -9    7      0.51      0.00
    4   -9    6     -0.77      0.00
    4   -9    5      0.77      0.00
    4   -9    4     -0.45      0.00
    4   -9    3      0.03      0.00
    4   -9    2      0.12      0.00
    4   -9    1      0.13      0.00
   -4    9    0     -0.58      0.00
   -4    9    1      0.82      0.00
   -4    9    2     -0.62      0.00
   -4    9    3      0.14      0.00
   -4    9    4      0.26      0.00
   -4    9    5     -0.40      0.00
   -4    9    6      0.43      0.00
   -4    9    7     -0.58      0.00
   -4    9    8      0.82      0.00
   -4    9    9     -0.89      0.00
   -4    9   10      0.63      0.00
   -4    9   11     -0.23      0.00
    4  -10    8      0.29      0.00
    4  -10    7      0.00      0.00
    4  -10    6     -0.27      0.00
    4  -10    5      0.24      0.00
    4  -10    4      0.10      0.00
    4  -10    3     -0.41      0.00
    4  -10    2      0.25      0.00
    4  -10    1      0.43      0.00
   -4   10    0     -1.15      0.00
   -4   10    1      1.34      0.00
   -4   10    2     -0.78      0.00
   -4   10    3     -0.15      0.00
   -4   10    4      0.88      0.00
   -4   10    5     -1.16      0.00
   -4   10    6      1.19      0.00
   -4   10    7     -1.27      0.00
   -4   10    8      1.38      0.00
   -4   10    9     -1.27      0.00
   -4   10   10      0.80      0.00
    4  -11    7     -0.25      0.00
    4  -11    6     -0.03      0.00
    4  -11    5     -0.10      0.00
    4  -11    4      0.54      0.00
    4  -11    3     -0.80      0.00
    4  -11    2      0.42      0.00
    4  -11    1      0.53      0.00
   -4   11    2     -0.66      0.00
   -4   11    3     -0.48      0.00
   -4   11    4      1.32      0.00
   -4   11    5     -1.60      0.00
   -4   11    7     -1.50      0.00
   -4   11    8      1.41      0.00
    4  -12    5     -0.14      0.00
    4  -12    4      0.69      0.00
    4  -12    3     -0.94      0.00
    4  -12    2      0.48      0.00
   -4   12    2     -0.43      0.00
   -4   12    3     -0.58      0.00
   -3  -11    4     -0.69      0.00
   -3  -11    5      0.64      0.00
    3   10    1     -0.93      0.00
    3   10    0      0.80      0.00
   -3  -10    1     -0.63      0.00
   -3  -10    2      0.24      0.00
   -3  -10    3      0.30      0.00
   -3  -10    4     -0.65      0.00
   -3  -10    5      0.50      0.00
   -3  -10    6      0.00      0.00
   -3  -10    7     -0.43      0.00
   -3  -10    8      0.48      0.00
   -3  -10    9     -0.22      0.00
    3    9    3     -0.70      0.00
    3    9    2      0.76      0.00
    3    9    1     -0.80      0.00
    3    9    0      0.91      0.00
   -3   -9    1     -0.89      0.00
   -3   -9    2      0.53      0.00
   -3   -9    3     -0.01      0.00
   -3   -9    4     -0.24      0.00
   -3   -9    5     -0.02      0.00
   -3   -9    6      0.56      0.00
   -3   -9    7     -0.90      0.00
   -3   -9    8      0.77      0.00
    3    8    5      0.47      0.00
    3    8    4     -0.22      0.00
    3    8    3      0.18      0.00
    3    8    2     -0.09      0.00
    3    8    1     -0.28      0.00
    3    8    0      0.81      0.00
   -3   -8    1     -1.10      0.00
   -3   -8    2      0.90      0.00
   -3   -8    3     -0.48      0.00
   -3   -8    4      0.31      0.00
   -3   -8    5     -0.59      0.00
   -3   -8    6      1.05      0.00
   -3   -8    7     -1.23      0.00
   -3   -8    8      0.92      0.00
    3    7    6     -0.67      0.00
    3    7    5      0.58      0.00
    3    7    4     -0.80      0.00
    3    7    3      1.04      0.00
    3    7    2     -0.85      0.00
    3    7    1      0.08      0.00
    3    7    0      0.86      0.00
   -3   -7    1     -1.37      0.00
   -3   -7    2      1.24      0.00
   -3   -7    3     -0.79      0.00
   -3   -7    4      0.51      0.00
   -3   -7    5     -0.62      0.00
   -3   -7    6      0.90      0.00
   -3   -7    7     -0.94      0.00
   -3   -7    8      0.58      0.00
   -3   -7    9      0.00      0.00
   -3   -7   10     -0.39      0.00
   -3   -7   11      0.29      0.00
    3    6    2     -0.96      0.00
    3    6    1     -0.07      0.00
    3    6    0      1.13      0.00
   -3   -6    1     -1.60      0.00
   -3   -6    2      1.33      0.00
   -3   -6    3     -0.67      0.00
   -3   -6    4      0.12      0.00
   -3   -6    5      0.05      0.00
   -3   -6    6      0.04      0.00
   -3   -6    7     -0.06      0.00
   -3   -6    8     -0.18      0.00
   -3   -6    9      0.53      0.00
   -3   -6   11      0.26      0.00
   -3   -6   12      0.40      0.00
    3    5    9      1.45      0.00
    3    5    8     -1.05      0.00
    3    5    0      1.37      0.00
   -3   -5    1     -1.65      0.00
   -3   -5    2      1.20      0.00
   -3   -5    3     -0.34      0.00
   -3   -5    4     -0.46      0.00
   -3   -5    5      0.87      0.00
   -3   -5    6     -0.88      0.00
   -3   -5    7      0.77      0.00
   -3   -5    8     -0.76      0.00
   -3   -5   10     -0.59      0.00
   -3   -5   11      0.07      0.00
   -3   -5   12      0.50      0.00
   -3   -5   13     -0.67      0.00
    3    4    9      1.49      0.00
    3    4    8     -0.97      0.00
    3    4    7      0.27      0.00
    3    4    6     -0.02      0.00
    3    4    4     -0.74      0.00
   -3   -4    1     -1.56      0.00
   -3   -4    2      1.16      0.00
   -3   -4    3     -0.33      0.00
   -3   -4    4     -0.54      0.00
   -3   -4    5      1.04      0.00
   -3   -4    6     -1.05      0.00
   -3   -4    7      0.81      0.00
   -3   -4    8     -0.58      0.00
   -3   -4    9      0.40      0.00
   -3   -4   10     -0.11      0.00
   -3   -4   11     -0.27      0.00
   -3   -4   12      0.51      0.00
    3    3   10     -1.21      0.00
    3    3    9      1.30      0.00
    3    3    8     -0.86      0.00
    3    3    7      0.44      0.00
    3    3    6     -0.42      0.00
    3    3    5      0.72      0.00
    3    3    4     -0.94      0.00
    3    3    3      0.83      0.00
    3    3    2     -0.36      0.00
    3    3    1     -0.30      0.00
    3    3    0      0.97      0.00
   -3   -3    1     -1.39      0.00
   -3   -3    2      1.31      0.00
   -3   -3    3     -0.74      0.00
   -3   -3    4      0.03      0.00
   -3   -3    5      0.35      0.00
   -3   -3    6     -0.26      0.00
   -3   -3    7     -0.09      0.00
   -3   -3    8      0.38      0.00
   -3   -3    9     -0.51      0.00
   -3   -3   10      0.55      0.00
   -3   -3   11     -0.52      0.00
   -3   -3   12      0.31      0.00
   -3   -3   13      0.08      0.00
    3    2   11      0.42      0.00
    3    2   10     -0.87      0.00
    3    2    9      0.82      0.00
    3    2    8     -0.57      0.00
    3    2    7      0.54      0.00
    3    2    6     -0.82      0.00
    3    2    5      1.17      0.00
    3    2    4     -1.33      0.00
    3    2    3      1.23      0.00
    3    2    2     -0.94      0.00
    3    2    1      0.45      0.00
    3    2    0      0.20      0.00
   -3   -2    1     -0.82      0.00
   -3   -2    2      1.07      0.00
   -3   -2    3     -0.89      0.00
   -3   -2    4      0.58      0.00
   -3   -2    5     -0.53      0.00
   -3   -2    6      0.85      0.00
   -3   -2    7     -1.28      0.00
   -3   -2    8      1.47      0.00
   -3   -2    9     -1.32      0.00
   -3   -2   10      0.91      0.00
   -3   -2   11     -0.39      0.00
   -3   -2   13      0.44      0.00
   -3   -2   14     -0.43      0.00
   -3   -2   15      0.08      0.00
    3    1   10     -0.33      0.00
    3    1    9      0.09      0.00
    3    1    8      0.02      0.00
    3    1    7      0.26      0.00
    3    1    6     -0.77      0.00
    3    1    5      1.21      0.00
    3    1    4     -1.45      0.00
    3    1    3      1.57      0.00
    3    1    2     -1.65      0.00
    3    1    1      1.57      0.00
    3    1    0     -1.22      0.00
   -3   -1    1      0.70      0.00
   -3   -1    2     -0.26      0.00
   -3   -1    3     -0.02      0.00
   -3   -1    4      0.29      0.00
   -3   -1    5     -0.78      0.00
   -3   -1    6      1.44      0.00
   -3   -1    7     -1.95      0.00
   -3   -1    8      1.98      0.00
   -3   -1    9     -1.49      0.00
   -3   -1   10      0.69      0.00
   -3   -1   12     -0.61      0.00
   -3   -1   13      0.68      0.00
   -3   -1   14     -0.33      0.00
   -3   -1   15     -0.16      0.00
    3    0    9     -0.68      0.00
    3    0    8      0.76      0.00
    3    0    7     -0.41      0.00
    3    0    6     -0.14      0.00
    3    0    5      0.62      0.00
    3    0    4     -1.04      0.00
    3    0    3      1.58      0.00
    3    0    2     -2.27      0.00
    3    0    1      2.92      0.00
    3    0    0     -3.25      0.00
   -3    0    1      3.09      0.00
   -3    0    2     -2.54      0.00
   -3    0    3      1.74      0.00
   -3    0    4     -0.79      0.00
   -3    0    5     -0.24      0.00
   -3    0    6      1.17      0.00
   -3    0    7     -1.72      0.00
   -3    0    8      1.65      0.00
   -3    0    9     -1.00      0.00
   -3    0   11      0.64      0.00
   -3    0   12     -0.91      0.00
   -3    0   13      0.71      0.00
   -3    0   14     -0.28      0.00
   -3    0   15     -0.05      0.00
    3   -1   10      0.62      0.00
    3   -1    9     -1.11      0.00
    3   -1    8      1.31      0.00
    3   -1    7     -1.15      0.00
    3   -1    6      0.79      0.00
    3   -1    5     -0.34      0.00
    3   -1    4     -0.29      0.00
    3   -1    3      1.26      0.00
    3   -1    2     -2.61      0.00
    3   -1    1      4.04      0.00
   -3    1    0     -5.04      0.00
   -3    1    1      5.19      0.00
   -3    1    2     -4.45      0.00
   -3    1    3      3.18      0.00
   -3    1    4     -1.78      0.00
   -3    1    5      0.53      0.00
   -3    1    6      0.41      0.00
   -3    1    7     -0.90      0.00
   -3    1    8      0.82      0.00
   -3    1   10     -0.43      0.00
   -3    1   11      0.86      0.00
   -3    1   12     -0.86      0.00
   -3    1   13      0.59      0.00
   -3    1   14     -0.36      0.00
   -3    1   15      0.32      0.00
    3   -2   11     -0.16      0.00
    3   -2   10      0.59      0.00
    3   -2    9     -1.08      0.00
    3   -2    8      1.47      0.00
    3   -2    7     -1.63      0.00
    3   -2    6      1.52      0.00
    3   -2    5     -1.14      0.00
    3   -2    4      0.45      0.00
    3   -2    3      0.69      0.00
    3   -2    2     -2.33      0.00
    3   -2    1      4.10      0.00
   -3    2    0     -5.34      0.00
   -3    2    1      5.48      0.00
   -3    2    2     -4.56      0.00
   -3    2    3      3.14      0.00
   -3    2    4     -1.82      0.00
   -3    2    5      0.87      0.00
   -3    2    6     -0.25      0.00
   -3    2    9      0.25      0.00
   -3    2   10     -0.58      0.00
   -3    2   11      0.68      0.00
   -3    2   12     -0.55      0.00
   -3    2   13      0.42      0.00
   -3    2   14     -0.49      0.00
   -3    2   15      0.68      0.00
    3   -3   12      0.01      0.00
    3   -3   11     -0.11      0.00
    3   -3   10      0.38      0.00
    3   -3    9     -0.83      0.00
    3   -3    8      1.34      0.00
    3   -3    7     -1.68      0.00
    3   -3    6      1.71      0.00
    3   -3    5     -1.46      0.00
    3   -3    4      0.96      0.00
    3   -3    3     -0.11      0.00
    3   -3    2     -1.19      0.00
    3   -3    1      2.64      0.00
   -3    3    0     -3.58      0.00
   -3    3    1      3.53      0.00
   -3    3    2     -2.65      0.00
   -3    3    3      1.59      0.00
   -3    3    4     -0.92      0.00
   -3    3    5      0.64      0.00
   -3    3    8     -0.31      0.00
   -3    3    9      0.38      0.00
   -3    3   10     -0.43      0.00
   -3    3   11      0.34      0.00
   -3    3   12     -0.21      0.00
   -3    3   13      0.26      0.00
   -3    3   14     -0.54      0.00
   -3    3   15      0.76      0.00
    3   -4   12      0.18      0.00
    3   -4   11     -0.22      0.00
    3   -4   10      0.37      0.00
    3   -4    9     -0.69      0.00
    3   -4    8      1.10      0.00
    3   -4    7     -1.35      0.00
    3   -4    6      1.34      0.00
    3   -4    5     -1.23      0.00
    3   -4    4      1.14      0.00
    3   -4    3     -0.93      0.00
    3   -4    2      0.42      0.00
    3   -4    1      0.26      0.00
   -3    4    0     -0.64      0.00
   -3    4    1      0.44      0.00
   -3    4    4      0.22      0.00
   -3    4    6     -0.39      0.00
   -3    4    7      0.40      0.00
   -3    4    8     -0.35      0.00
   -3    4    9      0.33      0.00
   -3    4   10     -0.27      0.00
   -3    4   11      0.11      0.00
   -3    4   12      0.00      0.00
   -3    4   13      0.11      0.00
   -3    4   14     -0.37      0.00
   -3    4   15      0.52      0.00
    3   -5   12      0.55      0.00
    3   -5   11     -0.64      0.00
    3   -5   10      0.67      0.00
    3   -5    9     -0.74      0.00
    3   -5    8      0.80      0.00
    3   -5    7     -0.73      0.00
    3   -5    6      0.58      0.00
    3   -5    5     -0.58      0.00
    3   -5    4      0.86      0.00
    3   -5    3     -1.28      0.00
    3   -5    2      1.58      0.00
    3   -5    1     -1.71      0.00
   -3    5    0      1.85      0.00
   -3    5    1     -2.02      0.00
   -3    5    2      2.02      0.00
   -3    5    3     -1.60      0.00
   -3    5    4      0.86      0.00
   -3    5    5     -0.17      0.00
   -3    5    6     -0.20      0.00
   -3    5    7      0.31      0.00
   -3    5    8     -0.33      0.00
   -3    5    9      0.35      0.00
   -3    5   10     -0.27      0.00
   -3    5   11      0.08      0.00
   -3    5   12      0.09      0.00
   -3    5   13     -0.10      0.00
   -3    5   14      0.00      0.00
   -3    5   15      0.07      0.00
    3   -6   12      0.99      0.00
    3   -6   11     -1.09      0.00
    3   -6   10      0.92      0.00
    3   -6    9     -0.63      0.00
    3   -6    8      0.29      0.00
    3   -6    7      0.06      0.00
    3   -6    6     -0.32      0.00
    3   -6    5      0.31      0.00
    3   -6    4      0.10      0.00
    3   -6    3     -0.82      0.00
    3   -6    2      1.62      0.00
    3   -6    1     -2.32      0.00
   -3    6    0      2.78      0.00
   -3    6    1     -2.85      0.00
   -3    6    2      2.46      0.00
   -3    6    3     -1.69      0.00
   -3    6    4      0.84      0.00
   -3    6    5     -0.22      0.00
   -3    6    6     -0.10      0.00
   -3    6    7      0.25      0.00
   -3    6    8     -0.36      0.00
   -3    6    9      0.42      0.00
   -3    6   10     -0.35      0.00
   -3    6   11      0.14      0.00
   -3    6   12      0.12      0.00
   -3    6   13     -0.33      0.00
   -3    6   14      0.43      0.00
    3   -7   11     -1.07      0.00
    3   -7   10      0.65      0.00
    3   -7    9     -0.08      0.00
    3   -7    8     -0.42      0.00
    3   -7    7      0.79      0.00
    3   -7    6     -1.03      0.00
    3   -7    5      1.09      0.00
    3   -7    4     -0.83      0.00
    3   -7    3      0.16      0.00
    3   -7    2      0.80      0.00
    3   -7    1     -1.73      0.00
   -3    7    0      2.27      0.00
   -3    7    1     -2.23      0.00
   -3    7    2      1.73      0.00
   -3    7    3     -1.05      0.00
   -3    7    4      0.49      0.00
   -3    7    5     -0.16      0.00
   -3    7    6     -0.01      0.00
   -3    7    7      0.14      0.00
   -3    7    8     -0.25      0.00
   -3    7    9      0.31      0.00
   -3    7   10     -0.29      0.00
   -3    7   11      0.14      0.00
   -3    7   12      0.14      0.00
   -3    7   13     -0.46      0.00
   -3    7   14      0.70      0.00
    3   -8   11     -0.33      0.00
    3   -8   10     -0.23      0.00
    3   -8    9      0.75      0.00
    3   -8    8     -1.01      0.00
    3   -8    7      1.08      0.00
    3   -8    6     -1.17      0.00
    3   -8    5      1.33      0.00
    3   -8    4     -1.30      0.00
    3   -8    3      0.83      0.00
    3   -8    2      0.02      0.00
    3   -8    1     -0.83      0.00
   -3    8    0      1.19      0.00
   -3    8    1     -1.04      0.00
   -3    8    2      0.66      0.00
   -3    8    3     -0.37      0.00
   -3    8    4      0.27      0.00
   -3    8    5     -0.28      0.00
   -3    8    6      0.29      0.00
   -3    8    7     -0.27      0.00
   -3    8    8      0.24      0.00
   -3    8    9     -0.16      0.00
   -3    8   10      0.03      0.00
   -3    8   11      0.04      0.00
   -3    8   12      0.09      0.00
   -3    8   13     -0.40      0.00
    3   -9   10     -1.17      0.00
    3   -9    9      1.29      0.00
    3   -9    8     -1.02      0.00
    3   -9    7      0.67      0.00
    3   -9    6     -0.59      0.00
    3   -9    5      0.79      0.00
    3   -9    4     -0.90      0.00
    3   -9    3      0.62      0.00
    3   -9    2     -0.06      0.00
    3   -9    1     -0.33      0.00
   -3    9    0      0.29      0.00
   -3    9    1     -0.03      0.00
   -3    9    2     -0.09      0.00
   -3    9    3     -0.10      0.00
   -3    9    4      0.43      0.00
   -3    9    5     -0.70      0.00
   -3    9    6      0.85      0.00
   -3    9    7     -0.95      0.00
   -3    9    8      0.98      0.00
   -3    9    9     -0.80      0.00
   -3    9   10      0.41      0.00
   -3    9   11     -0.04      0.00
   -3    9   12     -0.05      0.00
    3  -10    9      1.09      0.00
    3  -10    8     -0.35      0.00
    3  -10    7     -0.25      0.00
    3  -10    6      0.38      0.00
    3  -10    5     -0.19      0.00
    3  -10    4      0.10      0.00
    3  -10    3     -0.27      0.00
    3  -10    2      0.44      0.00
    3  -10    1     -0.28      0.00
   -3   10    1      0.46      0.00
   -3   10    2     -0.27      0.00
   -3   10    3     -0.28      0.00
   -3   10    4      0.82      0.00
   -3   10    5     -1.16      0.00
   -3   10    6      1.36      0.00
   -3   10    7     -1.52      0.00
   -3   10    8      1.54      0.00
   -3   10    9     -1.21      0.00
   -3   10   10      0.59      0.00
    3  -11    9      0.28      0.00
    3  -11    8      0.57      0.00
    3  -11    7     -1.06      0.00
    3  -11    6      1.07      0.00
    3  -11    5     -0.92      0.00
    3  -11    4      0.96      0.00
    3  -11    3     -1.10      0.00
    3  -11    2      0.96      0.00
   -3   11    1      0.42      0.00
   -3   11    2     -0.01      0.00
   -3   11    3     -0.62      0.00
   -3   11    4      1.06      0.00
   -3   11    7     -1.54      0.00
   -3   11    8      1.50      0.00
    3  -12    7     -1.24      0.00
    3  -12    6      1.03      0.00
    3  -12    5     -0.95      0.00
    3  -12    4      1.17      0.00
    3  -12    3     -1.34      0.00
   -2  -12    1      1.03      0.00
   -2  -12    2     -1.22      0.00
   -2  -12    3      1.19      0.00
   -2  -12    4     -0.93      0.00
   -2  -12    5      0.46      0.00
   -2  -12    6      0.02      0.00
   -2  -12    7     -0.26      0.00
   -2  -12    8      0.17      0.00
    2   11    1     -0.33      0.00
    2   11    0     -0.23      0.00
   -2  -11    1      0.74      0.00
   -2  -11    2     -1.23      0.00
   -2  -11    3      1.58      0.00
   -2  -11    4     -1.56      0.00
   -2  -11    5      1.10      0.00
   -2  -11    6     -0.51      0.00
   -2  -11    7      0.19      0.00
   -2  -11    8     -0.26      0.00
   -2  -11    9      0.45      0.00
   -2  -11   10     -0.45      0.00
    2   10    4      0.98      0.00
    2   10    3     -1.23      0.00
    2   10    2      0.98      0.00
    2   10    1     -0.55      0.00
    2   10    0      0.17      0.00
   -2  -10    1      0.31      0.00
   -2  -10    2     -0.98      0.00
   -2  -10    3      1.63      0.00
   -2  -10    4     -1.80      0.00
   -2  -10    5      1.37      0.00
   -2  -10    6     -0.73      0.00
   -2  -10    7      0.38      0.00
   -2  -10    8     -0.41      0.00
   -2  -10    9      0.53      0.00
    2    9    5     -0.15      0.00
    2    9    4      0.64      0.00
    2    9    3     -0.68      0.00
    2    9    2      0.47      0.00
    2    9    1     -0.36      0.00
    2    9    0      0.37      0.00
   -2   -9    1     -0.14      0.00
   -2   -9    2     -0.49      0.00
   -2   -9    3      1.17      0.00
   -2   -9    4     -1.36      0.00
   -2   -9    5      0.96      0.00
   -2   -9    6     -0.36      0.00
   -2   -9    7      0.04      0.00
   -2   -9    8     -0.07      0.00
   -2   -9    9      0.21      0.00
   -2   -9   10     -0.27      0.00
    2    8    7      0.36      0.00
    2    8    6     -0.34      0.00
    2    8    5      0.12      0.00
    2    8    4     -0.07      0.00
    2    8    3      0.26      0.00
    2    8    2     -0.31      0.00
    2    8    1     -0.03      0.00
    2    8    0      0.50      0.00
   -2   -8    1     -0.60      0.00
   -2   -8    2      0.20      0.00
   -2   -8    3      0.32      0.00
   -2   -8    4     -0.46      0.00
   -2   -8    5      0.15      0.00
   -2   -8    6      0.25      0.00
   -2   -8    7     -0.40      0.00
   -2   -8    8      0.28      0.00
   -2   -8    9     -0.06      0.00
   -2   -8   10     -0.14      0.00
   -2   -8   11      0.28      0.00
    2    7    8      0.12      0.00
    2    7    7      0.06      0.00
    2    7    6     -0.14      0.00
    2    7    5      0.29      0.00
    2    7    4     -0.61      0.00
    2    7    3      0.88      0.00
    2    7    2     -0.71      0.00
    2    7    1      0.06      0.00
    2    7    0      0.67      0.00
   -2   -7    1     -0.99      0.00
   -2   -7    2      0.81      0.00
   -2   -7    3     -0.46      0.00
   -2   -7    4      0.27      0.00
   -2   -7    5     -0.27      0.00
   -2   -7    6      0.26      0.00
   -2   -7    7     -0.12      0.00
   -2   -7    8     -0.12      0.00
   -2   -7    9      0.33      0.00
   -2   -7   11      0.49      0.00
   -2   -7   12     -0.32      0.00
    2    6    6      0.15      0.00
    2    6    5      0.17      0.00
    2    6    4     -0.58      0.00
    2    6    3      0.77      0.00
    2    6    2     -0.52      0.00
    2    6    1     -0.11      0.00
    2    6    0      0.77      0.00
   -2   -6    1     -1.11      0.00
   -2   -6    2      1.07      0.00
   -2   -6    3     -0.76      0.00
   -2   -6    4      0.33      0.00
   -2   -6    5      0.18      0.00
   -2   -6    6     -0.71      0.00
   -2   -6    7      1.13      0.00
   -2   -6    8     -1.34      0.00
   -2   -6    9      1.30      0.00
   -2   -6   11      0.74      0.00
   -2   -6   12     -0.29      0.00
    2    5    1     -0.19      0.00
    2    5    0      0.65      0.00
   -2   -5    1     -1.02      0.00
   -2   -5    2      1.10      0.00
   -2   -5    3     -0.74      0.00
   -2   -5    4     -0.05      0.00
   -2   -5    5      1.07      0.00
   -2   -5    6     -2.00      0.00
   -2   -5    7      2.53      0.00
   -2   -5    8     -2.51      0.00
   -2   -5   10     -1.34      0.00
   -2   -5   11      0.68      0.00
    2    4   11     -0.37      0.00
    2    4   10      0.10      0.00
    2    4    9      0.10      0.00
    2    4    8     -0.12      0.00
    2    4    7      0.00      0.00
    2    4    0      0.58      0.00
   -2   -4    1     -1.17      0.00
   -2   -4    2      1.39      0.00
   -2   -4    3     -0.91      0.00
   -2   -4    4     -0.18      0.00
   -2   -4    5      1.47      0.00
   -2   -4    6     -2.49      0.00
   -2   -4    7      2.87      0.00
   -2   -4    9      1.72      0.00
   -2   -4   10     -0.81      0.00
   -2   -4   11      0.19      0.00
   -2   -4   12      0.03      0.00
   -2   -4   13     -0.04      0.00
    2    3   10      0.07      0.00
    2    3    9      0.48      0.00
    2    3    8     -0.72      0.00
    2    3    7      0.63      0.00
    2    3    6     -0.33      0.00
    2    3    5      0.05      0.00
    2    3    4     -0.02      0.00
    2    3    3      0.22      0.00
   -2   -3    1     -1.77      0.00
   -2   -3    2      1.96      0.00
   -2   -3    3     -1.30      0.00
   -2   -3    4      0.13      0.00
   -2   -3    5      0.99      0.00
   -2   -3    6     -1.65      0.00
   -2   -3    7      1.68      0.00
   -2   -3    8     -1.16      0.00
   -2   -3    9      0.36      0.00
   -2   -3   10      0.28      0.00
   -2   -3   11     -0.41      0.00
   -2   -3   12      0.09      0.00
   -2   -3   13      0.25      0.00
   -2   -3   14     -0.23      0.00
    2    2   10     -0.15      0.00
    2    2    9      0.88      0.00
    2    2    8     -1.23      0.00
    2    2    7      1.15      0.00
    2    2    6     -0.78      0.00
    2    2    5      0.43      0.00
    2    2    4     -0.36      0.00
    2    2    3      0.48      0.00
    2    2    2     -0.35      0.00
    2    2    1     -0.37      0.00
    2    2    0      1.39      0.00
   -2   -2    1     -2.04      0.00
   -2   -2    2      1.85      0.00
   -2   -2    3     -1.04      0.00
   -2   -2    4      0.22      0.00
   -2   -2    5      0.17      0.00
   -2   -2    6     -0.07      0.00
   -2   -2    7     -0.33      0.00
   -2   -2    8      0.86      0.00
   -2   -2    9     -1.27      0.00
   -2   -2   10      1.27      0.00
   -2   -2   11     -0.73      0.00
   -2   -2   12     -0.07      0.00
   -2   -2   13      0.54      0.00
   -2   -2   14     -0.35      0.00
   -2   -2   15     -0.27      0.00
    2    1    9      1.00      0.00
    2    1    8     -1.30      0.00
    2    1    7      1.18      0.00
    2    1    6     -0.78      0.00
    2    1    5      0.43      0.00
    2    1    4     -0.34      0.00
    2    1    3      0.36      0.00
    2    1    2     -0.14      0.00
    2    1    1     -0.39      0.00
    2    1    0      0.79      0.00
   -2   -1    1     -0.60      0.00
   -2   -1    2     -0.12      0.00
   -2   -1    3      0.74      0.00
   -2   -1    4     -0.65      0.00
   -2   -1    5     -0.14      0.00
   -2   -1    6      1.18      0.00
   -2   -1    7     -2.00      0.00
   -2   -1    8      2.40      0.00
   -2   -1   10      1.68      0.00
   -2   -1   11     -0.68      0.00
   -2   -1   12     -0.27      0.00
   -2   -1   13      0.65      0.00
   -2   -1   14     -0.33      0.00
   -2   -1   15     -0.29      0.00
   -2   -1   16      0.62      0.00
    2    0   11     -0.27      0.00
    2    0   10     -0.31      0.00
    2    0    9      0.74      0.00
    2    0    8     -0.88      0.00
    2    0    7      0.67      0.00
    2    0    6     -0.24      0.00
    2    0    5     -0.11      0.00
    2    0    4      0.18      0.00
    2    0    3      0.00      0.00
    2    0    2     -0.31      0.00
    2    0    1      0.86      0.00
    2    0    0     -1.81      0.00
   -2    0    1      3.03      0.00
   -2    0    2     -3.90      0.00
   -2    0    3      3.71      0.00
   -2    0    4     -2.32      0.00
   -2    0    5      0.31      0.00
   -2    0    6      1.51      0.00
   -2    0    7     -2.61      0.00
   -2    0    9     -2.45      0.00
   -2    0   10      1.54      0.00
   -2    0   11     -0.47      0.00
   -2    0   12     -0.33      0.00
   -2    0   13      0.56      0.00
   -2    0   14     -0.30      0.00
   -2    0   15     -0.05      0.00
   -2    0   16      0.14      0.00
    2   -1   12      0.60      0.00
    2   -1   11     -0.22      0.00
    2   -1   10     -0.17      0.00
    2   -1    9      0.39      0.00
    2   -1    8     -0.31      0.00
    2   -1    7     -0.07      0.00
    2   -1    6      0.57      0.00
    2   -1    5     -0.89      0.00
    2   -1    4      0.79      0.00
    2   -1    3     -0.09      0.00
    2   -1    2     -1.31      0.00
    2   -1    1      3.37      0.00
   -2    1    0     -5.67      0.00
   -2    1    1      7.37      0.00
   -2    1    2     -7.63      0.00
   -2    1    3      6.22      0.00
   -2    1    4     -3.67      0.00
   -2    1    5      0.95      0.00
   -2    1    8      2.50      0.00
   -2    1    9     -2.01      0.00
   -2    1   10      1.15      0.00
   -2    1   11     -0.31      0.00
   -2    1   12     -0.25      0.00
   -2    1   13      0.46      0.00
   -2    1   14     -0.49      0.00
   -2    1   15      0.48      0.00
   -2    1   16     -0.49      0.00
    2   -2   12      0.48      0.00
    2   -2   11     -0.09      0.00
    2   -2   10     -0.22      0.00
    2   -2    9      0.22      0.00
    2   -2    8      0.13      0.00
    2   -2    7     -0.69      0.00
    2   -2    6      1.24      0.00
    2   -2    5     -1.51      0.00
    2   -2    4      1.17      0.00
    2   -2    3      0.12      0.00
    2   -2    2     -2.55      0.00
    2   -2    1      5.70      0.00
   -2    2    0     -8.51      0.00
   -2    2    1      9.80      0.00
   -2    2    2     -9.02      0.00
   -2    2    3      6.65      0.00
   -2    2    4     -3.73      0.00
   -2    2    7     -1.58      0.00
   -2    2    8      1.76      0.00
   -2    2    9     -1.35      0.00
   -2    2   10      0.72      0.00
   -2    2   11     -0.17      0.00
   -2    2   12     -0.21      0.00
   -2    2   13      0.54      0.00
   -2    2   14     -0.89      0.00
   -2    2   15      1.10      0.00
   -2    2   16     -0.98      0.00
    2   -3   13     -0.61      0.00
    2   -3   12      0.25      0.00
    2   -3   11      0.22      0.00
    2   -3   10     -0.41      0.00
    2   -3    9      0.15      0.00
    2   -3    8      0.46      0.00
    2   -3    7     -1.12      0.00
    2   -3    6      1.63      0.00
    2   -3    5     -1.83      0.00
    2   -3    4      1.42      0.00
    2   -3    3      0.10      0.00
    2   -3    2     -2.83      0.00
    2   -3    1      6.05      0.00
   -2    3    0     -8.39      0.00
   -2    3    1      8.79      0.00
   -2    3    4     -2.56      0.00
   -2    3    5      0.85      0.00
   -2    3    6      0.28      0.00
   -2    3    7     -0.89      0.00
   -2    3    8      0.96      0.00
   -2    3    9     -0.63      0.00
   -2    3   10      0.22      0.00
   -2    3   11      0.06      0.00
   -2    3   12     -0.31      0.00
   -2    3   13      0.75      0.00
   -2    3   14     -1.26      0.00
   -2    3   15      1.47      0.00
   -2    3   16     -1.14      0.00
    2   -4   13     -0.44      0.00
    2   -4   12     -0.01      0.00
    2   -4   11      0.39      0.00
    2   -4   10     -0.35      0.00
    2   -4    9     -0.15      0.00
    2   -4    8      0.82      0.00
    2   -4    7     -1.36      0.00
    2   -4    6      1.74      0.00
    2   -4    5     -1.96      0.00
    2   -4    4      1.72      0.00
    2   -4    3     -0.52      0.00
    2   -4    2     -1.68      0.00
    2   -4    1      4.08      0.00
   -2    4    0     -5.43      0.00
   -2    4    1      5.15      0.00
   -2    4    2     -3.72      0.00
   -2    4    3      2.16      0.00
   -2    4    4     -1.06      0.00
   -2    4    5      0.40      0.00
   -2    4    6      0.06      0.00
   -2    4    7     -0.28      0.00
   -2    4    8      0.15      0.00
   -2    4    9      0.17      0.00
   -2    4   10     -0.36      0.00
   -2    4   11      0.35      0.00
   -2    4   12     -0.42      0.00
   -2    4   13      0.82      0.00
   -2    4   14     -1.31      0.00
   -2    4   15      1.41      0.00
   -2    4   16     -0.96      0.00
    2   -5   12      0.05      0.00
    2   -5   11      0.05      0.00
    2   -5   10      0.20      0.00
    2   -5    9     -0.68      0.00
    2   -5    8      1.10      0.00
    2   -5    7     -1.32      0.00
    2   -5    6      1.53      0.00
    2   -5    5     -1.81      0.00
    2   -5    4      1.87      0.00
    2   -5    3     -1.27      0.00
    2   -5    2      0.02      0.00
    2   -5    1      1.19      0.00
   -2    5    0     -1.62      0.00
   -2    5    1      1.18      0.00
   -2    5    2     -0.47      0.00
   -2    5    3      0.09      0.00
   -2    5    4     -0.08      0.00
   -2    5    5      0.13      0.00
   -2    5    6     -0.14      0.00
   -2    5    7      0.28      0.00
   -2    5    8     -0.63      0.00
   -2    5    9      0.91      0.00
   -2    5   10     -0.83      0.00
   -2    5   11      0.49      0.00
   -2    5   12     -0.35      0.00
   -2    5   13      0.60      0.00
   -2    5   14     -0.96      0.00
   -2    5   15      0.96      0.00
    2   -6   11     -0.72      0.00
    2   -6   10      0.90      0.00
    2   -6    9     -0.97      0.00
    2   -6    8      0.87      0.00
    2   -6    7     -0.76      0.00
    2   -6    6      0.85      0.00
    2   -6    5     -1.16      0.00
    2   -6    4      1.39      0.00
    2   -6    3     -1.27      0.00
    2   -6    2      0.95      0.00
    2   -6    1     -0.80      0.00
   -2    6    0      1.00      0.00
   -2    6    1     -1.26      0.00
   -2    6    2      1.18      0.00
   -2    6    3     -0.74      0.00
   -2    6    4      0.25      0.00
   -2    6    5      0.04      0.00
   -2    6    6     -0.28      0.00
   -2    6    7      0.69      0.00
   -2    6    8     -1.17      0.00
   -2    6    9      1.31      0.00
   -2    6   10     -0.93      0.00
   -2    6   11      0.36      0.00
   -2    6   12     -0.09      0.00
   -2    6   13      0.22      0.00
   -2    6   14     -0.43      0.00
   -2    6   15      0.39      0.00
    2   -7   10      1.00      0.00
    2   -7    9     -0.46      0.00
    2   -7    8     -0.07      0.00
    2   -7    7      0.28      0.00
    2   -7    6     -0.15      0.00
    2   -7    5     -0.10      0.00
    2   -7    4      0.24      0.00
    2   -7    3     -0.34      0.00
    2   -7    2      0.65      0.00
    2   -7    1     -1.24      0.00
   -2    7    0      1.78      0.00
   -2    7    1     -1.83      0.00
   -2    7    2      1.34      0.00
   -2    7    3     -0.70      0.00
   -2    7    4      0.29      0.00
   -2    7    5     -0.09      0.00
   -2    7    6     -0.22      0.00
   -2    7    7      0.73      0.00
   -2    7    8     -1.16      0.00
   -2    7    9      1.12      0.00
   -2    7   10     -0.61      0.00
   -2    7   11      0.06      0.00
   -2    7   12      0.14      0.00
   -2    7   13     -0.02      0.00
   -2    7   14     -0.07      0.00
    2   -8   10      0.17      0.00
    2   -8    9      0.77      0.00
    2   -8    8     -1.30      0.00
    2   -8    7      1.22      0.00
    2   -8    6     -0.89      0.00
    2   -8    5      0.76      0.00
    2   -8    4     -0.86      0.00
    2   -8    3      0.75      0.00
    2   -8    2     -0.13      0.00
    2   -8    1     -0.78      0.00
   -2    8    0      1.37      0.00
   -2    8    1     -1.30      0.00
   -2    8    2      0.83      0.00
   -2    8    3     -0.46      0.00
   -2    8    4      0.41      0.00
   -2    8    5     -0.40      0.00
   -2    8    6      0.14      0.00
   -2    8    7      0.31      0.00
   -2    8    8     -0.59      0.00
   -2    8    9      0.45      0.00
   -2    8   10     -0.09      0.00
   -2    8   11     -0.14      0.00
   -2    8   12      0.09      0.00
   -2    8   13      0.06      0.00
    2   -9    9      1.86      0.00
    2   -9    8     -1.92      0.00
    2   -9    7      1.33      0.00
    2   -9    6     -0.79      0.00
    2   -9    5      0.78      0.00
    2   -9    4     -1.07      0.00
    2   -9    3      1.03      0.00
    2   -9    2     -0.42      0.00
    2   -9    1     -0.34      0.00
   -2    9    0      0.70      0.00
   -2    9    1     -0.57      0.00
   -2    9    2      0.36      0.00
   -2    9    3     -0.42      0.00
   -2    9    4      0.68      0.00
   -2    9    5     -0.80      0.00
   -2    9    6      0.63      0.00
   -2    9    7     -0.35      0.00
   -2    9    8      0.22      0.00
   -2    9    9     -0.26      0.00
   -2    9   10      0.26      0.00
   -2    9   11     -0.06      0.00
   -2    9   12     -0.22      0.00
    2  -10    9      1.97      0.00
    2  -10    8     -1.40      0.00
    2  -10    7      0.43      0.00
    2  -10    6      0.15      0.00
    2  -10    5     -0.05      0.00
    2  -10    4     -0.31      0.00
    2  -10    3      0.37      0.00
    2  -10    2     -0.07      0.00
   -2   10    0      0.19      0.00
   -2   10    1     -0.08      0.00
   -2   10    2      0.18      0.00
   -2   10    3     -0.55      0.00
   -2   10    4      0.90      0.00
   -2   10    5     -0.99      0.00
   -2   10    6      0.89      0.00
   -2   10    7     -0.80      0.00
   -2   10    8      0.75      0.00
   -2   10    9     -0.61      0.00
   -2   10   10      0.26      0.00
   -2   10   11      0.19      0.00
    2  -11    8     -0.12      0.00
    2  -11    7     -0.79      0.00
    2  -11    6      1.14      0.00
    2  -11    5     -0.95      0.00
    2  -11    4      0.65      0.00
    2  -11    3     -0.51      0.00
   -2   11    1      0.09      0.00
   -2   11    4      0.81      0.00
   -2   11    5     -0.74      0.00
   -2   11    6      0.69      0.00
   -2   11    7     -0.75      0.00
   -2   11    8      0.76      0.00
   -2   11    9     -0.52      0.00
    2  -12    6      1.36      0.00
    2  -12    5     -1.15      0.00
    2  -12    4      1.02      0.00
   -2   12    7     -0.33      0.00
    1   13    0     -0.29      0.00
   -1  -13    1      0.53      0.00
   -1  -13    2     -0.51      0.00
    1   12    2      0.06      0.00
    1   12    0     -0.39      0.00
   -1  -12    1      0.68      0.00
   -1  -12    2     -0.77      0.00
   -1  -12    3      0.60      0.00
   -1  -12    4     -0.19      0.00
   -1  -12    5     -0.31      0.00
   -1  -12    6      0.64      0.00
   -1  -12    7     -0.55      0.00
    1   11    4      0.17      0.00
    1   11    3     -0.30      0.00
    1   11    2      0.19      0.00
    1   11    1      0.07      0.00
    1   11    0     -0.35      0.00
   -1  -11    1      0.64      0.00
   -1  -11    2     -0.91      0.00
   -1  -11    3      1.03      0.00
   -1  -11    4     -0.80      0.00
   -1  -11    5      0.35      0.00
   -1  -11    6     -0.12      0.00
   -1  -11    7      0.41      0.00
   -1  -11    8     -1.03      0.00
   -1  -11    9      1.39      0.00
   -1  -11   10     -1.15      0.00
    1   10    6     -0.15      0.00
    1   10    5     -0.19      0.00
    1   10    4      0.39      0.00
    1   10    3     -0.25      0.00
    1   10    2     -0.05      0.00
    1   10    1      0.24      0.00
    1   10    0     -0.29      0.00
   -1  -10    1      0.46      0.00
   -1  -10    2     -0.84      0.00
   -1  -10    3      1.17      0.00
   -1  -10    4     -1.12      0.00
   -1  -10    5      0.83      0.00
   -1  -10    6     -0.79      0.00
   -1  -10    7      1.24      0.00
   -1  -10    8     -1.80      0.00
   -1  -10    9      1.86      0.00
   -1  -10   10     -1.25      0.00
    1    9    7     -0.10      0.00
    1    9    6      0.15      0.00
    1    9    5     -0.26      0.00
    1    9    4      0.08      0.00
    1    9    3      0.35      0.00
    1    9    2     -0.65      0.00
    1    9    1      0.53      0.00
    1    9    0     -0.21      0.00
   -1   -9    1      0.14      0.00
   -1   -9    2     -0.43      0.00
   -1   -9    3      0.71      0.00
   -1   -9    4     -0.68      0.00
   -1   -9    5      0.51      0.00
   -1   -9    6     -0.65      0.00
   -1   -9    7      1.17      0.00
   -1   -9    8     -1.60      0.00
   -1   -9    9      1.44      0.00
   -1   -9   10     -0.78      0.00
   -1   -9   11      0.19      0.00
    1    8    8      0.74      0.00
    1    8    7     -0.56      0.00
    1    8    6      0.36      0.00
    1    8    5     -0.01      0.00
    1    8    4     -0.56      0.00
    1    8    3      1.08      0.00
    1    8    2     -1.14      0.00
    1    8    1      0.67      0.00
    1    8    0     -0.07      0.00
   -1   -8    1     -0.22      0.00
   -1   -8    2      0.21      0.00
   -1   -8    3     -0.23      0.00
   -1   -8    4      0.41      0.00
   -1   -8    5     -0.49      0.00
   -1   -8    6      0.17      0.00
   -1   -8    7      0.43      0.00
   -1   -8    8     -0.82      0.00
   -1   -8    9      0.71      0.00
   -1   -8   11      0.22      0.00
    1    7    9     -0.97      0.00
    1    7    8      1.19      0.00
    1    7    7     -1.02      0.00
    1    7    6      0.52      0.00
    1    7    5      0.20      0.00
    1    7    4     -0.89      0.00
    1    7    3      1.22      0.00
    1    7    2     -1.04      0.00
    1    7    1      0.54      0.00
    1    7    0     -0.06      0.00
   -1   -7    1     -0.25      0.00
   -1   -7    2      0.54      0.00
   -1   -7    3     -0.96      0.00
   -1   -7    4      1.32      0.00
   -1   -7    5     -1.26      0.00
   -1   -7    6      0.68      0.00
   -1   -7    7      0.07      0.00
   -1   -7    8     -0.53      0.00
   -1   -7    9      0.62      0.00
   -1   -7   11      0.72      0.00
    1    6   10      0.29      0.00
    1    6    9     -1.24      0.00
    1    6    8      1.69      0.00
    1    6    7     -1.46      0.00
    1    6    6      0.76      0.00
    1    6    5     -0.02      0.00
    1    6    4     -0.43      0.00
    1    6    3      0.53      0.00
    1    6    2     -0.48      0.00
    1    6    1      0.48      0.00
    1    6    0     -0.52      0.00
   -1   -6    1      0.35      0.00
   -1   -6    2      0.18      0.00
   -1   -6    3     -0.86      0.00
   -1   -6    4      1.20      0.00
   -1   -6    5     -0.87      0.00
   -1   -6    6      0.02      0.00
   -1   -6    7      0.83      0.00
   -1   -6    8     -1.28      0.00
   -1   -6   10     -1.28      0.00
    1    5    4      0.56      0.00
    1    5    3     -0.47      0.00
    1    5    2      0.04      0.00
    1    5    1      0.62      0.00
    1    5    0     -1.07      0.00
   -1   -5    1      0.95      0.00
   -1   -5    2     -0.37      0.00
   -1   -5    3     -0.16      0.00
   -1   -5    4      0.12      0.00
   -1   -5    5      0.59      0.00
   -1   -5    6     -1.59      0.00
   -1   -5    7      2.31      0.00
   -1   -5    9      2.06      0.00
   -1   -5   10     -1.55      0.00
   -1   -5   13      0.40      0.00
    1    4    0     -0.30      0.00
   -1   -4    1      0.01      0.00
   -1   -4    2      0.18      0.00
   -1   -4    3      0.16      0.00
   -1   -4    4     -1.06      0.00
   -1   -4    5      2.17      0.00
   -1   -4    6     -3.04      0.00
   -1   -4    8     -2.83      0.00
   -1   -4    9      1.86      0.00
   -1   -4   10     -0.86      0.00
   -1   -4   11      0.24      0.00
   -1   -4   12     -0.03      0.00
   -1   -4   13     -0.01      0.00
   -1   -4   14      0.12      0.00
    1    3    9     -1.09      0.00
    1    3    8      0.64      0.00
    1    3    7     -0.32      0.00
    1    3    6      0.54      0.00
    1    3    0      3.21      0.00
   -1   -3    1     -3.49      0.00
   -1   -3    2      2.46      0.00
   -1   -3    3     -0.42      0.00
   -1   -3    4     -1.66      0.00
   -1   -3    5      3.00      0.00
   -1   -3    6     -3.40      0.00
   -1   -3    7      3.02      0.00
   -1   -3    8     -2.02      0.00
   -1   -3    9      0.71      0.00
   -1   -3   10      0.41      0.00
   -1   -3   11     -0.85      0.00
   -1   -3   12      0.62      0.00
   -1   -3   13     -0.19      0.00
   -1   -3   14      0.03      0.00
   -1   -3   15     -0.17      0.00
    1    2    8     -0.88      0.00
    1    2    7      0.98      0.00
    1    2    6     -0.39      0.00
    1    2    5     -0.46      0.00
    1    2    4      1.23      0.00
    1    2    3     -2.28      0.00
    1    2    2      4.27      0.00
   -1   -2    1     -8.33      0.00
   -1   -2    2      5.17      0.00
   -1   -2    3     -1.07      0.00
   -1   -2    4     -1.96      0.00
   -1   -2    5      3.06      0.00
   -1   -2    6     -2.73      0.00
   -1   -2    7      1.77      0.00
   -1   -2    8     -0.60      0.00
   -1   -2    9     -0.57      0.00
   -1   -2   10      1.36      0.00
   -1   -2   11     -1.37      0.00
   -1   -2   12      0.73      0.00
   -1   -2   13     -0.07      0.00
   -1   -2   14     -0.10      0.00
   -1   -2   15     -0.16      0.00
   -1   -2   16      0.37      0.00
    1    1   10     -0.37      0.00
    1    1    9      1.35      0.00
    1    1    8     -2.07      0.00
    1    1    7      2.05      0.00
    1    1    6     -1.35      0.00
    1    1    5      0.35      0.00
    1    1    4      1.06      0.00
    1    1    3     -3.63      0.00
    1    1    2      7.68      0.00
    1    1    1    -11.84      0.00
    1    1    0     13.55      0.00
   -1   -1    1    -11.20      0.00
   -1   -1    2      5.81      0.00
   -1   -1    3     -0.38      0.00
   -1   -1    4     -2.61      0.00
   -1   -1    5      2.84      0.00
   -1   -1    6     -1.69      0.00
   -1   -1    7      0.44      0.00
   -1   -1    8      0.51      0.00
   -1   -1    9     -1.20      0.00
   -1   -1   10      1.49      0.00
   -1   -1   11     -1.16      0.00
   -1   -1   12      0.44      0.00
   -1   -1   13      0.10      0.00
   -1   -1   14     -0.10      0.00
   -1   -1   15     -0.22      0.00
   -1   -1   16      0.36      0.00
    1    0   13     -0.49      0.00
    1    0   12      0.46      0.00
    1    0   11     -0.12      0.00
    1    0   10     -0.67      0.00
    1    0    9      1.71      0.00
    1    0    8     -2.45      0.00
    1    0    7      2.52      0.00
    1    0    6     -1.99      0.00
    1    0    5      0.96      0.00
    1    0    4      1.05      0.00
    1    0    3     -4.71      0.00
    1    0    2      9.59      0.00
    1    0    1    -13.45      0.00
    1    0    0     13.60      0.00
   -1    0    1     -9.36      0.00
   -1    0    2      2.99      0.00
   -1    0    3      2.00      0.00
   -1    0    4     -3.66      0.00
   -1    0    7     -0.42      0.00
   -1    0    8      0.97      0.00
   -1    0    9     -1.17      0.00
   -1    0   10      1.09      0.00
   -1    0   11     -0.67      0.00
   -1    0   12      0.12      0.00
   -1    0   13      0.16      0.00
   -1    0   14     -0.05      0.00
   -1    0   15     -0.18      0.00
   -1    0   16      0.20      0.00
    1   -1   13     -0.37      0.00
    1   -1   12      0.53      0.00
    1   -1   11     -0.32      0.00
    1   -1   10     -0.39      0.00
    1   -1    9      1.37      0.00
    1   -1    8     -2.16      0.00
    1   -1    7      2.44      0.00
    1   -1    6     -2.21      0.00
    1   -1    5      1.30      0.00
    1   -1    4      0.80      0.00
    1   -1    3     -4.32      0.00
    1   -1    2      8.18      0.00
    1   -1    1    -10.07      0.00
   -1    1    0      8.25      0.00
   -1    1    1     -3.32      0.00
   -1    1    2     -1.95      0.00
   -1    1    6     -0.16      0.00
   -1    1    7     -0.86      0.00
   -1    1    8      1.09      0.00
   -1    1    9     -0.99      0.00
   -1    1   10      0.73      0.00
   -1    1   11     -0.33      0.00
   -1    1   12     -0.05      0.00
   -1    1   13      0.24      0.00
   -1    1   14     -0.23      0.00
   -1    1   15      0.18      0.00
   -1    1   16     -0.17      0.00
    1   -2   14      0.04      0.00
    1   -2   13     -0.43      0.00
    1   -2   12      0.64      0.00
    1   -2   11     -0.47      0.00
    1   -2   10     -0.12      0.00
    1   -2    9      0.90      0.00
    1   -2    8     -1.56      0.00
    1   -2    7      1.96      0.00
    1   -2    6     -1.98      0.00
    1   -2    5      1.35      0.00
    1   -2    4      0.22      0.00
    1   -2    3     -2.43      0.00
    1   -2    2      4.02      0.00
    1   -2    1     -3.50      0.00
   -1    2    0      0.54      0.00
   -1    2    1      3.38      0.00
   -1    2    2     -5.99      0.00
   -1    2    3      6.01      0.00
   -1    2    4     -3.96      0.00
   -1    2    5      1.43      0.00
   -1    2    6      0.35      0.00
   -1    2    7     -1.12      0.00
   -1    2    8      1.21      0.00
   -1    2    9     -0.97      0.00
   -1    2   10      0.57      0.00
   -1    2   11     -0.11      0.00
   -1    2   12     -0.28      0.00
   -1    2   13      0.57      0.00
   -1    2   14     -0.76      0.00
   -1    2   15      0.81      0.00
   -1    2   16     -0.63      0.00
    1   -3   14      0.11      0.00
    1   -3   13     -0.33      0.00
    1   -3   12      0.30      0.00
    1   -3   11     -0.06      0.00
    1   -3   10     -0.26      0.00
    1   -3    9      0.56      0.00
    1   -3    8     -0.84      0.00
    1   -3    7      1.11      0.00
    1   -3    6     -1.22      0.00
    1   -3    5      0.89      0.00
    1   -3    4     -0.13      0.00
    1   -3    3     -0.43      0.00
    1   -3    2     -0.16      0.00
    1   -3    1      2.27      0.00
   -1    3    0     -5.07      0.00
   -1    3    1      7.01      0.00
   -1    3    2     -6.99      0.00
   -1    3    3      5.20      0.00
   -1    3    4     -2.73      0.00
   -1    3    5      0.65      0.00
   -1    3    6      0.63      0.00
   -1    3    7     -1.18      0.00
   -1    3    8      1.19      0.00
   -1    3    9     -0.83      0.00
   -1    3   10      0.28      0.00
   -1    3   11      0.25      0.00
   -1    3   12     -0.68      0.00
   -1    3   13      1.06      0.00
   -1    3   14     -1.35      0.00
   -1    3   15      1.35      0.00
   -1    3   16     -0.95      0.00
    1   -4   14      0.04      0.00
    1   -4   13      0.15      0.00
    1   -4   12     -0.50      0.00
    1   -4   11      0.69      0.00
    1   -4   10     -0.53      0.00
    1   -4    9      0.16      0.00
    1   -4    8      0.08      0.00
    1   -4    7     -0.07      0.00
    1   -4    6      0.04      0.00
    1   -4    5     -0.24      0.00
    1   -4    4      0.41      0.00
    1   -4    3      0.18      0.00
    1   -4    2     -1.95      0.00
    1   -4    1      4.41      0.00
   -1    4    0     -6.28      0.00
   -1    4    1      6.55      0.00
   -1    4    2     -5.26      0.00
   -1    4    3      3.29      0.00
   -1    4    4     -1.53      0.00
   -1    4    5      0.28      0.00
   -1    4    6      0.49      0.00
   -1    4    7     -0.84      0.00
   -1    4    8      0.70      0.00
   -1    4    9     -0.19      0.00
   -1    4   10     -0.36      0.00
   -1    4   11      0.74      0.00
   -1    4   12     -1.00      0.00
   -1    4   13      1.30      0.00
   -1    4   14     -1.54      0.00
   -1    4   15      1.45      0.00
    1   -5   14     -0.18      0.00
    1   -5   13      0.70      0.00
    1   -5   12     -1.12      0.00
    1   -5   11      1.01      0.00
    1   -5   10     -0.33      0.00
    1   -5    9     -0.51      0.00
    1   -5    8      1.02      0.00
    1   -5    7     -1.18      0.00
    1   -5    6      1.33      0.00
    1   -5    5     -1.60      0.00
    1   -5    4      1.57      0.00
    1   -5    3     -0.62      0.00
    1   -5    2     -1.25      0.00
    1   -5    1      3.18      0.00
   -1    5    0     -4.12      0.00
   -1    5    1      3.78      0.00
   -1    5    2     -2.72      0.00
   -1    5    3      1.68      0.00
   -1    5    4     -0.94      0.00
   -1    5    5      0.39      0.00
   -1    5    6      0.02      0.00
   -1    5    7     -0.09      0.00
   -1    5    8     -0.28      0.00
   -1    5    9      0.79      0.00
   -1    5   10     -1.04      0.00
   -1    5   11      0.96      0.00
   -1    5   12     -0.87      0.00
   -1    5   13      0.99      0.00
   -1    5   14     -1.17      0.00
    1   -6   13      0.79      0.00
    1   -6   12     -0.92      0.00
    1   -6   11      0.46      0.00
    1   -6   10      0.37      0.00
    1   -6    9     -1.06      0.00
    1   -6    8      1.37      0.00
    1   -6    7     -1.52      0.00
    1   -6    6      1.85      0.00
    1   -6    5     -2.30      0.00
    1   -6    4      2.31      0.00
    1   -6    3     -1.51      0.00
    1   -6    2      0.18      0.00
    1   -6    1      0.91      0.00
   -1    6    0     -1.29      0.00
   -1    6    1      1.15      0.00
   -1    6    2     -0.96      0.00
   -1    6    3      0.91      0.00
   -1    6    4     -0.80      0.00
   -1    6    5      0.54      0.00
   -1    6    6     -0.40      0.00
   -1    6    7      0.67      0.00
   -1    6    8     -1.21      0.00
   -1    6    9      1.50      0.00
   -1    6   10     -1.21      0.00
   -1    6   11      0.61      0.00
   -1    6   12     -0.25      0.00
   -1    6   13      0.32      0.00
   -1    6   14     -0.51      0.00
    1   -7   13      0.31      0.00
    1   -7   12     -0.03      0.00
    1   -7   11     -0.51      0.00
    1   -7   10      0.88      0.00
    1   -7    9     -0.85      0.00
    1   -7    8      0.64      0.00
    1   -7    7     -0.73      0.00
    1   -7    6      1.25      0.00
    1   -7    5     -1.79      0.00
    1   -7    4      1.84      0.00
    1   -7    3     -1.33      0.00
    1   -7    2      0.72      0.00
    1   -7    1     -0.42      0.00
   -1    7    0      0.34      0.00
   -1    7    1     -0.13      0.00
   -1    7    2     -0.30      0.00
   -1    7    3      0.62      0.00
   -1    7    4     -0.54      0.00
   -1    7    5      0.30      0.00
   -1    7    6     -0.39      0.00
   -1    7    7      0.96      0.00
   -1    7    8     -1.52      0.00
   -1    7    9      1.45      0.00
   -1    7   10     -0.72      0.00
   -1    7   11     -0.10      0.00
   -1    7   12      0.41      0.00
   -1    7   13     -0.20      0.00
    1   -8   12      0.83      0.00
    1   -8   11     -1.05      0.00
    1   -8    8     -0.83      0.00
    1   -8    7      0.64      0.00
    1   -8    6      0.05      0.00
    1   -8    5     -0.56      0.00
    1   -8    4      0.53      0.00
    1   -8    3     -0.27      0.00
    1   -8    2      0.26      0.00
   -1    8    0      0.61      0.00
   -1    8    1     -0.27      0.00
   -1    8    2     -0.21      0.00
   -1    8    3      0.30      0.00
   -1    8    4      0.07      0.00
   -1    8    5     -0.37      0.00
   -1    8    6      0.09      0.00
   -1    8    7      0.62      0.00
   -1    8    8     -1.07      0.00
   -1    8    9      0.78      0.00
   -1    8   10      0.01      0.00
   -1    8   11     -0.60      0.00
   -1    8   12      0.58      0.00
    1   -9   11     -0.83      0.00
    1   -9   10     -0.25      0.00
    1   -9    8     -1.96      0.00
    1   -9    7      1.47      0.00
    1   -9    6     -0.67      0.00
    1   -9    5      0.32      0.00
    1   -9    4     -0.48      0.00
    1   -9    3      0.62      0.00
    1   -9    2     -0.34      0.00
   -1    9    0      0.22      0.00
   -1    9    1      0.04      0.00
   -1    9    2     -0.19      0.00
   -1    9    3     -0.16      0.00
   -1    9    4      0.77      0.00
   -1    9    5     -1.05      0.00
   -1    9    6      0.69      0.00
   -1    9    7     -0.03      0.00
   -1    9    8     -0.30      0.00
   -1    9    9      0.07      0.00
   -1    9   10      0.37      0.00
   -1    9   11     -0.50      0.00
    1  -10   10     -0.84      0.00
    1  -10    8     -1.85      0.00
    1  -10    7      1.11      0.00
    1  -10    6     -0.40      0.00
    1  -10    5      0.28      0.00
    1  -10    4     -0.56      0.00
    1  -10    3      0.70      0.00
   -1   10    0     -0.29      0.00
   -1   10    1      0.38      0.00
   -1   10    2     -0.14      0.00
   -1   10    3     -0.48      0.00
   -1   10    4      1.12      0.00
   -1   10    5     -1.31      0.00
   -1   10    7     -0.52      0.00
   -1   10    8      0.24      0.00
   -1   10    9     -0.20      0.00
   -1   10   10      0.19      0.00
    1  -11    7      0.02      0.00
    1  -11    6      0.36      0.00
    1  -11    5     -0.26      0.00
    1  -11    4     -0.05      0.00
   -1   11    7     -0.65      0.00
   -1   11    8      0.40      0.00
    1  -12    5     -0.49      0.00
   -1   12    7     -0.55      0.00
    0   13    3      0.62      0.00
    0   13    2     -0.46      0.00
    0   13    1      0.40      0.00
    0   13    0     -0.51      0.00
    0  -13    1      0.51      0.00
    0  -13    2     -0.24      0.00
    0   12    5     -0.08      0.00
    0   12    4     -0.22      0.00
    0   12    3      0.36      0.00
    0   12    2     -0.46      0.00
    0   12    1      0.59      0.00
    0   12    0     -0.66      0.00
    0  -12    1      0.56      0.00
    0  -12    2     -0.29      0.00
    0  -12    3     -0.02      0.00
    0  -12    4      0.31      0.00
    0  -12    5     -0.57      0.00
    0  -12    6      0.72      0.00
    0  -12    7     -0.62      0.00
    0   11    6      0.55      0.00
    0   11    5     -0.53      0.00
    0   11    4      0.30      0.00
    0   11    3      0.09      0.00
    0   11    2     -0.48      0.00
    0   11    1      0.69      0.00
    0   11    0     -0.63      0.00
    0  -11    1      0.47      0.00
    0  -11    2     -0.35      0.00
    0  -11    3      0.24      0.00
    0  -11    4     -0.01      0.00
    0  -11    5     -0.28      0.00
    0  -11    6      0.28      0.00
    0  -11    7      0.24      0.00
    0  -11    8     -0.97      0.00
    0  -11    9      1.27      0.00
    0   10    7     -0.42      0.00
    0   10    6      0.76      0.00
    0   10    5     -0.88      0.00
    0   10    4      0.53      0.00
    0   10    3      0.16      0.00
    0   10    2     -0.72      0.00
    0   10    1      0.79      0.00
    0   10    0     -0.50      0.00
    0  -10    1      0.27      0.00
    0  -10    2     -0.31      0.00
    0  -10    3      0.37      0.00
    0  -10    4     -0.20      0.00
    0  -10    5      0.02      0.00
    0  -10    6     -0.32      0.00
    0  -10    7      1.19      0.00
    0  -10    8     -1.99      0.00
    0  -10    9      1.96      0.00
    0  -10   10     -1.02      0.00
    0  -10   11     -0.10      0.00
    0    9    9     -0.27      0.00
    0    9    8      0.14      0.00
    0    9    7     -0.38      0.00
    0    9    6      0.76      0.00
    0    9    5     -0.78      0.00
    0    9    4      0.16      0.00
    0    9    3      0.70      0.00
    0    9    2     -1.13      0.00
    0    9    1      0.87      0.00
    0    9    0     -0.28      0.00
    0   -9    1     -0.06      0.00
    0   -9    2      0.08      0.00
    0   -9    3     -0.11      0.00
    0   -9    4      0.33      0.00
    0   -9    5     -0.38      0.00
    0   -9    6     -0.18      0.00
    0   -9    7      1.18      0.00
    0   -9    8     -1.85      0.00
    0   -9    9      1.54      0.00
    0   -9   10     -0.52      0.00
    0   -9   11     -0.37      0.00
    0    8    9      0.03      0.00
    0    8    8     -0.04      0.00
    0    8    7     -0.27      0.00
    0    8    6      0.52      0.00
    0    8    5     -0.22      0.00
    0    8    4     -0.59      0.00
    0    8    3      1.33      0.00
    0    8    2     -1.42      0.00
    0    8    1      0.83      0.00
    0    8    0     -0.09      0.00
    0   -8    1     -0.38      0.00
    0   -8    2      0.69      0.00
    0   -8    3     -1.12      0.00
    0   -8    4      1.57      0.00
    0   -8    5     -1.58      0.00
    0   -8    6      0.88      0.00
    0   -8    7      0.11      0.00
    0   -8    8     -0.64      0.00
    0    7    9      0.35      0.00
    0    7    8     -0.01      0.00
    0    7    7     -0.34      0.00
    0    7    6      0.29      0.00
    0    7    5      0.31      0.00
    0    7    4     -1.10      0.00
    0    7    3      1.53      0.00
    0    7    2     -1.38      0.00
    0    7    1      0.89      0.00
    0    7    0     -0.39      0.00
    0   -7    1     -0.10      0.00
    0   -7    2      0.84      0.00
    0   -7    3     -1.83      0.00
    0   -7    4      2.59      0.00
    0   -7    5     -2.62      0.00
    0   -7    6      1.92      0.00
    0   -7    7     -1.04      0.00
    0   -7    8      0.51      0.00
    0   -7   12     -1.05      0.00
    0    6    9      0.15      0.00
    0    6    8      0.53      0.00
    0    6    7     -0.77      0.00
    0    6    6      0.40      0.00
    0    6    5      0.30      0.00
    0    6    4     -0.89      0.00
    0    6    3      1.17      0.00
    0    6    2     -1.30      0.00
    0    6    1      1.50      0.00
    0    6    0     -1.61      0.00
    0   -6    1      1.18      0.00
    0   -6    2     -0.04      0.00
    0   -6    3     -1.37      0.00
    0   -6    4      2.31      0.00
    0   -6    5     -2.35      0.00
    0   -6    6      1.77      0.00
    0   -6    7     -1.12      0.00
    0   -6   12     -1.73      0.00
    0    5    8      1.34      0.00
    0    5    7     -1.35      0.00
    0    5    6      0.84      0.00
    0    5    5     -0.26      0.00
    0    5    4     -0.20      0.00
    0    5    3      0.73      0.00
    0    5    2     -1.60      0.00
    0    5    1      2.59      0.00
    0    5    0     -3.06      0.00
    0   -5    1      2.54      0.00
    0   -5    2     -1.24      0.00
    0   -5    3     -0.06      0.00
    0   -5    4      0.66      0.00
    0   -5    5     -0.54      0.00
    0   -5    6      0.16      0.00
    0   -5   10     -0.86      0.00
    0   -5   11      1.34      0.00
    0   -5   12     -1.46      0.00
    0   -5   13      1.10      0.00
    0   -5   14     -0.55      0.00
    0    4   13      1.68      0.00
    0    4    3      0.70      0.00
    0    4    2     -1.89      0.00
    0    4    1      2.64      0.00
    0    4    0     -2.45      0.00
    0   -4    1      1.53      0.00
    0   -4    2     -0.72      0.00
    0   -4    3      0.64      0.00
    0   -4    4     -1.22      0.00
    0   -4    5      1.86      0.00
    0   -4    7      1.69      0.00
    0   -4    8     -1.10      0.00
    0   -4    9      0.61      0.00
    0   -4   10     -0.38      0.00
    0   -4   11      0.36      0.00
    0   -4   12     -0.38      0.00
    0   -4   13      0.36      0.00
    0   -4   14     -0.30      0.00
    0   -4   15      0.28      0.00
    0    3   13      1.18      0.00
    0    3   12     -0.99      0.00
    0    3    0      2.64      0.00
    0   -3    1     -3.80      0.00
    0   -3    2      2.96      0.00
    0   -3    3     -0.48      0.00
    0   -3    4     -2.16      0.00
    0   -3    5      3.66      0.00
    0   -3    6     -3.72      0.00
    0   -3    7      2.83      0.00
    0   -3    8     -1.58      0.00
    0   -3    9      0.38      0.00
    0   -3   10      0.50      0.00
    0   -3   11     -0.83      0.00
    0   -3   12      0.63      0.00
    0   -3   13     -0.17      0.00
    0   -3   14     -0.23      0.00
    0   -3   15      0.43      0.00
    0    2   13      0.54      0.00
    0    2   12     -0.46      0.00
    0    2   11      0.15      0.00
    0    2    6     -0.23      0.00
    0    2    0     11.94      0.00
    0   -2    1    -12.42      0.00
    0   -2    2      8.67      0.00
    0   -2    3     -2.83      0.00
    0   -2    4     -2.05      0.00
    0   -2    5      4.33      0.00
    0   -2    6     -4.33      0.00
    0   -2    7      3.20      0.00
    0   -2    8     -1.72      0.00
    0   -2    9      0.25      0.00
    0   -2   10      0.87      0.00
    0   -2   11     -1.25      0.00
    0   -2   12      0.88      0.00
    0   -2   13     -0.19      0.00
    0   -2   14     -0.30      0.00
    0   -2   15      0.45      0.00
    0   -2   16     -0.41      0.00
    0    1   13      0.21      0.00
    0    1   12     -0.25      0.00
    0    1   11      0.21      0.00
    0    1   10     -0.39      0.00
    0    1    9      0.88      0.00
    0    1    8     -1.35      0.00
    0    1    7      1.54      0.00
    0    1    6     -1.68      0.00
    0    1    5      1.91      0.00
    0    1    4     -1.31      0.00
    0    1    3     -1.94      0.00
    0    1    2      8.60      0.00
    0    1    1    -16.51      0.00
    0    1    0     21.35      0.00
    0   -1    1    -19.93      0.00
    0   -1    2     12.97      0.00
    0   -1    3     -4.46      0.00
    0   -1    5      4.06      0.00
    0   -1    6     -4.00      0.00
    0   -1    7      3.03      0.00
    0   -1    8     -1.85      0.00
    0   -1    9      0.61      0.00
    0   -1   10      0.41      0.00
    0   -1   11     -0.76      0.00
    0   -1   12      0.46      0.00
    0   -1   13      0.03      0.00
    0   -1   14     -0.24      0.00
    0   -1   15      0.20      0.00
    0   -1   16     -0.16      0.00
    0    0   14     -0.05      0.00
    0    0   13      0.15      0.00
    0    0   12     -0.03      0.00
    0    0   11     -0.06      0.00
    0    0   10     -0.28      0.00
    0    0    9      1.06      0.00
    0    0    8     -1.88      0.00
    0    0    7      2.50      0.00
    0    0    6     -3.04      0.00
    0    0    5      3.20      0.00
    0    0    4     -1.46      0.00
    0    0    3     -3.99      0.00
    0    0    2     12.90      0.00
    0    0   15     -0.12      0.00
    0   -1    4     -1.64      0.00
    0    1   14     -0.01      0.00
    0    1   15     -0.16      0.00
    0    2    1     -7.86      0.00
    0    2    2      3.03      0.00
    0    2    3      0.01      0.00
    0    2    4     -0.78      0.00
    0    2    5      0.47      0.00
    0    2    7      0.24      0.00
    0    2    8     -0.16      0.00
    0    2    9     -0.05      0.00
    0    2   10      0.10      0.00
    0    2   14     -0.39      0.00
    0    2   15      0.21      0.00
    0    3    1     -0.60      0.00
    0    3    2     -0.75      0.00
    0    3    3      0.77      0.00
    0    3    4     -0.04      0.00
    0    3    5     -0.59      0.00
    0    3    6      0.84      0.00
    0    3    7     -0.98      0.00
    0    3    8      1.12      0.00
    0    3    9     -1.03      0.00
    0    3   10      0.48      0.00
    0    3   11      0.35      0.00
    0    3   14     -1.00      0.00
    0   -4    6     -2.04      0.00
    0    4    4      0.25      0.00
    0    4    5     -0.78      0.00
    0    4    6      1.16      0.00
    0    4    7     -1.56      0.00
    0    4    8      1.70      0.00
    0    4    9     -1.23      0.00
    0    4   10      0.18      0.00
    0    4   11      0.95      0.00
    0    4   12     -1.62      0.00
    0    4   14     -1.32      0.00
    0   -5    9      0.39      0.00
    0   -5    8     -0.16      0.00
    0   -5    7      0.07      0.00
    0    5    9     -0.60      0.00
    0    5   10     -0.51      0.00
    0    5   11      1.43      0.00
    0    5   12     -1.76      0.00
    0    5   13      1.52      0.00
    0   -6   14     -0.77      0.00
    0   -6   13      1.46      0.00
    0   -6   11      1.34      0.00
    0   -6   10     -0.55      0.00
    0   -6    9     -0.17      0.00
    0   -6    8      0.65      0.00
    0    6   10     -0.84      0.00
    0    6   11      1.18      0.00
    0    6   12     -1.10      0.00
    0   -7   13      1.13      0.00
    0   -7   11      0.53      0.00
    0   -7   10      0.02      0.00
    0   -7    9     -0.30      0.00
    0    7   10     -0.43      0.00
    0    7   11      0.29      0.00
    0   -8   12     -0.06      0.00
    0   -8   11     -0.23      0.00
    0   -8   10      0.06      0.00
    0   -8    9      0.45      0.00
    0    8   10      0.27      0.00
    0   10    8      0.20      0.00
    0   11    7     -0.41      0.00
   -1   13    3      0.17      0.00
   -1   13    2     -0.20      0.00
   -1   13    1      0.53      0.00
   -1   13    0     -0.90      0.00
    1  -13    1      0.86      0.00
   -1   12    6      0.50      0.00
   -1   12    5     -0.37      0.00
   -1   12    4      0.30      0.00
   -1   12    3     -0.17      0.00
   -1   12    2     -0.20      0.00
   -1   12    1      0.69      0.00
   -1   12    0     -0.97      0.00
    1  -12    1      0.79      0.00
    1  -12    2     -0.34      0.00
    1  -12    3     -0.07      0.00
    1  -12    4      0.31      0.00
    1  -12    6      0.67      0.00
    1  -12    8      0.47      0.00
   -1   11    6      0.87      0.00
   -1   11    5     -1.00      0.00
   -1   11    4      0.90      0.00
   -1   11    3     -0.47      0.00
   -1   11    2     -0.15      0.00
   -1   11    1      0.62      0.00
   -1   11    0     -0.72      0.00
    1  -11    1      0.56      0.00
    1  -11    2     -0.38      0.00
    1  -11    3      0.26      0.00
    1  -11    8     -0.68      0.00
    1  -11    9      1.00      0.00
    1  -11   10     -0.63      0.00
   -1   10    6      0.99      0.00
    1  -10    1      0.28      0.00
    1  -10    2     -0.51      0.00
    1  -10    9      1.81      0.00
    1  -10   11     -0.31      0.00
    1  -10   12      0.79      0.00
    1   -9    1     -0.10      0.00
    1   -9    9      1.48      0.00
    1   -8    1     -0.52      0.00
    1   -8    9      0.26      0.00
    1   -8   10      0.60      0.00
    1   -4   15      0.01      0.00
    1   -3   15      0.20      0.00
    1   -2   15      0.30      0.00
   -1    1    5      2.19      0.00
   -1    1    4     -4.34      0.00
   -1    1    3      4.74      0.00
    1   -1   14      0.11      0.00
    1   -1   15      0.13      0.00
   -1    0    6     -0.81      0.00
   -1    0    5      2.61      0.00
    1    0   14      0.40      0.00
    1    1   11     -0.34      0.00
    1    1   12      0.65      0.00
    1    1   13     -0.71      0.00
    1    1   14      0.63      0.00
    1    2    0      8.89      0.00
    1    2    1     -6.98      0.00
    1    2    9      0.21      0.00
    1    2   10      0.46      0.00
    1    2   11     -0.76      0.00
    1    2   12      0.74      0.00
    1    2   13     -0.60      0.00
    1    3    1     -2.27      0.00
    1    3    2      1.62      0.00
    1    3    3     -1.52      0.00
    1    3    4      1.50      0.00
    1    3    5     -1.11      0.00
    1    3   10      1.16      0.00
    1    3   11     -0.77      0.00
    1    3   12      0.26      0.00
    1    3   13      0.07      0.00
   -1   -4   15     -0.26      0.00
   -1   -4    7      3.30      0.00
    1    4    1      0.17      0.00
    1    4    2      0.46      0.00
    1    4    3     -1.14      0.00
    1    4    4      1.36      0.00
    1    4    5     -1.17      0.00
    1    4    6      1.04      0.00
    1    4    7     -1.31      0.00
    1    4    8      1.74      0.00
    1    4    9     -1.78      0.00
    1    4   10      1.15      0.00
    1    4   11     -0.15      0.00
    1    4   12     -0.64      0.00
   -1   -5   15     -0.30      0.00
   -1   -5   14      0.04      0.00
   -1   -5   12     -0.81      0.00
   -1   -5   11      1.15      0.00
   -1   -5    8     -2.43      0.00
    1    5    5     -0.64      0.00
    1    5    6      1.03      0.00
    1    5    7     -1.66      0.00
    1    5    8      2.03      0.00
    1    5    9     -1.68      0.00
    1    5   10      0.64      0.00
    1    5   11      0.55      0.00
   -1   -6   14     -0.14      0.00
   -1   -6   13      0.72      0.00
   -1   -6   12     -1.13      0.00
   -1   -6   11      1.26      0.00
   -1   -6    9      1.33      0.00
    1    6   11      0.64      0.00
   -1   -7   14     -0.28      0.00
   -1   -7   13      0.72      0.00
   -1   -7   12     -0.86      0.00
   -1   -7   10     -0.60      0.00
    1    7   10      0.47      0.00
   -1   -8   13      0.50      0.00
   -1   -8   12     -0.36      0.00
   -1   -8   10     -0.37      0.00
    1    8    9     -0.88      0.00
    2  -14    4      0.24      0.00
    2  -14    5      0.07      0.00
    2  -13    5     -0.60      0.00
    2  -13    6      0.69      0.00
   -2   12    3     -0.58      0.00
   -2   12    2      0.42      0.00
   -2   12    1     -0.01      0.00
   -2   12    0     -0.22      0.00
    2  -12    1     -0.02      0.00
    2  -12    2      0.51      0.00
    2  -12    3     -0.88      0.00
    2  -12    7     -1.38      0.00
    2  -12    8      0.94      0.00
    2  -12    9     -0.20      0.00
    2  -12   10     -0.37      0.00
   -2   11    3     -0.66      0.00
   -2   11    2      0.26      0.00
   -2   11    0     -0.11      0.00
    2  -11    1     -0.16      0.00
    2  -11    2      0.41      0.00
    2  -11    9      1.03      0.00
    2  -11   10     -1.34      0.00
    2  -11   11      1.04      0.00
    2  -10    1     -0.21      0.00
    2  -10   10     -1.70      0.00
    2  -10   11      0.93      0.00
    2  -10   12     -0.34      0.00
    2   -9   10     -1.05      0.00
    2   -9   11      0.05      0.00
    2   -8   11     -0.93      0.00
    2   -8   12      1.10      0.00
    2   -7   11     -1.24      0.00
    2   -6   12      0.56      0.00
    2   -5   13     -0.33      0.00
    2   -5   14      0.50      0.00
    2   -5   15     -0.47      0.00
    2   -4   14      0.62      0.00
    2   -4   15     -0.49      0.00
   -2    3    3      4.86      0.00
   -2    3    2     -7.28      0.00
    2   -3   14      0.64      0.00
   -2    2    6      0.64      0.00
   -2    2    5      1.16      0.00
    2   -2   13     -0.69      0.00
    2   -2   14      0.59      0.00
   -2    1    7     -2.29      0.00
   -2    1    6      1.15      0.00
    2   -1   13     -0.79      0.00
    2   -1   14      0.67      0.00
   -2    0    8      2.88      0.00
    2    0   12      0.82      0.00
    2    0   13     -1.11      0.00
   -2   -1    9     -2.30      0.00
    2    1   10     -0.35      0.00
    2    1   11     -0.48      0.00
    2    1   12      1.21      0.00
    2    1   13     -1.53      0.00
   -2   -2   16      0.73      0.00
    2    2   11     -0.74      0.00
    2    2   12      1.45      0.00
   -2   -3   16      0.52      0.00
   -2   -3   15     -0.15      0.00
    2    3    0      0.93      0.00
    2    3    1     -0.06      0.00
    2    3    2     -0.33      0.00
    2    3   11     -0.74      0.00
   -2   -4   16      0.22      0.00
   -2   -4   15     -0.14      0.00
   -2   -4   14      0.05      0.00
   -2   -4    8     -2.54      0.00
    2    4    1     -0.06      0.00
    2    4    2     -0.11      0.00
    2    4    3      0.00      0.00
    2    4    4      0.16      0.00
    2    4    5     -0.22      0.00
    2    4    6      0.15      0.00
   -2   -5   15     -0.30      0.00
   -2   -5   14      0.35      0.00
   -2   -5   13     -0.19      0.00
   -2   -5   12     -0.16      0.00
   -2   -5    9      2.03      0.00
    2    5    2     -0.15      0.00
    2    5    3      0.26      0.00
    2    5    4     -0.13      0.00
    2    5    5     -0.12      0.00
    2    5    6      0.31      0.00
    2    5    7     -0.33      0.00
    2    5    8      0.22      0.00
    2    5    9     -0.09      0.00
    2    5   10      0.01      0.00
   -2   -6   15     -0.53      0.00
   -2   -6   14      0.52      0.00
   -2   -6   13     -0.19      0.00
   -2   -6   10     -1.08      0.00
    2    6    7     -0.25      0.00
    2    6    8      0.24      0.00
    2    6    9     -0.19      0.00
   -2   -7   14      0.47      0.00
   -2   -7   13     -0.06      0.00
   -2   -7   10     -0.47      0.00
   -2   -8   13      0.17      0.00
   -2   -8   12     -0.33      0.00
   -2   -9   11      0.30      0.00
    3  -14    3     -0.51      0.00
    3  -14    4      0.29      0.00
    3  -14    5      0.09      0.00
   -3   13    1     -0.34      0.00
   -3   13    0      0.19      0.00
    3  -13    1     -0.40      0.00
    3  -13    2      0.83      0.00
    3  -13    3     -1.02      0.00
    3  -13    4      0.79      0.00
    3  -13    5     -0.44      0.00
    3  -13    6      0.41      0.00
   -3   12    3     -0.75      0.00
   -3   12    2      0.36      0.00
   -3   12    1      0.06      0.00
   -3   12    0     -0.08      0.00
    3  -12    1     -0.44      0.00
    3  -12    2      1.08      0.00
    3  -12    8      1.12      0.00
    3  -12    9     -0.54      0.00
    3  -12   10     -0.18      0.00
   -3   11    6      1.39      0.00
   -3   11    0     -0.25      0.00
    3  -11    1     -0.39      0.00
    3  -11   10     -1.03      0.00
    3  -11   11      1.32      0.00
   -3   10    0     -0.17      0.00
    3  -10   10     -1.51      0.00
    3  -10   11      1.44      0.00
    3  -10   12     -1.07      0.00
    3   -7   12      1.11      0.00
    3   -5   13     -0.35      0.00
   -3    4    5      0.16      0.00
   -3    4    3     -0.38      0.00
   -3    4    2      0.07      0.00
    3   -4   13     -0.14      0.00
   -3    3    7      0.36      0.00
   -3    3    6     -0.50      0.00
    3   -3   13     -0.03      0.00
   -3    2    8      0.05      0.00
   -3    2    7     -0.07      0.00
    3   -2   12     -0.06      0.00
    3   -2   13      0.04      0.00
   -3    1   17      0.52      0.00
   -3    1   16     -0.43      0.00
   -3    1    9     -0.26      0.00
    3   -1   11     -0.11      0.00
    3   -1   12     -0.10      0.00
   -3    0   17      0.14      0.00
   -3    0   16      0.08      0.00
   -3    0   10      0.09      0.00
    3    0   10      0.26      0.00
    3    0   11      0.08      0.00
    3    0   12     -0.05      0.00
   -3   -1   17     -0.31      0.00
   -3   -1   16      0.43      0.00
   -3   -1   11      0.11      0.00
    3    1   11      0.29      0.00
   -3   -2   17     -0.44      0.00
   -3   -2   16      0.32      0.00
   -3   -2   12     -0.11      0.00
   -3   -3   16     -0.18      0.00
   -3   -3   15      0.46      0.00
   -3   -3   14     -0.42      0.00
   -3   -4   16     -0.67      0.00
   -3   -4   15      0.61      0.00
   -3   -4   14     -0.18      0.00
   -3   -4   13     -0.33      0.00
    3    4    0      1.33      0.00
    3    4    1     -0.63      0.00
    3    4    2     -0.21      0.00
    3    4    3      0.75      0.00
    3    4    5      0.32      0.00
   -3   -5   16     -0.71      0.00
   -3   -5   15      0.32      0.00
   -3   -5   14      0.30      0.00
   -3   -5    9      0.79      0.00
    3    5    1     -0.47      0.00
    3    5    2     -0.55      0.00
    3    5    3      1.08      0.00
    3    5    4     -0.87      0.00
    3    5    5      0.27      0.00
    3    5    6      0.02      0.00
    3    5    7      0.34      0.00
   -3   -6   15     -0.27      0.00
   -3   -6   14      0.79      0.00
   -3   -6   13     -0.86      0.00
   -3   -6   10     -0.63      0.00
    3    6    3      1.35      0.00
    3    6    4     -1.01      0.00
    3    6    5      0.46      0.00
    3    6    6     -0.29      0.00
    3    6    7      0.64      0.00
    3    6    8     -1.08      0.00
   -3   -7   14      0.97      0.00
   -3   -7   13     -0.76      0.00
   -3   -7   12      0.21      0.00
    3    7    7      0.89      0.00
   -3   -8   13     -0.35      0.00
   -3   -8   12     -0.07      0.00
   -3   -8   11      0.32      0.00
   -3   -8   10     -0.19      0.00
   -3   -8    9     -0.32      0.00
    3    8    6     -0.79      0.00
   -3   -9   11      0.36      0.00
   -3   -9   10     -0.14      0.00
    3    9    5      0.19      0.00
    3   10    2      1.07      0.00
    3   10    3     -1.03      0.00
    4  -14    2      0.33      0.00
    4  -14    3     -0.59      0.00
    4  -14    4      0.46      0.00
   -4   13    1      0.79      0.00
   -4   13    0     -0.85      0.00
    4  -13    1      0.32      0.00
    4  -13    2      0.43      0.00
    4  -13    3     -0.84      0.00
    4  -13    4      0.61      0.00
    4  -13    5     -0.05      0.00
   -4   12    1      1.22      0.00
   -4   12    0     -1.25      0.00
    4  -12    1      0.49      0.00
    4  -12    6     -0.12      0.00
   -4   11    6      1.57      0.00
   -4   11    1      1.46      0.00
   -4   11    0     -1.38      0.00
    4  -11    8      0.60      0.00
    4  -11    9     -0.67      0.00
    4  -10    9     -0.33      0.00
    4  -10   10      0.12      0.00
    4   -9   10      0.08      0.00
   -4    7   14      0.57      0.00
   -4    5    3     -1.26      0.00
    4   -5   12      0.53      0.00
   -4    4    8      0.01      0.00
    4   -4   12      0.22      0.00
   -4    3   10     -0.22      0.00
   -4    3    9      0.48      0.00
   -4    3    8     -0.90      0.00
    4   -3   10      0.79      0.00
    4   -3   12     -0.05      0.00
   -4    2   16     -0.45      0.00
   -4    2   11      0.85      0.00
   -4    2   10     -1.13      0.00
   -4    2    9      1.38      0.00
    4   -2   10      1.09      0.00
    4   -2   11     -0.43      0.00
   -4    1   16     -0.34      0.00
   -4    1   11      1.26      0.00
    4   -1   10      1.21      0.00
    4   -1   11     -0.30      0.00
   -4    0   16     -0.06      0.00
   -4    0   12     -0.63      0.00
   -4   -1   16      0.11      0.00
   -4   -1   13     -0.11      0.00
   -4   -2   16     -0.06      0.00
   -4   -2   15      0.11      0.00
   -4   -2   14      0.13      0.00
   -4   -3   16     -0.53      0.00
   -4   -3   15      0.50      0.00
   -4   -3   14      0.07      0.00
   -4   -4   16     -0.94      0.00
   -4   -4   15      0.72      0.00
   -4   -4   14      0.10      0.00
   -4   -5   15      0.52      0.00
   -4   -5   14      0.33      0.00
   -4   -5   13     -0.96      0.00
    4    5    2     -0.21      0.00
    4    5    3      0.35      0.00
    4    5    4     -0.22      0.00
   -4   -6   15     -0.01      0.00
   -4   -6   14      0.67      0.00
   -4   -6   13     -1.01      0.00
    4    6    3      0.62      0.00
    4    6    6     -0.24      0.00
   -4   -7   14      0.86      0.00
   -4   -7   13     -0.93      0.00
   -4   -7   12      0.60      0.00
    4    7    5      0.43      0.00
   -4   -8   13     -0.60      0.00
   -4   -8   12      0.36      0.00
   -4   -8   11     -0.03      0.00
    4    8    3     -0.03      0.00
    4    8    4     -0.18      0.00
    4    9    0      0.23      0.00
    4    9    1     -0.41      0.00
    4    9    2      0.55      0.00
    4    9    3     -0.40      0.00
    5  -14    3     -0.73      0.00
   -5   13    1      1.28      0.00
   -5   13    0     -1.27      0.00
    5  -13    1      0.61      0.00
    5  -13    3     -0.88      0.00
    5  -13    4      0.92      0.00
    5  -13    5     -0.52      0.00
   -5   12    4      0.75      0.00
   -5   12    3     -0.07      0.00
   -5   12    2     -0.94      0.00
   -5   12    1      1.66      0.00
   -5   12    0     -1.58      0.00
    5  -12    6     -0.01      0.00
   -5   11    1      1.73      0.00
   -5   11    0     -1.59      0.00
   -5   10    6      0.56      0.00
   -5   10    1      1.55      0.00
   -5    8   12     -0.57      0.00
   -5    7   13      0.63      0.00
   -5    6   14     -0.29      0.00
   -5    6    3      0.40      0.00
   -5    5   15     -0.02      0.00
   -5    5   14     -0.29      0.00
   -5    4   10      1.12      0.00
   -5    3   15      0.13      0.00
    5   -3    9     -0.11      0.00
   -5    2   15      0.26      0.00
   -5    2   13      0.43      0.00
   -5    2   12     -0.35      0.00
    5   -2   10      0.93      0.00
   -5    1   15      0.26      0.00
   -5    1   14     -0.30      0.00
   -5    1   13      0.41      0.00
   -5    1   12     -0.48      0.00
   -5    0   15      0.14      0.00
   -5    0   14     -0.14      0.00
   -5    0   13      0.21      0.00
   -5   -1   15      0.01      0.00
   -5   -1   14      0.09      0.00
   -5   -2   15      0.00      0.00
   -5   -3   14      0.25      0.00
   -5   -4   14      0.15      0.00
   -5   -5   13     -0.37      0.00
    5    5    5     -0.50      0.00
    5    5    6      0.01      0.00
   -5   -6   13     -0.25      0.00
   -5   -6   12      0.26      0.00
    5    6    1     -0.31      0.00
    5    6    2      0.65      0.00
    5    6    3     -0.80      0.00
    5    6    4      0.69      0.00
    5    7    1     -0.04      0.00
    5    7    2      0.45      0.00
   -5   -8    3      0.44      0.00
   -5   -8    1      0.98      0.00
    5    8    0     -0.71      0.00
    5    8    1      0.17      0.00
   -6   13    0     -0.49      0.00
    6  -13    1      0.06      0.00
    6  -13    2      0.40      0.00
    6  -13    3     -0.64      0.00
    6  -13    4      0.65      0.00
   -6   12    3     -0.01      0.00
   -6   12    1      0.79      0.00
   -6   12    0     -0.54      0.00
   -6   11    7      0.04      0.00
   -6   11    6      0.09      0.00
   -6   11    4      0.23      0.00
   -6   11    3      0.20      0.00
   -6   11    2     -0.70      0.00
   -6   11    1      0.84      0.00
   -6   10    8      0.10      0.00
   -6   10    7      0.02      0.00
   -6   10    2     -0.73      0.00
   -6   10    1      0.82      0.00
   -6    9    9     -0.07      0.00
   -6    9    8     -0.10      0.00
   -6    9    2     -0.76      0.00
   -6    8   11      0.38      0.00
   -6    8   10     -0.38      0.00
   -6    7   12     -0.71      0.00
   -6    7   11      0.84      0.00
   -6    6   13      0.45      0.00
   -6    6   12     -0.77      0.00
   -6    6   11      0.89      0.00
   -6    5   14      0.10      0.00
   -6    5   13      0.24      0.00
   -6    5   12     -0.47      0.00
   -6    5   11      0.35      0.00
   -6    4   13     -0.02      0.00
   -6    4   12      0.03      0.00
   -6    3   13     -0.15      0.00
    6    0    5      0.29      0.00
    6    4    4      0.34      0.00
    6    4    5     -0.17      0.00
    6    5    2      0.84      0.00
    6    5    3     -0.81      0.00
   -6   -6    5     -0.73      0.00
   -6   -6    4      0.59      0.00
   -6   -6    1     -0.21      0.00
    6    6    0      0.59      0.00
    6    6    1     -0.87      0.00
    6    6    2      0.95      0.00
    6    6    3     -0.87      0.00
    6    7    2      0.66      0.00
    7  -13    3     -0.06      0.00
   -7   12    1      0.06      0.00
   -7   12    0      0.09      0.00
   -7   11    4     -0.13      0.00
   -7   11    3      0.16      0.00
   -7   11    2     -0.21      0.00
   -7   11    1      0.07      0.00
   -7   10    2     -0.29      0.00
   -7   10    1      0.02      0.00
   -7    9    2     -0.18      0.00
   -7    7   11      0.08      0.00
   -7    6   12      0.07      0.00
    7    2    4     -0.65      0.00
    7    3    2     -0.24      0.00
    7    3    3      0.55      0.00
    7    4    0     -0.30      0.00
    7    4    1      0.17      0.00
    7    4    2     -0.29      0.00
    7    4    3      0.43      0.00
   -7   -5    5      0.00      0.00
    7    5    0      0.00      0.00
    7    5    1     -0.08      0.00
    7    5    2     -0.03      0.00
   -9    5    0      0.18      0.00
   -9    6    0      0.12      0.00
   -8   10    0      0.39      0.00
   -2   13    0     -0.14      0.00
    2  -13    1      0.13      0.00
    8   -9    1     -0.56      0.00
   -7   -4    1      0.60      0.00
   -8   -2    1     -0.22      0.00
    0    0    1    -21.66      0.00
   -9    5    1      0.05      0.00
   -2   13    1     -0.25      0.00
    2  -13    2      0.28      0.00
   -5   -8    2     -0.85      0.00
   -6   -6    2      0.03      0.00
   -9    3    2     -0.16      0.00
   -6   12    2     -0.52      0.00
   -4   13    2     -0.25      0.00
   -3   13    2      0.57      0.00
    2  -13    3     -0.66      0.00
   -7   -5    3      0.41      0.00
    2  -13    4      0.71      0.00
   -5   -8    4     -0.04      0.00
   -7   -5    4     -0.12      0.00
    4    6    4     -0.45      0.00
   -8   10    4     -0.79      0.00
   -6   12    4      0.36      0.00
   -4   12    4      1.24      0.00
   -3   12    4      0.84      0.00
   -2   12    4      0.37      0.00
   -5   -8    5     -0.11      0.00
    4    6    5      0.23      0.00
   -8   10    5      1.05      0.00
   -7   11    5      0.24      0.00
   -3   11    5     -1.25      0.00
   -5   12    5     -0.83      0.00
   -4   12    5     -1.39      0.00
   -3   12    5     -0.80      0.00
   -2   12    5     -0.12      0.00
   -5   -8    6      0.00      0.00
    2    9    6     -0.42      0.00
   -4   12    6      1.25      0.00
    1  -12    7     -0.70      0.00
    5  -11    7      0.06      0.00
    5    4    7      0.26      0.00
   -8    9    7      1.11      0.00
   -7   10    7      0.70      0.00
    5    3    8     -0.02      0.00
    4    5    8     -0.58      0.00
   -8    8    8     -0.78      0.00
   -5   11    8      0.64      0.00
   -3   -9    9     -0.32      0.00
    5   -9    9     -0.39      0.00
   -4   -8    9      0.27      0.00
   -5   -7    9     -0.19      0.00
    4    4    9      0.54      0.00
   -8    7    9      0.14      0.00
    2    7    9     -0.33      0.00
   -7    9    9      0.28      0.00
   -6   10    9     -0.30      0.00
   -4   -8   10     -0.22      0.00
    3    4   10     -1.33      0.00
   -8    6   10      0.44      0.00
    2    6   10      0.07      0.00
   -7    8   10     -0.20      0.00
   -6    9   10      0.16      0.00
    3   -9   11      0.74      0.00
    4   -8   11     -0.52      0.00
   -5   -6   11     -0.21      0.00
   -6   -4   11     -0.10      0.00
    4    0   11     -0.08      0.00
   -8    1   11     -0.52      0.00
    4    1   11      0.10      0.00
   -8    2   11     -0.69      0.00
   -8    3   11     -0.73      0.00
   -5    3   11     -0.29      0.00
    3    3   11      0.52      0.00
   -8    4   11     -0.67      0.00
    2    5   11      0.04      0.00
    0   -9   12      0.54      0.00
    1   -9   12      1.06      0.00
    2   -7   12      1.10      0.00
   -6   -4   12     -0.20      0.00
    4   -2   12     -0.28      0.00
   -7   -1   12     -0.85      0.00
    3    1   12      0.13      0.00
   -5    3   12     -0.24      0.00
    2    3   12      1.19      0.00
   -7    5   12      0.32      0.00
    1    5   12     -1.24      0.00
    0   -8   13      0.42      0.00
    1   -8   13     -0.31      0.00
    2   -7   13     -0.75      0.00
    2   -6   13     -0.48      0.00
   -6   -2   13      0.42      0.00
    3   -1   13     -0.01      0.00
   -7    1   13      0.14      0.00
   -7    2   13     -0.19      0.00
    2    2   13     -1.63      0.00
   -7    3   13     -0.34      0.00
    1   -6   14     -0.31      0.00
   -6    0   14     -0.34      0.00
   -6    1   14     -0.19      0.00
   -6    2   14      0.05      0.00
   -6    3   14      0.23      0.00
    0    0    0      0.00      0.00
# SQUEEZE RESULTS (Version = 220119)
# Note: Data are Listed for all Voids in the P1 Unit Cell
# i.e. Centre of Gravity, Solvent Accessible Volume,
# Recovered number of Electrons in the Void and
# Details about the Squeezed Material
loop_
  _platon_squeeze_void_nr
  _platon_squeeze_void_average_x
  _platon_squeeze_void_average_y
  _platon_squeeze_void_average_z
  _platon_squeeze_void_volume
  _platon_squeeze_void_count_electrons
  _platon_squeeze_void_content
   1  0.000  0.000  0.500        68        21 ' '
# Missing Reflections Below sin(th)/lambda = 0.25
loop_
  _platon_missing_refln_index_h
  _platon_missing_refln_index_k
  _platon_missing_refln_index_l
  _platon_missing_refln_theta
    0    0    1     1.750
_platon_squeeze_void_probe_radius                  1.20
_platon_squeeze_details
)
TITL 4_auto_a.res in P-1
CELL    7.2209   10.1824   12.1346     93.11    104.13    109.67
SPGR P-1
# Solvent Accessible Volume =        67
# Electrons Found in S.A.V. =        21
# Note: Atoms in Void are Labelled as Cxxx and Qxxx for all Others
Q101 0.311 1.008 0.101 !       3.75 eA-3
Q102 0.840 0.158-0.005 !       3.54 eA-3
Q103 0.410 0.156 0.419 !       3.08 eA-3
C104 0.132 0.898 0.429 !       3.01 eA-3
Q105 0.897 0.783 0.374 !       2.99 eA-3
Q106 0.718 0.743 0.195 !       2.62 eA-3
Q107 0.842 0.059 0.477 !       2.57 eA-3
Q108 0.557 0.219 0.043 !       2.35 eA-3
Q109 1.002 0.813 0.480 !       2.30 eA-3
Q110 0.162 0.882 0.074 !       2.01 eA-3
Q111 0.978 0.656 0.067 !       2.01 eA-3
Q112 0.903 0.061 0.031 !       1.90 eA-3
Q113 0.031 0.054 0.164 !       1.86 eA-3
Q114 0.523 0.128 0.003 !       1.74 eA-3
Q115 0.583 0.619 0.219 !       1.72 eA-3
Q116 0.221 0.964 0.043 !       1.70 eA-3
C117 1.003 0.966 0.397 !       1.68 eA-3
Q118 0.628 0.030 0.015 !       1.62 eA-3
Q119 0.839 0.190 0.255 !       1.60 eA-3
Q120 0.442 0.116 0.068 !       1.59 eA-3
Q121 1.006 0.807 0.023 !       1.57 eA-3
Q122 0.459 0.947 0.251 !       1.55 eA-3
Q123 0.500 0.417 0.312 !       1.54 eA-3
Q124 0.286 0.602 0.450 !       1.54 eA-3
Q125 0.533 0.599 0.151 !       1.54 eA-3
Q126 0.242 0.780 0.082 !       1.53 eA-3
Q127 0.459 0.497 0.170 !       1.49 eA-3
Q128 0.369 0.087 0.124 !       1.46 eA-3
Q129 0.908 0.282 0.318 !       1.45 eA-3
Q130 0.998 0.875 0.425 !       1.41 eA-3
Q131 0.866 0.212 0.014 !       1.40 eA-3
Q132 0.757 0.085 0.064 !       1.40 eA-3
Q133 0.973 0.370 0.292 !       1.38 eA-3
Q134 0.176 0.058 0.425 !       1.36 eA-3
Q135 0.215 0.620 0.033 !       1.36 eA-3
Q136 1.005 0.095 0.110 !       1.34 eA-3
Q137 0.224 0.994 0.462 !       1.31 eA-3
Q138 0.716 0.652 0.307 !       1.30 eA-3
Q139 0.330 0.967 0.047 !       1.28 eA-3
Q140 0.691 0.157 0.005 !       1.28 eA-3
Q141 0.101 0.836 0.147 !       1.28 eA-3
Q142 0.407 0.865 0.298 !       1.25 eA-3
Q143 0.783 0.340 0.190 !       1.25 eA-3
Q144 0.054 0.842 0.384 !       1.25 eA-3
Q145 0.440 0.588 0.059 !       1.24 eA-3
Q146 0.120 0.030 0.465 !       1.23 eA-3
Q147 0.493 0.031 0.106 !       1.23 eA-3
Q148 0.216 0.591 0.345 !       1.23 eA-3
Q149 0.368 0.152 0.182 !       1.22 eA-3
Q150 0.628 0.968 0.127 !       1.21 eA-3
Q151 0.440 0.745 0.093 !       1.19 eA-3
Q152 0.532 0.100 0.217 !       1.19 eA-3
Q153 0.757 0.030 0.065 !       1.19 eA-3
Q154 0.695 0.091 0.107 !       1.18 eA-3
Q155 0.436 0.463 0.036 !       1.18 eA-3
Q156 0.069 0.500 0.272 !       1.18 eA-3
Q157 0.070 0.927 0.478 !       1.18 eA-3
Q158 0.908 0.876 0.127 !       1.17 eA-3
Q159 0.716 0.714 0.242 !       1.15 eA-3
Q160 0.366 0.372 0.216 !       1.14 eA-3
Q161 0.908 0.969 0.169 !       1.13 eA-3
Q162 0.407 0.022 0.188 !       1.12 eA-3
Q163 0.782 0.938 0.092 !       1.10 eA-3
Q164 0.813 0.280 0.298 !       1.08 eA-3
Q165 0.591 0.188 0.203 !       1.08 eA-3
Q166 0.123 0.061 0.106 !       1.07 eA-3
Q167 0.241 0.146 0.122 !       1.07 eA-3
Q168 0.283 0.658 0.329 !       1.06 eA-3
Q169 0.605 1.008 0.088 !       1.06 eA-3
Q170 0.633 0.256 0.127 !       1.06 eA-3
Q171 0.486 0.250 0.112 !       1.06 eA-3
Q172 0.929 0.090 0.301 !       1.05 eA-3
Q173 0.033 0.755 0.118 !       1.05 eA-3
Q174 0.712 0.627 0.347 !       1.05 eA-3
Q175 0.879 0.445 0.112 !       1.04 eA-3
Q176 0.283 0.098 0.099 !       1.03 eA-3
Q177 0.130 0.125 0.165 !       1.03 eA-3
Q178 0.151 0.273 0.044 !       1.03 eA-3
Q179 0.096 0.343 0.435 !       1.03 eA-3
Q180 0.310 1.004 0.355 !       1.02 eA-3
Q181 0.995 0.489 0.200 !       1.01 eA-3
Q182 0.029 0.600 0.281 !       1.01 eA-3
Q183 0.243 0.477 0.503 !       1.01 eA-3
Q184 0.477 0.974 0.024 !       1.01 eA-3
Q185 0.658 0.507 0.368 !       1.01 eA-3
Q186 0.160 0.195 0.235 !       1.00 eA-3
Q187 0.290 0.060 0.171 !       1.00 eA-3
Q188 0.155 0.965 0.132 !       1.00 eA-3
Q189 0.444 0.375 0.261 !       0.99 eA-3
Q190 0.499 0.187 0.251 !       0.98 eA-3
Q191 0.314 0.193 0.343 !       0.97 eA-3
Q192 0.395 0.535 0.084 !       0.97 eA-3
Q193 0.736 0.158 0.198 !       0.97 eA-3
Q194 0.778 0.787 0.269 !       0.97 eA-3
Q195 0.098 0.129 0.222 !       0.97 eA-3
Q196 0.880 0.032 0.107 !       0.96 eA-3
Q197 0.222 0.212 0.060 !       0.96 eA-3
Q198 0.783 0.091 0.249 !       0.96 eA-3
Q199 0.156 0.033 0.204 !       0.96 eA-3
)
;
_shelx_fab_checksum              61215
loop_
_space_group_symop_operation_xyz
'x, y, z'
'-x, -y, -z'
loop_
_atom_site_label
_atom_site_type_symbol
_atom_site_fract_x
_atom_site_fract_y
_atom_site_fract_z
_atom_site_U_iso_or_equiv
_atom_site_adp_type
_atom_site_occupancy
_atom_site_site_symmetry_order
_atom_site_calc_flag
_atom_site_refinement_flags_posn
_atom_site_refinement_flags_adp
_atom_site_refinement_flags_occupancy
_atom_site_disorder_assembly
_atom_site_disorder_group
Bi00 Bi 0.76061(6) 0.08035(5) 0.94036(4) 0.0447(2) Uani 1 1 d . . . . .
Cl00 Cl 0.5531(4) 0.1936(3) 1.0474(3) 0.0464(7) Uani 1 1 d . . . . .
Cl1 Cl 0.9747(4) -0.0484(3) 0.8435(3) 0.0476(7) Uani 1 1 d . . . . .
Cl2 Cl 1.0047(5) 0.3236(4) 0.9383(3) 0.0551(8) Uani 1 1 d . . . . .
Cl3 Cl 0.5315(6) 0.0691(4) 0.7441(3) 0.0672(10) Uani 1 1 d . . . . .
N1 N 0.0543(12) 0.3151(12) 0.4506(8) 0.071(2) Uani 1 1 d D U . . .
H1 H 0.019025 0.239071 0.483449 0.085 Uiso 0.5 1 calc R U P . .
N2 N 0.2475(13) 0.3208(11) 0.6727(8) 0.071(2) Uani 1 1 d D U . . .
H2 H 0.149506 0.242838 0.633483 0.085 Uiso 0.5 1 calc R U P . .
N3 N 0.494(2) 0.8041(18) 0.4906(16) 0.121(5) Uani 1 1 d . U . . .
H3A H 0.399574 0.847199 0.463676 0.146 Uiso 1 1 d R U . . .
H3B H 0.599718 0.874758 0.545367 0.146 Uiso 1 1 d R U . . .
C1 C -0.0382(18) 0.3185(15) 0.3382(9) 0.068(3) Uani 1 1 d D U . . .
H1A H -0.143973 0.234227 0.296057 0.082 Uiso 1 1 calc R U . . .
C2 C 0.0088(17) 0.4336(12) 0.2810(13) 0.070(3) Uani 1 1 d D U . . .
H2A H -0.060754 0.429713 0.202846 0.084 Uiso 1 1 calc R U . . .
C3 C 0.1618(15) 0.5538(14) 0.3437(9) 0.064(3) Uani 1 1 d D U . . .
H3 H 0.199682 0.635810 0.308091 0.077 Uiso 1 1 calc R U . . .
C4 C 0.2619(14) 0.5592(12) 0.4565(9) 0.064(2) Uani 1 1 d D U . . .
C5 C 0.2066(11) 0.4399(10) 0.5080(8) 0.062(2) Uani 1 1 d D U . . .
C6 C 0.3038(12) 0.4405(11) 0.6219(8) 0.064(2) Uani 1 1 d D U . . .
C7 C 0.4580(13) 0.5603(12) 0.6864(9) 0.067(2) Uani 1 1 d D U . . .
C8 C 0.521(2) 0.6829(17) 0.6410(12) 0.094(3) Uani 1 1 d D U . . .
H8 H 0.629592 0.765705 0.683601 0.113 Uiso 1 1 calc R U . . .
C9 C 0.414(3) 0.6762(18) 0.5282(13) 0.096(3) Uani 1 1 d D U . . .
C10 C 0.5585(18) 0.5649(16) 0.8002(10) 0.075(3) Uani 1 1 d D U . . .
H10 H 0.664421 0.648944 0.842794 0.089 Uiso 1 1 calc R U . . .
C11 C 0.5015(17) 0.4455(14) 0.8499(13) 0.078(3) Uani 1 1 d D U . . .
H11 H 0.567797 0.445706 0.927851 0.094 Uiso 1 1 calc R U . . .
C12 C 0.3478(16) 0.3254(16) 0.7864(9) 0.078(3) Uani 1 1 d D U . . .
H12 H 0.309308 0.243116 0.821587 0.093 Uiso 1 1 calc R U . . .
loop_
_atom_site_aniso_label
_atom_site_aniso_U_11
_atom_site_aniso_U_22
_atom_site_aniso_U_33
_atom_site_aniso_U_23
_atom_site_aniso_U_13
_atom_site_aniso_U_12
Bi00 0.0400(3) 0.0632(4) 0.0482(3) 0.0098(2) 0.0166(2) 0.0370(2)
Cl00 0.0429(15) 0.0569(18) 0.0522(17) 0.0036(14) 0.0151(13) 0.0334(14)
Cl1 0.0440(15) 0.0647(19) 0.0487(16) 0.0081(15) 0.0210(13) 0.0324(14)
Cl2 0.0558(18) 0.067(2) 0.0563(18) 0.0170(16) 0.0200(15) 0.0354(16)
Cl3 0.063(2) 0.091(3) 0.058(2) 0.0091(19) 0.0057(17) 0.049(2)
N1 0.066(5) 0.092(5) 0.072(5) -0.002(4) 0.020(4) 0.051(4)
N2 0.075(5) 0.097(5) 0.070(5) 0.012(4) 0.027(4) 0.063(4)
N3 0.143(10) 0.101(8) 0.158(11) 0.042(8) 0.064(9) 0.071(7)
C1 0.065(5) 0.089(5) 0.069(5) -0.003(4) 0.018(4) 0.053(4)
C2 0.071(5) 0.086(6) 0.074(5) 0.003(4) 0.030(4) 0.050(5)
C3 0.070(5) 0.084(5) 0.063(5) 0.011(4) 0.026(4) 0.055(4)
C4 0.068(5) 0.086(5) 0.067(4) 0.006(4) 0.026(4) 0.058(4)
C5 0.065(4) 0.086(5) 0.060(4) 0.001(4) 0.024(4) 0.056(4)
C6 0.065(4) 0.090(5) 0.063(4) 0.004(4) 0.024(4) 0.057(4)
C7 0.065(5) 0.089(5) 0.070(4) -0.002(4) 0.020(4) 0.059(4)
C8 0.090(6) 0.104(6) 0.091(5) 0.002(5) 0.019(5) 0.046(5)
C9 0.099(6) 0.102(5) 0.093(5) 0.012(5) 0.024(5) 0.045(5)
C10 0.072(5) 0.097(5) 0.073(5) -0.010(4) 0.022(4) 0.057(5)
C11 0.080(5) 0.105(6) 0.073(5) -0.001(4) 0.019(5) 0.065(5)
C12 0.082(6) 0.101(6) 0.074(5) 0.013(5) 0.026(5) 0.061(5)
loop_
_atom_type_symbol
_atom_type_description
_atom_type_scat_dispersion_real
_atom_type_scat_dispersion_imag
_atom_type_scat_source
C C 0.0033 0.0016 'International Tables Vol C Tables 4.2.6.8 and 6.1.1.4'
H H 0.0000 0.0000 'International Tables Vol C Tables 4.2.6.8 and 6.1.1.4'
Bi Bi -4.1077 10.2566 'International Tables Vol C Tables 4.2.6.8 and 6.1.1.4'
Cl Cl 0.1484 0.1585 'International Tables Vol C Tables 4.2.6.8 and 6.1.1.4'
N N 0.0061 0.0033 'International Tables Vol C Tables 4.2.6.8 and 6.1.1.4'
loop_
_geom_angle_atom_site_label_1
_geom_angle_atom_site_label_2
_geom_angle_atom_site_label_3
_geom_angle
_geom_angle_site_symmetry_1
_geom_angle_site_symmetry_3
_geom_angle_publ_flag
Cl2 Bi00 Cl3 93.23(12) . . ?
Cl2 Bi00 Cl00 89.96(10) . . ?
Cl3 Bi00 Cl00 92.98(10) . . ?
Cl2 Bi00 Cl1 92.75(10) . . ?
Cl3 Bi00 Cl1 90.26(11) . . ?
Cl00 Bi00 Cl1 175.65(9) . . ?
Cl2 Bi00 Cl1 92.89(10) . 2_757 ?
Cl3 Bi00 Cl1 170.88(11) . 2_757 ?
Cl00 Bi00 Cl1 93.78(8) . 2_757 ?
Cl1 Bi00 Cl1 82.69(9) . 2_757 ?
Cl2 Bi00 Cl00 174.17(9) . 2_657 ?
Cl3 Bi00 Cl00 86.51(12) . 2_657 ?
Cl00 Bi00 Cl00 84.24(9) . 2_657 ?
Cl1 Bi00 Cl00 93.08(9) . 2_657 ?
Cl1 Bi00 Cl00 88.09(9) 2_757 2_657 ?
Bi00 Cl00 Bi00 95.76(9) . 2_657 ?
Bi00 Cl1 Bi00 97.31(9) . 2_757 ?
C1 N1 C5 114.9(11) . . ?
C6 N2 C12 118.9(11) . . ?
N1 C1 C2 125.8(14) . . ?
C3 C2 C1 115.9(14) . . ?
C2 C3 C4 121.9(13) . . ?
C3 C4 C5 118.9(11) . . ?
C3 C4 C9 126.4(12) . . ?
C5 C4 C9 114.7(12) . . ?
N1 C5 C4 122.6(10) . . ?
N1 C5 C6 116.5(10) . . ?
C4 C5 C6 120.8(10) . . ?
C7 C6 N2 118.7(10) . . ?
C7 C6 C5 120.8(10) . . ?
N2 C6 C5 120.5(10) . . ?
C8 C7 C6 121.6(12) . . ?
C8 C7 C10 116.0(12) . . ?
C6 C7 C10 122.5(12) . . ?
C7 C8 C9 114.6(15) . . ?
C8 C9 C4 127.3(16) . . ?
C8 C9 N3 109.6(14) . . ?
C4 C9 N3 122.8(14) . . ?
C11 C10 C7 118.4(14) . . ?
C10 C11 C12 119.6(15) . . ?
C11 C12 N2 122.0(14) . . ?
loop_
_geom_bond_atom_site_label_1
_geom_bond_atom_site_label_2
_geom_bond_distance
_geom_bond_site_symmetry_2
_geom_bond_publ_flag
Bi00 Cl2 2.517(4) . ?
Bi00 Cl3 2.518(3) . ?
Bi00 Cl00 2.686(3) . ?
Bi00 Cl1 2.753(3) . ?
Bi00 Cl1 2.950(3) 2_757 ?
Bi00 Cl00 2.981(3) 2_657 ?
N1 C1 1.372(7) . ?
N1 C5 1.378(7) . ?
N2 C6 1.379(7) . ?
N2 C12 1.382(7) . ?
N3 C9 1.39(2) . ?
C1 C2 1.381(7) . ?
C2 C3 1.370(8) . ?
C3 C4 1.371(7) . ?
C4 C5 1.379(7) . ?
C4 C9 1.388(7) . ?
C5 C6 1.388(7) . ?
C6 C7 1.377(7) . ?
C7 C8 1.373(8) . ?
C7 C10 1.384(7) . ?
C8 C9 1.382(8) . ?
C10 C11 1.370(8) . ?
C11 C12 1.374(8) . ?
