#------------------------------------------------------------------------------
#$Date: 2022-03-23 01:50:33 +0200 (Wed, 23 Mar 2022) $
#$Revision: 273903 $
#$URL: file:///home/coder/svn-repositories/cod/cif/7/70/97/7709793.cif $
#------------------------------------------------------------------------------
#
# This file is available in the Crystallography Open Database (COD),
# http://www.crystallography.net/
#
# All data on this site have been placed in the public domain by the
# contributors.
#
data_7709793
loop_
_publ_author_name
'Zhou, Liang'
'Ruan, Mingming'
'Meng, Wei'
'Wang, Qianping'
'Liu, Bo'
'Xuan, Xiaopeng'
'Zhang, Jun'
_publ_section_title
;
 Two-dimensional coordination polymers with high proton conductivity and
 ultrafast highly efficient molecular sieving constructed by structural
 inductive effect
;
_journal_name_full               'Dalton Transactions'
_journal_paper_doi               10.1039/D2DT00364C
_journal_year                    2022
_chemical_formula_moiety         'C20 H8 Cu2 O16, 2(I), 5(H2 O), 2(H3 O)'
_chemical_formula_sum            'C20 H24 Cu2 I2 O23'
_chemical_formula_weight         1013.27
_space_group_crystal_system      triclinic
_space_group_IT_number           2
_space_group_name_Hall           '-P 1'
_space_group_name_H-M_alt        'P -1'
_atom_sites_solution_hydrogens   mixed
_atom_sites_solution_primary     dual
_audit_creation_date             2021-10-29
_audit_creation_method
;
Olex2 1.2-beta
(compiled 2018.05.29 svn.r3508 for OlexSys, GUI svn.r5506)
;
_audit_update_record
;
2022-01-07 deposited with the CCDC.	2022-03-21 downloaded from the CCDC.
;
_cell_angle_alpha                67.176(3)
_cell_angle_beta                 89.856(3)
_cell_angle_gamma                75.429(3)
_cell_formula_units_Z            1
_cell_length_a                   7.6629(6)
_cell_length_b                   10.5730(9)
_cell_length_c                   10.5855(9)
_cell_measurement_reflns_used    3877
_cell_measurement_temperature    101.0
_cell_measurement_theta_max      29.038
_cell_measurement_theta_min      2.340
_cell_volume                     760.70(11)
_computing_cell_refinement       'SAINT V8.38A (?, 2016)'
_computing_data_reduction        'SAINT V8.38A (?, 2016)'
_computing_molecular_graphics    'Olex2 (Dolomanov et al., 2009)'
_computing_publication_material  'Olex2 (Dolomanov et al., 2009)'
_computing_structure_refinement  'ShelXL (Sheldrick, 2015)'
_computing_structure_solution    'ShelXT (Sheldrick, 2015)'
_diffrn_ambient_temperature      101.0
_diffrn_detector
'Bruker D8 Venture with photon2 CMOS detector'
_diffrn_detector_area_resol_mean 7.9
_diffrn_detector_type            'CMOS detector'
_diffrn_measured_fraction_theta_full 0.921
_diffrn_measured_fraction_theta_max 0.923
_diffrn_measurement_device       'three-circle diffractometer'
_diffrn_measurement_device_type
'Bruker D8 Venture with photon2 CMOS detector'
_diffrn_measurement_method       '\w and \f scans'
_diffrn_radiation_monochromator  'mirror optics'
_diffrn_radiation_probe          x-ray
_diffrn_radiation_type           MoK\a
_diffrn_radiation_wavelength     0.71073
_diffrn_reflns_av_R_equivalents  0.0318
_diffrn_reflns_av_unetI/netI     0.2077
_diffrn_reflns_Laue_measured_fraction_full 0.921
_diffrn_reflns_Laue_measured_fraction_max 0.923
_diffrn_reflns_limit_h_max       9
_diffrn_reflns_limit_h_min       -9
_diffrn_reflns_limit_k_max       12
_diffrn_reflns_limit_k_min       -11
_diffrn_reflns_limit_l_max       12
_diffrn_reflns_limit_l_min       -12
_diffrn_reflns_number            5427
_diffrn_reflns_point_group_measured_fraction_full 0.921
_diffrn_reflns_point_group_measured_fraction_max 0.923
_diffrn_reflns_theta_full        25.242
_diffrn_reflns_theta_max         25.499
_diffrn_reflns_theta_min         2.340
_diffrn_source                   'microfocus sealed X-ray tube'
_diffrn_source_type              'Incoatec I\ms'
_exptl_absorpt_coefficient_mu    3.525
_exptl_absorpt_correction_T_max  0.0309
_exptl_absorpt_correction_T_min  0.0108
_exptl_absorpt_correction_type   multi-scan
_exptl_absorpt_process_details
;
SADABS-2016/2 (Bruker,2016/2) was used for absorption correction.
wR2(int) was 0.0880 before and 0.0556 after correction.
The Ratio of minimum to maximum transmission is 0.3495.
The \l/2 correction factor is Not present.
;
_exptl_crystal_colour            blue
_exptl_crystal_colour_primary    blue
_exptl_crystal_density_diffrn    2.212
_exptl_crystal_description       block
_exptl_crystal_F_000             492
_exptl_crystal_size_max          0.14
_exptl_crystal_size_mid          0.14
_exptl_crystal_size_min          0.13
_refine_diff_density_max         1.310
_refine_diff_density_min         -1.204
_refine_diff_density_rms         0.213
_refine_ls_extinction_method     none
_refine_ls_goodness_of_fit_ref   1.065
_refine_ls_hydrogen_treatment    constr
_refine_ls_matrix_type           full
_refine_ls_number_parameters     226
_refine_ls_number_reflns         2611
_refine_ls_number_restraints     1
_refine_ls_restrained_S_all      1.065
_refine_ls_R_factor_all          0.1361
_refine_ls_R_factor_gt           0.0967
_refine_ls_shift/su_max          0.000
_refine_ls_shift/su_mean         0.000
_refine_ls_structure_factor_coef Fsqd
_refine_ls_weighting_details
'w=1/[\s^2^(Fo^2^)+(0.0130P)^2^] where P=(Fo^2^+2Fc^2^)/3'
_refine_ls_weighting_scheme      calc
_refine_ls_wR_factor_gt          0.2243
_refine_ls_wR_factor_ref         0.2498
_reflns_Friedel_coverage         0.000
_reflns_number_gt                1409
_reflns_number_total             2611
_reflns_threshold_expression     'I > 2\s(I)'
_cod_data_source_file            d2dt00364c2.cif
_cod_data_source_block           HNNU-1gama
_cod_database_code               7709793
_shelx_shelxl_version_number     2018/3
_shelx_space_group_comment
;
The symmetry employed for this shelxl refinement is uniquely defined
by the following loop, which should always be used as a source of
symmetry information in preference to the above space-group names.
They are only intended as comments.
;
_olex2_refinement_description
;
1. Fixed Uiso
 At 1.2 times of:
  All C(H) groups
 At 1.5 times of:
  All O(H) groups, All O(H,H) groups, All O(H,H,H) groups
2. Restrained distances
 C9-C5
 1.48 with sigma of 0.01
3. Others
 Fixed Sof: I2(0.5) I1(0.5) H8(0.5) H6(0.5) H2(0.5) H3(0.5) O10(0.5) H10A(0.5)
 H10B(0.5)
4.a Riding coordinates:
 O8(H8), O6(H6), O2(H2), O3(H3), O12(H12A,H12B), O9(H9A,H9B), O11(H11A,H11B,
 H11C), O10(H10A,H10B)
4.b Aromatic/amide H refined with riding coordinates:
 C4(H4), C7(H7)
;
_shelx_res_file
;
TITL mo_0324-d07_0m_a.res in P-1
    mo_0324-d07_0m.res
    created by SHELXL-2018/3 at 14:41:37 on 29-Oct-2021
REM Old TITL mo_0324-d07_0m in P1 #1
REM SHELXT solution in P-1
REM R1 0.238, Rweak 0.026, Alpha 0.045, Orientation as input
REM Formula found by SHELXT: Cu C10 O14
CELL 0.71073 7.6629 10.573 10.5855 67.176 89.856 75.429
ZERR 1 0.0006 0.0009 0.0009 0.003 0.003 0.003
LATT 1
SFAC C H Cu I O
UNIT 20 24 2 2 23
EQIV $1 1-X,-Y,1-Z
EQIV $2 1-X,-Y,2-Z
EQIV $3 -1+X,+Y,+Z
EQIV $4 1+X,+Y,+Z
DFIX 1.48 0.01 C9 C5

L.S. 12 0 0
PLAN  2
TEMP -172.15
HTAB O8 O9_$1
HTAB O6 O7
HTAB O3 O9_$2
HTAB O12 O2_$3
HTAB O9 O10
HTAB O11 O6_$2
HTAB O11 O4_$4
HTAB O10 O10_$2
bond $h
list 4
fmap 2 53
acta
OMIT 0 51
OMIT 0 0 3
OMIT 1 1 2
OMIT 3 3 1
OMIT 1 2 1
OMIT 2 2 7
OMIT -1 1 2
OMIT -1 -1 1
OMIT 0 0 1
OMIT -2 5 0
OMIT -4 -3 5
OMIT 1 -1 1
OMIT 3 2 0
OMIT -2 2 1
OMIT -3 -1 1
OMIT 2 1 1
OMIT -3 4 5
OMIT -6 2 5
OMIT -4 -2 6
OMIT -3 -2 2
OMIT -1 3 1
OMIT 1 1 1
OMIT -1 3 0
OMIT 1 0 0
OMIT 2 3 0
OMIT -1 1 1
OMIT -2 4 0
REM <olex2.extras>
REM <HklSrc "%.\\mo_0324-d07_0m.hkl">
REM </olex2.extras>

WGHT    0.013000
FVAR       0.25612
CU1   3    0.002259    0.767226    0.763848    11.00000    0.02205    0.01401 =
         0.01206   -0.00550    0.00327   -0.00727
I2    4   -0.321481    0.193011    0.510240    10.50000    0.06446    0.06189 =
         0.06259   -0.02228    0.01113   -0.01619
I1    4   -0.299936    0.515893    0.849321    10.50000    0.07759    0.06711 =
         0.06779   -0.02436    0.01167   -0.02732
O8    5    0.299440    0.268542    0.395745    11.00000    0.02000    0.02539 =
         0.02360   -0.01402    0.00960   -0.01121
AFIX   3
H8    2    0.322270    0.247142    0.328305    10.50000   -1.50000
AFIX   0
O7    5    0.049946    0.190350    0.429251    11.00000    0.03391    0.02294 =
         0.01208   -0.00775   -0.00063   -0.01503
O5    5   -0.059011   -0.025743    0.725534    11.00000    0.02310    0.01776 =
         0.02111   -0.01307    0.00923   -0.00838
O6    5    0.231954   -0.084307    0.694279    11.00000    0.02095    0.02204 =
         0.02667   -0.00788    0.00016   -0.00874
AFIX   3
H6    2    0.262864   -0.065507    0.617169    10.50000   -1.50000
AFIX   0
O1    5    0.066202    0.563482    0.809873    11.00000    0.03242    0.02127 =
         0.01669   -0.01298    0.01279   -0.01108
O4    5   -0.051182    0.267546    1.040285    11.00000    0.02448    0.03145 =
         0.01849   -0.01533    0.00820   -0.01131
O2    5    0.318811    0.559262    0.701187    11.00000    0.02854    0.02396 =
         0.02945   -0.01336    0.01041   -0.01532
AFIX   3
H2    2    0.389841    0.537792    0.785337    10.50000   -1.50000
AFIX   0
O3    5    0.232693    0.280512    1.055940    11.00000    0.03591    0.01965 =
         0.01870   -0.00686    0.00492   -0.00649
AFIX   3
H3    2    0.326673    0.219592    1.054929    10.50000   -1.50000
AFIX   0

O12   5   -0.365307    0.354100    0.683950    11.00000    0.03553    0.03881 =
         0.06493   -0.03860    0.00814   -0.00655
AFIX   3
H12A  2   -0.443747    0.433020    0.675740    11.00000   -1.50000
H12B  2   -0.290437    0.329510    0.636610    11.00000   -1.50000
AFIX   0

O9    5    0.554886   -0.021265    0.686690    11.00000    0.02939    0.03912 =
         0.05957    0.00635    0.00083   -0.01372
AFIX   3
H9A   2    0.490776    0.052095    0.628750    11.00000   -1.50000
H9B   2    0.571226   -0.000975    0.757190    11.00000   -1.50000
AFIX   0

C10   1    0.180287    0.233547    0.464632    11.00000    0.02995    0.01307 =
         0.01710   -0.00582   -0.00683    0.00048
C4    1    0.086265    0.156251    0.833920    11.00000    0.02264    0.01596 =
         0.01511   -0.00454    0.00291   -0.00750
AFIX  43
H4    2    0.043666    0.088551    0.906850    11.00000   -1.20000
AFIX   0
C1    1    0.192989    0.507799    0.752701    11.00000    0.03753    0.01627 =
         0.01641   -0.00205   -0.01047   -0.00668
C9    1    0.092709    0.002304    0.709547    11.00000    0.02865    0.02425 =
         0.00774   -0.00453    0.00317   -0.00892
C3    1    0.119180    0.268151    0.851846    11.00000    0.02287    0.01972 =
         0.00925   -0.00232    0.00284   -0.00927
C6    1    0.168595    0.241335    0.603129    11.00000    0.02096    0.01690 =
         0.02442   -0.01348    0.00559   -0.00561
C5    1    0.112620    0.137568    0.713305    11.00000    0.00907    0.01444 =
         0.01595   -0.00280   -0.00238    0.00164
C8    1    0.100091    0.274337    0.990069    11.00000    0.04717    0.00996 =
         0.01282   -0.00182   -0.00167   -0.00810
C7    1    0.197478    0.357405    0.620435    11.00000    0.01433    0.02106 =
         0.02041   -0.01063   -0.00092   -0.00265
AFIX  43
H7    2    0.233734    0.428224    0.546195    11.00000   -1.20000
AFIX   0

O11   5    0.559028    0.319382    1.027838    11.00000    0.03464    0.08687 =
         0.08972    0.02870   -0.01813   -0.02885
AFIX   3
H11A  2    0.676098    0.285632    1.047067    11.00000   -1.50000
H11B  2    0.482778    0.385582    0.974518    11.00000   -1.50000
H11C  2    0.526018    0.299822    1.109977    11.00000   -1.50000
AFIX   0

C2    1    0.174595    0.372698    0.744168    11.00000    0.01682    0.01357 =
         0.02651   -0.00965   -0.00984    0.00293
O10   5    0.609486    0.078035    0.884346    10.50000    0.02237    0.02865 =
         0.02525   -0.00629   -0.00822    0.00044
AFIX   3
H10A  2    0.602346   -0.008725    0.906646    10.50000   -1.50000
H10B  2    0.588126    0.117335    0.950536    10.50000   -1.50000
AFIX   0
HKLF 4




REM  mo_0324-d07_0m_a.res in P-1
REM wR2 = 0.2498, GooF = S = 1.065, Restrained GooF = 1.065 for all data
REM R1 = 0.0967 for 1409 Fo > 4sig(Fo) and 0.1361 for all 2611 data
REM 226 parameters refined using 1 restraints

END

WGHT      0.0907      0.0000

REM Highest difference peak  1.310,  deepest hole -1.204,  1-sigma level  0.213
Q1    1   0.5914  0.2625  0.9439  11.00000  0.05    1.31
Q2    1   0.3627  0.1788  0.2842  11.00000  0.05    1.30
;
_shelx_res_checksum              44153
_shelx_hkl_file
;
  -1   0   0  698.42   89.39
  -1   0   0  701.82   88.91
   1   0   0  685.21   88.59
   1   0   0  689.58   89.33
  -2   0   0    7.81    6.20
  -2   0   0    6.90    5.58
   2   0   0    5.47    4.61
   2   0   0    5.97    5.64
  -3   0   0  563.46   83.84
  -3   0   0  553.95   83.14
   3   0   0  605.71   82.32
   3   0   0  590.90   84.62
  -4   0   0   48.35   16.26
  -4   0   0   52.48   16.92
   4   0   0   53.01   15.66
   4   0   0   50.97   16.93
  -5   0   0    1.04    3.66
  -5   0   0    1.06    3.86
   5   0   0     .10    3.37
  -6   0   0   53.03   18.75
  -6   0   0   56.56   18.80
   6   0   0   47.78   18.12
   6   0   0   56.59   17.46
  -7   0   0   12.82   11.15
  -7   0   0    8.63    9.18
   7   0   0   12.15    9.45
  -8   0   0   50.00   19.07
  -8   0   0   50.36   18.45
  -9   0   0   13.68   11.80
   9   0   0   14.35   10.73
  10   0   0    9.99    8.99
   9  -1   0    -.04    4.70
  -9   1   0    1.79    4.70
   8  -1   0   10.36    9.43
  -8   1   0    8.21    8.57
   7  -1   0   15.74   12.08
  -7   1   0   14.70   11.60
   6  -1   0   22.83   11.66
   6  -1   0   18.52   10.56
  -6   1   0   18.53   11.78
  -6   1   0   21.19   11.17
   4  -1   0   34.83   13.52
   4  -1   0   34.94   13.75
  -4   1   0   36.54   13.73
  -4   1   0   35.09   14.59
   3  -1   0   27.80   11.04
   3  -1   0   26.12   11.33
  -3   1   0   27.56   12.20
  -3   1   0   28.31   11.06
   2  -1   0 1621.56  215.87
   2  -1   0 1728.16  213.55
  -2   1   0 1669.02  213.27
  -2   1   0 1697.67  217.22
   1  -1   0  160.81   24.96
   1  -1   0  168.27   28.73
  -1   1   0  162.31   25.01
  -1  -1   0    3.37    2.89
  -1  -1   0    3.51    2.32
   1   1   0    3.85    3.05
   1   1   0    4.33    2.64
  -2  -1   0   91.14   19.43
  -2  -1   0   90.11   17.35
   2   1   0   93.74   17.30
   2   1   0   94.77   19.82
  -3  -1   0     .79    2.29
  -3  -1   0     .70    2.78
   3   1   0     .82    2.95
   3   1   0     .57    1.78
  -4  -1   0   26.72   11.70
  -4  -1   0   27.26   11.00
   4   1   0   27.50   12.22
   4   1   0   27.00   10.33
  -5  -1   0    5.06    6.81
  -5  -1   0    6.02    6.66
   5   1   0    5.23    7.12
   5   1   0    8.02    7.68
  -6  -1   0    9.83    8.59
   6   1   0   10.91    9.90
  -7  -1   0    2.78    4.60
  -7  -1   0    2.74    5.09
   7   1   0     .35    3.49
  -8  -1   0   11.16   10.71
  -9  -1   0    4.89    7.33
  -9  -1   0    4.36    8.49
   9   1   0    7.11    6.84
  10   1   0   -1.72    4.10
   9  -2   0    5.25    7.81
  -9   2   0    2.44    6.70
   8  -2   0    8.83    9.67
  -8   2   0   10.90    9.50
   7  -2   0   22.92   12.36
  -7   2   0   23.01   11.76
   6  -2   0   50.76   18.48
   6  -2   0   50.14   17.77
  -6   2   0   51.45   17.79
   5  -2   0   40.38   15.31
   5  -2   0   49.24   17.95
  -5   2   0   47.61   16.63
   4  -2   0    5.56    6.62
   4  -2   0    5.19    6.94
  -4   2   0    7.23    7.55
   3  -2   0   17.79   10.53
   3  -2   0   17.38    8.66
  -3   2   0   16.79    8.20
   2  -2   0   36.37   10.87
   2  -2   0   37.52   14.34
  -2   2   0   37.93   10.95
   1  -2   0  761.63   96.33
  -1   2   0  743.97   96.21
  -1  -2   0  228.20   32.20
   1   2   0  223.06   32.20
  -2  -2   0  264.80   40.77
  -2  -2   0  271.67   42.33
   2   2   0  275.92   42.58
   2   2   0  274.24   41.27
  -3  -2   0 1036.99  140.62
  -3  -2   0 1084.56  145.17
   3   2   0 1135.96  145.76
   3   2   0 1062.23  140.75
  -4  -2   0  111.77   24.24
  -4  -2   0  121.27   27.57
   4   2   0  117.47   24.15
   4   2   0  122.72   28.18
  -5  -2   0  177.80   34.36
  -5  -2   0  173.68   37.06
   5   2   0  175.16   37.50
   5   2   0  170.60   32.71
  -6  -2   0  131.49   31.77
  -6  -2   0  134.21   29.06
   6   2   0  117.71   31.05
   6   2   0  126.83   27.28
  -7  -2   0   11.31    9.61
  -7  -2   0    9.99   10.63
   7   2   0   11.03    7.24
  -8  -2   0   24.01   12.30
  -8  -2   0   21.06   11.86
   8   2   0   22.91   10.97
  -9  -2   0   16.69   11.15
  -9  -2   0   21.78   12.53
   9   2   0   23.85   10.89
  10   2   0   -1.29    4.13
   9  -3   0    1.92    6.49
  -9   3   0     .94    5.29
   8  -3   0    2.57    6.81
  -8   3   0    2.81    6.05
   7  -3   0    -.61    3.11
  -7   3   0    1.21    4.38
   6  -3   0   29.44   14.99
   6  -3   0   36.83   14.14
  -6   3   0   31.98   13.65
   5  -3   0   37.44   14.44
   5  -3   0   37.99   16.66
  -5   3   0   39.85   14.74
   4  -3   0    -.33    3.30
   4  -3   0     .03    2.33
  -4   3   0     .26    3.00
   3  -3   0  109.70   23.27
   3  -3   0  101.22   28.34
  -3   3   0  105.15   23.00
   2  -3   0   12.13   10.95
   2  -3   0   12.65    6.11
   1  -3   0  278.27   38.36
  -1   3   0  275.06   38.37
  -1  -3   0   19.50    5.52
   1   3   0   19.65    5.54
  -2  -3   0  129.74   25.47
  -2  -3   0  139.47   24.47
   2   3   0  129.09   24.12
  -3  -3   0  462.94   65.93
  -3  -3   0  437.92   66.85
   3   3   0  463.41   66.31
   3   3   0  428.22   67.10
  -4  -3   0   39.91   13.18
  -4  -3   0   42.87   14.97
   4   3   0   42.25   13.34
   4   3   0   47.40   15.81
  -5  -3   0   31.08   11.83
  -5  -3   0   30.91   13.51
   5   3   0   29.63   13.55
   5   3   0   30.78   11.74
  -6  -3   0   65.73   20.97
  -6  -3   0   65.60   18.40
   6   3   0   60.79   20.70
   6   3   0   65.06   18.04
  -7  -3   0   42.50   15.13
  -7  -3   0   39.71   16.40
   7   3   0   36.09   13.27
  -8  -3   0     .60    4.26
  -8  -3   0    1.58    3.55
   8   3   0    -.30    3.18
  -9  -3   0   -2.26    5.20
  -9  -3   0     .14    3.85
   9   3   0   -1.19    3.63
  10   3   0    9.66    8.24
   8  -4   0    2.01    6.10
  -8   4   0    1.91    5.71
   7  -4   0   48.37   19.68
  -7   4   0   53.40   17.27
   6  -4   0   11.31   11.68
   6  -4   0    5.30    7.61
  -6   4   0    5.85    6.97
   5  -4   0   18.23   12.22
   5  -4   0   16.26    9.18
  -5   4   0   16.60    9.60
   4  -4   0  160.62   39.68
   4  -4   0  171.85   33.14
  -4   4   0  177.88   33.47
   3  -4   0   86.34   19.39
   3  -4   0   80.30   25.92
  -3   4   0   81.90   19.12
   2  -4   0   51.27   19.76
   2  -4   0   45.93   11.70
  -2   4   0   47.18   11.94
   1  -4   0  307.58   41.13
  -1   4   0  300.77   40.93
  -1  -4   0   85.32   13.81
   1   4   0   84.34   13.86
  -2  -4   0  107.03   23.97
  -2  -4   0  107.30   20.54
   2   4   0  111.59   20.87
  -3  -4   0  303.98   49.29
  -3  -4   0  291.39   48.01
   3   4   0  306.65   48.80
  -4  -4   0   15.11    8.10
  -4  -4   0   19.05    9.51
   4   4   0   14.48    8.59
   4   4   0   15.84    8.49
  -5  -4   0   16.78   12.31
  -5  -4   0   16.90    8.68
   5   4   0   16.26    8.97
   5   4   0   17.08   12.57
  -6  -4   0   81.15   23.52
  -6  -4   0   75.56   20.17
   6   4   0   75.05   20.23
   6   4   0   77.86   23.41
  -7  -4   0   21.14   10.76
  -7  -4   0   21.32   11.69
   7   4   0   20.42   10.33
  -8  -4   0    2.27    5.01
  -8  -4   0     .06    4.14
   8   4   0    1.74    4.59
  -9  -4   0    8.78    9.85
  -9  -4   0   14.65   12.17
   9   4   0   10.05    8.25
  10   4   0    -.56    4.65
   8  -5   0   -2.22    5.25
  -8   5   0     .00    4.91
   7  -5   0    1.36    5.21
  -7   5   0     .83    4.30
   6  -5   0    1.48    4.25
   6  -5   0    1.14    5.59
  -6   5   0    3.60    4.90
   5  -5   0   -1.12    2.40
   5  -5   0    -.84    3.54
  -5   5   0     .09    3.11
   4  -5   0     .50    2.85
   4  -5   0    -.50    3.58
  -4   5   0    -.10    2.64
   3  -5   0    9.61    5.84
   3  -5   0   10.38   11.26
  -3   5   0   10.37    6.19
   2  -5   0  116.23   32.61
   2  -5   0  102.87   19.16
  -2   5   0  103.81   19.19
  -1   5   0   98.96   14.84
  -2  -5   0  375.68   52.75
   2   5   0  370.91   52.98
  -3  -5   0  120.42   24.57
  -3  -5   0  121.74   27.40
   3   5   0  123.11   24.74
  -4  -5   0    4.69    5.99
  -4  -5   0    3.06    4.49
   4   5   0    5.68    6.21
  -5  -5   0   38.17   13.47
  -5  -5   0   33.64   13.56
   5   5   0   34.98   14.32
  -6  -5   0  131.35   31.13
  -6  -5   0  127.24   28.13
   6   5   0  133.96   28.65
   6   5   0  122.06   30.41
  -7  -5   0    -.94    3.62
  -7  -5   0     .90    4.04
   7   5   0     .78    2.80
  -8  -5   0     .00    3.07
  -8  -5   0     .79    4.74
   8   5   0    2.05    4.75
  -9  -5   0    2.26    6.30
  -9  -5   0    3.87    6.31
   9   5   0    3.85    5.48
  10   5   0    -.62    4.88
   7  -6   0    3.33    7.91
  -7   6   0    4.50    5.74
   6  -6   0     .21    4.76
   6  -6   0    2.12    5.95
  -6   6   0    1.84    3.67
   5  -6   0    8.78   10.04
   5  -6   0   12.38    7.73
  -5   6   0   12.58    7.48
   4  -6   0   78.06   18.26
   4  -6   0   72.46   26.25
  -4   6   0   74.37   18.09
   3  -6   0    -.27    2.17
   3  -6   0    -.57    3.61
  -3   6   0    1.03    2.38
  -2  -6   0  190.87   29.42
   2   6   0  195.71   29.86
  -3  -6   0   69.47   16.46
  -3  -6   0   71.91   20.68
   3   6   0   72.20   17.05
  -4  -6   0    1.53    3.13
  -5  -6   0  208.41   39.97
  -5  -6   0  209.20   40.10
   5   6   0  209.16   40.35
  -6  -6   0  103.67   26.18
  -6  -6   0   98.31   24.38
   6   6   0   95.92   25.75
  -7  -6   0   22.57   11.91
  -7  -6   0   25.10   11.77
  -8  -6   0   62.61   20.80
  -8  -6   0   68.36   19.29
  -9  -6   0    8.77    9.34
  -9  -6   0    8.54    8.32
   7  -7   0   11.94   11.00
  -7   7   0    8.45    8.26
   6  -7   0   15.71   14.69
   6  -7   0   15.11    9.87
  -6   7   0   17.74    9.44
   5  -7   0    2.24    5.81
   5  -7   0    4.09    5.11
  -5   7   0    2.36    4.98
   4  -7   0   17.05    7.37
   4  -7   0   12.31   11.47
   3  -7   0   12.12    5.18
   3  -7   0    9.89   10.72
  -3   7   0   10.85    5.42
   2  -7   0   10.43   12.60
  -2  -7   0    1.82    2.14
   2   7   0    2.07    2.47
  -3  -7   0   91.17   25.01
  -3  -7   0   95.12   19.21
   3   7   0   96.97   19.61
  -4  -7   0   89.88   21.01
  -4  -7   0   99.09   25.19
   4   7   0   97.55   22.04
  -5  -7   0  235.57   43.74
  -5  -7   0  221.42   40.76
   5   7   0  216.07   41.16
  -6  -7   0  149.29   32.70
  -6  -7   0  157.52   33.51
   6   7   0  163.45   34.52
  -7  -7   0    7.21    7.02
  -7  -7   0    9.61    9.14
  -8  -7   0    3.98    6.26
  -8  -7   0    2.63    6.33
  -9  -7   0    2.38    5.90
   6  -8   0    -.39    4.84
  -6   8   0    -.03    4.74
   5  -8   0   10.19   11.80
   5  -8   0   13.95    6.88
  -5   8   0   12.68    8.55
   4  -8   0    9.54    5.38
   4  -8   0    6.07    8.75
  -4   8   0    6.42    5.30
   3  -8   0    -.90    4.68
   2  -8   0   10.86   11.95
  -3  -8   0   18.15   11.06
  -3  -8   0   19.27    6.73
   3   8   0   18.30    7.06
  -4  -8   0   39.27   15.70
  -4  -8   0   37.45   11.66
   4   8   0   35.82   11.67
  -5  -8   0   10.65    7.96
  -5  -8   0   10.14   10.06
   5   8   0    9.56    8.45
  -6  -8   0    4.37    7.18
   6   8   0    6.05    7.79
  -7  -8   0   53.13   18.25
  -7  -8   0   64.27   19.03
  -8  -8   0   28.86   13.16
  -9  -8   0     .49    4.77
   5  -9   0    3.96    8.21
   4  -9   0   16.25   14.43
   3  -9   0    1.46    7.81
   2  -9   0   23.09   18.88
   3   9   0   24.75    6.86
  -4  -9   0    3.11    3.57
   4   9   0    1.41    3.26
  -5  -9   0   59.25   15.91
   5   9   0   54.21   16.07
  -6  -9   0   63.57   18.13
   6   9   0   68.96   19.53
  -7  -9   0    -.95    3.19
  -8  -9   0   17.53   10.29
  -9  -9   0   35.08   15.12
   4 -10   0     .22   11.41
   3 -10   0   -1.96    6.49
   2 -10   0    5.06    9.80
   1 -10   0   24.36   19.44
  -4 -10   0    5.53    4.28
   4  10   0    4.08    3.93
  -5 -10   0   12.32    6.68
   5  10   0   11.75    7.86
  -6 -10   0   11.99    6.78
   6  10   0   11.40    9.89
  -7 -10   0    1.56    3.23
  -8 -10   0    2.25    5.30
   2 -11   0    9.74   13.34
   1 -11   0    2.95    8.39
  -5 -11   0   61.28   13.85
   5  11   0   56.66   14.46
  -6 -11   0   13.69    6.94
   6  11   0   11.82    9.28
  -7 -11   0   33.36   11.96
  -8 -11   0   18.29    9.97
   0 -12   0     .71    7.74
  -7 -12   0    7.47    6.02
  -1 -12   1    6.81   11.61
  -7 -11   1   12.75    6.66
  -6 -11   1    1.27    3.11
  -5 -11   1    1.93    2.75
   0 -11   1     .96    5.61
   1 -11   1   12.58   13.60
  -8 -10   1    5.52    5.77
  -7 -10   1   19.75    9.48
   6  10  -1   -1.01    4.86
  -6 -10   1     .16    2.82
   5  10  -1   32.10   11.07
  -5 -10   1   36.64   10.84
  -4 -10   1   24.98    7.19
   0 -10   1    4.06    8.05
   1 -10   1    -.47    4.31
   2 -10   1   11.32   13.46
   3 -10   1    1.31    5.55
  -9  -9   1    2.06    4.76
  -8  -9   1    2.75    4.93
  -7  -9   1   36.46   13.29
   6   9  -1   19.63   10.83
  -6  -9   1   24.73   10.20
   5   9  -1     .07    3.57
  -5  -9   1     .92    2.89
   4   9  -1    1.88    3.31
  -4  -9   1    3.14    3.66
   1  -9   1    2.38    8.22
   2  -9   1    7.91   11.53
   3  -9   1   26.95   16.01
   4  -9   1   32.62   16.69
  -9  -8   1   15.25    7.88
  -8  -8   1   13.50    8.64
  -8  -8   1   14.96    8.98
  -7  -8   1    2.50    4.71
  -7  -8   1    3.24    5.21
   6   8  -1   24.29   11.42
  -6  -8   1   25.15   11.03
  -6  -8   1   23.61   11.97
   5   8  -1   15.62    8.74
  -5  -8   1   14.88    9.42
  -5  -8   1   12.26    7.45
   4   8  -1   15.26    7.57
  -4  -8   1   13.91    6.68
  -4  -8   1   16.71   10.11
   3   8  -1     .98    2.67
  -3  -8   1    3.77    5.63
  -3  -8   1    2.57    3.07
   1  -8   1   34.77   18.70
   2  -8   1   11.25   12.88
   3  -8   1   10.12   12.27
   4  -8   1   37.14    9.25
   4  -8   1   37.30   18.64
   5  -8   1   12.06   12.91
  -9  -7   1    7.08    7.38
  -8  -7   1   36.71   15.43
  -8  -7   1   34.58   13.22
  -7  -7   1   50.05   17.42
  -7  -7   1   52.21   16.86
   6   7  -1    1.04    4.90
  -6  -7   1    1.57    4.25
  -6  -7   1    2.33    4.55
   5   7  -1     .36    3.72
  -5  -7   1     .22    3.56
  -5  -7   1     .07    3.07
   4   7  -1  394.07   59.24
  -4  -7   1  379.88   58.21
  -4  -7   1  368.36   62.72
   3   7  -1   51.78   13.12
  -3  -7   1   50.05   12.56
  -3  -7   1   53.33   17.96
  -2  -7   1    2.04    1.87
   1  -7   1   22.90   14.89
   2  -7   1   60.86   24.40
   3  -7   1   11.30   12.32
   3  -7   1   11.46    5.24
  -4   7  -1    6.99    5.96
   4  -7   1    9.28    6.50
   4  -7   1    6.20    8.89
  -5   7  -1   30.60   11.22
   5  -7   1   28.26   10.89
   5  -7   1   29.74   16.47
  -6   7  -1   12.07    9.04
   6  -7   1    8.34    9.01
  -9  -6   1    8.38    9.07
  -9  -6   1    5.75    6.78
  -8  -6   1   27.47   13.41
  -8  -6   1   26.41   11.84
  -7  -6   1   29.57   13.58
  -7  -6   1   31.88   12.52
   6   6  -1    2.80    4.75
  -6  -6   1    1.19    4.24
  -6  -6   1    2.42    4.05
   5   6  -1   64.37   19.24
  -5  -6   1   65.43   19.01
  -5  -6   1   64.93   18.45
   4   6  -1   43.96   14.27
  -4  -6   1   44.04   15.28
  -4  -6   1   46.25   14.39
   3   6  -1    1.89    3.59
  -3  -6   1     .64    2.38
  -3  -6   1    3.12    5.11
   2   6  -1  114.16   20.08
  -2  -6   1  114.88   19.54
   1  -6   1     .88    4.72
   2  -6   1   11.24   11.92
   2  -6   1   14.92    4.95
  -3   6  -1    -.08    2.19
   3  -6   1     .56    2.34
   3  -6   1    -.69    3.38
  -4   6  -1   14.02    7.30
   4  -6   1   10.26   11.19
   4  -6   1   11.77    6.43
  -5   6  -1    -.10    2.99
   5  -6   1    -.54    3.08
   5  -6   1   -1.07    3.81
  -6   6  -1    -.42    3.94
   6  -6   1     .00    4.98
  -7   6  -1    8.00    7.63
   7  -6   1    6.24    9.42
  -9  -5   1   12.87    8.47
  -9  -5   1   10.42   10.35
  -8  -5   1   18.27   11.58
  -8  -5   1   16.31    9.14
  -7  -5   1   13.56    8.21
  -7  -5   1   11.73   10.25
   6   5  -1   64.83   20.47
  -6  -5   1   64.64   20.26
  -6  -5   1   63.36   17.19
   5   5  -1   81.77   22.13
  -5  -5   1   73.27   19.23
  -5  -5   1   78.42   21.42
   4   5  -1   34.37   12.88
  -4  -5   1   31.20   11.91
  -4  -5   1   36.64   13.05
   3   5  -1  173.97   31.46
  -3  -5   1  170.33   31.21
  -3  -5   1  172.59   33.89
   2   5  -1  131.48   22.89
  -2  -5   1  123.55   22.22
  -1  -5   1  150.92   21.06
   1  -5   1  146.03   37.93
   1  -5   1  146.64   20.78
   2  -5   1   65.01   13.75
   2  -5   1   64.91   24.27
  -3   5  -1     .87    3.38
   3  -5   1     .66    5.02
   3  -5   1    2.06    3.48
  -4   5  -1   62.75   16.41
   4  -5   1   58.19   22.96
   4  -5   1   60.67   16.20
  -5   5  -1   20.67    9.84
   5  -5   1   14.75   13.60
   5  -5   1   18.79    9.12
  -6   5  -1     .03    3.70
   6  -5   1   -1.54    3.79
   6  -5   1   -1.19    2.82
  -7   5  -1    2.90    5.13
   7  -5   1    -.08    5.19
  -8   5  -1    5.84    7.54
   8  -5   1    5.50    9.83
  10   4  -1   -1.74    3.74
   9   4  -1   24.06   10.15
  -9  -4   1   18.42   14.16
  -9  -4   1   26.97   10.90
   8   4  -1     .59    2.88
  -8  -4   1    -.82    3.07
  -8  -4   1    1.00    3.21
   7   4  -1    9.70    6.47
  -7  -4   1    9.09    7.46
  -7  -4   1    6.42    8.38
   6   4  -1  199.26   41.40
   6   4  -1  202.77   35.79
  -6  -4   1  196.10   40.80
  -6  -4   1  199.44   35.88
   5   4  -1    2.69    5.33
  -5  -4   1    1.88    3.68
  -5  -4   1    3.17    5.83
   4   4  -1   64.95   18.73
  -4  -4   1   62.72   18.28
  -4  -4   1   61.72   16.34
   3   4  -1  112.89   24.51
  -3  -4   1  122.43   25.05
  -3  -4   1  118.55   24.95
   2   4  -1  354.79   51.51
  -2  -4   1  347.93   51.06
  -1  -4   1  144.75   21.88
   1  -4   1  159.29   24.15
   1  -4   1  167.09   39.16
  -2   4  -1   43.12   11.17
   2  -4   1   41.78   18.31
   2  -4   1   41.62   11.10
  -3   4  -1    2.71    3.86
   3  -4   1    2.03    3.64
   3  -4   1     .85    4.03
  -4   4  -1   18.92    9.18
   4  -4   1   19.26    9.11
   4  -4   1   18.93   15.55
  -5   4  -1    4.44    5.72
   5  -4   1    1.15    4.84
   5  -4   1    4.16    5.29
  -6   4  -1    -.15    2.68
   6  -4   1     .90    4.00
   6  -4   1    -.60    4.39
  -7   4  -1   20.39   10.75
   7  -4   1   28.72   15.17
  -8   4  -1   -1.32    3.93
   8  -4   1     .04    5.69
  10   3  -1    5.57    6.27
   9   3  -1    2.56    4.35
  -9  -3   1    2.75    5.87
  -9  -3   1    2.07    5.10
   8   3  -1   97.78   22.44
  -8  -3   1  106.12   24.14
  -8  -3   1  102.62   28.78
   7   3  -1   79.57   19.07
  -7  -3   1   74.76   19.29
  -7  -3   1   74.70   23.43
   6   3  -1   22.66    9.26
   6   3  -1   20.61   12.05
  -6  -3   1   25.54   12.62
  -6  -3   1   23.62    9.95
   5   3  -1  105.18   27.00
   5   3  -1  106.97   22.20
  -5  -3   1  100.28   26.34
  -5  -3   1   98.74   21.56
   4   3  -1  122.32   28.14
   4   3  -1  125.68   24.16
  -4  -3   1  116.38   23.43
  -4  -3   1  129.49   28.68
   3   3  -1    2.69    3.99
   2   3  -1  150.23   26.57
  -2  -3   1  144.49   26.24
   1   3  -1  113.02   18.67
  -1  -3   1  109.06   18.29
   0  -3   1     .67    1.11
  -1   3  -1   88.99   15.79
   1  -3   1   89.64   25.32
   1  -3   1   89.44   15.89
  -2   3  -1  145.15   25.48
   2  -3   1  133.40   25.05
   2  -3   1  144.03   34.92
  -3   3  -1  134.00   27.03
   3  -3   1  144.28   27.84
   3  -3   1  135.32   34.62
  -4   3  -1   36.56   13.17
   4  -3   1   37.77   13.64
   4  -3   1   39.17   17.18
  -5   3  -1   70.51   20.13
   5  -3   1   69.82   23.46
   5  -3   1   73.75   20.42
  -6   3  -1   23.84   11.63
   6  -3   1   24.00   11.85
   6  -3   1   24.90   13.58
  -7   3  -1    3.82    6.58
   7  -3   1    6.16    8.87
  -8   3  -1    4.03    6.72
   8  -3   1    1.19    6.35
  -9   3  -1    2.37    5.71
   9  -3   1    1.98    6.83
  10   2  -1    -.52    4.01
   9   2  -1     .65    3.90
  -9  -2   1     .04    3.13
  -9  -2   1    -.46    4.41
   8   2  -1    1.45    4.05
  -8  -2   1    1.64    3.43
  -8  -2   1    -.50    3.59
   7   2  -1     .62    3.03
  -7  -2   1    1.40    4.76
  -7  -2   1     .23    3.43
   6   2  -1   58.76   15.79
   6   2  -1   63.65   20.76
  -6  -2   1   58.93   16.37
  -6  -2   1   58.40   19.74
   5   2  -1   25.57    9.28
   5   2  -1   27.29   12.89
  -5  -2   1   25.82    9.77
  -5  -2   1   27.16   12.55
   4   2  -1    5.10    4.78
   4   2  -1    4.61    6.21
  -4  -2   1    4.87    4.74
  -4  -2   1    5.89    6.97
   3   2  -1  224.21   41.51
   3   2  -1  270.90   37.86
  -3  -2   1  255.90   37.15
  -3  -2   1  216.53   41.19
   2   2  -1  182.71   31.31
  -2  -2   1  180.87   28.83
  -2  -2   1  179.26   31.03
   1   2  -1   77.81   14.55
  -1  -2   1   74.64   14.28
  -1   2  -1    1.16    2.06
   1  -2   1    1.24    2.14
   1  -2   1    1.72    4.24
  -2   2  -1  132.04   24.90
   2  -2   1  134.39   25.30
   2  -2   1  143.00   32.48
  -3   2  -1    -.28    2.32
  -3   2  -1     .31    4.04
   3  -2   1    1.16    3.68
   3  -2   1    -.07    2.32
  -4   2  -1    3.32    6.37
  -4   2  -1    3.27    5.48
   4  -2   1    2.64    4.52
   4  -2   1    3.50    5.93
  -5   2  -1    3.18    5.35
  -5   2  -1    1.55    5.50
   5  -2   1    2.08    4.83
   5  -2   1    4.77    7.42
  -6   2  -1   56.40   18.81
   6  -2   1   61.22   21.36
   6  -2   1   64.11   20.46
  -7   2  -1    2.86    4.95
   7  -2   1     .96    5.64
  -8   2  -1   16.12   10.08
   8  -2   1   18.15   12.95
  -9   2  -1    3.67    7.32
   9  -2   1     .70    7.29
  10   1  -1    -.36    5.41
   9   1  -1    5.73    7.10
  -9  -1   1    7.35    8.92
   8   1  -1   67.62   18.08
  -8  -1   1   67.94   22.78
  -8  -1   1   60.68   18.98
   7   1  -1   86.75   20.24
  -7  -1   1   82.08   24.53
  -7  -1   1   71.33   20.21
   6   1  -1  150.39   35.34
   6   1  -1  154.80   28.85
  -6  -1   1  142.99   33.97
  -6  -1   1  145.57   30.46
   5   1  -1  334.89   51.82
   5   1  -1  331.23   59.67
  -5  -1   1  342.77   59.97
  -5  -1   1  358.70   54.75
   4   1  -1   33.26   13.44
   4   1  -1   31.39    9.67
  -4  -1   1   30.78   10.35
  -4  -1   1   31.66   13.26
   3   1  -1 1170.71  156.87
   3   1  -1 1168.58  148.69
  -3  -1   1 1187.81  149.37
  -3  -1   1 1169.01  156.97
   2   1  -1  627.39   86.42
   2   1  -1  634.53   80.29
  -2  -1   1  614.44   79.91
  -2  -1   1  630.81   86.45
   1   1  -1   73.44   14.43
  -1  -1   1   73.66   14.28
   0  -1   1    1.88    3.00
  -1   1  -1  261.49   43.84
  -1   1  -1  252.17   37.39
   1  -1   1  261.83   43.50
   1  -1   1  262.05   37.65
  -2   1  -1   25.65    9.09
  -2   1  -1   17.28    9.93
   2  -1   1   24.76    9.01
   2  -1   1   24.80   11.16
  -3   1  -1    1.33    3.64
  -3   1  -1     .23    3.33
   3  -1   1     .75    2.72
   3  -1   1    -.01    2.63
  -4   1  -1  483.79   75.96
  -4   1  -1  485.31   81.06
   4  -1   1  512.03   77.40
   4  -1   1  495.96   79.23
  -5   1  -1   43.10   17.45
  -5   1  -1   36.86   14.75
   5  -1   1   39.50   15.33
   5  -1   1   45.73   17.01
  -6   1  -1     .66    4.35
  -6   1  -1    1.98    4.95
   6  -1   1    1.26    4.39
   6  -1   1     .97    4.88
  -7   1  -1   -1.68    5.43
  -7   1  -1     .47    3.98
   7  -1   1   -1.40    3.36
  -8   1  -1    1.09    5.40
   8  -1   1    3.46    6.76
  -9   1  -1    4.04    6.29
   9  -1   1     .43    4.96
  10   0  -1   -1.82    4.61
   9   0  -1     .64    4.22
   8   0  -1   22.52   10.66
  -8   0   1   23.15   13.10
   7   0  -1    5.40    6.11
  -7   0   1    5.20    7.65
  -7   0   1    7.52    7.72
   6   0  -1   73.05   18.84
   6   0  -1   77.40   23.54
  -6   0   1   74.57   22.82
  -6   0   1   70.00   20.19
   5   0  -1    4.00    5.14
   5   0  -1    5.95    7.32
  -5   0   1    4.84    5.74
  -5   0   1    4.06    6.70
   4   0  -1   40.71   14.97
   4   0  -1   37.03   11.45
  -4   0   1   37.37   12.59
  -4   0   1   41.31   15.24
   3   0  -1   31.33   12.07
   3   0  -1   39.99   10.30
  -3   0   1   30.85   10.12
  -3   0   1   36.92   13.16
   2   0  -1  187.03   32.50
   2   0  -1  181.00   27.28
  -2   0   1  198.91   28.51
  -2   0   1  188.50   32.60
   1   0  -1    1.91    2.61
  -1   0   1    1.54    2.45
   0   0  -1    5.12    2.72
   0   0   1    5.03    2.52
  -1   0  -1   77.56   16.57
  -1   0  -1   79.19   14.80
   1   0   1   72.94   16.09
   1   0   1   74.74   14.61
  -2   0  -1 1422.15  181.62
  -2   0  -1 1407.81  178.44
   2   0   1 1382.26  180.27
   2   0   1 1331.01  177.93
  -3   0  -1     .30    2.60
  -3   0  -1     .74    2.83
   3   0   1    1.04    3.28
   3   0   1     .08    1.69
  -4   0  -1    4.62    6.22
  -4   0  -1    3.78    5.79
   4   0   1    4.43    6.21
   4   0   1    7.58    7.74
  -5   0  -1    4.29    5.96
  -6   0  -1   13.58   11.00
  -6   0  -1    9.72    9.83
   6   0   1   11.77   10.75
   6   0   1    9.86   10.24
  -7   0  -1     .79    3.20
  -7   0  -1     .21    4.39
   7   0   1    -.12    3.49
  -8   0  -1    2.54    4.34
   8   0   1     .92    4.73
  -9   0  -1     .51    3.59
   9   0   1   -1.81    4.61
   9  -1  -1    7.34    8.73
  -9   1   1    9.42    9.04
   8  -1  -1   16.06    9.43
  -8   1   1   14.82   12.80
   7  -1  -1   18.12   10.29
  -7   1   1   17.79   10.38
   6  -1  -1   19.72   11.28
   6  -1  -1   20.74   10.11
  -6   1   1   25.19   12.30
   5  -1  -1   24.91   12.10
   4  -1  -1  314.08   50.37
   4  -1  -1  296.30   52.43
  -4   1   1  301.28   52.84
  -4   1   1  302.89   51.58
   3  -1  -1  342.81   55.03
   3  -1  -1  343.59   53.00
  -3   1   1  338.51   55.17
   2  -1  -1  213.79   35.94
   2  -1  -1  218.81   35.14
  -2   1   1  214.03   35.94
   1  -1  -1  182.09   28.20
  -1   1   1  177.02   27.96
   0  -1  -1  929.47  115.88
   0   1   1  917.07  115.86
  -1  -1  -1  322.96   45.43
  -1  -1  -1  329.88   46.27
   1   1   1  325.32   45.91
   1   1   1  316.93   45.57
  -2  -1  -1   72.21   17.01
  -2  -1  -1   75.05   17.29
   2   1   1   70.05   16.50
   2   1   1   74.96   17.26
  -3  -1  -1  503.60   80.08
  -3  -1  -1  514.96   80.36
   3   1   1  602.09   80.80
   3   1   1  592.05   82.64
  -4  -1  -1  398.85   68.60
  -4  -1  -1  449.91   70.26
   4   1   1  455.28   71.17
   4   1   1  446.63   67.82
  -5  -1  -1     .62    3.14
  -5  -1  -1    -.09    2.61
   5   1   1    -.35    2.54
   5   1   1    -.34    2.79
  -6  -1  -1   34.50   15.60
  -6  -1  -1   29.26   13.75
   6   1   1   29.87   14.44
   6   1   1   38.92   14.58
  -7  -1  -1   61.11   20.81
  -7  -1  -1   60.23   21.21
   7   1   1   66.55   20.12
  -8  -1  -1   12.17   10.64
  -8  -1  -1   13.86   11.91
   8   1   1   10.54    9.16
  -9  -1  -1    9.33    9.37
   9   1   1    4.76    7.46
  10   1   1    8.91    8.66
   9  -2  -1    3.60    6.60
  -9   2   1     .95    4.38
   8  -2  -1   24.97   12.65
  -8   2   1   24.02   12.68
   7  -2  -1   21.69   10.72
  -7   2   1   23.39   11.83
   6  -2  -1     .63    3.46
   6  -2  -1     .80    4.30
  -6   2   1    -.69    2.39
   5  -2  -1   86.56   23.29
   5  -2  -1   81.33   23.10
  -5   2   1   84.87   23.48
   4  -2  -1   12.09    9.39
   4  -2  -1   11.07    9.54
  -4   2   1   10.67    9.19
   3  -2  -1  121.95   27.49
   3  -2  -1  121.69   25.88
  -3   2   1  113.11   25.34
   2  -2  -1  216.33   38.76
   2  -2  -1  213.47   35.47
  -2   2   1  208.39   35.37
   1  -2  -1   24.80    7.50
  -1   2   1   25.78    7.63
  -1  -2  -1  126.03   22.89
  -1  -2  -1  126.82   21.17
   1   2   1  128.92   23.16
   1   2   1  128.16   21.23
  -2  -2  -1   98.06   20.20
  -2  -2  -1   95.20   19.99
   2   2   1   91.31   19.71
   2   2   1   94.17   19.93
  -3  -2  -1   73.44   18.51
  -3  -2  -1   78.24   19.67
   3   2   1   68.75   18.88
   3   2   1   73.07   18.07
  -4  -2  -1   67.22   19.91
  -4  -2  -1   62.79   18.60
   4   2   1   75.63   21.01
   4   2   1   70.48   18.53
  -5  -2  -1  213.00   42.69
  -5  -2  -1  206.13   41.08
   5   2   1  218.97   39.89
   5   2   1  212.93   43.32
  -6  -2  -1   66.09   21.19
  -6  -2  -1   67.53   20.78
   6   2   1   70.64   19.80
   6   2   1   63.34   21.66
  -7  -2  -1    6.27    7.40
  -7  -2  -1    5.44    6.53
   7   2   1    4.55    5.51
  -8  -2  -1   46.13   18.06
  -8  -2  -1   46.85   18.41
   8   2   1   42.90   15.57
  -9  -2  -1    -.57    4.17
   9   2   1   -1.36    3.07
  10   2   1    -.42    4.91
   9  -3  -1   13.54   12.16
  -9   3   1   17.64   10.33
   8  -3  -1   10.70   10.12
  -8   3   1    8.92    9.20
   7  -3  -1   17.68   11.11
  -7   3   1   19.78   11.27
   6  -3  -1   84.14   24.76
   6  -3  -1   84.59   24.12
  -6   3   1   86.41   23.66
   5  -3  -1   85.30   23.16
   5  -3  -1   82.09   24.31
  -5   3   1   90.22   23.37
   4  -3  -1   17.96   11.38
   4  -3  -1   20.74   10.07
  -4   3   1   16.32    9.34
   3  -3  -1  223.30   39.42
   3  -3  -1  232.65   45.03
  -3   3   1  223.81   39.69
   2  -3  -1  219.98   35.82
  -2   3   1  218.51   36.09
   1  -3  -1  130.88   21.83
  -1   3   1  134.97   22.01
  -1  -3  -1  100.56   21.41
  -1  -3  -1  105.21   17.70
   1   3   1   94.21   17.14
  -2  -3  -1  197.44   34.99
  -2  -3  -1  205.56   33.71
   2   3   1  198.50   33.33
   2   3   1  197.45   35.19
  -3  -3  -1  212.67   38.24
  -3  -3  -1  208.33   37.27
   3   3   1  226.94   39.09
   3   3   1  197.52   36.93
  -4  -3  -1   67.81   19.49
  -4  -3  -1   54.84   17.09
   4   3   1   67.49   19.54
   4   3   1   65.65   18.10
  -5  -3  -1   54.43   18.01
  -5  -3  -1   52.94   16.79
   5   3   1   43.86   17.10
   5   3   1   51.15   16.15
  -6  -3  -1   67.88   21.40
   6   3   1   61.31   21.31
  -7  -3  -1   10.16   10.08
  -7  -3  -1    9.17    9.19
   7   3   1    8.86    8.33
  -8  -3  -1    7.58    9.35
  -8  -3  -1    5.85    7.51
   8   3   1    9.12    7.97
  -9  -3  -1    3.94    6.85
   9   3   1    6.98    7.29
  10   3   1    5.74    7.80
   8  -4  -1    8.56    9.15
  -8   4   1    5.36    6.81
   7  -4  -1    -.79    4.04
  -7   4   1     .45    3.61
   6  -4  -1    5.77    7.21
   6  -4  -1    5.97    7.55
  -6   4   1    5.59    7.26
   5  -4  -1   68.06   22.76
   5  -4  -1   62.93   18.64
  -5   4   1   66.04   19.32
   4  -4  -1    -.21    3.00
   4  -4  -1     .44    2.60
  -4   4   1    -.14    2.04
   3  -4  -1   68.89   22.46
   3  -4  -1   58.78   16.05
  -3   4   1   62.87   16.79
   2  -4  -1  179.32   31.51
  -2   4   1  202.83   32.41
   1  -4  -1   99.20   17.25
  -1   4   1   97.08   17.12
   0   4   1  237.77   32.06
   1   4   1   38.15    8.87
  -2  -4  -1   93.15   22.17
  -2  -4  -1   92.49   19.15
   2   4   1   91.96   19.04
  -3  -4  -1  415.66   61.50
  -3  -4  -1  401.13   62.44
   3   4   1  402.60   62.86
   3   4   1  370.82   60.54
  -4  -4  -1   29.57   12.28
  -4  -4  -1   29.70   11.91
   4   4   1   28.00   12.10
   4   4   1   29.79   12.12
  -5  -4  -1   26.77   12.83
  -5  -4  -1   31.36   12.75
   5   4   1   28.65   13.25
   5   4   1   33.60   13.02
  -6  -4  -1   27.64   13.32
  -6  -4  -1   27.91   12.57
   6   4   1   25.39   13.04
   6   4   1   22.67   11.31
  -7  -4  -1   18.73   11.20
  -7  -4  -1   21.69   11.88
   7   4   1   20.82   10.86
  -8  -4  -1    1.99    5.55
  -8  -4  -1    2.21    5.23
   8   4   1    2.40    5.34
  -9  -4  -1     .34    4.86
   9   4   1   -1.32    3.92
  10   4   1   17.79   10.84
  -8   5   1     .05    4.30
   7  -5  -1    8.61    8.80
  -7   5   1   10.75    8.73
   6  -5  -1   17.29    9.71
   6  -5  -1   15.99   13.01
  -6   5   1   20.16   10.24
   5  -5  -1    8.47    7.54
   5  -5  -1    7.89   10.10
  -5   5   1    9.34    8.37
   4  -5  -1   73.67   25.33
   4  -5  -1   82.57   20.21
  -4   5   1   83.32   20.29
   3  -5  -1  165.90   31.27
   3  -5  -1  175.44   41.76
  -3   5   1  182.38   31.73
   2  -5  -1    3.04    3.54
  -2   5   1    3.90    3.99
  -1   5   1  175.28   26.12
   0   5   1 1975.78  241.57
   0   5   1 1999.80  241.59
   1   5   1   56.25   10.72
  -2  -5  -1   54.21   17.19
  -2  -5  -1   54.14   13.17
   2   5   1   56.03   13.32
  -3  -5  -1  389.93   60.27
  -3  -5  -1  402.40   64.22
   3   5   1  404.82   60.85
  -4  -5  -1     .07    2.89
  -4  -5  -1     .09    2.44
   4   5   1    -.42    2.04
   4   5   1     .53    2.10
  -5  -5  -1    9.28    8.75
  -5  -5  -1    8.38    7.74
   5   5   1    8.94    8.68
   5   5   1    7.62    7.35
  -6  -5  -1   88.20   24.38
  -6  -5  -1   79.24   22.38
   6   5   1   87.56   24.84
   6   5   1   83.98   22.98
  -7  -5  -1    -.60    2.91
  -7  -5  -1    -.07    2.06
   7   5   1    -.63    2.60
  -8  -5  -1   35.32   15.44
  -8  -5  -1   42.74   16.21
   8   5   1   35.11   14.04
  -9  -5  -1   30.65   14.16
   9   5   1   29.91   13.51
  10   5   1   19.31   11.39
   7  -6  -1    4.22    7.41
  -7   6   1    5.36    6.03
   6  -6  -1     .03    5.54
   6  -6  -1     .11    4.51
  -6   6   1    -.46    3.75
   5  -6  -1    7.94    8.73
  -5   6   1    4.94    6.08
   4  -6  -1   12.46    7.45
   4  -6  -1   13.54   13.12
  -4   6   1   14.46    7.80
   3  -6  -1   25.20   14.91
   3  -6  -1   22.53    8.44
  -3   6   1   20.76    8.45
   2  -6  -1  441.35   60.19
  -2   6   1  429.51   59.87
  -1   6   1   55.89    9.74
   1   6   1  330.35   43.25
  -2  -6  -1   97.98   25.43
  -2  -6  -1   98.88   18.56
   2   6   1   98.35   18.72
  -3  -6  -1   38.13   11.88
  -3  -6  -1   36.93   14.43
   3   6   1   38.31   12.13
  -4  -6  -1  126.92   29.71
  -4  -6  -1  126.59   27.30
   4   6   1  130.16   27.84
  -5  -6  -1   26.41   12.22
  -5  -6  -1   28.00   12.19
   5   6   1   23.09   11.49
  -6  -6  -1   21.79   11.43
   6   6   1   19.13   11.45
  -7  -6  -1   16.08   10.82
  -7  -6  -1   16.65    9.89
   7   6   1   18.41   10.37
  -8  -6  -1   35.90   15.40
  -8  -6  -1   34.59   15.55
   8   6   1   34.18   14.12
  -9  -6  -1   21.91   12.49
   9   6   1   20.35   10.42
  10   6   1    2.53    5.57
   7  -7  -1    9.26   10.21
  -7   7   1    5.88    6.73
   6  -7  -1    3.68    8.25
  -6   7   1    7.84    7.14
   5  -7  -1    8.35    6.94
   5  -7  -1    5.81    9.64
  -5   7   1    6.91    7.20
   4  -7  -1     .70    4.37
   4  -7  -1    -.11    2.16
  -4   7   1     .67    2.86
   3  -7  -1    2.97    6.88
   3  -7  -1    4.44    4.56
  -3   7   1    5.14    4.78
  -2  -7  -1   46.51   17.23
   2   7   1   53.69   11.51
  -3  -7  -1  138.21   25.30
  -3  -7  -1  133.63   31.58
   3   7   1  131.89   25.36
  -4  -7  -1   90.87   21.56
  -4  -7  -1   95.83   25.35
   4   7   1   97.59   22.40
  -5  -7  -1   98.07   25.87
  -5  -7  -1  101.20   24.34
   5   7   1   93.37   23.83
  -6  -7  -1    8.69    7.96
  -6  -7  -1    4.15    5.32
   6   7   1    2.62    4.98
  -7  -7  -1   40.10   15.58
  -7  -7  -1   29.69   14.20
  -8  -7  -1    5.70    6.66
  -9  -7  -1   27.94   14.16
   6  -8  -1    2.56    7.97
  -6   8   1    4.70    5.49
   5  -8  -1    1.24    3.65
   5  -8  -1     .61    4.98
  -5   8   1   -1.04    3.07
   4  -8  -1   13.22   12.66
  -4   8   1   13.34    6.73
   3  -8  -1   60.44   25.32
  -3   8   1   56.42   12.29
  -2  -8  -1    9.13    8.87
   2   8   1    6.23    3.20
  -3  -8  -1  163.75   28.05
  -3  -8  -1  170.63   37.49
   3   8   1  167.37   28.59
  -4  -8  -1   70.07   22.17
  -4  -8  -1   83.00   19.01
   4   8   1   80.54   19.11
  -5  -8  -1    8.16    9.19
  -5  -8  -1   11.15    8.65
   5   8   1   12.71    9.56
  -6  -8  -1   37.87   15.08
  -6  -8  -1   37.55   13.96
   6   8   1   36.53   14.58
  -7  -8  -1   34.92   14.30
  -8  -8  -1    7.43    8.58
  -9  -8  -1   18.07   10.60
   5  -9  -1    -.62    6.21
  -5   9   1     .27    3.82
   4  -9  -1   19.30   15.85
  -4   9   1   19.16    7.16
   3  -9  -1     .46    5.89
   2  -9  -1    -.61    4.29
  -3  -9  -1   67.43   24.56
   3   9   1   62.29   13.38
  -4  -9  -1    8.56    6.35
   4   9   1   12.85    6.70
  -5  -9  -1    1.39    3.64
   5   9   1    1.68    4.31
  -6  -9  -1   14.27    7.74
   6   9   1   16.19    9.14
  -7  -9  -1   14.55    7.97
  -8  -9  -1    2.72    3.27
  -9  -9  -1   13.59    7.22
   4 -10  -1   12.83   12.61
   3 -10  -1    7.52    9.70
   2 -10  -1   41.68   21.29
   3  10   1   59.32   10.60
   4  10   1   44.74   11.83
  -5 -10  -1   21.17    9.02
   5  10   1   23.72   10.01
  -6 -10  -1   15.87    7.91
   6  10   1   15.25   10.64
  -7 -10  -1    6.15    6.07
  -8 -10  -1    7.89    7.80
  -9 -10  -1    8.46    7.52
   3 -11  -1    1.24    6.59
   2 -11  -1     .10    5.50
   5  11   1   21.28    9.31
  -6 -11  -1     .84    2.95
   6  11   1   -2.40    4.97
  -7 -11  -1    5.18    5.58
  -8 -11  -1    6.18    6.45
   1 -12  -1    9.54   12.95
   5  12   1    -.45    4.32
  -7 -12  -1   23.07    8.51
  -2 -12   2    6.36    8.41
  -7 -11   2   29.39   10.02
  -6 -11   2   18.19    7.32
  -5 -11   2    2.47    3.24
  -1 -11   2   15.42   14.73
   0 -11   2   17.24   16.17
  -8 -10   2    -.93    3.98
  -7 -10   2    6.55    5.72
   6  10  -2    -.19    6.10
  -6 -10   2    2.00    3.12
  -5 -10   2   16.55    6.97
  -4 -10   2    1.33    2.13
  -1 -10   2    9.90   12.26
   0 -10   2   13.19   13.14
   1 -10   2    5.72    9.91
   2 -10   2    3.53    8.34
  -8  -9   2   13.16    8.10
  -7  -9   2   13.80    8.20
   6   9  -2     .30    5.58
  -6  -9   2    -.39    2.81
   5   9  -2    -.01    3.97
  -5  -9   2    2.15    3.96
  -4  -9   2    4.72    4.48
  -3  -9   2    2.63    2.13
   0  -9   2    4.59    8.82
   1  -9   2    7.38   10.90
   2  -9   2   90.35   31.27
   3  -9   2   36.02   19.65
  -9  -8   2   11.20    9.98
  -8  -8   2    6.71    5.63
  -8  -8   2    3.52    5.07
  -7  -8   2   14.29    9.68
  -7  -8   2   19.81    9.72
   6   8  -2   11.73   10.37
  -6  -8   2   17.08    9.24
  -6  -8   2   13.82    8.89
   5   8  -2   12.27    7.58
  -5  -8   2   11.14    8.40
  -5  -8   2   11.63    9.40
   4   8  -2    1.81    3.45
  -4  -8   2    2.39    5.10
  -4  -8   2    4.42    4.73
  -3  -8   2   22.16    7.10
   0  -8   2  132.13   38.36
   1  -8   2   17.61   15.68
   2  -8   2   19.57   16.52
   3  -8   2   31.76   17.83
   4  -8   2    5.53    9.22
   4  -8   2    4.38    3.27
   5  -8   2     .65    5.75
  -9  -7   2    1.41    5.63
  -8  -7   2    2.62    4.60
  -8  -7   2    4.08    4.53
  -7  -7   2   30.99   11.66
  -7  -7   2   28.54   12.27
   6   7  -2    7.88    7.93
  -6  -7   2    6.61    6.70
  -6  -7   2    4.91    6.21
   5   7  -2   12.98    9.75
  -5  -7   2   12.25    9.37
  -5  -7   2   11.11    8.90
   4   7  -2   39.25   12.90
  -4  -7   2   38.83   14.70
  -4  -7   2   39.40   12.42
  -3  -7   2    9.06    5.44
  -2  -7   2   22.48    6.05
   0  -7   2    8.89   10.95
   1  -7   2    2.59    6.00
   2  -7   2    1.20    1.07
   2  -7   2     .93    4.83
   3  -7   2    7.05    4.65
   3  -7   2    5.72    8.00
   4  -7   2    8.28   10.51
   4  -7   2    8.84    6.20
   5  -7   2   10.13    7.24
   5  -7   2    7.08   10.74
   6  -7   2    -.56    6.71
  -9  -6   2    6.50    7.73
  -8  -6   2   13.52   11.04
  -8  -6   2   13.29    8.18
  -7  -6   2   57.96   15.70
  -7  -6   2   50.41   17.99
   6   6  -2   16.00   11.31
  -6  -6   2   15.48    8.56
  -6  -6   2   15.75    9.91
   5   6  -2   14.19    9.10
  -5  -6   2   16.25    8.57
  -5  -6   2   14.62    8.63
   4   6  -2  152.77   30.91
  -4  -6   2  162.75   31.25
  -4  -6   2  151.56   31.83
   3   6  -2   26.56    9.81
  -3  -6   2   27.68    9.89
  -2  -6   2    7.48    4.21
  -1  -6   2   90.80   13.66
   0  -6   2    5.68    8.85
   1  -6   2    8.25   10.23
   2  -6   2   18.49    5.95
   2  -6   2   16.69   14.88
   3  -6   2   70.20   15.37
   3  -6   2   71.34   26.44
   4  -6   2    -.62    3.23
   4  -6   2    -.14    2.86
  -5   6  -2   18.72    9.39
   5  -6   2   17.50    8.81
   5  -6   2   20.69   13.63
  -6   6  -2   36.43   12.92
   6  -6   2   39.25   19.51
  -7   6  -2    1.58    5.52
   7  -6   2   -2.38    5.54
  -9  -5   2   -2.04    4.06
  -9  -5   2    1.17    3.12
  -8  -5   2   10.31    9.94
  -8  -5   2    9.59    7.11
  -7  -5   2   12.27    7.25
  -7  -5   2   14.03   11.26
   6   5  -2   11.28    9.21
  -6  -5   2   10.39    7.58
  -6  -5   2   10.14    9.52
   5   5  -2   47.97   16.05
  -5  -5   2   37.64   12.50
  -5  -5   2   42.56   15.46
   4   5  -2   12.01    7.59
  -4  -5   2   14.22    7.70
  -4  -5   2   14.78    8.40
   3   5  -2   30.58   10.98
  -3  -5   2   27.18   10.21
  -2  -5   2   99.97   19.42
  -1  -5   2  233.47   33.43
   0  -5   2   15.27    4.17
   0  -5   2   14.07   12.86
   0  -5   2   14.78    4.04
   1  -5   2   51.51   21.30
   1  -5   2   51.84   10.39
   2  -5   2   58.79   22.58
   2  -5   2   57.61   13.06
  -3   5  -2     .75    2.92
   3  -5   2    -.67    3.79
   3  -5   2    -.30    2.03
  -4   5  -2     .10    3.30
   4  -5   2    -.29    2.26
   4  -5   2    -.31    3.61
  -5   5  -2    7.53    6.80
   5  -5   2    6.68    6.15
   5  -5   2    5.36    8.83
  -6   5  -2   -1.59    3.78
   6  -5   2    1.41    4.75
  -7   5  -2    1.22    4.27
   7  -5   2     .92    7.69
  -9  -4   2   14.74   11.97
  -9  -4   2   14.90    7.52
  -8  -4   2    -.04    3.33
  -8  -4   2    -.47    2.99
  -7  -4   2   47.37   17.93
  -7  -4   2   44.24   12.97
   6   4  -2   23.48   12.28
  -6  -4   2   22.51    8.42
  -6  -4   2   19.21   11.04
   5   4  -2    -.50    2.02
  -5  -4   2    -.26    2.24
  -5  -4   2    -.32    1.96
   4   4  -2   82.43   21.60
  -4  -4   2   84.73   19.01
  -4  -4   2   79.21   21.35
   3   4  -2   46.18   14.38
  -3  -4   2   49.66   14.70
  -3  -4   2   50.17   14.38
   2   4  -2  100.13   20.67
  -2  -4   2  100.10   20.28
  -1  -4   2   95.46   17.40
   0  -4   2   84.65   14.69
   0  -4   2   88.43   26.40
   0  -4   2   81.11   14.74
   1  -4   2    7.47    9.13
   1  -4   2    7.91    4.03
   2  -4   2  110.48   31.89
   2  -4   2  109.25   21.16
  -3   4  -2  135.97   26.23
   3  -4   2  125.20   35.17
   3  -4   2  133.04   26.18
  -4   4  -2   46.78   14.73
   4  -4   2   48.80   20.63
   4  -4   2   49.35   14.96
  -5   4  -2   28.67   11.88
   5  -4   2   29.71   12.42
   5  -4   2   38.25   18.52
  -6   4  -2   12.75    8.14
   6  -4   2   12.03   11.00
  -7   4  -2   18.53   10.74
   7  -4   2   24.16   14.76
  -8   4  -2    7.37    8.31
   8  -4   2    6.68    9.48
  -9  -3   2    3.05    5.47
  -9  -3   2     .44    3.41
   8   3  -2    2.21    3.67
  -8  -3   2    1.95    5.21
  -8  -3   2     .79    3.91
  -7  -3   2     .48    3.83
  -7  -3   2     .55    2.91
  -6  -3   2   84.05   24.70
   5   3  -2    -.29    2.54
  -5  -3   2     .51    1.60
  -5  -3   2     .83    3.37
   4   3  -2   36.93   13.93
  -4  -3   2   39.50   14.53
  -4  -3   2   36.13   10.42
   3   3  -2    1.95    4.26
  -3  -3   2    2.30    3.36
  -3  -3   2    3.19    4.75
   2   3  -2  292.98   46.20
  -2  -3   2  297.30   46.10
  -1  -3   2    3.23    3.48
   0  -3   2    5.03    6.79
   1  -3   2  111.52   19.68
   1  -3   2   99.48   28.52
  -2   3  -2  137.80   25.27
   2  -3   2  136.47   34.65
   2  -3   2  131.21   24.92
  -3   3  -2   11.24    6.73
   3  -3   2   12.10   12.09
   3  -3   2   11.49    6.85
  -4   3  -2   43.79   14.68
   4  -3   2   43.82   18.84
   4  -3   2   44.20   14.79
  -5   3  -2    4.13    6.18
   5  -3   2    5.97    7.50
   5  -3   2    4.29    5.32
  -6   3  -2   19.89   10.61
   6  -3   2   19.64   10.84
   6  -3   2   22.02   13.08
  -7   3  -2    9.88    9.10
   7  -3   2   10.10   10.29
  -8   3  -2     .71    4.21
   8  -3   2     .61    5.29
  10   2  -2    -.83    6.78
   9   2  -2   11.23    6.78
  -9  -2   2    6.84    7.98
   8   2  -2   87.41   18.55
  -8  -2   2   90.74   26.56
  -8  -2   2   82.28   19.60
  -7  -2   2  106.35   29.02
  -7  -2   2  104.10   21.98
   6   2  -2   32.51   10.03
   6   2  -2   36.30   15.57
  -6  -2   2   38.54   15.95
  -6  -2   2   39.45   11.33
   5   2  -2   33.97   14.55
   5   2  -2   33.10    9.32
  -5  -2   2   35.37   10.07
  -5  -2   2   30.62   14.03
   4   2  -2  734.41  105.14
  -4  -2   2  720.50  104.87
  -4  -2   2  704.66   93.73
   3   2  -2   49.48   15.44
  -3  -2   2   50.46   11.09
  -3  -2   2   51.26   15.87
   2   2  -2   11.76    6.71
  -2  -2   2    9.37    6.00
  -1  -2   2  739.11   97.91
   0  -2   2 1260.29  169.45
   1  -2   2  120.15   29.22
   1  -2   2  115.91   21.30
  -2   2  -2  475.30   80.03
  -2   2  -2  501.28   69.29
   2  -2   2  495.78   69.45
   2  -2   2  441.85   77.78
  -3   2  -2   12.82    7.41
  -3   2  -2   17.83   14.39
   3  -2   2   15.41    8.20
   3  -2   2   15.84   12.86
  -4   2  -2   92.90   28.41
  -4   2  -2   77.32   20.82
   4  -2   2   75.04   20.69
   4  -2   2   69.84   23.99
  -5   2  -2  115.05   33.14
  -5   2  -2  106.89   26.56
   5  -2   2  110.43   27.34
   5  -2   2  106.21   29.97
  -6   2  -2   90.46   24.23
   6  -2   2   86.11   24.16
   6  -2   2   86.15   26.47
  -7   2  -2   29.12   13.55
   7  -2   2   30.83   15.64
  -8   2  -2   59.13   19.74
   8  -2   2   64.68   21.92
  -9   2  -2   13.61   11.17
   9  -2   2   15.19   13.20
  10   1  -2    -.14    5.93
   9   1  -2     .39    3.83
  -9  -1   2    1.94    4.56
   8   1  -2   12.98    7.39
  -8  -1   2   15.71   13.21
   7   1  -2     .24    2.58
  -7  -1   2     .77    3.40
  -7  -1   2    1.23    3.67
   6   1  -2   53.98   19.48
   6   1  -2   55.29   13.76
  -6  -1   2   56.61   14.93
  -6  -1   2   60.42   20.43
   5   1  -2    -.08    2.45
   5   1  -2    -.62    1.43
  -5  -1   2     .08    1.88
  -5  -1   2     .38    2.86
   4   1  -2    1.36    3.75
   4   1  -2    2.10    2.60
  -4  -1   2     .88    3.42
  -4  -1   2    2.52    2.78
   3   1  -2  347.85   54.60
  -3  -1   2  340.09   54.15
  -3  -1   2  292.80   42.71
   2   1  -2  183.08   32.69
  -2  -1   2  179.73   25.15
  -2  -1   2  176.77   32.33
  -1  -1   2  111.14   20.64
  -1  -1   2  114.34   21.42
   0   1  -2   13.52    7.36
   0  -1   2   12.46    7.27
  -1   1  -2     .96    3.41
   1  -1   2    1.69    2.93
   1  -1   2     .91    3.70
  -2   1  -2   50.73   18.12
  -2   1  -2   56.42   14.78
   2  -1   2   54.82   14.72
   2  -1   2   51.28   17.71
  -3   1  -2   13.41    7.64
  -3   1  -2   15.15   12.67
   3  -1   2   11.31    8.63
   3  -1   2   12.38   10.60
  -4   1  -2    -.61    3.35
   4  -1   2    -.36    2.32
   4  -1   2     .79    3.60
  -5   1  -2   30.55   13.26
  -5   1  -2   28.56   15.67
   5  -1   2   26.81   14.22
   5  -1   2   26.12   12.58
  -6   1  -2   37.53   18.27
  -6   1  -2   40.49   15.77
   6  -1   2   36.13   15.90
   6  -1   2   40.49   17.05
  -7   1  -2     .77    3.78
   7  -1   2    1.72    3.60
  -8   1  -2     .13    3.48
  -9   1  -2     .27    4.34
   9  -1   2     .98    5.92
  10   0  -2   -1.79    6.59
   9   0  -2   13.46    8.68
  -9   0   2   16.55   10.46
   8   0  -2   19.42    8.82
  -8   0   2   16.22   12.95
   7   0  -2   21.04    8.63
  -7   0   2   18.73   10.93
   6   0  -2   26.61    9.59
   6   0  -2   26.92   13.44
  -6   0   2   21.03   12.04
   5   0  -2  116.50   29.03
   5   0  -2  111.36   21.51
  -5   0   2  111.97   23.18
  -5   0   2  115.81   29.03
   4   0  -2  166.92   26.35
   4   0  -2  159.44   34.28
  -4   0   2  166.23   34.85
  -4   0   2  157.10   27.47
   3   0  -2  499.07   66.06
   3   0  -2  533.47   77.55
  -3   0   2  510.04   77.21
   2   0  -2  419.35   61.74
  -2   0   2  396.91   61.13
   1   0  -2  150.92   26.51
   1   0  -2  150.00   21.61
  -1   0   2  147.01   21.07
  -1   0   2  150.93   26.40
   0   0  -2  407.87   57.83
   0   0   2  412.65   57.71
  -1   0  -2  850.65  114.23
   1   0   2  817.91  109.86
   1   0   2  837.18  113.63
  -2   0  -2   90.55   22.93
  -2   0  -2   78.89   18.98
   2   0   2   86.24   19.58
   2   0   2   85.95   21.85
  -3   0  -2   54.23   16.39
  -3   0  -2   54.40   18.84
   3   0   2   54.19   16.38
   3   0   2   52.94   17.59
  -4   0  -2   13.29   11.26
  -4   0  -2   13.12    8.48
   4   0   2   14.22    9.56
   4   0   2   15.32    9.17
  -5   0  -2   30.36   14.72
  -5   0  -2   25.95   12.53
   5   0   2   24.54   12.27
   5   0   2   27.45   12.97
  -6   0  -2    2.66    6.32
  -6   0  -2    3.04    5.58
   6   0   2    2.73    5.91
   6   0   2    1.51    5.86
  -7   0  -2    8.56    9.57
  -7   0  -2    5.65    7.97
   7   0   2    8.14    8.99
  -8   0  -2   31.62   14.94
   8   0   2   29.04   14.00
  -9   0  -2    1.01    4.33
   9   0   2   -1.76    4.55
   9  -1  -2    -.99    4.19
  -9   1   2    1.63    5.23
   8  -1  -2    8.62    7.47
  -8   1   2   10.25    9.45
   7  -1  -2   21.55   10.11
  -7   1   2   27.98   13.64
   6  -1  -2   92.10   21.03
   6  -1  -2   88.61   25.59
  -6   1   2   91.16   25.76
   5  -1  -2   18.81   10.70
   5  -1  -2   18.99    8.44
  -5   1   2   16.66   10.47
   4  -1  -2  162.45   28.81
   4  -1  -2  161.52   34.08
  -4   1   2  155.16   33.86
   3  -1  -2   61.32   17.58
   3  -1  -2   61.55   13.91
  -3   1   2   59.38   17.62
   2  -1  -2    1.77    2.46
   2  -1  -2    2.23    4.27
  -2   1   2    1.30    3.42
   1  -1  -2  172.05   29.48
   1  -1  -2  171.98   24.88
  -1   1   2  174.33   29.50
   0  -1  -2    2.01    2.53
   0   1   2    1.13    1.85
  -1  -1  -2     .34    2.28
   1   1   2     .28    2.02
   1   1   2     .52    2.37
  -2  -1  -2  429.94   65.72
  -2  -1  -2  437.00   64.05
   2   1   2  410.00   64.38
   2   1   2  442.90   64.30
  -3  -1  -2   22.93   10.55
  -3  -1  -2   23.69   11.45
   3   1   2   28.29   11.67
   3   1   2   25.89   10.99
  -4  -1  -2    9.46    9.59
  -4  -1  -2    8.62    8.57
   4   1   2   10.26    9.46
   4   1   2    8.73    8.55
  -5  -1  -2   51.19   19.20
  -5  -1  -2   52.43   18.18
   5   1   2   59.05   19.04
   5   1   2   50.03   18.18
  -6  -1  -2   24.15   14.07
  -6  -1  -2   24.58   12.66
   6   1   2   20.56   12.26
   6   1   2   19.69   11.39
  -7  -1  -2   31.36   14.37
  -7  -1  -2   31.46   15.79
   7   1   2   27.99   13.50
  -8  -1  -2    9.10    9.91
   8   1   2    6.92    8.29
  -9  -1  -2   22.79   12.51
   9   1   2   25.27   12.38
  10   1   2     .59    5.56
   9  -2  -2    -.76    5.16
  -9   2   2     .56    5.48
   8  -2  -2   89.02   22.41
  -8   2   2   85.71   25.52
   7  -2  -2   16.41    9.21
  -7   2   2   14.59   11.23
   6  -2  -2    -.60    3.50
   6  -2  -2    1.28    3.65
  -6   2   2    1.23    4.43
   5  -2  -2  214.32   42.13
   5  -2  -2  213.81   39.18
  -5   2   2  200.76   41.76
   4  -2  -2   96.20   23.02
   4  -2  -2   98.78   24.61
  -4   2   2   96.21   24.84
   3  -2  -2    1.60    3.76
   3  -2  -2    1.86    4.08
  -3   2   2    1.47    3.79
   2  -2  -2  218.20   37.23
  -2   2   2  210.18   36.92
  -1   2   2  259.13   40.31
   0  -2  -2  148.96   25.65
   0   2   2  148.68   25.68
  -1  -2  -2    5.65    5.29
   1   2   2    5.27    4.87
   1   2   2    3.72    4.26
  -2  -2  -2  337.16   52.57
  -2  -2  -2  343.53   53.71
   2   2   2  331.78   52.17
   2   2   2  344.32   53.17
  -3  -2  -2  123.32   28.97
   3   2   2  174.36   31.89
  -4  -2  -2   29.89   13.15
  -4  -2  -2   33.51   13.70
   4   2   2   32.55   13.56
   4   2   2   31.04   12.67
  -5  -2  -2  151.01   34.39
  -5  -2  -2  142.71   33.22
   5   2   2  150.28   32.62
   5   2   2  144.31   33.85
  -6  -2  -2   28.75   14.49
  -6  -2  -2   31.25   14.15
   6   2   2   30.25   14.53
   6   2   2   33.79   13.87
  -7  -2  -2    9.09    9.16
  -7  -2  -2    3.05    6.25
   7   2   2    5.27    6.69
  -8  -2  -2   26.13   13.60
   8   2   2   29.53   13.36
  -9  -2  -2    3.29    5.12
   9   2   2    5.36    7.68
  10   2   2     .38    5.12
   9  -3  -2    -.19    6.07
  -9   3   2    -.81    4.03
   8  -3  -2   11.07    9.07
  -8   3   2   11.36   10.36
   7  -3  -2    3.49    5.46
  -7   3   2    -.48    4.33
   6  -3  -2   16.73   10.07
   6  -3  -2   16.03   12.18
  -6   3   2   15.39    9.75
   5  -3  -2   67.05   20.38
   5  -3  -2   77.77   22.00
  -5   3   2   81.73   22.76
   4  -3  -2   66.91   20.24
   4  -3  -2   69.66   19.76
  -4   3   2   67.21   19.73
   3  -3  -2    1.30    3.77
   3  -3  -2     .82    3.35
  -3   3   2    1.76    3.37
   2  -3  -2   42.21   12.74
  -2   3   2   40.81   12.63
  -1   3   2     .25    1.72
  -1  -3  -2  103.99   22.24
   1   3   2   99.21   19.50
   1   3   2   95.94   21.56
  -2  -3  -2    1.26    3.05
  -2  -3  -2     .52    2.90
   2   3   2    1.56    3.11
   2   3   2    1.61    3.75
  -3  -3  -2   28.39   11.68
  -3  -3  -2   32.60   12.62
   3   3   2   32.51   12.23
   3   3   2   29.15   11.77
  -4  -3  -2   50.03   16.79
  -4  -3  -2   49.30   16.49
   4   3   2   46.48   15.83
   4   3   2   51.05   16.99
  -5  -3  -2   52.91   18.58
  -5  -3  -2   62.37   20.06
   5   3   2   69.26   20.00
   5   3   2   63.57   20.26
  -6  -3  -2   37.30   15.85
  -6  -3  -2   42.02   16.73
   6   3   2   45.90   18.13
   6   3   2   39.73   15.35
  -7  -3  -2    9.39    9.43
  -7  -3  -2   13.74   11.30
   7   3   2   11.01    9.45
  -8  -3  -2   46.90   17.91
  -8  -3  -2   34.16   16.97
   8   3   2   45.69   16.29
  -9  -3  -2    5.27    7.07
   9   3   2    2.66    5.73
  10   3   2    -.95    5.30
   9  -4  -2    5.98    8.68
  -9   4   2    7.41    8.89
   8  -4  -2    6.27    8.69
  -8   4   2    8.42    8.41
   7  -4  -2    6.59    8.29
  -7   4   2    7.20    7.30
   6  -4  -2   38.79   16.17
   6  -4  -2   34.02   14.58
  -6   4   2   39.79   15.31
   5  -4  -2  114.26   29.48
   5  -4  -2  108.38   26.60
  -5   4   2  105.71   26.54
   4  -4  -2   15.70    8.84
   4  -4  -2   10.54   10.02
  -4   4   2   11.22    8.85
   3  -4  -2  235.55   47.77
   3  -4  -2  253.34   42.81
  -3   4   2  245.27   42.47
   2  -4  -2  528.23   75.96
  -2   4   2  546.23   76.40
  -1   4   2     .32    1.91
  -1  -4  -2  312.11   50.88
   1   4   2  296.18   44.63
  -2  -4  -2   30.57   12.12
  -2  -4  -2   30.96   10.58
   2   4   2   33.33   12.77
   2   4   2   31.51   10.51
  -3  -4  -2   17.44    8.65
  -3  -4  -2   14.22    8.51
   3   4   2   15.85    8.30
   3   4   2   15.18    8.72
  -4  -4  -2  245.14   45.41
  -4  -4  -2  236.83   45.17
   4   4   2  259.17   46.12
   4   4   2  243.67   45.00
  -5  -4  -2     .15    3.41
  -5  -4  -2    1.04    3.67
   5   4   2    -.25    2.96
   5   4   2    1.61    4.00
  -6  -4  -2    4.33    5.64
   6   4   2    2.54    4.50
   6   4   2    5.95    7.63
  -7  -4  -2    6.58    8.87
  -7  -4  -2    8.83    9.47
   7   4   2    9.74    9.28
   8   4   2    3.87    5.47
  -9  -4  -2    1.48    4.61
   9   4   2     .48    4.44
  10   4   2    5.97    7.06
   8  -5  -2   14.52   11.11
  -8   5   2    7.71    8.64
   7  -5  -2    4.26    6.23
  -7   5   2    3.68    6.09
   6  -5  -2    -.49    3.80
  -6   5   2    -.63    3.28
   5  -5  -2   75.61   24.10
   5  -5  -2   64.07   19.28
  -5   5   2   67.77   19.55
   4  -5  -2   69.88   19.03
   4  -5  -2   74.66   24.36
  -4   5   2   69.01   19.19
   3  -5  -2    4.29    7.75
   3  -5  -2    5.88    5.74
  -3   5   2    5.89    5.91
   2  -5  -2  125.06   24.09
  -1   5   2  201.99   31.94
  -1  -5  -2  310.87   53.65
   1   5   2  320.00   45.67
  -2  -5  -2  771.37  112.16
  -2  -5  -2  789.20  105.71
   2   5   2  795.50  105.79
  -4  -5  -2   11.86    9.52
  -4  -5  -2   12.68   10.01
   4   5   2   13.54   10.66
   4   5   2   13.83   11.00
  -5  -5  -2    -.91    2.35
  -5  -5  -2     .12    3.44
   5   5   2    2.46    4.72
   5   5   2     .76    3.37
  -6  -5  -2   21.30   11.71
  -6  -5  -2   24.92   12.54
   6   5   2   23.32   11.88
   6   5   2   27.42   13.47
  -7  -5  -2    6.91    7.88
  -7  -5  -2    6.60    7.86
   7   5   2    5.27    7.05
  -8  -5  -2    1.04    4.47
  -8  -5  -2    3.10    6.45
   8   5   2    5.19    6.23
  -9  -5  -2    -.38    3.85
   9   5   2    -.36    4.29
  10   5   2    -.57    4.47
   8  -6  -2    6.40    9.27
  -8   6   2    5.30    8.09
   7  -6  -2    4.78    7.01
  -7   6   2    1.49    4.47
   6  -6  -2     .41    4.86
  -6   6   2    1.32    3.85
   5  -6  -2   10.82    8.56
   5  -6  -2   13.26   11.80
  -5   6   2   13.84    7.13
   4  -6  -2   61.30   17.04
   4  -6  -2   63.64   23.29
  -4   6   2   65.89   17.74
   3  -6  -2   64.82   23.69
   3  -6  -2   59.98   15.78
  -3   6   2   58.32   15.62
  -2   6   2   83.49   17.76
  -1   6   2     .07    1.51
   0   6   2   24.11    6.73
  -1  -6  -2   84.35   23.37
   1   6   2   87.74   16.27
  -2  -6  -2   19.23   10.55
   2   6   2   19.59    7.76
  -3  -6  -2  122.66   29.42
  -3  -6  -2  130.14   26.02
   3   6   2  121.84   25.54
  -4  -6  -2   67.73   18.69
  -4  -6  -2   67.61   20.57
   4   6   2   61.99   20.09
   4   6   2   66.36   18.79
  -5  -6  -2    6.92    7.49
  -5  -6  -2    8.19    8.45
   5   6   2    8.13    8.25
   5   6   2    9.41    9.55
  -6  -6  -2   73.08   22.05
  -6  -6  -2   74.52   21.90
   6   6   2   70.54   21.83
   6   6   2   71.39   22.01
  -7  -6  -2   33.17   14.67
  -7  -6  -2   28.61   13.76
   7   6   2   27.96   13.57
  -8  -6  -2    -.50    3.94
   8   6   2    1.74    4.11
  -9  -6  -2   10.05   10.03
   9   6   2    6.72    8.52
  10   6   2    1.09    5.91
   7  -7  -2    2.57    6.14
  -7   7   2     .78    4.39
   6  -7  -2    8.65   10.11
  -6   7   2   12.79    7.99
   5  -7  -2   58.99   22.47
   5  -7  -2   54.25   15.73
  -5   7   2   47.18   14.99
   4  -7  -2    4.49    5.26
   4  -7  -2    8.56    9.97
  -4   7   2    8.18    6.80
   3  -7  -2    4.74    8.61
  -3   7   2    6.83    5.56
  -2   7   2   64.63   14.11
  -1   7   2     .21    1.35
   0   7   2    8.91    3.39
   0   7   2   10.51    3.55
  -1  -7  -2  376.97   64.78
   1   7   2  376.09   50.87
  -2  -7  -2   37.88   15.36
   2   7   2   33.57    9.81
  -3  -7  -2     .10    1.89
  -3  -7  -2     .45    3.21
   3   7   2    1.09    2.69
  -4  -7  -2  155.88   35.23
  -4  -7  -2  162.96   31.97
   4   7   2  162.13   32.18
  -5  -7  -2  213.99   40.07
  -5  -7  -2  206.99   42.14
   5   7   2  201.23   40.22
  -6  -7  -2    5.90    6.38
  -6  -7  -2    5.47    7.28
   6   7   2    3.51    5.95
   6   7   2    1.90    4.84
  -7  -7  -2   23.88   12.69
  -7  -7  -2   30.42   13.88
   7   7   2   25.37   13.02
  -8  -7  -2   22.41   12.62
   8   7   2   27.26   12.85
  -9  -7  -2    2.26    5.55
   9   7   2    3.18    6.38
  10   7   2   -2.57    4.68
   6  -8  -2   13.38   13.98
  -6   8   2   12.99    8.21
   5  -8  -2    3.33    7.59
   5  -8  -2    6.83    6.63
  -5   8   2    4.39    5.13
   4  -8  -2    -.16    4.30
  -4   8   2   -1.01    2.45
   3  -8  -2   18.64   16.60
  -3   8   2   18.99    7.46
  -2   8   2   18.09    5.96
  -1   8   2    2.49    1.60
  -1  -8  -2   28.11   13.54
   1   8   2   29.50    5.94
   1   8   2   27.14    5.75
  -2  -8  -2    5.33    5.97
   2   8   2    4.67    4.14
  -3  -8  -2     .01    3.34
   3   8   2    -.39    2.27
  -4  -8  -2   37.43   15.87
   4   8   2   43.76   13.80
  -5  -8  -2   12.92   10.91
  -5  -8  -2   11.93    9.13
   5   8   2   13.52    9.83
  -6  -8  -2    -.30    4.48
  -6  -8  -2    7.14    7.03
   6   8   2    1.99    3.98
  -7  -8  -2    3.16    4.97
  -8  -8  -2    3.16    5.76
  -9  -8  -2     .26    3.74
   6  -9  -2    1.84    8.76
  -6   9   2    5.03    5.76
   5  -9  -2   16.43   14.97
  -5   9   2   22.93    9.63
   4  -9  -2    6.94    9.67
  -4   9   2    5.69    5.15
   3  -9  -2   42.99   20.85
  -3   9   2   45.82   10.34
  -2  -9  -2    4.33    6.74
   2   9   2    5.96    3.79
  -3  -9  -2   91.40   26.81
   3   9   2   87.09   18.10
  -4  -9  -2   49.85   13.90
   4   9   2   47.80   14.23
  -5  -9  -2    5.38    5.97
   5   9   2    5.57    6.65
  -6  -9  -2    6.56    6.52
   6   9   2    4.34    6.47
  -7  -9  -2   17.03    8.69
  -8  -9  -2     .30    4.93
  -9  -9  -2    2.45    6.25
   5 -10  -2    1.71    7.75
   4 -10  -2   10.95   12.23
   3 -10  -2   18.46   16.54
   3  10   2   59.26   12.75
   4  10   2    9.20    5.63
  -5 -10  -2     .36    2.40
   5  10   2   -1.06    3.02
  -6 -10  -2   26.13   11.04
   6  10   2   24.66   12.05
  -7 -10  -2    7.27    6.78
  -8 -10  -2    8.17    8.02
  -9 -10  -2    9.69    8.29
   3 -11  -2    6.17   11.07
   2 -11  -2   42.02   21.71
   3  11   2   30.09    5.61
   4  11   2  104.48   20.08
   5  11   2   11.21    8.04
  -6 -11  -2     .41    2.61
   6  11   2   -1.35    5.26
  -7 -11  -2   29.77   11.83
  -8 -11  -2   16.31    9.32
   2 -12  -2    -.35    6.16
   5  12   2    4.81    5.45
   6  12   2    4.59   10.96
  -7 -12  -2   35.59   12.15
  -3 -11   3   -1.09    4.59
  -2 -11   3     .01    6.05
  -1 -11   3    8.00   10.02
  -7 -10   3    9.45    6.13
  -6 -10   3   21.00    8.23
  -5 -10   3    3.17    3.94
  -4 -10   3   27.83    6.93
  -3 -10   3   77.89   27.59
  -2 -10   3    9.26   10.71
  -1 -10   3    1.42    6.69
   0 -10   3   41.64   20.93
   1 -10   3   23.00   14.78
  -8  -9   3    5.12    5.74
  -7  -9   3    8.08    7.40
   6   9  -3   10.40    9.62
  -6  -9   3   10.42    8.07
  -5  -9   3   70.51   17.15
  -4  -9   3    4.84    4.36
  -3  -9   3    -.09    1.23
  -2  -9   3   72.99   26.93
  -1  -9   3   18.36   16.02
   0  -9   3    2.24    4.89
   1  -9   3   40.95   20.50
   2  -9   3    5.65    8.35
   3  -9   3    7.40   10.43
  -9  -8   3    6.64    7.46
  -8  -8   3    1.56    4.60
  -7  -8   3    4.80    5.74
  -7  -8   3    2.76    4.57
   6   8  -3    6.16    7.95
  -6  -8   3   10.59    8.26
  -6  -8   3    7.76    7.33
   5   8  -3    1.24    4.27
  -5  -8   3     .12    4.73
  -5  -8   3     .98    3.64
  -4  -8   3     .68    3.94
  -4  -8   3     .29    2.02
  -3  -8   3   16.71    6.33
  -2  -8   3   18.63    3.84
  -1  -8   3    4.82    9.10
   0  -8   3   46.32   20.97
   1  -8   3   33.33   18.53
   2  -8   3    -.25    3.56
   3  -8   3    6.54    8.74
   4  -8   3    7.05    7.61
  -9  -7   3    6.90    7.96
  -8  -7   3    2.67    3.67
  -8  -7   3    1.48    3.86
  -7  -7   3   30.04   10.98
  -7  -7   3   32.78   13.18
   6   7  -3    7.43    8.45
  -6  -7   3    8.25    7.48
  -6  -7   3    9.30    7.52
   5   7  -3    -.45    3.58
  -5  -7   3     .61    3.49
  -5  -7   3     .08    2.80
  -4  -7   3   57.11   17.68
  -4  -7   3   64.45   16.79
  -3  -7   3   54.19   13.71
  -2  -7   3   10.14    4.48
  -1  -7   3    5.10    9.36
   0  -7   3   72.63   26.38
   2  -7   3   10.50   11.66
   2  -7   3   10.71    3.52
   3  -7   3   33.18   18.50
   3  -7   3   38.77    9.41
   4  -7   3   35.61   19.05
   4  -7   3   27.16    9.02
   5  -7   3    1.46    4.09
  -9  -6   3    1.17    4.88
  -8  -6   3     .37    3.51
  -8  -6   3    -.64    4.18
  -7  -6   3   44.06   12.52
  -7  -6   3   47.13   16.90
   6   6  -3     .25    3.74
  -6  -6   3     .85    3.99
  -6  -6   3    1.64    3.75
   5   6  -3    8.71    8.62
  -5  -6   3    6.44    6.12
  -5  -6   3    6.07    7.08
   4   6  -3   75.59   19.71
  -4  -6   3   74.40   19.27
  -4  -6   3   74.02   19.61
  -3  -6   3   57.99   15.31
  -2  -6   3  114.98   21.35
  -1  -6   3   38.40    8.72
  -1  -6   3   31.32   16.56
   0  -6   3   67.78   11.75
   0  -6   3   73.60   25.96
   0  -6   3   66.72   11.52
   1  -6   3    6.29    3.22
   1  -6   3    7.15    9.03
   2  -6   3    4.66    4.01
   2  -6   3    5.74    9.09
   3  -6   3   57.77   23.58
   3  -6   3   54.81   13.45
   4  -6   3    5.49    8.16
   4  -6   3    3.63    4.61
   5  -6   3    4.88    5.37
   5  -6   3    5.26    6.66
   6  -6   3    2.92    7.82
  -9  -5   3   19.22   12.15
  -8  -5   3    5.14    6.78
  -8  -5   3    4.92    3.91
  -7  -5   3    -.92    2.76
  -7  -5   3    -.08    2.25
   6   5  -3   44.68   16.91
  -6  -5   3   46.51   12.65
  -6  -5   3   42.31   16.33
   5   5  -3   95.15   24.85
  -5  -5   3   96.68   20.83
  -5  -5   3   94.03   24.52
   4   5  -3    6.17    6.49
  -4  -5   3    4.34    5.07
  -4  -5   3    4.55    6.03
   3   5  -3   69.95   18.27
  -3  -5   3   68.11   17.52
  -2  -5   3   81.23   17.78
  -1  -5   3  135.17   23.65
  -1  -5   3  148.30   36.64
   0  -5   3  169.04   41.63
   0  -5   3  172.18   26.87
   0  -5   3  175.15   26.88
   1  -5   3   92.63   17.32
   1  -5   3   96.75   30.32
   2  -5   3   66.43   14.87
   2  -5   3   65.63   24.85
   3  -5   3   23.47    8.94
   3  -5   3   19.65   16.01
   4  -5   3   15.61   13.91
   4  -5   3   17.97    8.70
  -5   5  -3    6.41    6.81
   5  -5   3    4.28    4.91
   5  -5   3    6.48    6.80
  -6   5  -3    7.72    6.59
   6  -5   3    4.55    8.33
  -7   5  -3    5.77    7.64
   7  -5   3    2.00    7.35
  -9  -4   3     .56    5.38
  -8  -4   3     .27    2.47
  -8  -4   3    1.59    5.18
  -7  -4   3    3.58    3.61
  -7  -4   3    4.83    6.38
   6   4  -3     .26    5.05
  -6  -4   3    1.79    3.53
  -6  -4   3     .37    1.99
   5   4  -3     .01    3.60
  -5  -4   3    -.77    2.24
  -5  -4   3     .81    1.50
   4   4  -3   17.32    9.73
  -4  -4   3   19.01    7.98
  -4  -4   3   20.35   10.34
   3   4  -3   12.58    7.69
  -3  -4   3   11.45    7.32
  -2  -4   3    1.74    3.41
  -1  -4   3   46.42   12.17
  -1  -4   3   48.95   18.38
   0  -4   3     .44    2.59
   0  -4   3     .29    1.70
   1  -4   3    6.16    4.90
   1  -4   3    7.05    8.94
   2  -4   3  100.33   30.38
   2  -4   3   91.54   19.51
   3  -4   3   11.92   12.04
   3  -4   3   10.80    7.81
  -4   4  -3     .13    2.67
   4  -4   3    -.74    2.29
   4  -4   3     .09    3.05
  -5   4  -3    3.61    3.71
   5  -4   3     .41    4.07
   5  -4   3    2.06    3.57
  -6   4  -3    1.10    3.80
   6  -4   3     .28    4.84
  -7   4  -3    5.30    6.03
   7  -4   3    2.22    6.43
  -9  -3   3   11.87   10.31
  -8  -3   3   -1.12    2.79
  -7  -3   3   25.47   13.39
  -7  -3   3   28.17    7.91
   6   3  -3   42.96   17.02
  -6  -3   3   53.71   18.39
  -6  -3   3   41.03   10.13
   5   3  -3   10.79   10.14
  -5  -3   3   10.53    4.79
  -5  -3   3   10.32    9.66
   4   3  -3   29.75   13.08
  -4  -3   3   29.48    8.78
  -4  -3   3   35.65   13.75
   3   3  -3    1.48    3.78
  -3  -3   3    1.86    3.43
  -2  -3   3     .18    2.23
  -1  -3   3   77.79   17.26
  -1  -3   3   75.17   22.05
   0  -3   3  549.28   87.87
   1  -3   3   24.55   13.70
   1  -3   3   27.10    9.06
   2  -3   3  180.47   42.53
   2  -3   3  183.29   32.41
  -3   3  -3  327.38   52.38
   3  -3   3  333.52   52.61
   3  -3   3  322.30   63.18
  -4   3  -3   13.55    8.36
   4  -3   3   14.03   13.08
   4  -3   3   12.57    7.69
  -5   3  -3   15.14    8.73
   5  -3   3   13.94    8.34
   5  -3   3   11.80   11.45
  -6   3  -3   63.35   19.13
   6  -3   3   57.72   22.15
  -7   3  -3   34.79   13.64
   7  -3   3   30.05   15.91
  -8   3  -3    -.24    4.75
   8  -3   3    -.24    6.65
  -9  -2   3    8.71    9.95
  -8  -2   3   -1.08    3.32
  -7  -2   3   26.85   14.04
   6   2  -3   51.20   19.32
  -6  -2   3   61.52   20.82
   5   2  -3    -.01    2.94
  -5  -2   3     .17    1.31
  -5  -2   3     .53    3.56
   4   2  -3   86.89   23.61
  -4  -2   3   85.13   23.23
  -4  -2   3   85.50   14.41
   3   2  -3   10.58    8.66
  -3  -2   3    9.47    4.34
  -3  -2   3    8.78    8.18
   2   2  -3  307.41   49.97
  -2  -2   3  301.74   49.30
  -2  -2   3  310.87   48.21
  -1  -2   3    1.07    3.34
  -1  -2   3    1.31    3.09
   0  -2   3   14.51   11.19
  -1   2  -3   43.96   17.68
   1  -2   3   48.62   13.07
   1  -2   3   44.91   17.55
  -2   2  -3   65.42   22.98
   2  -2   3   61.54   16.24
   2  -2   3   60.86   21.55
  -3   2  -3     .51    2.76
  -3   2  -3   -1.41    3.07
   3  -2   3    -.06    3.15
   3  -2   3     .96    2.95
  -4   2  -3    7.62   10.47
  -4   2  -3    6.80    7.29
   4  -2   3    7.31    7.77
   4  -2   3    6.73    8.70
  -5   2  -3    7.41   10.49
  -5   2  -3    7.70    7.37
   5  -2   3    9.98    8.68
   5  -2   3    6.28    8.14
  -6   2  -3     .68    3.89
   6  -2   3    1.08    5.05
  -7   2  -3    1.93    5.07
   7  -2   3     .19    4.59
  -8   2  -3    1.31    4.29
   8  -2   3     .57    5.16
  -9  -1   3    2.46    6.67
   8   1  -3   30.13    8.30
  -8  -1   3   26.12   12.96
   7   1  -3   73.83   13.91
  -7  -1   3   70.62   23.27
   6   1  -3   84.01   25.16
   6   1  -3   84.30   14.54
  -6  -1   3   89.46   25.90
   5   1  -3   84.72   24.55
  -5  -1   3   87.51   24.69
   4   1  -3   88.59   24.11
  -4  -1   3   89.05   23.93
   3   1  -3   15.61    9.00
   2   1  -3   73.21   19.14
  -2  -1   3   73.98   19.00
  -2  -1   3   74.07   14.31
  -1  -1   3  165.60   29.99
  -1  -1   3  172.18   31.07
   0   1  -3    2.75    4.95
   0  -1   3    2.73    4.51
  -1   1  -3    3.04    5.66
   1  -1   3    1.90    4.18
   1  -1   3    1.63    3.19
  -2   1  -3  284.03   54.86
  -2   1  -3  316.22   47.93
   2  -1   3  262.67   52.66
  -3   1  -3  194.46   36.71
  -3   1  -3  183.06   42.94
   3  -1   3  197.01   37.23
   3  -1   3  201.57   42.97
  -4   1  -3    3.21    8.08
  -4   1  -3    4.40    5.67
   4  -1   3    3.36    5.99
   4  -1   3    2.84    4.88
  -5   1  -3  161.15   35.27
  -5   1  -3  168.04   41.79
   5  -1   3  167.18   36.21
   5  -1   3  171.38   39.40
  -6   1  -3   89.67   24.70
   6  -1   3   95.04   27.60
  -7   1  -3     .29    3.30
   7  -1   3    1.00    4.35
  -8   1  -3   12.19   10.85
   8  -1   3   12.93   11.93
   9  -1   3   13.68   12.01
  -9   0   3    1.91    5.74
   8   0  -3    5.54    4.94
  -8   0   3    8.46    9.64
   7   0  -3    5.75    4.45
  -7   0   3    3.74    6.72
   6   0  -3   45.90   18.14
   6   0  -3   40.66   10.22
  -6   0   3   49.17   18.62
   5   0  -3   19.81   11.14
   5   0  -3   18.76    5.54
  -5   0   3   18.72   10.68
   4   0  -3   13.54   10.99
  -4   0   3   11.80   10.48
   3   0  -3  362.53   61.67
  -3   0   3  408.32   64.16
   2   0  -3    6.67    6.89
  -2   0   3    5.75    6.35
   1   0  -3  136.62   23.44
  -1   0   3  136.15   22.61
  -1   0   3  140.24   27.26
   0   0  -3     .48    2.14
   0   0   3     .03    1.81
  -1   0  -3  404.98   65.33
   1   0   3  417.76   65.47
   1   0   3  420.79   61.67
  -2   0  -3   24.85   10.16
  -2   0  -3   31.08   13.67
   2   0   3   27.53   12.58
   2   0   3   29.58   11.16
  -3   0  -3   35.75   13.43
  -3   0  -3   43.40   17.85
   3   0   3   43.14   16.46
   3   0   3   38.63   14.04
  -4   0  -3   21.55   13.17
  -4   0  -3   20.97   10.79
   4   0   3   22.44   11.26
   4   0   3   25.34   13.14
  -5   0  -3   31.21   16.17
  -5   0  -3   27.79   12.80
   5   0   3   27.76   13.23
   5   0   3   25.90   13.45
  -6   0  -3   24.06   12.18
  -6   0  -3   29.04   15.91
   6   0   3   26.64   13.25
   6   0   3   28.15   14.32
  -7   0  -3   11.16    9.91
   7   0   3   12.71   10.34
  -8   0  -3     .27    4.07
   8   0   3    1.65    4.54
  -9   0  -3    -.33    4.94
   9   0   3     .75    5.38
   9  -1  -3    5.97    5.64
  -9   1   3    4.26    6.67
   8  -1  -3     .97    3.39
  -8   1   3    1.53    5.21
   7  -1  -3   24.78    9.48
  -7   1   3   23.51   13.05
   6  -1  -3    3.68    4.20
   6  -1  -3    4.22    7.13
  -6   1   3    4.16    7.39
   5  -1  -3    2.52    5.93
   5  -1  -3    2.19    3.42
  -5   1   3    4.40    6.03
   4  -1  -3  129.67   30.71
   4  -1  -3  131.84   21.88
  -4   1   3  138.28   31.34
   3  -1  -3   23.74   10.93
   3  -1  -3   22.40    5.96
  -3   1   3   19.57   10.02
   2  -1  -3   47.76   15.03
   2  -1  -3   49.96    9.01
  -2   1   3   46.09   14.85
   1  -1  -3  238.09   34.61
  -1   1   3  236.45   34.14
  -1   1   3  238.27   40.31
   0  -1  -3  162.87   28.91
   0   1   3  173.13   28.98
  -1  -1  -3  182.70   34.22
   1   1   3  187.92   33.00
   1   1   3  182.92   33.62
  -2  -1  -3  219.88   41.81
  -2  -1  -3  218.25   38.78
   2   1   3  217.82   40.61
   2   1   3  220.05   38.80
  -3  -1  -3   98.63   26.62
  -3  -1  -3   99.23   24.02
   3   1   3  103.23   24.80
   3   1   3   84.66   24.11
  -4  -1  -3   64.31   21.63
  -4  -1  -3   58.38   18.76
   4   1   3   55.83   18.65
   4   1   3   57.83   19.54
  -5  -1  -3   56.53   20.96
  -5  -1  -3   55.82   18.79
   5   1   3   57.06   19.59
   5   1   3   52.03   18.41
  -6  -1  -3   24.46   12.67
  -6  -1  -3   21.57   13.63
   6   1   3   23.56   12.22
   6   1   3   23.89   12.94
  -7  -1  -3   38.51   15.90
   7   1   3   40.12   16.14
  -8  -1  -3   26.99   12.83
   8   1   3   22.38   13.00
  -9  -1  -3    3.58    7.28
   9   1   3    5.96    7.68
   9  -2  -3    1.73    5.66
  -9   2   3    2.81    5.75
   8  -2  -3    -.18    3.73
  -8   2   3   -1.73    3.73
   7  -2  -3    6.96    6.69
  -7   2   3    5.32    7.83
   6  -2  -3    4.89    6.92
   5  -2  -3    3.60    6.11
   5  -2  -3    4.03    5.05
  -5   2   3    7.01    8.14
   4  -2  -3   15.83    9.59
   4  -2  -3   13.35    7.10
  -4   2   3   15.84    9.47
   3  -2  -3   30.71   12.52
   3  -2  -3   32.65   10.66
  -3   2   3   32.83   13.09
   2  -2  -3   52.71   15.65
  -2   2   3   50.21   15.58
   1  -2  -3   40.94   10.55
  -1   2   3   40.12   12.86
   0  -2  -3  105.26   20.74
   0   2   3   96.99   20.02
  -1  -2  -3   83.50   19.85
   1   2   3   77.84   18.80
  -2  -2  -3  317.22   51.39
  -2  -2  -3  323.40   53.84
   2   2   3  316.32   51.32
   2   2   3  311.52   52.16
  -3  -2  -3    1.16    3.30
  -3  -2  -3     .22    2.96
   3   2   3    2.12    3.99
  -4  -2  -3     .34    2.99
  -4  -2  -3    -.22    2.92
   4   2   3     .58    3.55
   4   2   3     .35    2.43
  -5  -2  -3  168.17   38.73
  -5  -2  -3  166.94   36.68
   5   2   3  159.99   36.48
   5   2   3  172.87   37.02
  -6  -2  -3   72.30   24.07
  -6  -2  -3   81.76   24.09
   6   2   3   82.58   24.73
   6   2   3   76.67   23.02
   7   2   3    -.35    2.98
  -8  -2  -3    3.04    4.95
   8   2   3    3.38    5.85
  -9  -2  -3   14.22   11.76
   9   2   3   16.09   10.64
  10   2   3    -.91    5.10
   9  -3  -3   -1.22    5.21
  -9   3   3   -1.04    4.64
   8  -3  -3   36.23   14.36
  -8   3   3   36.39   16.05
   7  -3  -3   63.94   18.69
  -7   3   3   65.92   21.34
   6  -3  -3   15.69    9.19
  -6   3   3   11.65   10.05
   5  -3  -3  114.28   27.99
   5  -3  -3   99.34   24.40
  -5   3   3  100.63   26.99
   4  -3  -3   79.33   22.35
   4  -3  -3   90.05   22.27
  -4   3   3   80.39   22.60
   3  -3  -3   89.66   22.52
  -3   3   3   90.70   22.90
   2  -3  -3   41.60   13.57
  -2   3   3   42.51   13.74
   1  -3  -3  776.08  105.15
  -1   3   3  782.04  106.64
   0  -3  -3 1520.49  191.86
   0   3   3 1449.87  191.25
  -1  -3  -3   12.36    7.08
   1   3   3    9.50    6.39
   1   3   3    9.97    6.06
  -2  -3  -3  540.33   79.96
  -2  -3  -3  541.43   82.02
   2   3   3  554.63   80.25
   2   3   3  568.88   82.20
  -3  -3  -3    -.25    2.41
  -3  -3  -3    2.08    3.76
   3   3   3    1.08    3.14
   3   3   3    1.39    3.52
  -4  -3  -3   23.40   11.55
  -4  -3  -3   21.74   11.45
   4   3   3   20.05   10.49
   4   3   3   21.59   10.98
  -5  -3  -3  134.38   31.98
  -5  -3  -3  139.27   33.40
   5   3   3  140.30   31.73
   5   3   3  127.28   31.56
  -6  -3  -3   55.47   19.98
  -6  -3  -3   49.23   18.32
   6   3   3   52.40   18.22
   6   3   3   50.48   18.92
  -7  -3  -3    4.17    6.61
  -7  -3  -3    4.01    5.98
   7   3   3    4.60    6.15
  -8  -3  -3  105.64   29.04
   8   3   3  104.24   26.94
  -9  -3  -3    8.76    9.19
   9   3   3    6.18    8.23
  10   3   3   -2.23    4.95
   9  -4  -3    9.28    9.65
  -9   4   3   10.02   10.01
   8  -4  -3     .06    5.77
  -8   4   3     .45    5.72
   7  -4  -3   18.59   11.05
  -7   4   3   17.09   10.50
   6  -4  -3   51.04   17.69
  -6   4   3   50.08   17.64
   5  -4  -3    2.98    5.81
   5  -4  -3    2.24    4.98
  -5   4   3    2.40    4.06
   4  -4  -3   39.05   14.00
   4  -4  -3   31.24   13.72
  -4   4   3   33.19   13.77
   3  -4  -3  215.24   39.76
  -3   4   3  220.31   40.32
  -2   4   3   10.03    7.94
  -1   4   3    7.04    6.16
   0  -4  -3  150.78   30.44
  -1  -4  -3    1.37    3.56
   1   4   3    2.15    4.13
   1   4   3    1.73    2.97
  -2  -4  -3  143.88   30.70
   2   4   3  134.77   27.66
   2   4   3  139.32   30.09
  -3  -4  -3   20.87   10.81
  -3  -4  -3   21.88   10.43
   3   4   3   19.88    9.52
   3   4   3   21.42   11.14
  -4  -4  -3   26.80   12.43
  -4  -4  -3   28.40   13.05
   4   4   3   25.54   12.17
   4   4   3   27.67   12.77
  -5  -4  -3   13.54   11.42
  -5  -4  -3   18.06   10.58
   5   4   3   14.50   11.98
   5   4   3   15.08   10.07
  -6  -4  -3   82.37   24.40
  -6  -4  -3   77.88   23.76
   6   4   3   85.05   23.82
   6   4   3   80.95   24.66
  -7  -4  -3   24.21   13.70
  -7  -4  -3   24.10   12.88
   7   4   3   19.74   11.63
  -8  -4  -3    9.27    9.23
   8   4   3    8.68    8.45
  -9  -4  -3    1.11    4.69
   9   4   3    2.99    5.40
  10   4   3    1.05    5.92
   8  -5  -3   12.78    9.80
  -8   5   3    9.29    8.15
   7  -5  -3    6.58    7.14
  -7   5   3   11.40    9.24
   6  -5  -3   10.49    8.92
  -6   5   3   11.51   10.27
   5  -5  -3   42.64   16.88
   5  -5  -3   37.22   14.28
  -5   5   3   41.50   15.30
   4  -5  -3   10.24   10.68
   4  -5  -3   13.87    9.83
  -4   5   3   11.88    9.50
   3  -5  -3  143.70   29.68
  -3   5   3  144.94   29.84
  -2   5   3  196.11   35.18
  -1   5   3     .60    2.51
   0  -5  -3  133.71   29.43
  -1  -5  -3  266.22   47.53
   1   5   3  261.50   42.22
  -2  -5  -3   98.66   25.31
   2   5   3   99.14   25.29
   2   5   3  105.51   22.71
  -3  -5  -3  104.94   26.92
  -3  -5  -3  114.61   25.62
   3   5   3  112.52   27.78
   3   5   3  109.40   25.13
  -4  -5  -3     .59    2.99
  -4  -5  -3     .56    2.86
   4   5   3    -.42    3.09
   4   5   3    -.36    2.87
  -5  -5  -3    3.80    5.92
  -5  -5  -3    5.42    7.34
   5   5   3    3.74    6.26
   5   5   3    3.80    6.30
  -6  -5  -3    1.69    3.60
  -6  -5  -3    1.24    3.70
   6   5   3    1.16    4.06
   6   5   3     .72    3.45
  -7  -5  -3   34.70   15.31
  -7  -5  -3   34.16   15.03
   7   5   3   33.50   15.08
  -8  -5  -3   10.63   10.08
   8   5   3    9.66    9.65
  -9  -5  -3    2.71    5.30
   9   5   3     .63    4.39
  10   5   3    3.17    7.26
   8  -6  -3    8.11    9.19
  -8   6   3    8.12    8.24
   7  -6  -3   16.04   12.71
  -7   6   3   21.01   10.40
   6  -6  -3    -.28    4.31
  -6   6   3    2.41    4.48
   5  -6  -3   22.86   11.01
   5  -6  -3   22.05   13.06
  -5   6   3   19.77   10.44
   4  -6  -3   57.10   16.91
   4  -6  -3   54.60   21.44
  -4   6   3   50.93   16.36
  -3   6   3     .28    3.36
  -2   6   3  133.97   26.15
  -1   6   3  142.20   26.04
   0  -6  -3   34.54   14.01
  -1  -6  -3   14.14   11.07
   1   6   3   12.55    6.43
  -2  -6  -3  263.17   48.40
   2   6   3  246.41   41.60
  -3  -6  -3    5.56    7.20
  -3  -6  -3    8.08    7.38
   3   6   3    5.77    7.08
   3   6   3    6.42    6.57
  -4  -6  -3    1.01    4.10
  -4  -6  -3    1.94    4.46
   4   6   3    2.70    4.57
   4   6   3    1.53    3.91
  -5  -6  -3  147.54   32.99
  -5  -6  -3  146.26   34.17
   5   6   3  150.57   34.48
   5   6   3  137.55   32.15
  -6  -6  -3   31.48   14.34
  -6  -6  -3   30.17   13.74
   6   6   3   26.63   14.08
   6   6   3   32.20   14.62
  -7  -6  -3    1.32    4.95
  -7  -6  -3     .80    7.58
   7   6   3     .64    4.95
  -8  -6  -3   22.68   11.77
   8   6   3   16.27   12.09
  -9  -6  -3   30.40   14.17
   9   6   3   32.85   14.75
  10   6   3   -1.26    5.19
   7  -7  -3    -.25    4.99
  -7   7   3     .82    4.21
   6  -7  -3   -2.37    4.31
  -6   7   3    1.61    3.72
   5  -7  -3   42.70   18.55
   5  -7  -3   40.57   14.65
  -5   7   3   43.30   14.25
   4  -7  -3    2.46    6.52
  -4   7   3    2.41    5.04
  -3   7   3    1.83    3.68
  -2   7   3   51.44   13.68
  -1   7   3   22.49    8.11
   0  -7  -3   13.86    9.27
   0   7   3   16.32    6.51
  -1  -7  -3   50.02   18.05
   1   7   3   50.17   12.55
  -2  -7  -3   77.28   22.95
   2   7   3   74.61   17.33
  -4  -7  -3   15.01   11.61
  -4  -7  -3   13.94    8.44
   4   7   3   10.13   10.98
   4   7   3   11.82    7.71
  -5  -7  -3   83.02   24.20
  -5  -7  -3   71.51   20.92
   5   7   3   74.65   21.76
   5   7   3   78.28   23.50
  -6  -7  -3    4.31    6.05
  -6  -7  -3    2.61    5.56
   6   7   3    2.69    5.28
   6   7   3    2.16    5.24
  -7  -7  -3    1.73    4.31
   7   7   3    -.11    3.52
  -8  -7  -3   11.74   10.52
   8   7   3   10.06    9.62
  -9  -7  -3    7.69    8.36
   9   7   3    8.15    7.69
  10   7   3    -.59    5.79
   6  -8  -3   18.59   15.57
  -6   8   3   10.62    8.16
   5  -8  -3   39.31   18.47
  -5   8   3   36.29   12.53
   4  -8  -3   51.16   22.15
  -4   8   3   55.70   15.27
  -3   8   3   24.78    9.20
  -2   8   3   17.36    7.03
  -1   8   3     .75    2.08
   0   8   3   19.33    6.30
   0   8   3   18.99    6.38
  -1  -8  -3   86.98   25.35
   1   8   3   89.86   17.03
  -2  -8  -3     .96    3.09
   2   8   3    1.09    2.75
  -3  -8  -3    2.30    4.21
  -4  -8  -3   60.36   17.29
  -4  -8  -3   58.35   20.27
   4   8   3   69.02   18.29
  -5  -8  -3   55.46   17.37
  -5  -8  -3   56.68   19.79
   5   8   3   50.70   17.18
  -6  -8  -3    2.86    5.16
   6   8   3    4.52    5.71
   6   8   3     .92    4.31
  -7  -8  -3   27.51   13.03
   7   8   3   25.24   12.78
  -8  -8  -3   25.15   13.01
   8   8   3   27.24   13.25
  -9  -8  -3     .98    6.18
   9   8   3    2.54    5.71
   6  -9  -3     .63    8.63
  -6   9   3    3.05    4.64
   5  -9  -3    5.06    8.44
  -5   9   3    4.31    5.35
   4  -9  -3     .22    5.45
  -4   9   3    1.68    3.67
  -3   9   3   10.58    5.78
  -2   9   3   48.80   10.92
  -1   9   3   13.57    4.46
  -1   9   3   12.57    4.44
   0   9   3    8.69    3.36
   0   9   3    8.64    3.23
  -1  -9  -3   56.99   20.65
   1   9   3   58.39   11.42
   1   9   3   58.26   11.54
  -2  -9  -3    6.08    7.12
   2   9   3    7.29    5.24
  -3  -9  -3    1.41    5.07
   3   9   3    1.58    3.33
   4   9   3   30.05   11.32
  -5  -9  -3    5.66    5.81
   5   9   3    6.40    7.04
  -6  -9  -3    3.77    5.05
   6   9   3    -.36    3.71
  -7  -9  -3   24.73   11.61
  -8  -9  -3    -.50    2.63
  -9  -9  -3    4.27    6.18
   5 -10  -3   15.11   15.22
   4 -10  -3   25.12   16.70
   3 -10  -3    7.25   11.04
  -3  10   3    5.34    3.84
   2  10   3   53.83   11.20
   3  10   3    6.05    5.20
   4  10   3   23.39    9.94
   5  10   3    7.19    7.38
   6  10   3   -1.46    4.62
  -7 -10  -3    4.23    6.06
  -8 -10  -3    7.61    7.84
  -9 -10  -3     .96    4.37
   4 -11  -3   -1.40    5.61
   3 -11  -3   -1.01    5.78
   3  11   3    3.29    3.65
   4  11   3    1.28    3.41
   5  11   3    -.61    3.71
   6  11   3    1.90    6.59
  -7 -11  -3    4.44    4.73
  -8 -11  -3    1.11    5.13
   4  12   3   61.50   13.80
   5  12   3   34.33   12.56
   6  12   3    4.47    7.28
  -4 -11   4    8.66   11.40
  -3 -11   4    6.54    9.65
  -2 -11   4   13.35   12.55
  -6 -10   4    2.89    3.19
  -6 -10   4    -.07    5.00
  -5 -10   4   16.78    6.94
  -5 -10   4   15.94   13.39
  -4 -10   4   49.53   21.03
  -4 -10   4   49.55    9.88
  -3 -10   4     .00    4.72
  -2 -10   4    9.48   12.43
  -1 -10   4   55.02   24.14
   0 -10   4    -.34    6.39
  -7  -9   4    5.69    5.66
  -6  -9   4     .83    3.24
  -5  -9   4    2.99    7.07
  -5  -9   4    8.39    5.20
  -4  -9   4    6.90    9.19
  -4  -9   4    6.40    5.12
  -3  -9   4    7.43    3.61
  -3  -9   4    4.68    8.13
  -2  -9   4   28.74   16.81
  -1  -9   4    4.32    8.49
   0  -9   4    3.03    7.67
   1  -9   4   14.63   14.49
   2  -9   4   11.25   12.27
  -8  -8   4    6.80    7.64
  -6  -8   4     .31    4.34
  -6  -8   4    3.32    5.31
  -5  -8   4   36.74   12.21
  -5  -8   4   35.64   13.79
  -4  -8   4    2.60    6.59
  -4  -8   4    2.68    3.86
  -4  -8   4    2.59    4.45
  -3  -8   4    2.73    6.30
  -3  -8   4    2.36    3.25
  -2  -8   4   43.22   19.64
  -2  -8   4   41.73    8.48
  -1  -8   4   34.85   18.35
   0  -8   4   11.99   13.15
   1  -8   4   64.71   25.57
   2  -8   4   55.60   23.79
   3  -8   4    -.90    4.91
  -9  -7   4    8.72    7.83
  -8  -7   4    5.10    6.12
  -7  -7   4    5.47    6.45
  -6  -7   4   24.11   11.59
  -6  -7   4   29.29   11.07
  -5  -7   4    5.00    6.26
  -5  -7   4    4.43    5.20
  -4  -7   4    1.04    3.78
  -4  -7   4    1.80    4.34
  -3  -7   4   28.45    9.87
  -3  -7   4   25.99   14.55
  -2  -7   4   10.10    5.01
  -2  -7   4    6.89    9.16
  -1  -7   4    3.55    2.76
  -1  -7   4    4.76    7.58
  -1  -7   4    3.54    2.92
   0  -7   4    1.39    5.07
   0  -7   4    1.47    1.48
   0  -7   4    2.38    1.76
   1  -7   4   72.91   26.97
   1  -7   4   70.58   11.27
   1  -7   4   72.77   11.50
   2  -7   4    2.24    2.38
   2  -7   4    1.56    6.74
   3  -7   4    -.41    1.74
   3  -7   4   -1.32    4.64
   4  -7   4   11.55   12.24
   4  -7   4   17.47    7.06
  -9  -6   4   -1.48    4.54
  -8  -6   4   48.86   17.33
  -8  -6   4   40.91    9.73
  -7  -6   4   11.86   10.29
  -7  -6   4    8.86    5.66
  -6  -6   4    3.98    5.05
  -6  -6   4    3.55    4.23
   5   6  -4   65.02   19.83
  -5  -6   4   70.24   19.34
  -5  -6   4   67.05   17.57
  -4  -6   4  125.35   27.33
  -4  -6   4  133.74   27.94
  -3  -6   4   43.10   13.22
  -3  -6   4   45.82   18.38
  -2  -6   4   52.53   20.77
  -2  -6   4   51.61   13.41
  -1  -6   4   80.49   26.81
  -1  -6   4   79.08   15.93
   0  -6   4   23.28    7.18
   0  -6   4   24.03   14.70
   0  -6   4   22.07    6.81
   1  -6   4   38.65    9.38
   1  -6   4   36.15   18.37
   2  -6   4   10.22    5.25
   2  -6   4    9.68   12.87
   3  -6   4   11.99   13.05
   3  -6   4    8.27    5.30
   4  -6   4   26.75    9.58
   4  -6   4   25.18   15.22
   5  -6   4    9.14   10.77
   5  -6   4   11.33    7.11
  -9  -5   4    2.06    6.54
  -8  -5   4    4.17    6.81
  -7  -5   4   28.41   13.02
  -7  -5   4   20.39    6.89
  -6  -5   4     .98    4.01
  -6  -5   4    1.27    2.92
   5   5  -4    2.21    4.80
  -5  -5   4    5.16    5.05
  -5  -5   4    3.12    5.69
   4   5  -4    9.25    8.56
  -4  -5   4    8.60    7.97
  -4  -5   4   11.19    6.36
  -3  -5   4   39.84   16.28
  -3  -5   4   46.75   14.35
  -2  -5   4   24.54   13.63
  -2  -5   4   24.65    9.58
  -1  -5   4    5.39    7.93
  -1  -5   4    6.08    5.25
   0  -5   4   88.53   18.20
   0  -5   4   89.62   18.03
   0  -5   4   93.01   29.09
   1  -5   4    7.26    4.61
   1  -5   4   11.52   12.17
   2  -5   4     .70    5.32
   2  -5   4    1.55    3.62
   3  -5   4   39.50   19.13
   3  -5   4   35.71   11.31
   4  -5   4    8.12   11.00
   4  -5   4    5.51    5.65
   5  -5   4    6.15    6.76
   5  -5   4    8.56    7.97
   6  -5   4   14.58   13.59
  -9  -4   4   28.94   15.07
  -8  -4   4    6.07    8.02
  -7  -4   4   31.15   14.48
  -6  -4   4    3.83    3.24
  -6  -4   4    4.17    6.15
   5   4  -4  200.44   41.00
  -5  -4   4  209.84   32.63
  -5  -4   4  206.95   41.33
   4   4  -4    5.88    6.92
  -4  -4   4    6.52    5.45
  -4  -4   4    6.26    7.24
  -3  -4   4   17.68    8.88
  -3  -4   4   14.29    9.03
  -2  -4   4  437.03   72.77
  -2  -4   4  447.32   66.08
  -1  -4   4   99.80   21.21
  -1  -4   4  103.40   28.59
   0  -4   4  165.61   39.69
   1  -4   4  389.05   57.25
   1  -4   4  390.91   72.21
   2  -4   4   81.93   27.76
   2  -4   4   66.25   16.79
   3  -4   4    9.56    7.43
   3  -4   4   11.03   11.58
   4  -4   4  204.08   47.86
   4  -4   4  199.25   37.13
   5  -4   4   19.55   10.28
   5  -4   4   22.91   13.52
  -7   4  -4    5.14    7.01
   7  -4   4    6.06    8.88
  -9  -3   4    6.89    7.95
  -8  -3   4     .14    3.12
  -7  -3   4    3.42    5.88
  -6  -3   4   15.28    9.72
   5   3  -4     .41    2.99
  -5  -3   4     .74    3.67
  -5  -3   4     .52    1.33
   4   3  -4   13.52    8.38
  -4  -3   4   12.83    6.30
  -4  -3   4   14.23    5.68
  -4  -3   4   13.02    8.49
   3   3  -4   19.05    9.74
  -3  -3   4   20.04    9.71
  -3  -3   4   19.53    8.93
  -2  -3   4    2.33    3.92
  -2  -3   4    1.59    3.86
  -1  -3   4   25.43    9.82
  -1  -3   4   24.79   12.46
   0  -3   4     .22    3.55
   1  -3   4    6.80    8.98
   1  -3   4    5.44    5.47
   2  -3   4   25.52   10.14
   2  -3   4   28.35   15.03
   3  -3   4    5.46    8.62
   3  -3   4    6.58    6.49
   4  -3   4    3.74    6.59
   4  -3   4    2.85    5.44
  -5   3  -4    -.57    2.98
   5  -3   4     .10    3.74
   5  -3   4    -.72    3.55
  -6   3  -4    2.03    4.60
   6  -3   4     .61    4.34
  -7   3  -4    -.16    4.42
   7  -3   4   -2.06    5.07
  -8   3  -4     .76    5.44
  -9  -2   4   24.23   13.21
  -8  -2   4    4.28    6.56
  -7  -2   4   18.02   11.22
  -6  -2   4   48.61   18.37
   5   2  -4    4.87    6.16
  -5  -2   4    6.55    7.66
   4   2  -4   44.97   16.59
  -4  -2   4   46.86    8.16
  -4  -2   4   45.83    8.81
  -4  -2   4   51.33   17.28
   3   2  -4   65.02   19.18
  -3  -2   4   64.85   19.13
  -3  -2   4   59.37   14.05
  -2  -2   4   60.58   17.46
  -2  -2   4   54.78   15.60
  -1  -2   4   94.87   22.43
  -1  -2   4  109.80   25.77
   0  -2   4  144.30   33.36
  -1   2  -4    5.20    7.91
   1  -2   4    4.46    5.21
   1  -2   4    7.29    8.82
  -2   2  -4  114.90   33.33
   2  -2   4  127.88   26.73
   2  -2   4  130.74   33.74
  -3   2  -4  247.25   54.29
   3  -2   4  240.25   51.98
   3  -2   4  262.29   44.97
  -4   2  -4   62.00   18.42
  -4   2  -4   68.34   25.77
   4  -2   4   62.00   18.45
   4  -2   4   56.85   22.21
  -5   2  -4   10.22    9.15
   5  -2   4   16.36   10.19
   5  -2   4   11.66    9.75
  -6   2  -4   39.19   14.75
   6  -2   4   38.12   17.86
  -7   2  -4   61.06   19.69
   7  -2   4   58.71   21.89
  -8   2  -4     .93    6.78
   8  -2   4    3.30    6.92
  -9  -1   4    1.43    4.63
  -8  -1   4     .09    4.05
  -7  -1   4   42.63   17.71
  -6  -1   4   50.92   18.63
   5   1  -4   58.87   20.29
  -5  -1   4   57.28   19.55
   4   1  -4   88.20   24.32
  -4  -1   4   89.45   24.60
   3   1  -4     .03    2.92
  -3  -1   4    -.10    2.93
  -3  -1   4    -.09     .74
  -3  -1   4     .09     .64
  -2  -1   4  456.00   70.78
  -2  -1   4  460.22   63.94
  -1  -1   4   71.39   18.33
  -1  -1   4   74.23   19.28
   0   1  -4   38.34   14.99
   0  -1   4   42.66   15.29
  -1   1  -4  141.42   34.37
   1  -1   4  148.95   34.26
   1  -1   4  153.29   29.61
  -2   1  -4   69.67   23.96
   2  -1   4   62.41   21.69
   2  -1   4   65.18   18.01
  -3   1  -4    9.57   10.99
   3  -1   4   10.11   10.62
   3  -1   4   10.38    9.02
  -4   1  -4   13.90    8.75
  -4   1  -4   19.83   15.70
   4  -1   4   16.79   13.63
   4  -1   4   17.25    9.87
  -5   1  -4   28.30   16.22
  -5   1  -4   29.12   12.93
   5  -1   4   24.06   14.27
   5  -1   4   31.07   14.04
  -6   1  -4    8.57    8.55
   6  -1   4    5.28    7.94
  -7   1  -4   32.48   14.24
   7  -1   4   36.82   16.34
  -8   1  -4    6.87    8.02
   8  -1   4    9.87    9.67
  -9   0   4   32.31   15.98
  -8   0   4    2.36    6.08
  -7   0   4     .73    4.36
  -6   0   4  110.15   29.23
   5   0  -4   55.93   19.59
  -5   0   4   57.61   19.77
   4   0  -4    -.26    2.58
  -4   0   4     .62    3.28
   3   0  -4  229.03   44.12
  -3   0   4  242.60   44.70
   2   0  -4  260.48   37.47
  -2   0   4  274.37   36.33
  -2   0   4  251.53   46.12
   1   0  -4   77.25   17.76
  -1   0   4   76.34   16.75
   0   0  -4  327.32   54.71
   0   0   4  346.04   54.34
  -1   0  -4  484.16   77.25
   1   0   4  489.15   76.16
  -2   0  -4  179.12   39.76
   2   0   4  179.18   38.28
   2   0   4  174.07   34.47
  -3   0  -4   14.87   12.73
  -3   0  -4   18.64   12.89
   3   0   4   16.75    9.27
   3   0   4   15.44   12.59
  -4   0  -4  133.78   30.73
  -4   0  -4  130.95   35.65
   4   0   4  136.64   34.10
   4   0   4  138.11   31.42
  -5   0  -4   65.90   20.55
  -5   0  -4   68.17   24.77
   5   0   4   61.72   19.88
   5   0   4   63.22   22.06
  -6   0  -4    9.32    8.89
   6   0   4    8.15    9.47
  -7   0  -4    9.80    9.52
   7   0   4   13.15   11.59
  -8   0  -4    4.56    5.58
   8   0   4    4.45    7.15
  -9   0  -4    2.56    5.69
   9   0   4    -.43    5.25
   9  -1  -4     .10    2.22
  -9   1   4    -.37    4.59
   8  -1  -4    2.49    2.96
  -8   1   4    3.89    5.55
   7  -1  -4    2.20    2.39
  -7   1   4    1.71    5.26
   6  -1  -4   12.24    4.22
  -6   1   4   13.44   11.14
   5  -1  -4    1.78    5.85
  -5   1   4    4.18    6.85
   4  -1  -4    8.26    8.71
  -4   1   4   12.32   10.73
   3  -1  -4  167.30   35.08
  -3   1   4  161.79   34.64
   2  -1  -4    2.72    2.63
  -2   1   4    2.69    4.88
   1  -1  -4   12.14    5.92
  -1   1   4   12.10    5.33
   0  -1  -4   74.88   18.59
   0   1   4   77.49   18.25
  -1  -1  -4  242.58   44.60
   1   1   4  247.95   43.75
  -2  -1  -4   60.27   20.20
   2   1   4   63.39   19.63
   2   1   4   65.27   18.53
  -3  -1  -4  142.17   30.87
  -3  -1  -4  133.12   33.91
   3   1   4  139.57   30.84
   3   1   4  138.93   32.67
  -4  -1  -4   54.72   18.28
  -4  -1  -4   51.71   20.00
   4   1   4   48.26   17.52
   4   1   4   50.05   18.81
  -5  -1  -4    5.93    7.95
  -5  -1  -4    4.79    6.96
   5   1   4    4.33    7.13
   5   1   4    3.70    5.81
  -6  -1  -4   27.19   17.91
  -6  -1  -4   27.12   12.58
   6   1   4   25.17   13.52
  -7  -1  -4   16.62   10.46
   7   1   4   15.25   13.02
  -8  -1  -4    -.69    4.39
   8   1   4   -1.50    3.94
  -9  -1  -4   -1.13    4.52
   9   1   4    -.77    4.68
  -9   2   4    7.94    9.37
   8  -2  -4    -.19    3.19
  -8   2   4    -.92    3.54
   7  -2  -4    8.90    6.12
  -7   2   4   11.64    9.47
   6  -2  -4   22.29    8.02
  -6   2   4   22.84   12.68
   5  -2  -4    3.83    6.43
   5  -2  -4    5.51    4.36
  -5   2   4    7.04    8.39
   4  -2  -4   71.41   15.05
   4  -2  -4   73.11   21.59
  -4   2   4   64.36   20.75
   3  -2  -4   93.28   16.98
   3  -2  -4   95.35   24.81
  -3   2   4  103.76   25.70
   2  -2  -4    1.42    2.18
  -2   2   4    1.25    4.16
   1  -2  -4   61.65   14.29
  -1   2   4   57.40   13.70
   0  -2  -4  369.09   56.12
   0   2   4  359.20   55.00
  -1  -2  -4   15.25    8.65
   1   2   4   17.48    8.79
  -2  -2  -4   55.76   18.21
   2   2   4   55.50   17.80
   2   2   4   58.07   17.62
  -3  -2  -4  761.93  115.54
  -3  -2  -4  786.62  112.36
   3   2   4  782.14  114.84
   3   2   4  793.42  112.84
  -4  -2  -4   29.61   14.54
  -4  -2  -4   26.43   12.58
   4   2   4   25.67   12.93
   4   2   4   26.07   12.27
  -5  -2  -4   63.52   20.50
  -5  -2  -4   58.41   21.36
   5   2   4   56.99   20.34
   5   2   4   58.73   19.98
  -6  -2  -4   71.73   22.46
  -6  -2  -4   70.72   24.42
   6   2   4   65.65   21.96
  -7  -2  -4   24.77   12.51
   7   2   4   22.42   12.43
  -8  -2  -4    1.41    5.57
   8   2   4    4.91    6.54
  -9  -2  -4   14.70    8.68
   9   2   4   10.36   10.21
   9  -3  -4   -1.37    5.60
  -9   3   4    6.58    9.15
   8  -3  -4   -1.34    3.70
  -8   3   4     .76    4.79
   7  -3  -4    1.38    3.96
  -7   3   4    1.67    4.15
   6  -3  -4   74.03   18.17
  -6   3   4   66.93   21.87
   5  -3  -4   61.37   16.39
   5  -3  -4   54.19   18.71
  -5   3   4   57.49   19.53
   4  -3  -4   -1.06    2.30
   4  -3  -4    -.04    2.19
  -4   3   4     .62    3.45
   2  -3  -4   25.17    8.92
  -2   3   4   24.67   11.35
   1  -3  -4  213.91   36.13
  -1   3   4  212.95   39.26
  -1  -3  -4  233.11   42.35
   1   3   4  240.08   42.19
  -2  -3  -4   87.74   23.39
   2   3   4   92.17   22.74
   2   3   4   83.96   22.53
  -3  -3  -4   66.09   19.43
  -3  -3  -4   62.06   20.14
   3   3   4   64.20   19.72
   3   3   4   59.35   18.78
  -4  -3  -4  148.58   33.19
  -4  -3  -4  129.03   33.13
   4   3   4  141.56   32.80
   4   3   4  149.32   33.27
  -5  -3  -4   41.89   17.68
  -5  -3  -4   47.96   17.49
   5   3   4   38.99   16.09
   5   3   4   43.82   16.98
  -6  -3  -4   43.02   18.47
  -6  -3  -4   45.31   17.39
   6   3   4   44.32   17.32
  -7  -3  -4   31.65   14.82
   7   3   4   32.72   14.56
  -8  -3  -4   12.49   10.93
   8   3   4    9.52    9.42
  -9  -3  -4   15.09   13.17
   9   3   4   19.33   11.59
   8  -4  -4    1.28    5.96
  -8   4   4    2.22    6.01
   7  -4  -4    4.20    5.33
  -7   4   4    3.93    4.68
   6  -4  -4   15.87    9.36
  -6   4   4   16.44   10.04
   5  -4  -4   32.23   13.17
   5  -4  -4   31.92   14.17
  -5   4   4   34.07   14.50
   4  -4  -4    5.53    6.95
   4  -4  -4    6.14    6.80
  -4   4   4    3.02    5.21
   3  -4  -4   59.55   18.35
  -3   4   4   59.90   18.47
   2  -4  -4   55.76   15.34
  -2   4   4   53.92   16.89
   1  -4  -4   98.86   22.60
  -1   4   4   99.75   23.44
   0  -4  -4    1.39    3.28
   0   4   4     .79    3.03
  -1  -4  -4     .02    2.40
   1   4   4    -.15    2.32
  -2  -4  -4  131.37   30.10
   2   4   4  125.22   28.13
   2   4   4  142.26   30.67
  -3  -4  -4   80.65   22.48
  -3  -4  -4   87.25   24.38
   3   4   4   93.75   23.90
   3   4   4   95.91   24.81
  -4  -4  -4     .74    2.87
  -4  -4  -4     .39    2.55
   4   4   4     .31    3.33
   4   4   4     .83    3.17
  -5  -4  -4   52.81   18.91
  -5  -4  -4   73.65   22.99
   5   4   4   67.15   21.54
   5   4   4   66.52   21.34
  -6  -4  -4   36.66   16.42
  -6  -4  -4   36.01   15.84
   6   4   4   36.68   15.55
  -7  -4  -4    1.79    4.62
   7   4   4    2.31    4.31
  -8  -4  -4   19.77   11.75
   8   4   4   19.20   11.49
  -9  -4  -4    6.70    7.89
   9   4   4    6.41    8.12
  10   4   4   -1.13    5.64
   8  -5  -4    3.70    6.46
  -8   5   4    3.57    6.59
   7  -5  -4   14.12   10.96
  -7   5   4   16.45   12.41
   6  -5  -4   35.56   15.21
  -6   5   4   38.54   15.29
   5  -5  -4    1.15    3.94
   5  -5  -4    3.00    4.94
  -5   5   4    2.00    4.36
   4  -5  -4   15.20   10.17
   4  -5  -4   11.90   10.03
  -4   5   4   12.61    8.25
  -3   5   4  215.77   40.57
  -2   5   4    2.22    5.30
   1  -5  -4   13.30    7.95
  -1   5   4   11.54    7.19
   0  -5  -4  204.80   39.29
  -1  -5  -4   36.26   14.07
   1   5   4   34.15   13.89
  -2  -5  -4   20.78   10.93
   2   5   4   21.22    9.80
   2   5   4   19.37   10.64
  -3  -5  -4  216.10   41.01
  -3  -5  -4  209.24   43.15
   3   5   4  233.49   44.42
   3   5   4  219.82   41.51
  -4  -5  -4   61.14   20.48
  -4  -5  -4   63.24   19.82
   4   5   4   63.14   19.85
   4   5   4   59.87   20.05
  -5  -5  -4   39.51   15.79
  -5  -5  -4   42.38   17.02
   5   5   4   37.93   15.67
   5   5   4   36.51   15.67
  -6  -5  -4   56.58   20.87
  -6  -5  -4   58.74   20.25
   6   5   4   53.73   19.18
  -7  -5  -4   46.87   18.33
   7   5   4   56.89   19.27
  -8  -5  -4    1.20    4.33
   8   5   4     .88    4.32
  -9  -5  -4    1.71    5.56
   9   5   4    2.69    6.95
  10   5   4   15.56   12.44
   8  -6  -4   -2.06    5.83
  -8   6   4     .44    4.89
   7  -6  -4    7.90    8.31
  -7   6   4    8.16    8.29
   6  -6  -4    -.99    3.92
  -6   6   4    -.65    3.24
   5  -6  -4    -.18    3.44
   5  -6  -4     .44    4.19
  -5   6   4    -.90    2.99
   4  -6  -4   41.94   14.92
   4  -6  -4   39.06   17.39
  -4   6   4   39.19   14.66
  -3   6   4   29.84   12.17
  -2   6   4   26.45   10.81
   1  -6  -4   18.62   10.21
  -1   6   4   20.69    9.23
  -1  -6  -4   39.12   15.28
   1   6   4   41.86   13.28
  -2  -6  -4   26.88   12.70
   2   6   4   29.36   13.29
   2   6   4   24.16   10.59
  -3  -6  -4   31.43   13.95
   3   6   4   27.00   13.19
   3   6   4   29.69   12.17
  -4  -6  -4   18.16   10.93
  -4  -6  -4   19.53   10.56
   4   6   4   19.14   10.42
   4   6   4   19.21   11.21
  -5  -6  -4    3.53    6.31
  -5  -6  -4    3.38    5.66
   5   6   4    2.52    5.03
   5   6   4    3.55    5.84
  -6  -6  -4   23.41   12.95
  -6  -6  -4   19.67   11.42
   6   6   4   20.22   11.52
  -7  -6  -4   14.52    8.84
   7   6   4   13.02   10.95
  -8  -6  -4    2.23    5.16
   8   6   4    4.03    6.47
  -9  -6  -4    2.61    5.59
   9   6   4    -.71    4.10
  10   6   4    1.44    6.07
   7  -7  -4   11.01   10.98
  -7   7   4   11.76    9.84
   6  -7  -4   11.64   11.80
  -6   7   4    7.91    8.12
   5  -7  -4     .28    4.51
  -5   7   4    1.33    4.50
   4  -7  -4   21.44   14.21
  -4   7   4   29.25   12.00
  -3   7   4   19.10    9.54
  -2   7   4     .06    2.59
   1  -7  -4   17.88   10.25
  -1   7   4   18.17    8.36
   0  -7  -4   31.02   14.12
  -1  -7  -4    3.33    5.20
   1   7   4    3.10    4.51
  -2  -7  -4  173.65   38.25
   2   7   4  175.93   33.10
  -3  -7  -4   32.38   14.70
   3   7   4   30.01   14.20
   3   7   4   36.41   13.05
  -4  -7  -4    4.71    7.39
  -4  -7  -4    9.13    8.61
   4   7   4    6.40    7.89
   4   7   4    6.72    6.80
  -5  -7  -4  169.11   39.08
  -5  -7  -4  168.99   36.25
   5   7   4  175.10   38.96
   5   7   4  167.59   36.02
  -6  -7  -4  112.81   29.21
   6   7   4  124.41   31.60
  -7  -7  -4   13.44   10.98
   7   7   4   10.92    9.93
  -8  -7  -4   12.35   10.64
   8   7   4   10.41   10.06
  -9  -7  -4   36.48   15.70
   9   7   4   38.60   15.73
   7  -8  -4     .07    6.45
  -7   8   4    2.60    6.72
   6  -8  -4   -2.80    5.02
  -6   8   4     .67    4.03
   5  -8  -4   17.89   13.92
  -5   8   4   15.97    8.79
   4  -8  -4    2.37    6.65
  -4   8   4    2.40    4.14
  -3   8   4   19.05    9.00
  -2   8   4   12.46    6.91
   1  -8  -4   72.61   22.86
  -1   8   4   78.65   17.31
   0  -8  -4   32.16   14.42
   0   8   4   32.41   10.47
  -1  -8  -4    3.39    5.66
  -2  -8  -4   85.19   25.26
   2   8   4   89.83   20.43
  -3  -8  -4   18.18   11.48
   3   8   4   17.60    8.89
  -4  -8  -4     .45    4.64
   4   8   4     .55    3.03
  -5  -8  -4   46.57   16.01
   5   8   4   38.18   14.81
   5   8   4   46.36   18.41
  -6  -8  -4   10.14    8.74
   6   8   4    5.64    7.04
  -7  -8  -4    8.14    8.84
   7   8   4    8.06    8.12
  -8  -8  -4   22.81   12.16
   8   8   4   22.59   12.59
  -9  -8  -4    8.54    8.11
   9   8   4    5.58    6.61
   6  -9  -4    6.79   10.65
  -6   9   4    9.32    8.46
   5  -9  -4     .74    6.99
  -5   9   4     .75    3.97
   4  -9  -4   47.52   21.12
  -4   9   4   37.10   12.82
  -3   9   4   65.42   16.30
  -2   9   4   46.27   12.50
  -1   9   4    3.05    3.73
   0   9   4   94.10   18.50
   0   9   4   93.69   18.40
  -1  -9  -4    7.00    8.34
  -2  -9  -4    1.11    4.47
   2   9   4     .18    2.89
   3   9   4   57.82   15.99
   4   9   4    3.53    5.38
  -5  -9  -4    2.46    3.50
   5   9   4    1.32    4.64
  -6  -9  -4   33.77   13.63
  -7  -9  -4   18.03   10.75
   7   9   4   15.26   12.34
  -8  -9  -4    9.27    8.83
   8   9   4    6.75    8.99
  -9  -9  -4   20.29   11.22
   9   9   4   11.85   10.52
   5 -10  -4     .30    6.14
  -5  10   4     .18    3.80
   4 -10  -4    -.20    5.34
  -4  10   4   -1.98    3.41
  -3  10   4    8.32    5.89
  -2  10   4   13.45    5.78
  -1  10   4    6.39    3.84
  -1  10   4    6.20    4.13
   0  10   4    3.00    3.01
   0  10   4    1.82    2.55
   1  10   4     .14    1.98
   2  10   4    2.66    2.63
   3  10   4    -.09    2.55
   4  10   4    7.52    6.86
   5  10   4    1.84    4.06
  -6 -10  -4   11.18    6.71
  -7 -10  -4   20.44   10.68
  -8 -10  -4    -.94    3.64
  -9 -10  -4    9.37    9.00
   4 -11  -4   19.07   16.18
  -3  11   4    -.84    2.24
   1  11   4   25.07    5.77
   1  11   4   25.20    5.58
   2  11   4   93.92   17.32
   3  11   4   11.61    6.58
   4  11   4     .64    4.06
   5  11   4   61.81   18.20
  -7 -11  -4    1.71    4.04
  -8 -11  -4   18.88   10.43
   3 -12  -4   -1.00    7.10
   3  12   4    8.21    5.03
   4  12   4   -1.04    3.17
   5  12   4    2.55    6.03
  -5 -10   5    6.77    9.50
  -4 -10   5   18.91   14.34
  -3 -10   5   14.88   13.48
  -2 -10   5    3.61    6.14
  -1 -10   5    1.20    6.99
  -6  -9   5    7.32    6.39
  -6  -9   5    4.49    6.37
  -5  -9   5   28.99   14.44
  -5  -9   5   28.90    9.90
  -4  -9   5   29.33    9.16
  -4  -9   5   29.82   15.92
  -3  -9   5    -.15    2.02
  -3  -9   5     .59    3.28
  -2  -9   5    6.93    6.75
  -1  -9   5   50.61   21.97
   0  -9   5     .36    5.24
   1  -9   5     .63    5.29
  -7  -8   5    3.24    5.28
  -7  -8   5    4.11    6.13
  -6  -8   5    4.21    5.78
  -6  -8   5    7.19    5.99
  -6  -8   5    5.41    6.60
  -5  -8   5   26.01   13.07
  -5  -8   5   20.32    9.62
  -5  -8   5   22.77   12.30
  -4  -8   5   14.56   11.66
  -4  -8   5   16.57    7.78
  -3  -8   5    7.06    9.45
  -3  -8   5    8.98    5.19
  -2  -8   5   35.01   18.33
  -2  -8   5   35.34    8.66
  -2  -8   5   37.76    8.97
  -1  -8   5   15.73   14.18
   0  -8   5    2.22    6.33
   1  -8   5    1.31    6.94
   2  -8   5   19.63   15.77
  -8  -7   5    2.91    5.00
  -7  -7   5   47.51   16.01
  -7  -7   5   51.85   14.12
  -7  -7   5   49.26   16.76
  -6  -7   5   33.61   12.21
  -6  -7   5   25.31   11.50
  -6  -7   5   27.15   10.62
  -5  -7   5    1.19    4.19
  -5  -7   5    1.75    4.42
  -5  -7   5    1.97    4.20
  -4  -7   5   42.94   14.01
  -4  -7   5   48.19   18.18
  -3  -7   5   18.44   11.56
  -3  -7   5   16.74    8.02
  -2  -7   5    6.63    5.01
  -2  -7   5    7.19    9.44
  -1  -7   5    8.14    4.47
  -1  -7   5    7.98    4.61
  -1  -7   5    7.55    9.48
   0  -7   5   19.61    5.79
   0  -7   5   18.02   15.54
   0  -7   5   20.93    5.97
   1  -7   5   37.22    8.47
   1  -7   5   38.32   18.58
   1  -7   5   37.22    8.49
   2  -7   5   12.31   12.88
   2  -7   5   14.98    5.32
   3  -7   5    4.10    8.65
   3  -7   5    4.51    3.99
  -9  -6   5    1.06    4.77
  -8  -6   5    3.51    4.81
  -7  -6   5     .31    2.75
  -7  -6   5    4.38    4.66
  -7  -6   5     .50    2.18
  -6  -6   5    4.32    4.87
  -6  -6   5    4.42    4.37
  -6  -6   5    6.10    6.25
  -5  -6   5   28.15   10.57
  -5  -6   5   23.97   11.26
  -5  -6   5   28.31   12.21
  -4  -6   5   17.04    9.76
  -4  -6   5   19.81    9.48
  -3  -6   5   15.55   12.18
  -3  -6   5   13.42    7.81
  -2  -6   5    6.22    8.61
  -2  -6   5    4.69    4.93
  -1  -6   5   13.01    6.36
  -1  -6   5    9.55   10.78
   0  -6   5     .72    2.60
   0  -6   5    2.80    6.05
   0  -6   5    1.73    2.70
   1  -6   5   31.20   16.77
   1  -6   5   33.02    9.63
   2  -6   5    1.17    2.71
   2  -6   5    -.41    4.69
   3  -6   5     .36    3.08
   3  -6   5    -.60    4.13
   4  -6   5    4.91    7.80
   4  -6   5    4.25    4.41
  -9  -5   5    -.56    4.99
  -8  -5   5   49.46   18.38
  -7  -5   5   42.62   16.61
  -6  -5   5   22.92    8.51
  -6  -5   5   19.54   11.26
  -6  -5   5   21.27    7.01
  -5  -5   5  169.67   36.18
  -5  -5   5  177.27   30.64
  -5  -5   5  182.33   33.72
  -4  -5   5  188.85   36.91
  -4  -5   5  173.70   35.49
  -3  -5   5   12.51   10.19
  -3  -5   5   14.28    8.02
  -2  -5   5   56.29   20.28
  -2  -5   5   61.00   16.09
  -1  -5   5  217.40   36.90
  -1  -5   5  220.51   47.78
   0  -5   5    7.72    5.93
   0  -5   5    7.14    6.27
   0  -5   5    6.83    9.00
   1  -5   5   59.01   14.64
   1  -5   5   60.45   23.62
   2  -5   5   46.02   20.55
   2  -5   5   44.06   12.73
   3  -5   5   -1.05    2.98
   3  -5   5     .05    4.37
   4  -5   5    7.82    8.61
   5  -5   5   19.96   13.38
   5  -5   5   19.83   11.47
  -9  -4   5     .14    5.05
  -8  -4   5   -1.70    3.62
  -7  -4   5   20.19   11.53
  -6  -4   5     .15    1.32
  -6  -4   5     .47    3.42
  -6  -4   5     .67    1.28
   5   4  -5   27.47   13.05
  -5  -4   5   25.53   12.20
  -5  -4   5   21.91    8.39
  -5  -4   5   27.51    8.09
  -4  -4   5   30.67   13.20
  -4  -4   5   34.53   12.38
  -3  -4   5   18.93    9.91
  -3  -4   5   18.50   10.27
  -2  -4   5   37.78   13.13
  -2  -4   5   38.54   15.85
  -1  -4   5    1.59    3.89
  -1  -4   5    1.49    3.35
   0  -4   5   17.20   14.04
   1  -4   5    2.34    6.86
   1  -4   5    2.44    4.29
   2  -4   5    1.56    4.82
   2  -4   5    1.59    3.93
   3  -4   5    -.66    3.23
   3  -4   5    2.01    5.29
   4  -4   5    8.95    7.34
   4  -4   5    6.52    8.97
   5  -4   5    -.27    4.45
   5  -4   5     .65    5.59
   6  -4   5     .94    4.76
  -9  -3   5    8.71    9.57
  -8  -3   5    6.08    8.57
  -7  -3   5    9.05    9.75
  -6  -3   5   24.88   12.74
   5   3  -5   77.16   23.03
  -5  -3   5   84.48   23.73
  -5  -3   5   81.98   12.77
  -5  -3   5   75.85   11.94
   4   3  -5   76.71   22.33
  -4  -3   5   80.33   17.08
  -4  -3   5   76.58   22.09
  -4  -3   5   71.73   15.00
  -3  -3   5   41.98   13.61
  -3  -3   5   38.69   14.68
  -2  -3   5  159.68   32.24
  -2  -3   5  154.14   33.31
  -1  -3   5  154.69   30.58
  -1  -3   5  140.21   33.78
   0  -3   5  154.36   37.14
   1  -3   5  298.80   48.54
   1  -3   5  291.16   57.93
   2  -3   5  139.09   28.82
   2  -3   5  147.08   37.82
   3  -3   5    3.58    6.03
   4  -3   5  101.99   31.54
   4  -3   5  110.56   25.39
   5  -3   5   22.67   11.56
   5  -3   5   24.23   14.25
   6  -3   5    -.87    5.02
   7  -3   5   11.44   11.58
  -9  -2   5    3.83    6.37
  -8  -2   5    -.79    4.12
  -7  -2   5   12.81   11.08
   5   2  -5     .68    3.47
  -5  -2   5    -.66    3.04
   4   2  -5   28.86   13.58
  -4  -2   5   29.92    6.26
  -4  -2   5   25.64   12.76
  -4  -2   5   29.09    5.77
  -3  -2   5   42.78   15.55
  -3  -2   5   40.17   11.40
  -2  -2   5     .96    3.18
  -2  -2   5     .19    3.24
  -1  -2   5  230.76   42.03
  -1  -2   5  227.58   43.39
   0   2  -5   63.78   21.93
   0  -2   5   71.77   22.11
  -1   2  -5   77.58   25.66
   1  -2   5   79.89   20.11
   1  -2   5   78.26   25.02
   2  -2   5   43.30   18.68
   2  -2   5   43.75   14.49
  -3   2  -5   13.31   12.46
   3  -2   5   12.30   11.90
   3  -2   5   10.01    8.04
   4  -2   5   -1.36    3.18
   4  -2   5    -.98    3.09
   5  -2   5    5.04    7.66
   5  -2   5    3.96    5.88
  -6   2  -5     .52    3.77
   6  -2   5    1.38    3.29
  -7   2  -5    -.34    4.67
   7  -2   5     .55    5.34
  -8   2  -5    1.71    6.21
  -9  -1   5    1.18    5.57
  -8  -1   5   38.75   17.02
  -7  -1   5   16.47   12.95
  -6  -1   5   36.32   15.85
   5   1  -5  147.76   35.63
  -5  -1   5  172.68   37.45
   4   1  -5   53.98   19.04
  -4  -1   5   52.86   18.69
  -3  -1   5   75.46   13.17
  -3  -1   5   74.86   21.71
  -2  -1   5  202.84   39.74
  -2  -1   5  206.25   34.34
   1   1  -5  160.47   33.07
  -1  -1   5  157.20   31.84
   0   1  -5   57.76   19.59
   0  -1   5   56.68   18.63
  -1   1  -5  156.21   37.28
   1  -1   5  164.57   37.07
   1  -1   5  154.79   31.77
  -2   1  -5   75.74   25.43
   2  -1   5   69.15   19.78
   2  -1   5   76.20   24.30
  -3   1  -5   35.57   17.55
   3  -1   5   34.36   16.34
   3  -1   5   36.93   13.81
  -4   1  -5   50.29   21.84
   4  -1   5   57.18   21.59
   4  -1   5   49.02   17.37
  -5   1  -5   18.05   10.44
   5  -1   5   18.61   10.83
   5  -1   5   20.74   12.64
  -6   1  -5   15.09    9.83
   6  -1   5   20.78   12.73
   7  -1   5   23.94   13.45
  -8   1  -5    2.28    5.66
   8  -1   5    2.87    6.78
  -9   0   5    4.18    7.89
  -8   0   5    -.16    4.28
  -7   0   5   -1.00    2.69
  -6   0   5   13.30   11.37
   5   0  -5   26.19   13.23
  -5   0   5   29.08   13.84
   4   0  -5   19.38   11.32
  -3   0   5     .36    3.04
   2   0  -5  246.44   39.17
  -2   0   5  258.92   37.70
  -2   0   5  255.01   46.89
   1   0  -5  107.32   23.97
  -1   0   5  109.72   22.85
   0   0  -5   17.58    9.76
   0   0   5   18.65    9.73
  -1   0  -5  188.53   40.97
   1   0   5  202.02   40.65
  -2   0  -5   23.92   13.20
   2   0   5   26.40   13.58
   2   0   5   27.57   11.96
  -3   0  -5    6.18    8.25
   3   0   5    4.19    6.60
   3   0   5    5.91    7.97
  -4   0  -5   31.23   16.18
   4   0   5   35.93   14.65
   4   0   5   38.58   16.90
  -5   0  -5   10.44    9.85
   5   0   5   14.50   12.54
   5   0   5   13.65   11.28
  -6   0  -5    4.12    5.69
   6   0   5     .64    5.63
  -7   0  -5   11.82   10.24
   7   0   5   14.68   13.05
  -8   0  -5    8.31    7.69
   8   0   5    7.76    8.52
  -9   1   5   31.20   15.07
  -8   1   5    1.00    4.99
  -7   1   5   11.35   10.91
  -6   1   5   13.03   11.72
   5  -1  -5   90.03   25.85
  -5   1   5   90.06   25.78
   4  -1  -5    1.19    4.46
  -4   1   5    1.94    4.97
  -3   1   5  117.78   29.23
   2  -1  -5  491.25   69.08
  -2   1   5  522.46   80.22
  -2   1   5  523.18   67.99
   1  -1  -5    5.14    5.20
  -1   1   5    4.57    4.49
   0  -1  -5  913.74  128.77
   0   1   5  952.53  127.54
  -1  -1  -5 1544.63  206.98
   1   1   5 1541.40  204.67
  -2  -1  -5   59.10   20.45
   2   1   5   54.29   17.61
   2   1   5   51.80   18.31
  -3  -1  -5     .56    3.49
   3   1   5     .59    3.36
   3   1   5    1.78    4.17
  -4  -1  -5  246.45   52.52
  -4  -1  -5  243.27   46.60
   4   1   5  253.80   50.33
   4   1   5  239.46   46.83
  -5  -1  -5   33.28   17.26
  -5  -1  -5   35.13   15.10
   5   1   5   29.39   14.11
   5   1   5   33.36   15.94
  -6  -1  -5    4.08    6.36
   6   1   5    1.70    5.49
  -7  -1  -5   34.62   14.80
   7   1   5   30.17   15.04
  -8  -1  -5    8.43    8.66
   9   1   5    -.82    5.41
  -9   2   5    4.37    6.88
  -8   2   5    1.26    4.73
  -7   2   5    5.13    8.46
   6  -2  -5   47.27    7.88
  -6   2   5   54.87   19.79
   5  -2  -5     .94    4.12
   5  -2  -5    1.20    1.34
  -5   2   5    2.71    5.11
   4  -2  -5   13.17    4.14
   4  -2  -5   11.63   10.76
   4  -2  -5   12.26    3.93
  -4   2   5   13.36   11.96
   3  -2  -5    3.31    2.79
  -3   2   5    2.96    5.11
   2  -2  -5   74.10   15.79
  -2   2   5   80.09   22.31
   1  -2  -5  613.91   85.80
  -1   2   5  617.28   84.71
   0  -2  -5  282.08   48.51
   0   2   5  298.42   47.81
  -1  -2  -5   21.03   10.50
   1   2   5   18.00    9.58
  -2  -2  -5  191.57   40.35
   2   2   5  175.06   36.70
   2   2   5  182.39   38.10
  -3  -2  -5   79.81   25.17
   3   2   5   88.20   25.00
   3   2   5   84.08   23.42
  -4  -2  -5   35.03   17.01
  -4  -2  -5   33.84   14.52
   4   2   5   35.91   15.81
   4   2   5   34.24   14.79
  -5  -2  -5   56.63   19.89
  -5  -2  -5   54.32   21.19
   5   2   5   53.17   19.72
   5   2   5   50.32   19.00
  -6  -2  -5   16.06   13.06
   6   2   5   16.18   13.20
  -7  -2  -5    7.61    8.82
   7   2   5    8.64   10.00
  -8  -2  -5    3.99    6.65
   8   2   5    4.25    6.04
  -9  -2  -5    -.15    5.23
   9   2   5     .65    6.43
  -8   3   5    4.52    6.34
   7  -3  -5    8.29    5.65
  -7   3   5    9.42    9.09
   6  -3  -5   64.17   14.63
  -6   3   5   66.25   21.68
   5  -3  -5    9.18    5.47
   5  -3  -5    9.43    4.51
   5  -3  -5    6.78    8.20
  -5   3   5    9.80    9.92
   4  -3  -5   12.00    5.58
   4  -3  -5   15.21    6.95
   4  -3  -5   15.66   10.02
  -4   3   5   17.91   10.60
   3  -3  -5   18.11    6.93
  -3   3   5   16.71   10.51
   2  -3  -5   27.06    9.23
  -2   3   5   25.01   12.11
   1  -3  -5  133.50   26.56
  -1   3   5  136.12   26.31
   0  -3  -5  335.41   55.22
   0   3   5  345.27   54.43
  -1  -3  -5   45.16   15.80
   1   3   5   46.24   15.55
   2   3   5   10.37    9.31
  -3  -3  -5  310.95   57.76
   3   3   5  319.85   56.40
   3   3   5  303.56   55.70
  -4  -3  -5  116.37   29.33
  -4  -3  -5  117.50   31.81
   4   3   5  120.81   29.91
   4   3   5  118.05   30.57
  -5  -3  -5   37.49   15.39
  -5  -3  -5   39.99   17.86
   5   3   5   35.66   15.58
   5   3   5   29.07   14.62
  -6  -3  -5   34.55   15.66
   6   3   5   40.28   16.58
  -7  -3  -5   40.55   17.31
   7   3   5   36.77   16.13
  -8  -3  -5    3.94    7.05
   8   3   5    2.93    6.62
  -9  -3  -5    9.86   10.77
   9   3   5    7.83    8.89
   8  -4  -5    8.10    7.42
   7  -4  -5    2.26    4.32
  -7   4   5    2.19    6.26
   6  -4  -5   42.78   13.54
  -6   4   5   59.25   19.77
   5  -4  -5   30.98   11.86
   5  -4  -5   21.60   12.15
  -5   4   5   27.09   13.20
   4  -4  -5   18.21   10.74
   4  -4  -5   21.36   10.31
   4  -4  -5   22.92    8.55
  -4   4   5   20.75   11.54
   3  -4  -5  166.36   30.19
  -3   4   5  163.72   35.27
   2  -4  -5  193.48   34.38
  -2   4   5  190.87   38.54
   1  -4  -5   39.43   13.20
  -1   4   5   36.54   14.21
  -1  -4  -5  218.54   41.05
   1   4   5  198.66   39.24
  -2  -4  -5    1.67    4.27
   2   4   5     .88    3.53
   2   4   5    1.01    3.36
  -3  -4  -5   21.30   12.12
   3   4   5   18.12   10.39
  -4  -4  -5  213.64   42.90
  -4  -4  -5  209.84   44.94
   4   4   5  207.37   42.57
   4   4   5  211.00   43.64
  -5  -4  -5   72.52   22.33
  -5  -4  -5   65.15   22.89
   5   4   5   62.30   21.05
   5   4   5   60.51   20.87
  -6  -4  -5    1.14    3.98
   6   4   5     .05    2.74
  -7  -4  -5   85.43   25.95
   7   4   5   94.88   26.84
  -8  -4  -5   30.60   15.01
   8   4   5   31.54   14.92
  -9  -4  -5    3.22    5.90
   9   4   5    1.60    5.56
   8  -5  -5     .34    5.71
  -8   5   5     .68    5.26
   7  -5  -5    -.58    3.85
  -7   5   5    -.72    4.46
   6  -5  -5   71.24   20.49
  -6   5   5   70.21   21.95
   5  -5  -5    2.64    5.11
   5  -5  -5    3.68    5.89
  -5   5   5    4.27    6.78
  -4   5   5    8.77    8.36
   3  -5  -5   68.37   17.63
  -3   5   5   66.09   19.99
   2  -5  -5   51.76   15.47
  -2   5   5   47.78   16.52
   1  -5  -5     .66    2.62
  -1   5   5    -.17    2.46
   0  -5  -5  202.21   39.35
  -1  -5  -5  216.96   42.40
   1   5   5  216.78   42.08
  -2  -5  -5     .34    2.99
   2   5   5    1.05    4.03
   2   5   5    1.45    3.71
  -3  -5  -5   26.95   13.78
   3   5   5   28.77   13.36
  -4  -5  -5   54.94   19.92
  -4  -5  -5   53.09   18.34
   4   5   5   54.41   19.30
   4   5   5   51.35   18.10
  -5  -5  -5    4.80    6.04
   5   5   5    1.40    5.26
  -6  -5  -5    3.02    5.68
   6   5   5    2.95    5.58
  -7  -5  -5   26.88   13.60
   7   5   5   25.62   13.15
  -8  -5  -5   31.49   14.60
  -9  -5  -5     .97    4.36
   9   5   5    -.59    4.93
   8  -6  -5    2.05    6.35
  -8   6   5    1.18    5.99
   7  -6  -5    2.35    6.37
  -7   6   5    4.40    7.13
   6  -6  -5     .83    4.44
  -6   6   5    1.59    5.35
   5  -6  -5    1.98    3.91
  -5   6   5    -.86    2.67
  -4   6   5     .57    3.21
   3  -6  -5   67.77   19.15
  -3   6   5   70.35   20.06
   2  -6  -5   59.71   18.06
  -2   6   5   62.53   18.67
   1  -6  -5  124.76   29.07
  -1   6   5  128.75   28.10
   0  -6  -5  200.56   40.03
  -1  -6  -5   66.67   20.75
   1   6   5   64.45   20.34
  -2  -6  -5  151.94   35.15
   2   6   5  152.91   34.84
   2   6   5  155.26   32.54
  -3  -6  -5  323.57   60.75
   3   6   5  349.44   61.59
   3   6   5  361.23   59.70
  -4  -6  -5   62.85   21.60
   4   6   5   57.59   20.20
   4   6   5   62.68   19.99
  -5  -6  -5     .03    3.58
  -5  -6  -5     .48    4.78
   5   6   5     .78    4.59
   5   6   5     .56    3.05
  -6  -6  -5   98.73   27.67
   6   6   5  108.17   29.03
  -7  -6  -5   32.72   15.04
   7   6   5   30.37   14.68
  -8  -6  -5    -.69    3.74
   8   6   5     .68    4.85
  -9  -6  -5    5.31    7.38
   9   6   5    4.34    6.62
   7  -7  -5    4.24    7.71
  -7   7   5    3.03    6.00
   6  -7  -5    5.14    7.34
  -6   7   5    3.93    5.63
   5  -7  -5    4.44    5.72
  -5   7   5    5.50    6.30
  -4   7   5   25.87   11.39
  -3   7   5   32.52   12.93
   2  -7  -5   27.13   12.31
  -2   7   5   30.74   12.26
   1  -7  -5   28.66   12.86
  -1   7   5   28.65   11.52
   0  -7  -5   84.25   23.89
  -1  -7  -5   33.64   14.52
   1   7   5   29.98   11.84
  -2  -7  -5    1.45    4.07
   2   7   5    1.82    4.46
   2   7   5    1.39    4.12
  -3  -7  -5  135.79   33.51
   3   7   5  135.71   33.30
   3   7   5  136.71   30.61
  -4  -7  -5    4.21    6.95
   4   7   5    3.56    5.66
   4   7   5    1.63    5.31
  -5  -7  -5     .37    3.51
  -5  -7  -5    1.82    5.13
   5   7   5     .92    3.50
   5   7   5    1.44    4.58
  -6  -7  -5   46.18   17.26
   6   7   5   45.12   18.50
  -7  -7  -5    -.13    4.01
   7   7   5    1.28    4.56
  -8  -7  -5   -1.40    3.71
   8   7   5    -.39    3.17
   9   7   5    7.64    8.91
   7  -8  -5   -1.88    6.00
  -7   8   5     .86    5.81
   6  -8  -5   29.20   15.07
  -6   8   5   25.62   12.35
   5  -8  -5   21.83   13.78
  -5   8   5   21.16   10.60
  -4   8   5    1.45    3.95
  -3   8   5   31.33   12.20
   2  -8  -5    6.76    7.19
  -2   8   5    6.99    6.81
   1  -8  -5   28.17   13.52
  -1   8   5   30.19   11.38
   0  -8  -5   35.48   15.02
   0   8   5   32.63   12.08
  -1  -8  -5   79.30   23.93
   1   8   5   78.41   19.60
  -2  -8  -5    1.80    3.92
   2   8   5    1.92    4.17
  -3  -8  -5   47.62   18.91
   3   8   5   49.25   16.16
  -4  -8  -5   91.64   27.65
   4   8   5   82.35   23.13
   4   8   5  100.98   28.00
   5   8   5   67.00   21.12
   5   8   5   69.65   23.03
  -6  -8  -5  134.04   32.36
   6   8   5  148.58   35.91
  -7  -8  -5   61.96   21.00
   7   8   5   64.44   21.80
  -8  -8  -5    5.80    8.10
   8   8   5    4.87    7.64
  -9  -8  -5   13.62   12.03
   9   8   5    9.94    9.52
   6  -9  -5    -.98    7.06
  -6   9   5    -.64    4.14
   5  -9  -5    1.24    5.65
  -5   9   5    1.23    4.23
   4  -9  -5     .13    5.32
  -4   9   5    1.49    4.18
  -3   9   5    6.28    6.71
  -2   9   5    -.04    3.06
  -1   9   5   14.56    7.33
   0  -9  -5   14.17   12.47
   0   9   5   14.94    7.68
  -1  -9  -5     .81    4.36
   1   9   5    2.51    3.85
   2   9   5    5.61    5.63
   3   9   5    1.19    3.34
   4   9   5   10.00    8.88
   5   9   5    1.29    4.14
   5   9   5    4.41    6.76
  -6  -9  -5     .15    2.93
   6   9   5    1.50    4.45
  -7  -9  -5    1.14    3.75
   7   9   5    -.24    4.19
  -8  -9  -5    5.84    7.15
   8   9   5    5.78    7.63
  -9  -9  -5    -.25    4.07
   9   9   5   -1.94    4.94
   5 -10  -5     .01    6.33
  -5  10   5    3.47    5.65
   4 -10  -5   12.86   13.63
  -4  10   5   20.55    9.12
  -3  10   5   34.43   11.35
  -2  10   5   27.01    9.59
  -1  10   5   62.43   14.77
   0  10   5   97.66   20.27
   0  10   5  103.06   20.61
   2  10   5     .30    3.15
   3  10   5   47.29   14.76
   4  10   5   15.29    9.10
   5  10   5    -.79    4.73
  -7 -10  -5   32.62   12.57
  -8 -10  -5    1.69    4.18
   4 -11  -5    3.00    9.04
  -4  11   5   -1.08    4.00
  -3  11   5     .42    3.70
  -2  11   5     .21    3.05
  -1  11   5    1.58    3.19
  -1  11   5    2.15    3.30
   0  11   5     .01    2.38
   0  11   5    1.05    2.73
   1  11   5     .68    3.02
   1  11   5    1.38    3.06
   2  11   5     .83    2.46
   3  11   5   -1.18    3.16
   4  11   5    9.51    8.35
   5  11   5   11.47    9.50
   1  12   5    4.63    3.15
   1  12   5    3.05    3.00
   2  12   5   33.10    9.28
   2  12   5   30.67    9.32
   3  12   5   15.86    7.55
   5  12   5   51.92   16.45
   4  13   5    3.89    7.27
  -5  -9   6    3.59    3.83
  -5  -9   6    -.38    5.25
  -4  -9   6     .94    5.43
  -4  -9   6    3.55    4.32
  -3  -9   6    3.47    8.62
  -2  -9   6     .51    4.72
  -1  -9   6    6.68    9.75
   0  -9   6    6.61    9.82
  -7  -8   6    5.14    6.21
  -6  -8   6   24.18   10.82
  -6  -8   6   25.54   11.24
  -5  -8   6   15.49    7.81
  -4  -8   6   -1.04    3.98
  -4  -8   6     .62    2.97
  -3  -8   6   13.01   11.58
  -3  -8   6   12.18    6.64
  -2  -8   6   31.60   16.48
  -2  -8   6   32.30    8.89
  -2  -8   6   33.07    9.02
  -1  -8   6    5.55    3.10
  -1  -8   6    5.87    3.20
  -1  -8   6    5.98    8.31
   0  -8   6    7.03   10.93
   1  -8   6    -.14    6.62
  -7  -7   6    1.02    4.18
  -6  -7   6     .08    3.67
  -6  -7   6    1.96    3.63
  -6  -7   6    1.15    4.29
  -5  -7   6    3.97    5.83
  -5  -7   6    4.20    6.29
  -5  -7   6    7.27    5.70
  -4  -7   6    6.20    8.02
  -4  -7   6    7.59    6.30
  -3  -7   6   11.23   10.28
  -3  -7   6   11.19    6.96
  -2  -7   6    5.41    4.96
  -2  -7   6    8.36    8.17
  -1  -7   6   37.82   10.25
  -1  -7   6   37.71   10.50
  -1  -7   6   44.06   19.08
   0  -7   6     .42    1.95
   0  -7   6     .43    4.64
   0  -7   6     .99    2.28
   1  -7   6     .96    2.61
   1  -7   6    2.12    5.55
   1  -7   6     .00    2.43
   2  -7   6    6.86    4.99
   2  -7   6    8.17    4.67
   2  -7   6    7.79   11.99
   3  -7   6   10.15   11.61
  -8  -6   6    5.35    7.62
  -7  -6   6   51.66    9.45
  -7  -6   6   50.67   17.82
  -6  -6   6   62.72   14.43
  -6  -6   6   59.50   18.82
  -6  -6   6   65.34   16.26
  -5  -6   6    3.73    4.71
  -5  -6   6    3.22    4.63
  -5  -6   6     .90    3.75
  -4  -6   6   53.33   17.76
  -4  -6   6   42.62   14.76
  -3  -6   6  165.44   37.88
  -3  -6   6  171.20   32.33
  -2  -6   6   23.76   13.68
  -2  -6   6   23.25    9.58
  -1  -6   6    -.01    5.15
  -1  -6   6     .53    2.68
   0  -6   6   27.16    8.99
   0  -6   6   24.16    8.60
   0  -6   6   22.48   13.71
   1  -6   6    4.10    4.74
   1  -6   6    6.83    8.87
   1  -6   6    4.37    4.52
   2  -6   6    1.35    6.43
   2  -6   6    1.51    3.62
   3  -6   6   23.40   15.19
   3  -6   6   21.87    8.56
   4  -6   6    1.85    5.42
  -8  -5   6    -.84    3.58
  -7  -5   6    9.66    8.75
  -6  -5   6    -.87    1.67
  -6  -5   6    -.08    3.70
  -5  -5   6    2.99    5.02
  -5  -5   6    2.87    3.81
  -5  -5   6    3.93    4.76
  -4  -5   6    2.95    4.54
  -4  -5   6    2.49    3.06
  -3  -5   6    2.33    3.96
  -3  -5   6    1.47    4.96
  -2  -5   6   -1.36    2.66
  -2  -5   6     .91    3.49
  -1  -5   6    9.51   10.79
  -1  -5   6   13.49    7.62
   0  -5   6    2.76    4.31
   0  -5   6    2.78    6.99
   0  -5   6    1.48    3.42
   1  -5   6    3.39    6.87
   1  -5   6    2.47    4.13
   2  -5   6    1.09    3.53
   2  -5   6    -.49    3.34
   3  -5   6     .23    4.02
   3  -5   6    2.50    4.19
   4  -5   6     .09    4.21
   5  -5   6     .70    6.09
  -8  -4   6   20.09   12.08
  -7  -4   6   21.88   12.45
  -6  -4   6    3.84    6.17
  -5  -4   6   53.72   18.45
  -5  -4   6   52.72   12.72
  -5  -4   6   56.76   12.08
  -4  -4   6  112.49   24.25
  -4  -4   6  110.31   27.04
  -3  -4   6   49.96   16.40
  -3  -4   6   49.99   16.54
  -2  -4   6   69.20   21.59
  -2  -4   6   63.76   18.74
  -1  -4   6  129.77   33.63
  -1  -4   6  145.12   29.00
   0  -4   6   22.14   13.08
   0  -4   6   14.56    7.91
   1  -4   6   42.78   13.69
   1  -4   6   47.46   20.20
   2  -4   6   37.14   12.65
   2  -4   6   31.97   17.15
   3  -4   6    4.33    5.69
   3  -4   6    2.91    7.07
   4  -4   6    2.07    4.46
   4  -4   6     .96    5.45
   5  -4   6   24.89   14.28
  -8  -3   6    9.95    9.96
  -7  -3   6    7.12    9.06
  -6  -3   6    9.59    9.63
  -4  -3   6   25.65    8.75
  -4  -3   6   21.77   11.51
  -3  -3   6  103.94   25.64
  -3  -3   6   94.92   22.41
  -2  -3   6   95.67   24.12
  -2  -3   6   94.00   24.44
  -1  -3   6    4.92    7.22
   0  -3   6   99.17   28.57
   1  -3   6   -1.20    2.71
   1  -3   6    -.16    3.00
   2  -3   6    4.06    6.01
   2  -3   6    4.03    7.40
   3  -3   6   44.52   15.38
   3  -3   6   50.60   21.02
   4  -3   6   21.06   16.37
   4  -3   6   18.81    9.96
   5  -3   6   10.04   11.26
   6  -3   6    2.36    6.96
  -8  -2   6    4.14    6.42
  -7  -2   6   86.58   25.77
  -6  -2   6   37.02   16.02
  -5  -2   6    4.84    6.85
  -4  -2   6  229.24   32.32
  -4  -2   6  243.69   32.86
  -4  -2   6  236.65   46.39
  -3  -2   6   95.94   19.94
  -3  -2   6   89.41   24.63
  -2  -2   6   22.06    9.85
  -2  -2   6   23.54   11.83
  -1  -2   6   68.20   20.06
  -1  -2   6   63.98   20.13
   0   2  -6   62.27   21.89
   0  -2   6   63.69   21.55
  -1   2  -6   16.05   14.22
   1  -2   6   18.93   12.16
   1  -2   6   17.08    9.30
   2  -2   6   11.68    7.39
   2  -2   6    7.94    9.83
   3  -2   6   56.15   17.33
   3  -2   6   56.59   22.23
   5  -2   6   11.00   11.83
   6  -2   6   14.34    9.17
   7  -2   6    4.88    8.42
  -8  -1   6    1.59    5.79
  -7  -1   6   10.28   10.83
  -6  -1   6    3.45    6.09
   5   1  -6    4.60    6.96
  -5  -1   6    3.79    6.71
  -4  -1   6   55.77   19.26
  -3  -1   6    3.14    2.92
  -3  -1   6    2.22    4.74
  -2  -1   6    3.81    6.23
  -2  -1   6    3.62    4.57
   1   1  -6  169.36   35.52
  -1  -1   6  161.47   33.38
   0   1  -6   31.80   14.57
   0  -1   6   31.94   14.14
  -1   1  -6   31.53   15.48
   1  -1   6   33.40   13.19
   1  -1   6   31.74   15.10
   2  -1   6   34.15   16.29
   2  -1   6   31.00   12.88
  -3   1  -6   18.15   14.59
   3  -1   6   19.05   12.62
   3  -1   6   19.27   10.73
   4  -1   6    -.89    2.48
   4  -1   6   -1.38    3.68
   5  -1   6    2.75    6.13
   6  -1   6    1.43    5.55
   7  -1   6     .53    5.01
  -8   0   6   29.45   14.63
  -7   0   6   53.46   20.53
  -6   0   6   34.75   15.86
  -5   0   6  201.32   43.35
  -4   0   6  127.32   31.61
  -3   0   6   27.42   13.44
  -3   0   6   26.96    5.99
   2   0  -6  109.57   22.97
  -2   0   6  109.82   27.87
  -2   0   6  112.63   21.35
   1   0  -6  264.72   47.45
  -1   0   6  279.38   45.99
   0   0  -6    1.79    3.87
   0   0   6    3.33    4.83
  -1   0  -6  101.63   28.63
   1   0   6  102.50   27.17
  -2   0  -6  116.99   32.56
   2   0   6  127.00   32.32
   2   0   6  118.21   28.57
  -3   0  -6   11.06   10.56
   3   0   6    9.30    9.21
   3   0   6   11.78   11.01
   4   0   6   29.21   15.32
   4   0   6   29.45   13.40
   5   0   6   86.84   27.58
   6   0   6    2.63    4.85
  -7   0  -6    8.82    8.54
   7   0   6    8.93   10.57
  -8   0  -6    1.33    6.11
   8   0   6    3.03    6.56
  -8   1   6    6.59    8.67
  -7   1   6   59.50   21.58
  -6   1   6    7.43    8.79
  -5   1   6   20.43   12.11
  -4   1   6   40.07   16.41
  -3   1   6  143.35   33.96
   2  -1  -6     .92    2.42
  -2   1   6    1.55    2.30
  -2   1   6     .45    2.34
  -1   1   6  143.45   27.69
   0  -1  -6  199.27   39.77
   0   1   6  202.02   38.19
  -1  -1  -6     .55    3.82
   1   1   6     .93    3.57
  -2  -1  -6  213.79   45.82
   2   1   6  198.00   40.88
   2   1   6  216.42   44.02
  -3  -1  -6  214.14   48.29
   3   1   6  225.10   44.08
   3   1   6  233.50   47.48
  -4  -1  -6    4.99    9.09
   4   1   6    3.77    6.17
   4   1   6    4.51    7.06
   5   1   6    -.40    2.61
  -7  -1  -6    2.81    5.26
   7   1   6    1.73    4.64
  -8  -1  -6    2.37    5.14
   8   1   6     .71    5.11
  -8   2   6    4.89    7.68
  -7   2   6   17.89   10.73
  -6   2   6   16.05   12.89
  -5   2   6   20.22   11.97
  -4   2   6   48.62   18.18
   3  -2  -6  101.04   17.35
  -3   2   6   99.57   27.18
   2  -2  -6  127.62   23.82
  -2   2   6  130.62   22.95
  -2   2   6  118.22   29.81
   1  -2  -6   49.69   14.92
  -1   2   6   51.27   14.22
   0  -2  -6  128.15   28.77
   0   2   6  126.02   27.18
  -1  -2  -6   77.78   23.12
   1   2   6   85.36   22.88
  -2  -2  -6   10.40   10.80
   2   2   6    7.65    8.62
   2   2   6   12.97   10.78
  -3  -2  -6    5.86    7.33
   3   2   6    7.90    8.60
   3   2   6    6.28    7.74
  -4  -2  -6  213.54   49.21
   4   2   6  224.10   45.19
   4   2   6  240.26   48.18
   5   2   6   41.04   17.68
  -6  -2  -6    1.28    5.40
   6   2   6    4.80    7.24
  -7  -2  -6   15.44    9.37
   7   2   6   10.39   10.67
  -8  -2  -6    7.33    8.51
   8   2   6    4.22    7.23
   9   2   6    -.28    6.72
  -8   3   6   30.25   14.64
  -7   3   6   15.61    9.94
  -6   3   6   58.71   20.78
   5  -3  -6   30.21    7.58
   5  -3  -6   30.50    7.21
  -5   3   6   30.99   14.51
   4  -3  -6  165.65   25.94
   4  -3  -6  165.64   27.39
  -4   3   6  158.69   36.84
   3  -3  -6   16.59    6.66
  -3   3   6   18.28   11.44
   2  -3  -6   11.89    6.29
  -2   3   6    9.11    9.25
   1  -3  -6  174.36   32.73
  -1   3   6  165.05   31.10
   0  -3  -6   46.42   15.67
   0   3   6   40.72   13.96
  -1  -3  -6    9.43    9.03
   1   3   6   11.47    9.54
  -2  -3  -6  252.11   50.01
   2   3   6  252.79   48.23
   2   3   6  268.79   49.24
  -3  -3  -6  114.32   30.87
   3   3   6  119.38   30.05
   3   3   6  112.40   28.93
  -4  -3  -6   11.14   11.27
   4   3   6   11.36    9.91
   4   3   6   12.90   11.22
  -5  -3  -6   93.36   26.96
   5   3   6  100.30   28.05
  -6  -3  -6   17.99   10.99
   6   3   6   16.51   10.61
  -7  -3  -6     .22    4.38
   7   3   6   -1.13    2.90
  -8  -3  -6   11.37   10.74
   8   3   6    9.51   10.29
   9   3   6   18.96   11.38
  -8   4   6   14.83   11.93
   7  -4  -6    1.57    3.30
   7  -4  -6    1.74    2.72
  -7   4   6    -.52    4.51
   6  -4  -6   12.60    5.68
   6  -4  -6   12.97    6.81
  -6   4   6   19.84   11.82
   5  -4  -6   64.87   16.28
   5  -4  -6   61.88   13.97
  -5   4   6   63.95   21.13
   4  -4  -6    6.43    5.11
  -4   4   6    7.04    8.37
   3  -4  -6   63.59   15.76
  -3   4   6   62.23   20.65
   2  -4  -6   92.03   20.94
  -2   4   6   91.98   25.17
   1  -4  -6   18.61    9.15
  -1   4   6   20.54    9.47
   0  -4  -6   44.54   15.55
   0   4   6   46.23   15.34
  -1  -4  -6   15.63    9.78
   1   4   6   16.56    9.45
   2   4   6    2.20    4.39
   2   4   6    2.87    5.45
  -3  -4  -6   59.43   20.81
   3   4   6   56.75   19.98
   3   4   6   57.87   19.23
  -4  -4  -6   33.79   16.28
   4   4   6   26.83   13.73
   4   4   6   29.49   13.65
  -5  -4  -6   63.69   23.45
  -5  -4  -6   58.60   20.50
   5   4   6   46.02   18.50
  -6  -4  -6    6.95    7.80
   6   4   6    4.50    6.50
  -7  -4  -6     .71    4.08
   7   4   6     .52    3.24
  -8  -4  -6    4.32    5.48
   8   4   6    4.12    6.97
  -8   5   6    8.92    9.59
   7  -5  -6    6.27    5.02
   7  -5  -6    5.43    6.22
  -7   5   6    4.07    7.34
   6  -5  -6    6.11    6.32
  -6   5   6    3.36    5.71
   5  -5  -6   59.63   17.57
   5  -5  -6   54.27   14.39
  -5   5   6   51.11   18.27
   4  -5  -6   51.36   14.34
  -4   5   6   53.20   18.55
   3  -5  -6   46.84   14.33
  -3   5   6   50.16   17.74
   2  -5  -6  219.02   39.32
  -2   5   6  215.96   42.85
   1  -5  -6  242.06   44.37
  -1   5   6  257.15   47.49
   0   5   6   88.92   23.07
  -1  -5  -6  243.77   46.81
   1   5   6  247.28   46.27
  -2  -5  -6   51.78   18.86
   2   5   6   56.10   18.99
   2   5   6   51.38   18.00
  -3  -5  -6   72.14   23.54
   3   5   6   83.30   24.56
   3   5   6   81.89   23.54
  -4  -5  -6   89.14   27.13
   4   5   6  101.12   27.02
   4   5   6   92.15   26.44
  -5  -5  -6    8.01   10.04
   5   5   6    8.75    9.45
  -6  -5  -6    1.65    4.96
   6   5   6    1.68    3.79
  -7  -5  -6   13.64   12.38
   7   5   6    9.90    9.90
  -8  -5  -6   27.63   13.90
   8   5   6   24.40   13.50
   9   5   6     .17    4.90
   7  -6  -6   -1.65    7.42
   7  -6  -6   -2.68    4.85
  -7   6   6    1.84    5.91
   6  -6  -6    7.63    8.02
   6  -6  -6    9.90    7.22
  -6   6   6   10.73    9.47
   5  -6  -6    4.31    6.65
   5  -6  -6    4.56    5.90
  -5   6   6    3.76    6.45
   4  -6  -6    2.16    4.20
  -4   6   6    4.43    5.59
   3  -6  -6   41.40   13.99
  -3   6   6   37.76   15.12
   2  -6  -6   58.28   17.41
  -2   6   6   56.05   18.70
   1  -6  -6   47.68   16.43
  -1   6   6   49.19   17.16
   0  -6  -6  161.73   35.02
  -1  -6  -6  238.69   46.26
   1   6   6  227.20   45.06
  -2  -6  -6   16.12   10.56
   2   6   6   15.77   12.46
   2   6   6   15.87    9.69
  -4  -6  -6   77.45   24.74
   4   6   6   75.43   23.44
   4   6   6   77.43   23.18
   5   6   6    1.38    3.90
  -6  -6  -6    2.10    4.93
   6   6   6    1.75    4.50
  -7  -6  -6   31.56   14.82
   7   6   6   29.69   14.47
  -8  -6  -6   13.59   11.82
   9   6   6    -.27    5.21
   7  -7  -6    2.21    7.23
  -7   7   6    3.04    6.77
   6  -7  -6    1.70    4.92
   6  -7  -6    1.38    5.49
  -6   7   6    -.25    3.77
   5  -7  -6    2.95    5.54
   5  -7  -6    5.64    5.75
  -5   7   6    4.27    6.31
   4  -7  -6    5.73    6.51
  -4   7   6    6.16    7.35
   3  -7  -6     .91    3.58
  -3   7   6     .89    3.52
   2  -7  -6  111.19   26.92
  -2   7   6  105.25   26.31
   1  -7  -6  391.52   66.60
  -1   7   6  422.20   66.24
   0  -7  -6  112.72   28.38
  -1  -7  -6   60.36   19.86
  -2  -7  -6  252.96   50.65
   2   7   6  257.17   47.66
   2   7   6  269.33   50.99
  -3  -7  -6   91.87   26.99
   3   7   6   92.84   26.81
   3   7   6   92.77   25.04
  -4  -7  -6   59.13   21.34
   4   7   6   60.31   20.08
   4   7   6   61.25   21.45
   5   7   6   66.23   22.32
  -6  -7  -6   42.33   16.85
   6   7   6   39.89   17.13
  -7  -7  -6    6.18    7.89
   7   7   6    7.52    9.10
  -8  -7  -6    7.33    8.68
   8   7   6    5.10    7.96
   9   7   6    6.84    8.12
   6  -8  -6    6.39    8.90
  -6   8   6   11.68    9.17
   5  -8  -6    3.19    7.31
  -5   8   6    6.34    6.68
   4  -8  -6     .07    5.02
  -4   8   6    1.29    3.66
   3  -8  -6   20.68   10.84
  -3   8   6   23.55   10.77
   2  -8  -6   40.97   15.89
  -2   8   6   38.11   14.08
   1  -8  -6   17.24   10.05
  -1   8   6   13.73    8.75
   0  -8  -6   82.71   24.12
  -1  -8  -6    2.92    5.63
   1   8   6    2.71    5.08
  -2  -8  -6   15.85   12.51
   2   8   6   17.77   10.33
  -3  -8  -6   41.00   17.30
   3   8   6   41.93   17.34
   3   8   6   39.44   15.23
   4   8   6    6.41    7.72
   4   8   6    5.28    7.54
   5   8   6    -.48    2.83
   6   8   6   17.19    9.68
  -7  -8  -6    4.38    6.71
   7   8   6    7.51    8.59
  -8  -8  -6   16.69   13.35
   8   8   6   20.69   13.00
   9   8   6    1.16    5.19
   6  -9  -6    5.34    7.80
  -6   9   6    4.61    6.59
   5  -9  -6    4.94    8.57
  -5   9   6    6.04    7.23
  -4   9   6    4.98    6.27
  -3   9   6   27.82   11.44
  -2   9   6   88.34   21.76
  -1   9   6   18.28    9.28
   0   9   6   14.88    8.80
   1   9   6  144.61   29.94
   2   9   6   21.32   10.60
   3   9   6   49.10   16.70
   4   9   6  158.42   37.53
   4   9   6  146.09   33.36
   5   9   6   11.32   10.67
   6   9   6    6.75    8.79
   7   9   6   40.90   17.21
  -8  -9  -6   26.97   12.82
   8   9   6   24.23   13.19
   9   9   6    -.82    5.12
   5 -10  -6     .19    6.54
  -5  10   6     .68    4.77
  -4  10   6    5.65    6.73
  -3  10   6    2.19    4.31
  -2  10   6    2.22    4.23
  -1  10   6    6.21    6.43
   0  10   6    5.60    5.96
   0  10   6    4.93    5.91
   1  10   6     .42    3.47
   2  10   6   24.32   10.54
   3  10   6    6.97    6.99
   4  10   6   15.54   11.73
   6  10   6    -.22    4.28
   7  10   6    -.10    4.52
   8  10   6     .52    4.44
   4 -11  -6   -2.36    5.24
  -4  11   6   -1.78    4.27
  -3  11   6    5.68    6.50
  -2  11   6   21.34    9.35
  -1  11   6   44.05   12.77
   0  11   6   48.00   13.40
   0  11   6   40.05   12.39
   2  11   6   56.75   15.95
   3  11   6   92.59   22.50
   4  11   6   22.28   11.07
  -2  12   6   -1.71    3.28
  -1  12   6    1.95    4.35
  -1  12   6    2.63    3.66
   0  12   6    -.16    3.30
   0  12   6    -.53    3.19
   1  12   6   39.79   11.44
   1  12   6   37.45   10.83
   2  12   6     .22    3.50
   3  12   6     .40    4.36
   4  12   6   30.55   12.89
   0  13   6    -.60    3.38
   1  13   6   -1.73    4.33
   1  13   6    -.86    2.43
   2  13   6     .09    3.85
   2  13   6    1.83    3.90
   3  13   6   16.01    9.31
   4  13   6   30.21   13.25
  -5  -8   7    4.20    6.34
  -5  -8   7    7.60    6.43
  -4  -8   7    2.11    5.84
  -4  -8   7    2.73    4.00
  -3  -8   7    -.04    3.09
  -3  -8   7    -.44    5.34
  -2  -8   7     .76    5.40
  -2  -8   7     .30    2.83
  -1  -8   7    4.52    7.52
   0  -8   7    3.08    8.73
  -7  -7   7    1.58    4.29
  -6  -7   7    5.54    6.55
  -6  -7   7    6.51    5.51
  -5  -7   7    2.60    5.54
  -5  -7   7    4.20    4.83
  -5  -7   7    3.11    5.53
  -4  -7   7   11.99    7.59
  -4  -7   7    8.90    8.79
  -3  -7   7   17.18    7.87
  -3  -7   7   12.05   11.26
  -2  -7   7   33.06   16.05
  -2  -7   7   35.90   11.44
  -1  -7   7    4.47    8.36
  -1  -7   7    3.61    4.42
  -1  -7   7    5.60    4.83
   0  -7   7    9.81   10.77
   0  -7   7   10.65    5.63
   0  -7   7   12.00    5.44
   1  -7   7   62.88   23.60
   1  -7   7   49.13   12.01
   2  -7   7   18.74   18.67
  -7  -6   7    1.19    5.63
  -6  -6   7    9.06    5.13
  -6  -6   7   11.16    9.00
  -5  -6   7    3.64    4.96
  -5  -6   7    2.76    4.75
  -4  -6   7     .02    3.64
  -4  -6   7    1.46    4.02
  -3  -6   7   10.12    9.91
  -3  -6   7    6.96    6.34
  -2  -6   7    1.79    5.07
  -2  -6   7    3.52    4.54
  -1  -6   7    8.17    6.92
  -1  -6   7    9.44   10.08
  -1  -6   7    7.01    6.05
   0  -6   7    1.80    3.47
   0  -6   7     .39    4.51
   0  -6   7     .46    2.44
   1  -6   7   -1.17    4.16
   1  -6   7    -.92    3.34
   1  -6   7    -.37    2.60
   2  -6   7    -.82    3.13
   2  -6   7    -.47    4.32
   3  -6   7    1.19    5.08
  -8  -5   7    7.91    8.37
  -7  -5   7   26.64   12.68
  -6  -5   7   43.59    8.24
  -6  -5   7   47.06   16.65
  -6  -5   7   43.41    8.76
  -5  -5   7    6.56    7.64
  -5  -5   7   12.73    6.44
  -5  -5   7   10.15    6.29
  -4  -5   7   32.33   12.53
  -4  -5   7   30.87   12.48
  -3  -5   7   51.85   18.07
  -3  -5   7   51.60   16.24
  -2  -5   7    6.55    6.74
  -2  -5   7    6.35    7.31
  -1  -5   7    1.96    5.60
  -1  -5   7     .13    2.92
   0  -5   7   26.35   14.74
   0  -5   7   27.20   10.88
   0  -5   7   23.89   10.38
   1  -5   7    4.87    6.28
   1  -5   7    7.00    8.33
   2  -5   7    3.02    6.16
   2  -5   7     .49    4.48
   3  -5   7   23.59   13.64
   3  -5   7   14.48    8.95
   4  -5   7    1.65    8.39
  -8  -4   7    1.52    6.12
  -7  -4   7    8.58    8.72
  -6  -4   7    3.47    5.25
  -5  -4   7    5.73    3.96
  -5  -4   7    5.58    4.15
  -5  -4   7    5.50    7.32
  -4  -4   7     .37    3.30
  -4  -4   7     .44    2.87
  -3  -4   7    5.11    6.27
  -3  -4   7    4.15    5.87
  -2  -4   7   14.70    8.82
  -2  -4   7   14.59    9.54
  -1  -4   7   10.53    8.32
  -1  -4   7    8.43    8.85
   0  -4   7    8.29    7.87
   0  -4   7    5.54    6.39
   0  -4   7    9.06    9.89
   1  -4   7   44.40   18.98
   1  -4   7   44.83   14.33
   2  -4   7    -.71    3.24
   2  -4   7    -.74    4.24
   3  -4   7    1.86    5.02
   3  -4   7     .46    6.09
   4  -4   7   -1.01    4.30
   5  -4   7    2.73    6.16
  -8  -3   7    -.12    5.76
  -7  -3   7   13.81   11.87
  -6  -3   7   34.88   15.26
  -5  -3   7    2.33    4.43
  -4  -3   7    6.54    8.08
  -4  -3   7    6.88    5.14
  -3  -3   7   83.54   23.34
  -3  -3   7   81.80   20.36
  -2  -3   7   41.70   15.26
  -2  -3   7   42.41   15.44
  -1  -3   7   18.03   10.38
  -1  -3   7   20.75   11.25
   0  -3   7   55.08   20.47
   1  -3   7   26.99   14.74
   1  -3   7   23.99   11.20
   2  -3   7   17.96    9.99
   2  -3   7   18.89   12.59
   3  -3   7   28.36   15.85
   3  -3   7   23.98   11.13
   4  -3   7    6.99    8.75
   5  -3   7    6.29    7.89
  -8  -2   7    2.44    7.07
  -7  -2   7     .69    5.41
  -6  -2   7    -.20    4.30
  -5  -2   7    5.24    7.61
  -4  -2   7   11.12   10.63
  -4  -2   7    9.40    4.06
  -3  -2   7   46.94   17.72
  -3  -2   7   49.58   13.55
  -2  -2   7   15.68    8.60
  -2  -2   7   10.41    9.90
  -1  -2   7   30.73   13.83
  -1  -2   7   30.45   13.50
   0  -2   7   38.84   16.54
  -1   2  -7     .15    6.13
   1  -2   7    2.31    4.94
   1  -2   7    1.49    3.95
   2  -2   7    2.03    4.94
   2  -2   7    2.53    5.20
   3  -2   7   45.43   19.74
   3  -2   7   41.97   15.86
   4  -2   7   20.28   12.49
   5  -2   7    -.37    3.82
   6  -2   7    7.90   10.49
  -8  -1   7    2.89    5.73
  -7  -1   7   66.55   22.62
  -6  -1   7   49.29   18.57
  -5  -1   7   14.25   11.75
  -4  -1   7   81.61   24.25
  -3  -1   7  325.72   46.88
  -3  -1   7  316.90   58.16
  -2  -1   7   10.73    9.95
  -2  -1   7   11.97    7.18
   1   1  -7   65.62   20.74
  -1  -1   7   60.56   18.44
  -1  -1   7   55.65   19.38
   0   1  -7   24.59   12.36
   0  -1   7   23.87   12.14
  -1   1  -7   53.47   21.00
   1  -1   7   49.46   19.21
   1  -1   7   58.08   18.10
  -2   1  -7    4.02    6.53
   2  -1   7    3.12    6.46
   2  -1   7    1.12    4.83
   3  -1   7   97.11   25.95
   3  -1   7   98.33   29.55
   4  -1   7    3.08    6.03
   5  -1   7     .57    3.50
   6  -1   7   28.59   16.21
   7  -1   7   14.44   13.16
  -8   0   7    1.39    4.08
  -7   0   7    2.26    5.34
  -6   0   7   22.64   12.61
  -5   0   7  136.24   33.86
  -4   0   7  119.57   30.84
  -3   0   7   79.91   24.13
  -3   0   7   80.07   14.60
   2   0  -7   19.33    9.38
  -2   0   7   21.53   11.72
  -2   0   7   24.30    8.91
   1   0  -7   15.93    9.41
  -1   0   7   12.65    7.76
   0   0  -7    5.07    7.69
   0   0   7    5.57    7.20
  -1   0  -7    9.36    9.04
   1   0   7   12.19   11.07
  -2   0  -7    6.17    8.05
   2   0   7    2.51    5.41
   2   0   7    5.55    7.44
  -3   0  -7     .70    5.48
   3   0   7    -.97    3.83
   4   0   7    -.01    3.41
   5   0   7    4.25    5.76
   6   0   7   19.74   13.03
   7   0   7   10.55   10.15
  -8   1   7   15.71   12.79
  -7   1   7    8.77    9.12
  -6   1   7   10.51   10.05
  -5   1   7    8.62    9.79
  -4   1   7   90.61   26.35
   3  -1  -7  158.82   25.80
  -3   1   7  163.88   37.18
  -3   1   7  162.12   24.01
   2  -1  -7  137.85   27.10
  -2   1   7  130.57   32.53
  -2   1   7  140.03   25.11
   1  -1  -7  121.57   27.69
  -1   1   7  122.44   25.93
   0  -1  -7   12.18   10.73
   0   1   7    9.14    8.20
  -1  -1  -7   73.57   23.36
   1   1   7   73.35   22.29
  -2  -1  -7  120.39   33.22
   2   1   7  126.00   30.46
   2   1   7  130.10   32.36
  -3  -1  -7    -.77    4.19
   3   1   7     .79    3.88
   3   1   7     .26    3.22
   4   1   7   13.04   11.55
   4   1   7   16.55   13.08
   5   1   7    8.68   10.10
   6   1   7    7.96    9.73
   7   1   7    3.06    6.86
   8   1   7    8.17    9.68
  -8   2   7    8.05    8.83
  -7   2   7   15.93   13.11
  -6   2   7   24.92   12.85
  -5   2   7    -.04    2.82
  -4   2   7  114.46   30.05
   3  -2  -7  165.90   26.59
  -3   2   7  163.98   37.64
   2  -2  -7    5.30    5.28
  -2   2   7    5.93    4.88
  -2   2   7    5.44    7.67
   0  -2  -7  337.06   59.14
   0   2   7  349.21   56.95
  -1  -2  -7   14.66   11.96
   1   2   7   11.36    9.91
  -2  -2  -7  194.62   43.21
   2   2   7  183.02   39.20
   2   2   7  178.14   39.77
  -3  -2  -7   74.80   26.07
   3   2   7   81.85   25.04
   3   2   7   85.28   24.61
   4   2   7   13.98   12.83
   4   2   7   11.86   10.69
   6   2   7   49.31   20.11
   7   2   7    7.57    7.50
   8   2   7    -.14    4.61
  -8   3   7     .22    5.81
  -7   3   7   32.15   14.69
  -6   3   7     .12    4.53
  -5   3   7     .51    3.80
   4  -3  -7  102.77   16.86
  -4   3   7   98.09   27.71
   3  -3  -7   49.15   11.92
  -3   3   7   49.98   19.14
   2  -3  -7    3.04    4.23
  -2   3   7    2.39    3.59
  -2   3   7    2.51    5.17
   1  -3  -7   51.98   16.38
  -1   3   7   56.82   15.69
   0  -3  -7   95.98   25.23
   0   3   7  103.20   24.35
  -1  -3  -7    3.24    6.16
   1   3   7    3.41    5.49
  -2  -3  -7   40.34   17.09
   2   3   7   36.14   15.17
   2   3   7   35.65   15.41
  -3  -3  -7   54.01   21.02
   3   3   7   52.79   19.29
   3   3   7   52.39   18.83
  -4  -3  -7    4.64    7.35
   4   3   7    2.46    6.31
   4   3   7    4.21    6.44
   5   3   7    9.89    9.99
   6   3   7    7.17    8.68
   7   3   7    4.15    4.74
   8   3   7    1.11    5.29
  -8   4   7    7.73    8.71
  -7   4   7    7.06    9.13
   6  -4  -7   15.39    4.51
   6  -4  -7   15.09    4.67
  -6   4   7   11.05   10.39
   5  -4  -7   76.34   15.57
   5  -4  -7   69.85   13.81
  -5   4   7   68.35   22.45
   4  -4  -7  153.62   26.31
  -4   4   7  151.52   35.82
   3  -4  -7   26.03    9.33
  -3   4   7   27.99   13.61
   2  -4  -7   20.55    9.30
  -2   4   7   23.48   12.37
   1  -4  -7   82.89   21.46
  -1   4   7   78.83   20.22
   0  -4  -7   29.74   12.79
   0   4   7   33.93   12.99
  -1  -4  -7    1.20    3.24
   1   4   7   -1.03    2.52
  -2  -4  -7  103.17   28.36
   2   4   7  103.78   27.55
   2   4   7   98.60   26.75
  -3  -4  -7   11.01   10.69
   3   4   7   12.41   11.32
   3   4   7   11.36   10.15
  -4  -4  -7    1.00    5.87
   4   4   7    1.32    4.03
   4   4   7   -1.37    3.39
   5   4   7   97.89   28.09
   6   4   7    4.95    7.49
   7   4   7    -.45    3.01
  -8  -4  -7   15.65   12.73
   8   4   7   18.11   11.07
  -8   5   7    6.34    9.90
   7  -5  -7     .38    3.06
   7  -5  -7    -.56    2.99
  -7   5   7    3.41    7.33
   6  -5  -7    2.06    2.91
   6  -5  -7     .25    3.51
  -6   5   7    2.14    5.10
   5  -5  -7   34.15   10.57
   5  -5  -7   34.33   12.30
  -5   5   7   40.70   16.59
   4  -5  -7   15.50    7.71
  -4   5   7   22.46   11.73
   3  -5  -7   16.75    8.04
  -3   5   7   17.06   13.01
   2  -5  -7   69.17   18.46
  -2   5   7   72.32   21.96
   1  -5  -7   73.76   20.23
   0  -5  -7   57.69   18.43
   0   5   7   53.21   17.52
  -1  -5  -7   15.12   12.01
   1   5   7   13.97    8.99
  -2  -5  -7   93.39   26.75
   2   5   7   93.35   25.95
   2   5   7   90.20   25.34
  -3  -5  -7   28.28   14.65
   3   5   7   26.97   13.44
   3   5   7   28.19   13.39
  -4  -5  -7   15.91   14.01
   4   5   7   15.09   12.23
   4   5   7   17.20   13.61
   5   5   7   53.91   20.11
   6   5   7   -1.25    3.91
   7   5   7    -.62    4.04
  -8  -5  -7    3.73    6.46
   8   5   7    2.38    6.16
   9   5   7   -4.51    8.15
  -7   6   7   19.70   12.29
   6  -6  -7    7.73    7.37
   6  -6  -7    6.90    5.65
  -6   6   7    5.00    8.12
   5  -6  -7    3.07    4.58
   5  -6  -7    1.43    4.45
  -5   6   7    3.55    5.59
   4  -6  -7   97.16   21.57
  -4   6   7   97.23   26.68
   3  -6  -7  114.82   25.01
  -3   6   7  107.98   28.18
   2  -6  -7   20.95    9.67
  -2   6   7   20.82   11.80
   1  -6  -7  230.89   43.54
  -1   6   7  231.37   45.64
   0  -6  -7  173.83   36.67
   0   6   7  168.48   35.85
  -1  -6  -7   15.73   10.22
   1   6   7   16.32   10.13
  -2  -6  -7  259.05   51.79
   2   6   7  256.46   49.44
   2   6   7  276.48   51.40
  -3  -6  -7  268.47   54.43
   3   6   7  286.96   53.86
   3   6   7  280.62   52.96
   4   6   7   13.37   11.83
   4   6   7    7.57    8.47
   5   6   7     .40    3.61
   6   6   7     .72    3.41
   7   6   7   -1.83    4.07
  -8  -6  -7    6.50    8.79
   8   6   7    5.78    7.55
   9   6   7    1.06    6.33
   7  -7  -7    1.71    6.11
  -7   7   7    3.73    7.19
   6  -7  -7   -1.30    4.53
   6  -7  -7     .30    4.33
  -6   7   7   -1.27    5.17
   5  -7  -7     .05    4.35
   5  -7  -7    -.75    3.93
  -5   7   7    -.60    3.44
   4  -7  -7   15.87    9.34
  -4   7   7   16.65   12.12
   3  -7  -7   21.29   10.44
  -3   7   7   24.41   12.17
   2  -7  -7   22.06   11.18
  -2   7   7   25.29   12.71
   1  -7  -7    2.24    4.98
  -1   7   7     .43    3.41
   0  -7  -7    5.59    6.92
  -1  -7  -7   27.11   13.26
   1   7   7   23.72   12.35
  -2  -7  -7   10.42   10.31
   2   7   7   11.07   10.26
   2   7   7   14.11   11.50
   4   7   7   47.66   18.44
   4   7   7   39.90   16.96
   5   7   7   19.19   14.75
   7   7   7    3.38    6.48
   8   7   7    1.71    4.54
   6  -8  -7     .34    4.42
  -6   8   7   -1.65    4.70
   5  -8  -7   57.45   20.65
   5  -8  -7   44.65   18.65
  -5   8   7   67.31   19.48
   4  -8  -7   80.61   21.93
  -4   8   7   83.40   22.75
   3  -8  -7    3.90    5.96
  -3   8   7    2.21    4.05
   2  -8  -7   15.73   10.29
  -2   8   7   17.71   10.10
   1  -8  -7    8.10    8.94
  -1   8   7    8.44    8.00
  -1  -8  -7   83.23   24.91
   1   8   7   74.18   21.42
  -2  -8  -7  253.14   51.51
   2   8   7  266.38   49.18
   2   8   7  271.93   52.29
   3   8   7  116.42   28.61
   3   8   7  105.37   29.38
   4   8   7   12.23   10.17
   4   8   7   12.66   11.16
   5   8   7  120.45   32.20
   6   8   7   36.58   16.35
   7   8   7    2.06    5.56
   8   8   7   21.19   11.95
   6  -9  -7    2.19    7.42
  -6   9   7    3.35    6.48
   5  -9  -7    2.12    6.94
  -5   9   7    4.21    6.64
  -4   9   7   -1.02    3.96
  -3   9   7    4.65    4.54
  -2   9   7   12.97    7.32
  -1   9   7   -1.24    3.43
   0   9   7    4.37    5.86
   1   9   7    3.86    5.51
   2   9   7    3.21    6.00
   3   9   7    4.35    6.89
   3   9   7    2.46    6.01
   4   9   7    -.18    3.75
   5   9   7     .13    5.01
   6   9   7    1.23    5.54
   7   9   7    1.31    5.27
   8   9   7     .83    5.87
   5 -10  -7   41.02   19.44
  -5  10   7   30.20   13.46
  -4  10   7   34.11   13.05
  -3  10   7   14.41    8.75
  -2  10   7   48.48   15.47
  -1  10   7   36.46   13.10
   0  10   7   13.54    8.69
   1  10   7   80.66   21.05
   2  10   7   25.56   12.35
   3  10   7   29.31   13.53
   5  10   7   11.14    9.59
   6  10   7    9.91    9.62
   7  10   7    8.88    9.81
   8  10   7   19.58   12.24
  -4  11   7    1.53    6.00
  -3  11   7    1.31    4.45
  -2  11   7    7.44    6.46
  -1  11   7   28.93   11.21
   0  11   7    1.58    4.54
   0  11   7    2.41    4.93
   1  11   7     .77    4.99
   2  11   7   45.44   15.11
   3  11   7    1.76    5.25
  -3  12   7   -1.06    4.08
  -2  12   7   20.51    9.45
  -1  12   7   35.41   12.07
  -1  12   7   33.31   12.12
   0  12   7    1.16    5.07
   0  12   7    -.57    4.14
   1  12   7   27.71   10.57
   1  12   7   20.06   10.48
   2  12   7   64.99   17.59
   3  12   7   21.46   11.22
   0  13   7    -.62    3.46
   1  13   7    2.34    4.81
   2  13   7    8.96    8.12
   2  13   7    9.60    7.64
   3  13   7   -1.86    5.68
  -3  -8   8    1.59    5.77
  -2  -8   8   -2.08    5.21
  -5  -7   8    5.54    6.12
  -5  -7   8    5.41    5.42
  -4  -7   8    6.75    7.16
  -4  -7   8    6.97    6.12
  -3  -7   8    1.98    5.22
  -3  -7   8    2.65    3.56
  -2  -7   8    1.41    2.96
  -2  -7   8     .46    5.45
  -1  -7   8    -.47    2.94
  -1  -7   8    -.73    4.09
   0  -7   8     .37    3.31
  -6  -6   8   17.76   10.10
  -5  -6   8   29.41   11.75
  -5  -6   8   27.07   10.88
  -4  -6   8     .22    2.98
  -4  -6   8     .78    2.96
  -3  -6   8   11.04    7.23
  -3  -6   8   11.93    6.59
  -2  -6   8   40.44   12.96
  -2  -6   8   40.73   17.17
  -1  -6   8    1.11    2.84
  -1  -6   8     .56    3.78
  -1  -6   8     .16    3.32
   0  -6   8    4.80    4.81
   0  -6   8    3.34    5.18
   0  -6   8    3.86    6.96
   1  -6   8   29.90   10.10
   1  -6   8   34.82   16.94
   2  -6   8    6.66    8.61
  -7  -5   8    4.45    6.83
  -6  -5   8   13.74   10.95
  -5  -5   8    3.19    3.70
  -5  -5   8    -.27    2.69
  -5  -5   8   -1.02    2.83
  -4  -5   8   22.98   11.21
  -4  -5   8   25.70   10.73
  -3  -5   8   14.08    8.53
  -3  -5   8   14.27    9.13
  -2  -5   8   15.58    8.90
  -2  -5   8   17.76   11.04
  -1  -5   8   24.80   10.31
  -1  -5   8   28.74   13.99
   0  -5   8    2.02    3.18
   0  -5   8    -.55    4.35
   0  -5   8    2.84    6.26
   1  -5   8    1.29    4.21
   1  -5   8    4.17    8.56
   1  -5   8     .25    5.22
   2  -5   8   11.46   12.48
   2  -5   8   17.15    8.87
   3  -5   8   -2.35    5.14
  -7  -4   8    4.33    7.11
  -6  -4   8     .91    4.02
  -5  -4   8   33.11    8.61
  -5  -4   8   43.66    9.90
  -5  -4   8   35.20   14.49
  -4  -4   8   27.14   11.20
  -4  -4   8   22.28    9.30
  -3  -4   8    4.63    5.57
  -3  -4   8    4.45    5.46
  -2  -4   8   26.62   11.96
  -2  -4   8   28.14   12.71
  -1  -4   8   33.85   15.87
  -1  -4   8   32.95   13.03
   0  -4   8   19.25   10.63
   0  -4   8   23.80   10.97
   0  -4   8   26.84   13.79
   1  -4   8   42.12   14.82
   1  -4   8   47.12   19.56
   2  -4   8   33.19   17.07
   2  -4   8   34.60   13.65
   3  -4   8   11.20   12.39
   4  -4   8    2.15    6.57
  -7  -3   8    8.63    9.01
  -6  -3   8    -.14    3.35
  -5  -3   8    2.35    5.53
  -4  -3   8     .56    2.43
  -3  -3   8     .68    3.04
  -3  -3   8     .31    4.58
  -2  -3   8   19.76   10.83
  -2  -3   8   21.22   10.51
  -1  -3   8    2.37    4.33
  -1  -3   8    3.36    5.91
   0  -3   8    1.40    4.39
   1  -3   8   74.20   20.93
   1  -3   8   78.40   25.55
   2  -3   8    2.71    5.43
   2  -3   8     .02    5.64
   3  -3   8    6.98    9.54
   4  -3   8    2.45    6.52
  -8  -2   8    2.31    5.96
  -7  -2   8   -2.62    4.51
  -6  -2   8   30.05   15.13
  -5  -2   8    4.54    6.37
  -4  -2   8    7.41    3.89
  -4  -2   8    4.01    7.17
  -3  -2   8   11.23    6.46
  -3  -2   8   14.08   11.84
  -2  -2   8   23.31   10.43
  -2  -2   8   22.13   11.97
  -1  -2   8   15.28    9.78
  -1  -2   8   17.53   13.13
   0  -2   8   61.30   21.00
   1  -2   8  133.16   30.28
   1  -2   8  129.17   33.83
   2  -2   8   21.11   11.41
   2  -2   8   21.19   13.05
   3  -2   8   35.16   17.44
   4  -2   8   34.72   16.59
   5  -2   8   -1.92    4.13
  -8  -1   8   10.23   10.31
  -7  -1   8    1.94    5.44
  -6  -1   8    3.47    3.55
  -5  -1   8   22.75   13.16
  -4  -1   8    1.96    5.52
  -3  -1   8   36.52   15.60
  -3  -1   8   36.67   10.58
  -2  -1   8   13.34    7.63
  -2  -1   8   11.75   10.13
   1   1  -8  108.68   29.24
  -1  -1   8  119.86   30.24
  -1  -1   8  114.91   27.40
   0   1  -8   10.79   10.23
   0  -1   8   11.68   10.29
  -1   1  -8    9.93   10.44
   1  -1   8   15.76   13.36
   1  -1   8   14.95   11.15
   2  -1   8    3.59    5.38
   2  -1   8    1.86    4.28
   3  -1   8   14.13   12.45
   4  -1   8    1.38    4.74
   5  -1   8   19.29   12.42
   6  -1   8    6.14    8.61
  -8   0   8    6.91    8.57
  -7   0   8   23.22   13.13
  -6   0   8   60.51   21.63
  -5   0   8   22.28   12.87
  -4   0   8   30.28   14.46
  -3   0   8     .89    4.79
   2   0  -8    7.23    7.45
  -2   0   8   10.19    6.22
  -2   0   8   10.30   10.07
   1   0  -8    5.77    6.65
  -1   0   8    6.63    6.92
   0   0  -8   30.49   15.59
   0   0   8   32.83   14.20
  -1   0  -8   27.49   14.11
   1   0   8   25.80   13.62
  -2   0  -8   12.89   12.85
   2   0   8   10.39   10.17
   2   0   8   13.52   11.75
   3   0   8   56.94   21.64
   5   0   8     .47    3.89
   6   0   8   32.65   16.37
  -8   1   8   12.04   10.27
  -7   1   8    2.02    5.69
  -6   1   8   32.19   15.73
  -5   1   8   15.89   12.81
  -4   1   8   29.11   14.47
   3  -1  -8   30.20    9.81
  -3   1   8   30.32   15.02
  -3   1   8   32.66    8.17
   2  -1  -8  116.13   25.76
  -2   1   8  123.17   31.57
  -2   1   8  119.83   23.58
   1  -1  -8   24.80   11.21
  -1   1   8   21.72    9.72
   0  -1  -8    4.20    6.42
   0   1   8    3.57    5.78
  -1  -1  -8  122.26   33.10
   1   1   8  130.27   31.45
  -2  -1  -8    9.41   10.43
   2   1   8   12.45   10.72
   2   1   8    9.02    8.53
   3   1   8     .35    4.56
   4   1   8   23.84   13.59
   5   1   8    8.84   10.73
   6   1   8     .16    4.70
   7   1   8    5.12    8.70
  -8   2   8   -2.15    6.43
  -7   2   8    5.79    6.75
  -6   2   8   25.37   14.12
  -5   2   8     .62    4.17
  -4   2   8    7.56    8.31
   3  -2  -8   69.58   15.31
  -3   2   8   66.28   22.77
   2  -2  -8    1.78    3.47
  -2   2   8    1.23    4.18
  -2   2   8    1.25    3.06
   1  -2  -8   24.81   11.35
  -1   2   8   19.92    9.27
   0  -2  -8   40.95   16.43
   0   2   8   35.79   14.15
  -1  -2  -8    9.84    9.78
   1   2   8   10.86   10.25
  -2  -2  -8   28.79   14.93
   2   2   8   28.18   13.87
   2   2   8   21.57   12.20
  -3  -2  -8   12.50   13.23
   3   2   8   10.63   11.26
   3   2   8    7.89    9.03
   4   2   8    1.43    4.09
   5   2   8    4.21    7.07
   6   2   8    4.18    7.87
   7   2   8    1.42    4.85
  -7   3   8    6.29    7.16
  -6   3   8   33.12   14.38
  -5   3   8   15.71   12.93
   4  -3  -8    4.10    2.55
  -4   3   8    5.98    7.50
   3  -3  -8   60.73   14.45
  -3   3   8   60.19   21.43
   2  -3  -8     .91    3.08
  -2   3   8    1.31    4.47
  -2   3   8    1.63    2.81
   0  -3  -8  117.75   29.17
   0   3   8  110.72   26.59
  -1  -3  -8   19.77   11.80
   1   3   8   20.78   11.06
  -2  -3  -8   32.19   16.26
   2   3   8   26.83   13.46
   2   3   8   33.72   14.66
  -3  -3  -8   19.82   15.21
   3   3   8   22.94   12.81
   3   3   8   19.64   11.88
   4   3   8   25.71   13.41
   5   3   8   15.65   12.82
   6   3   8   65.77   22.27
   7   3   8   30.50   14.82
  -7   4   8   13.50   11.44
  -6   4   8    7.45    7.62
  -5   4   8    3.97    5.79
   4  -4  -8   37.40   10.06
  -4   4   8   39.86   16.33
   3  -4  -8   28.12    9.65
  -3   4   8   25.91   13.81
   2  -4  -8   22.19    9.96
  -2   4   8   21.46   12.25
   1  -4  -8   56.97   17.96
  -1   4   8   66.58   18.05
   0  -4  -8   29.00   13.45
   0   4   8   32.76   13.35
  -1  -4  -8   33.25   15.46
   1   4   8   34.78   14.33
  -2  -4  -8   27.92   14.62
   2   4   8   27.43   12.98
   2   4   8   24.05   12.59
  -3  -4  -8   78.34   26.30
   3   4   8   79.02   24.35
   3   4   8   90.75   26.10
   4   4   8   18.17   11.12
   5   4   8    9.18    9.52
   6   4   8   26.70   13.77
   7   4   8    -.94    2.75
   8   4   8     .14    4.57
  -7   5   8     .11    6.27
   6  -5  -8   40.40    9.52
   6  -5  -8   42.11    8.81
  -6   5   8   42.01   17.17
   5  -5  -8   90.83   17.77
   5  -5  -8   92.85   19.75
  -5   5   8   95.31   27.00
   4  -5  -8   46.27   12.95
  -4   5   8   45.13   17.95
   3  -5  -8   83.30   19.50
  -3   5   8   77.61   24.38
   2  -5  -8   76.15   19.93
  -2   5   8   78.58   24.03
   1  -5  -8    1.80    4.30
  -1   5   8     .68    3.39
   0  -5  -8   15.72    9.73
   0   5   8   16.46    9.29
  -1  -5  -8   52.93   19.35
   1   5   8   58.54   19.04
  -2  -5  -8     .51    4.98
   2   5   8    1.69    4.19
   2   5   8    1.02    3.97
  -3  -5  -8    9.24   10.28
   3   5   8    7.03    8.88
   3   5   8    5.40    7.52
   4   5   8    9.30    9.27
   5   5   8   30.51   14.94
   6   5   8   26.15   13.42
   7   5   8   25.48   13.38
   8   5   8    9.65    9.08
  -7   6   8   -1.73    5.96
   6  -6  -8    9.86    7.32
   6  -6  -8   13.46    6.51
  -6   6   8    7.82    9.54
   5  -6  -8    -.57    3.04
   5  -6  -8     .14    3.42
  -5   6   8    1.43    3.84
   4  -6  -8    2.56    3.90
  -4   6   8    1.64    4.60
   3  -6  -8    9.35    7.33
  -3   6   8   12.43   10.04
   2  -6  -8   25.44   10.57
  -2   6   8   23.67   12.64
   1  -6  -8    7.67    8.21
  -1   6   8    7.08    8.28
  -1  -6  -8   15.20   11.92
   1   6   8   14.85    9.88
  -2  -6  -8  132.64   33.64
   2   6   8  138.79   33.22
   2   6   8  149.68   34.42
  -3  -6  -8   11.39   11.53
   3   6   8   11.60    9.89
   3   6   8    8.87    9.83
   4   6   8   80.99   24.90
   5   6   8    -.80    3.13
   6   6   8    1.24    3.95
   7   6   8    -.45    4.10
   8   6   8   15.69   12.60
  -7   7   8    4.12    7.74
   6  -7  -8   10.89    9.66
  -6   7   8    9.70    9.49
   5  -7  -8    3.43    6.42
   5  -7  -8    3.18    6.31
  -5   7   8    3.02    6.26
   4  -7  -8   49.75   15.60
  -4   7   8   49.69   18.68
   3  -7  -8   67.73   18.78
  -3   7   8   68.10   21.38
   2  -7  -8   11.83    9.53
  -2   7   8   15.59    9.19
   1  -7  -8  111.86   27.58
  -1   7   8  108.16   28.65
   0  -7  -8  279.77   52.20
  -1  -7  -8   12.60   11.30
   1   7   8   11.86   10.33
  -2  -7  -8    1.25    3.83
   2   7   8     .95    4.51
   2   7   8     .81    3.56
   3   7   8   25.87   15.74
   3   7   8   23.25   12.78
   4   7   8     .25    3.96
   5   7   8    6.21    7.97
   6   7   8   91.18   27.32
   7   7   8   10.81   10.93
   8   7   8    1.05    5.65
   6  -8  -8    3.08    7.56
  -6   8   8    4.27    7.90
   5  -8  -8     .27    5.43
   5  -8  -8    1.95    5.72
  -5   8   8    1.03    4.97
   4  -8  -8   13.51    9.02
  -4   8   8   18.60   10.78
   3  -8  -8    6.15    6.73
  -3   8   8    7.39    7.52
   2  -8  -8   25.48   12.33
  -2   8   8   31.13   13.39
   1  -8  -8    3.53    6.16
  -1   8   8    2.74    6.04
   0  -8  -8   19.26   11.38
  -1  -8  -8    1.74    4.30
   2   8   8   14.82   11.59
   2   8   8   12.30   10.80
   3   8   8    2.47    5.12
   4   8   8   29.69   14.73
   5   8   8    -.07    3.34
   6   8   8    2.74    5.80
   7   8   8    3.94    7.14
   8   8   8    4.08    5.92
   5  -9  -8   20.08   13.48
  -5   9   8   19.46   11.76
  -4   9   8   29.15   13.52
  -3   9   8   13.06   10.45
  -2   9   8   26.83   12.15
  -1   9   8   39.38   14.98
   1   9   8   25.73   12.20
   2   9   8   25.99   13.36
   3   9   8   22.12   12.29
   4   9   8    2.47    5.83
   5   9   8   76.09   24.85
   6   9   8    4.11    6.74
   7   9   8     .83    4.36
   5 -10  -8    1.19    7.44
  -5  10   8    1.87    6.81
  -4  10   8     .40    4.13
  -3  10   8   21.03   11.11
  -2  10   8    3.22    5.55
  -1  10   8     .94    2.96
   0  10   8   41.00   15.53
   1  10   8    3.92    6.70
   2  10   8   11.66    9.42
   4  10   8     .90    4.24
   5  10   8    4.76    7.84
   6  10   8    9.32    9.34
   7  10   8    1.96    5.10
  -4  11   8   32.52   13.27
  -3  11   8   19.20   10.06
  -1  11   8   72.70   20.03
   0  11   8   52.63   16.66
   0  11   8   58.39   17.10
   1  11   8    1.15    6.08
   2  11   8   21.32   11.89
   6  11   8   11.76   10.86
  -3  12   8    1.65    5.82
  -2  12   8   -1.34    4.39
  -1  12   8    3.86    5.44
  -1  12   8    5.97    7.46
   0  12   8   17.01   10.97
   0  12   8   25.19   10.36
   1  12   8   16.84   10.81
   1  12   8   16.05    9.65
   2  12   8    8.50    9.09
  -1  13   8     .17    4.17
   0  13   8   -1.71    4.28
   1  13   8   14.47    8.01
   2  13   8   42.54   16.50
   2  14   8    1.72    4.61
  -5  -6   9    5.52    6.72
  -4  -6   9    3.65    4.10
  -4  -6   9     .99    3.81
  -3  -6   9    -.92    3.88
  -3  -6   9    1.60    3.63
  -2  -6   9    2.90    6.00
  -2  -6   9    3.64    4.08
  -1  -6   9     .80    5.56
  -1  -6   9    2.98    4.17
   0  -6   9   11.11    6.17
   0  -6   9   10.30    8.74
   1  -6   9    -.62    6.59
  -6  -5   9    8.64    8.28
  -5  -5   9   17.71    7.07
  -5  -5   9   17.47   10.01
  -4  -5   9   43.96   14.94
  -4  -5   9   42.87   14.09
  -3  -5   9    6.66    6.80
  -3  -5   9    8.65    7.59
  -2  -5   9    4.07    5.26
  -2  -5   9    1.74    6.09
  -1  -5   9   21.74   12.69
  -1  -5   9   25.76   10.29
   0  -5   9   14.12    7.35
   0  -5   9    9.31   10.92
   1  -5   9    1.37    4.18
   1  -5   9    7.68    9.22
   2  -5   9    6.10    7.67
  -7  -4   9    8.04    7.33
  -6  -4   9    3.15    5.08
  -5  -4   9    -.42    2.19
  -5  -4   9     .12    1.95
  -4  -4   9    5.36    5.28
  -4  -4   9    5.79    6.51
  -3  -4   9     .75    3.48
  -3  -4   9     .50    3.44
  -2  -4   9   10.70    9.09
  -2  -4   9   16.38   10.08
  -1  -4   9   25.49   11.64
  -1  -4   9   28.86   14.07
   0  -4   9    -.80    3.13
   0  -4   9     .98    3.51
   1  -4   9    -.40    4.45
   2  -4   9   17.86   14.51
   3  -4   9    6.70    8.46
  -7  -3   9    2.25    7.46
  -6  -3   9     .77    5.21
  -5  -3   9   62.90   20.37
  -4  -3   9   37.50   15.54
  -4  -3   9   36.19   10.56
  -3  -3   9    5.65    5.94
  -3  -3   9    4.78    7.14
  -2  -3   9   30.14   12.83
  -2  -3   9   31.29   13.33
  -1  -3   9   93.30   25.49
  -1  -3   9   85.78   23.82
   0  -3   9    6.05    7.66
   0  -3   9   10.48    9.77
   1  -3   9   37.29   17.61
   2  -3   9   48.12   19.76
   3  -3   9    1.20    5.94
   4  -3   9   14.30   12.31
  -7  -2   9   27.50   14.00
  -6  -2   9    2.78    4.66
  -5  -2   9    4.36    6.91
  -4  -2   9    2.56    5.47
  -3  -2   9    2.47    4.96
  -2  -2   9    3.75    5.79
  -2  -2   9    3.36    5.26
  -1  -2   9    7.45    6.89
  -1  -2   9    5.68    8.00
   0  -2   9    2.95    5.81
   1  -2   9   17.53   14.45
   2  -2   9   29.58   15.87
   3  -2   9   45.70   19.14
   4  -2   9   34.92   17.01
  -7  -1   9    5.73    8.65
  -6  -1   9   33.26   15.20
  -5  -1   9   22.54   13.14
  -4  -1   9    1.27    4.21
  -4  -1   9     .20    1.40
  -3  -1   9    4.17    4.37
  -3  -1   9    5.50    7.14
  -2  -1   9   70.38   22.65
  -2  -1   9   64.12   17.67
  -1  -1   9    9.83    8.24
  -1  -1   9    8.17    9.39
   0   1  -9    5.69    7.67
   0  -1   9    5.52    7.17
   1  -1   9    9.40    9.65
   2  -1   9     .07    4.52
   3  -1   9    6.87    9.04
   4  -1   9   64.87   23.58
   5  -1   9   12.46   12.02
  -7   0   9   17.94   11.44
  -6   0   9    -.69    4.64
  -5   0   9   36.15   15.63
  -4   0   9   69.10   22.96
  -3   0   9     .62    4.99
  -3   0   9    4.12    3.75
   2   0  -9   25.73   12.35
  -2   0   9   28.20   10.61
  -2   0   9   32.75   14.71
   1   0  -9   57.90   19.61
  -1   0   9   54.96   20.21
  -1   0   9   56.54   17.54
   0   0  -9   22.05   13.89
   0   0   9   25.08   12.08
  -1   0  -9    1.40    5.15
   1   0   9    2.27    4.75
   2   0   9   83.58   25.85
   3   0   9    8.53    9.81
   4   0   9    2.01    7.87
   5   0   9   36.20   17.27
   6   0   9    7.00    7.75
  -7   1   9    2.19    5.25
  -6   1   9    -.19    4.22
  -5   1   9   29.13   15.20
  -4   1   9    9.56    9.89
  -3   1   9     .02    1.62
  -3   1   9    -.05    3.35
   2  -1  -9   48.02   15.69
  -2   1   9   44.29   13.13
  -2   1   9   45.95   18.41
   1  -1  -9   49.42   17.23
  -1   1   9   46.19   15.01
   0  -1  -9    -.04    4.14
   0   1   9    1.37    4.10
  -1  -1  -9   23.79   14.32
   1   1   9   22.50   12.28
   2   1   9   48.17   18.66
   3   1   9    8.04    9.81
   4   1   9    1.77    4.90
   5   1   9    5.35    7.75
   6   1   9    3.21    6.46
  -7   2   9    2.16    6.33
  -6   2   9    5.33    7.18
  -5   2   9    3.13    6.39
  -4   2   9    5.65    8.21
   3  -2  -9   18.91    7.89
  -3   2   9   17.99   11.69
  -3   2   9   17.05    6.43
   2  -2  -9   83.05   21.15
  -2   2   9   84.13   19.12
  -2   2   9   84.94   26.09
   1  -2  -9   48.22   16.33
  -1   2   9   44.74   14.41
   0  -2  -9   10.08    9.68
   0   2   9   11.83    9.63
  -1  -2  -9  200.58   44.06
   1   2   9  191.50   40.81
  -2  -2  -9   42.18   20.53
   2   2   9   36.40   16.20
   3   2   9    3.46    6.48
   4   2   9   56.70   21.65
   5   2   9   11.18   10.93
   6   2   9    1.80    4.83
  -7   3   9   -1.41    4.60
  -6   3   9   21.38   15.77
  -5   3   9    6.77    8.80
  -4   3   9    1.45    5.98
   3  -3  -9   11.54    6.08
  -3   3   9   10.97   10.78
   2  -3  -9   13.38    7.70
  -2   3   9   13.27   11.52
  -2   3   9   15.10    7.45
   1  -3  -9   39.48   14.69
  -1   3   9   40.59   13.67
   0  -3  -9   38.38   16.64
   0   3   9   42.01   15.04
  -1  -3  -9   43.57   17.77
   1   3   9   42.01   16.28
  -2  -3  -9   17.11   11.12
   2   3   9   16.95   10.70
   3   3   9   23.85   13.16
   4   3   9   29.50   14.78
   5   3   9    2.20    5.17
   6   3   9    2.71    5.22
   7   3   9   10.40    9.46
  -7   4   9    7.11    8.46
  -6   4   9    4.52    7.68
  -5   4   9   39.50   16.91
   4  -4  -9    8.43    4.65
  -4   4   9    6.46    8.81
  -3   4   9    3.72    5.39
   2  -4  -9   31.23   12.36
  -2   4   9   36.91   12.10
  -2   4   9   38.95   16.91
   1  -4  -9   23.28   11.52
  -1   4   9   25.50   10.93
   0  -4  -9     .07    4.42
   0   4   9     .99    3.27
  -1  -4  -9   64.49   21.97
   1   4   9   59.37   19.69
  -2  -4  -9   35.30   16.76
   2   4   9   34.09   15.17
   3   4   9    1.18    4.32
   4   4   9   34.59   15.99
   5   4   9   61.55   21.89
   6   4   9   13.66   11.71
   7   4   9    9.66    9.29
  -7   5   9    1.34    5.93
  -6   5   9    4.06    7.40
   5  -5  -9    7.93    4.39
   5  -5  -9    7.99    4.94
  -5   5   9    7.05    8.68
   4  -5  -9    1.23    3.12
  -4   5   9    1.28    3.98
   3  -5  -9    4.93    5.51
  -3   5   9    3.53    5.48
   2  -5  -9    4.27    4.96
  -2   5   9    4.18    7.10
   1  -5  -9   11.59    9.75
  -1   5   9   12.94    8.08
   0  -5  -9    1.41    3.57
   0   5   9    3.70    5.75
  -1  -5  -9    4.43    6.00
   1   5   9    2.61    5.49
  -2  -5  -9   13.30   11.82
   2   5   9   13.54   11.12
   3   5   9   23.69   13.12
   4   5   9     .79    2.82
   5   5   9   11.21   10.53
   6   5   9   14.89   12.83
   7   5   9    -.08    5.02
  -6   6   9   43.26   17.65
   5  -6  -9   14.33    6.58
   5  -6  -9   12.45    7.86
  -5   6   9   13.00   12.20
   4  -6  -9    5.11    5.36
  -4   6   9    7.59    8.47
   3  -6  -9   59.97   16.60
  -3   6   9   58.91   20.78
   2  -6  -9   85.42   22.70
  -2   6   9   99.40   27.32
   1  -6  -9   14.84    9.64
  -1   6   9   15.98   13.12
   0  -6  -9   46.44   17.89
   0   6   9   45.06   16.31
  -1  -6  -9   91.05   26.66
   1   6   9   97.01   25.94
  -2  -6  -9    8.35   10.35
   2   6   9    9.62    9.73
   3   6   9   15.66   12.72
   4   6   9   91.90   27.10
   5   6   9     .54    5.21
   6   6   9    7.29    9.28
   7   6   9    6.16    7.75
  -6   7   9   11.94   10.49
   5  -7  -9     .73    4.70
   5  -7  -9    -.44    4.28
  -5   7   9     .39    5.23
   4  -7  -9     .40    4.20
  -4   7   9     .25    3.63
   3  -7  -9   22.15   10.50
  -3   7   9   18.04   13.52
  -2   7   9    2.00    2.96
   1  -7  -9   -1.15    3.18
  -1   7   9     .29    2.94
   0  -7  -9    1.35    5.13
   0   7   9     .18    2.95
  -1  -7  -9    5.64    7.78
   1   7   9    4.34    7.08
   2   7   9     .34    3.13
   3   7   9    -.62    3.24
   4   7   9    2.85    5.71
   5   7   9    2.43    5.87
   6   7   9    1.35    5.88
   7   7   9   -1.63    3.64
  -6   8   9    9.89   10.07
   5  -8  -9    3.54    9.16
   5  -8  -9    3.16    6.13
  -5   8   9    6.00    8.19
   4  -8  -9    -.21    5.01
  -4   8   9    1.02    5.21
   3  -8  -9   29.90   13.38
  -3   8   9   32.06   14.53
   2  -8  -9    7.82    8.45
  -2   8   9   11.14   10.03
   1  -8  -9     .64    5.14
  -1   8   9    1.09    4.26
   0  -8  -9   35.50   17.04
   1   8   9   21.05   12.19
   2   8   9   23.90   13.12
   3   8   9   41.83   17.23
   4   8   9   24.80   14.11
   5   8   9   10.17   10.09
   6   8   9   51.49   20.20
   7   8   9   23.16   11.67
   5  -9  -9    -.20    6.86
  -5   9   9    2.59    5.22
  -4   9   9    -.20    4.81
  -3   9   9     .90    3.54
  -2   9   9   15.82   11.97
  -1   9   9    5.26    7.08
   2   9   9    2.15    5.62
   3   9   9    2.75    5.08
   4   9   9   26.16   14.35
   5   9   9    1.18    4.68
   6   9   9    1.56    4.31
   7   9   9    9.24    9.06
  -4  10   9    3.26    6.22
  -3  10   9   38.23   14.77
  -2  10   9   27.59   13.01
  -1  10   9   -1.89    3.71
   0  10   9   25.95   12.51
   3  10   9   10.70   10.95
   4  10   9   10.29   10.68
   5  10   9    7.25    7.83
   6  10   9    5.76    7.71
  -3  11   9    6.23    6.84
  -2  11   9   -1.28    4.88
  -1  11   9     .90    4.85
   0  11   9   15.18    9.11
   5  11   9    -.34    3.45
   6  11   9    4.32    7.40
  -2  12   9     .68    5.61
  -1  12   9   27.05   12.17
   0  12   9   66.06   18.60
   1  12   9    -.37    3.93
  -1  13   9    -.30    5.22
   1  13   9     .05    4.39
  -4  -5  10     .02    4.03
  -4  -5  10     .27    3.85
  -3  -5  10    8.75    8.26
  -3  -5  10    8.48    8.29
  -2  -5  10     .01    3.30
  -2  -5  10    1.31    4.75
  -1  -5  10    -.33    3.67
   0  -5  10    4.09    4.90
   0  -5  10    2.28    7.50
   1  -5  10    1.21    3.10
   1  -5  10    -.63    4.13
  -5  -4  10     .49    4.76
  -4  -4  10   58.14   18.94
  -4  -4  10   58.19   14.96
  -3  -4  10   43.97   14.87
  -3  -4  10   43.15   16.12
  -2  -4  10    6.08    6.80
  -2  -4  10    6.26    6.91
  -1  -4  10   54.65   19.83
  -1  -4  10   58.02   17.56
   0  -4  10   33.17   15.76
   0  -4  10   25.00   11.89
   1  -4  10     .68    3.83
   2  -4  10    -.13    5.31
  -6  -3  10    6.51    6.61
  -5  -3  10    8.72    8.26
  -4  -3  10    1.81    2.90
  -4  -3  10    1.15    4.43
  -3  -3  10   31.40   14.16
  -3  -3  10   30.32   11.45
  -2  -3  10   25.75   11.89
  -2  -3  10   32.33   13.31
  -1  -3  10     .30    3.52
  -1  -3  10    1.40    3.92
   0  -3  10    4.02    6.49
   0  -3  10    -.16    4.05
   1  -3  10   15.68   12.55
   2  -3  10    3.63    6.89
   3  -3  10    6.31    9.41
  -6  -2  10    1.23    5.48
  -5  -2  10    8.71    9.43
  -4  -2  10   10.29   10.45
  -4  -2  10   14.47    5.69
  -3  -2  10    4.70    7.19
  -3  -2  10    5.42    5.40
  -2  -2  10   36.55   15.30
  -2  -2  10   40.03   13.87
  -1  -2  10   59.34   20.58
  -1  -2  10   56.57   18.97
   0  -2  10    9.23    8.53
   1  -2  10   24.72   13.81
   2  -2  10   63.35   22.30
   3  -2  10    3.39    7.94
  -6  -1  10    1.81    6.90
  -5  -1  10     .17    5.73
  -4  -1  10   20.56    5.44
  -4  -1  10   25.47   13.46
  -3  -1  10   14.27    6.77
  -3  -1  10   14.52   12.10
  -1  -1  10   23.77   11.31
  -1  -1  10   28.17   14.43
   0  -1  10   85.21   24.14
   1  -1  10    5.63    8.05
   2  -1  10    3.13    5.87
   3  -1  10   13.86   12.54
   4  -1  10    4.61    8.16
  -6   0  10    -.52    4.65
  -5   0  10   11.05   10.72
  -4   0  10   42.88   17.95
  -3   0  10     .22    2.23
  -3   0  10    -.22    3.80
  -2   0  10    1.85    3.51
  -2   0  10    2.17    5.64
   1   0 -10   27.50   14.46
  -1   0  10   25.32   13.57
  -1   0  10   30.14   12.11
   0   0 -10    5.43    8.09
   0   0  10    8.81    8.37
   1   0  10    9.26    9.21
   2   0  10   17.06   11.06
   3   0  10    5.28    8.27
   4   0  10    6.01    8.45
   5   0  10    7.89    9.67
  -6   1  10    6.95    8.74
  -5   1  10    4.69    9.05
  -4   1  10   56.96   21.32
  -3   1  10   11.00    8.78
  -3   1  10    7.41    4.71
   2  -1 -10   47.36   16.38
  -2   1  10   51.85   19.06
  -2   1  10   49.87   14.33
   1  -1 -10   89.45   25.21
  -1   1  10   95.06   28.40
  -1   1  10   90.08   22.39
   0  -1 -10    7.16    9.41
   0   1  10    7.89    7.57
   2   1  10   71.92   23.28
   3   1  10   38.78   17.64
   4   1  10   15.16   12.82
   5   1  10   14.28   12.16
  -6   2  10    5.10    8.40
  -5   2  10   22.41   13.00
  -4   2  10    9.91   10.04
   3  -2 -10    2.89    4.60
  -3   2  10    3.40    3.38
  -3   2  10    1.94    5.92
   2  -2 -10   48.57   16.31
  -2   2  10   51.25   19.67
  -2   2  10   48.92   14.13
   1  -2 -10   42.51   16.83
  -1   2  10   46.83   15.12
   0  -2 -10    1.73    5.92
   0   2  10     .27    2.75
  -1  -2 -10    9.35   12.09
   1   2  10   16.06   10.54
   2   2  10   40.27   17.23
   3   2  10    3.34    6.34
   4   2  10    6.35    7.79
   5   2  10   35.34   16.92
   6   2  10    1.65    4.44
  -6   3  10    2.52    6.32
  -5   3  10   -1.21    4.56
  -4   3  10    1.65    4.05
   3  -3 -10   19.87    9.20
  -3   3  10   17.45   13.50
   2  -3 -10   12.56    7.75
  -2   3  10   10.54    6.71
  -2   3  10    9.47    9.99
   1  -3 -10   48.97   17.49
  -1   3  10   45.50   15.04
   0  -3 -10   46.91   18.87
   0   3  10   49.40   16.50
  -1  -3 -10   45.60   19.07
   1   3  10   44.90   17.03
   2   3  10   83.44   25.02
   3   3  10   83.31   25.85
   4   3  10   44.84   18.12
   5   3  10   26.13   13.82
   6   3  10    8.31    9.46
  -6   4  10    8.74    8.49
  -5   4  10   12.53   11.95
   4  -4 -10    -.22    2.52
  -4   4  10    -.21    4.06
   3  -4 -10    -.89    3.38
  -3   4  10    1.84    4.90
   2  -4 -10   12.96    9.63
  -2   4  10   11.59    6.99
  -2   4  10   14.17   12.72
   1  -4 -10    2.16    4.34
  -1   4  10    -.27    2.97
   0  -4 -10    4.15    7.89
   0   4  10    2.97    5.06
  -1  -4 -10    1.10    5.81
   1   4  10     .09    3.15
   2   4  10   31.58   14.34
   3   4  10     .24    3.51
   4   4  10   36.75   16.63
   5   4  10    4.21    7.22
   6   4  10    3.76    6.87
  -6   5  10   -2.39    4.98
  -5   5  10   36.62   16.07
   4  -5 -10   32.01   10.18
  -4   5  10   32.14   15.43
   3  -5 -10     .27    3.33
  -3   5  10    4.14    5.58
   2  -5 -10   25.35   11.92
  -2   5  10   33.54   15.66
   1  -5 -10   32.31   13.97
  -1   5  10   31.79   12.66
  -1   5  10   34.19   15.89
   0  -5 -10    8.59    8.41
   0   5  10    7.59    7.30
  -1  -5 -10   12.29   10.93
   1   5  10   11.62   10.30
   2   5  10  121.17   30.76
   3   5  10   21.54   12.98
   4   5  10   12.15   11.25
   5   5  10   75.00   24.64
   6   5  10   14.90   12.57
  -6   6  10    2.45    6.35
  -5   6  10    8.47   10.46
   4  -6 -10    4.03    5.32
  -4   6  10    2.53    6.35
   3  -6 -10     .25    3.96
  -3   6  10    1.22    4.37
   2  -6 -10   29.56   13.13
  -2   6  10   42.60   16.57
   1  -6 -10    3.20    6.87
  -1   6  10    2.98    6.43
  -1   6  10    1.85    4.24
   0  -6 -10   19.28   11.44
   0   6  10   18.38   10.13
  -1  -6 -10    1.02    6.25
   1   6  10     .15    3.96
   2   6  10    3.40    6.32
   3   6  10    1.66    4.10
   4   6  10     .99    5.52
   5   6  10    5.71    8.18
   6   6  10    1.05    4.76
  -6   7  10   20.63   13.32
   5  -7 -10    2.37    6.03
  -5   7  10    3.88    7.60
   4  -7 -10    -.38    4.66
  -4   7  10   -1.43    4.50
   3  -7 -10   29.44   12.21
  -3   7  10   31.40   14.52
   2  -7 -10   50.87   17.28
  -2   7  10   50.38   18.82
   1  -7 -10   17.96   11.20
  -1   7  10   17.54   14.15
   0  -7 -10   37.85   15.45
   0   7  10   32.51   14.32
   1   7  10  106.12   28.00
   2   7  10   33.27   15.03
   3   7  10   18.47   11.50
   4   7  10   68.49   23.11
   5   7  10    9.13   10.43
   6   7  10    6.99    8.31
   5  -8 -10    -.63    5.53
   4  -8 -10    5.47    6.95
  -4   8  10    6.37    8.94
   3  -8 -10   15.34   11.11
  -3   8  10   15.99   12.78
   2  -8 -10    -.18    4.73
  -2   8  10    1.79    4.65
  -1   8  10   30.14   14.86
   1   8  10    2.53    4.80
   2   8  10   46.00   18.42
   3   8  10     .00    3.95
   4   8  10    -.25    4.18
   5   8  10   19.11   12.41
   6   8  10    2.48    5.74
   5  -9 -10    8.22    9.30
  -5   9  10   12.72   11.49
  -4   9  10    1.07    5.75
  -3   9  10    4.20    5.91
  -2   9  10   24.08   12.28
  -1   9  10    1.18    5.26
   2   9  10   41.12   17.06
   3   9  10    3.81    5.61
   4   9  10   26.20   13.51
   5   9  10   40.41   17.81
   6   9  10    8.58    8.93
  -4  10  10     .05    5.82
  -3  10  10    -.66    5.48
  -2  10  10    1.83    3.93
  -1  10  10    2.15    4.43
   0  10  10     .31    3.72
   3  10  10     .47    3.86
   4  10  10     .81    4.88
   5  10  10    3.13    6.39
   6  10  10    -.95    4.35
  -3  11  10   23.19   12.78
  -2  11  10    6.91    8.22
  -1  11  10    2.74    4.51
   0  11  10   29.86   13.91
   4  11  10   41.22   17.53
   5  11  10    -.21    4.07
  -2  12  10     .30    6.66
  -1  12  10    7.86    8.18
   0  12  10    3.94    5.72
   1  12  10   11.45    9.03
   0  13  10    6.77    7.69
   1  13  10     .35    5.27
  -3  -4  11    2.33    5.92
  -3  -4  11    1.88    4.15
  -2  -4  11   10.32    8.45
  -2  -4  11    6.46    7.96
  -1  -4  11    3.04    5.49
  -1  -4  11    3.75    5.71
   0  -4  11    2.99    5.76
   0  -4  11    1.13    4.47
  -5  -3  11    2.19    5.64
  -4  -3  11   28.94   14.35
  -3  -3  11   26.67   10.74
  -3  -3  11   27.17   14.16
  -2  -3  11     .77    4.25
  -1  -3  11    5.88    7.59
  -1  -3  11    6.97    8.05
   0  -3  11    9.88    8.07
   1  -3  11    9.44    7.82
  -5  -2  11   16.57   10.72
  -4  -2  11    2.89    5.95
  -3  -2  11   11.19    7.10
  -3  -2  11   11.22   11.04
  -2  -2  11   21.62   11.43
  -2  -2  11   21.98   10.50
  -1  -2  11    1.16    4.05
   0  -2  11    1.60    6.19
   0  -2  11    4.61    6.62
   1  -2  11   36.27   16.52
   2  -2  11    1.00    5.01
  -5  -1  11    7.50    7.78
  -4  -1  11    1.32    1.92
  -4  -1  11     .28    5.47
  -3  -1  11   19.70    8.28
  -3  -1  11   17.36   13.37
  -2  -1  11   17.18    8.80
  -2  -1  11   20.08   12.37
  -1  -1  11    5.91    7.75
  -1  -1  11    5.88    6.77
   0  -1  11    9.43    8.62
   1  -1  11    2.98    6.78
   2  -1  11    -.13    5.41
   3  -1  11    -.51    4.51
  -5   0  11   10.79   10.73
  -4   0  11   32.84   16.06
  -3   0  11   45.03   12.01
  -3   0  11   42.76   18.72
  -2   0  11    5.35    5.16
  -2   0  11    3.17    7.02
   1   0 -11    2.85    7.80
  -1   0  11    3.93    5.30
  -1   0  11    3.88    6.63
   0   0  11   44.87   16.28
   1   0  11    -.22    3.06
   2   0  11    -.37    4.29
   3   0  11   22.55   13.13
   4   0  11    4.71    7.24
  -5   1  11    -.60    4.20
  -4   1  11   45.40   18.79
  -3   1  11   16.53    6.79
  -3   1  11   12.42   12.18
   2  -1 -11    1.83    5.98
  -2   1  11    4.99    4.55
  -2   1  11    3.56    6.99
   1  -1 -11   26.79   15.10
  -1   1  11   34.26   16.17
  -1   1  11   30.09   12.18
   0   1  11   20.23   10.59
   1   1  11    5.55    7.36
   2   1  11   16.42   12.78
   3   1  11    6.94    8.48
   4   1  11    7.46    8.60
  -5   2  11    3.56    8.19
  -4   2  11   22.58   13.57
   3  -2 -11   55.26   16.16
  -3   2  11   58.19   21.52
  -3   2  11   57.95   13.30
   2  -2 -11   74.37   21.56
  -2   2  11   73.85   18.10
  -2   2  11   65.60   23.47
   0  -2 -11   70.47   24.76
   0   2  11   72.71   20.74
   1   2  11   59.43   19.80
   2   2  11    7.23    8.33
   3   2  11   28.33   14.61
   4   2  11   16.54   13.37
   5   2  11     .64    4.77
  -5   3  11    8.74   11.07
  -4   3  11     .39    6.25
   3  -3 -11    -.02    3.92
  -3   3  11    1.28    3.88
   2  -3 -11    8.46    8.67
  -2   3  11   10.35    6.87
  -2   3  11    9.03    8.50
   1  -3 -11    5.40    6.78
  -1   3  11    3.68    7.43
  -1   3  11    3.11    4.78
   0  -3 -11     .85    5.58
   0   3  11    1.11    3.34
   1   3  11    3.60    6.28
   2   3  11    6.79    8.01
   3   3  11    4.78    7.27
   4   3  11    5.24    7.59
   5   3  11    5.24    8.07
  -5   4  11   -1.05    4.59
   4  -4 -11   36.95    8.88
  -4   4  11   43.40   18.27
   3  -4 -11   29.81   11.34
  -3   4  11   25.27   14.63
   2  -4 -11    -.26    4.13
  -2   4  11    -.88    3.19
  -2   4  11    -.38    2.50
   1  -4 -11   40.75   16.60
  -1   4  11   41.19   18.58
  -1   4  11   40.91   14.16
   0  -4 -11   82.75   26.20
   0   4  11   96.00   24.37
   1   4  11    8.03    7.67
   2   4  11   38.67   16.12
   3   4  11   53.36   20.13
   4   4  11    8.79    8.73
   5   4  11    7.08    7.91
  -5   5  11    2.47    5.59
   4  -5 -11   11.84    6.30
  -4   5  11    9.68    7.61
   3  -5 -11    9.10    7.13
  -3   5  11    6.66    8.90
   2  -5 -11     .29    4.55
  -2   5  11     .29    5.15
   1  -5 -11     .80    6.41
  -1   5  11    3.23    4.24
  -1   5  11    3.23    6.08
   0  -5 -11    1.63    6.12
   0   5  11     .14    2.66
   1   5  11    -.30    2.42
   2   5  11    4.38    6.33
   3   5  11     .54    4.34
   4   5  11    -.67    3.77
   5   5  11     .61    4.69
  -5   6  11    2.76    7.70
   4  -6 -11   24.14    9.62
  -4   6  11   20.05   12.84
   3  -6 -11   10.43    8.61
   2  -6 -11   26.43   12.87
  -2   6  11   31.77   14.98
   1  -6 -11   82.23   23.83
  -1   6  11   87.92   26.86
  -1   6  11   93.84   22.92
   0   6  11   31.50   13.41
   1   6  11   16.69   10.30
   2   6  11   44.67   17.53
   3   6  11   57.17   21.29
   4   6  11   11.02   10.74
   5   6  11   17.49   11.51
   6   6  11     .75    6.00
  -5   7  11    4.79    9.37
   4  -7 -11    1.81    6.39
  -4   7  11     .16    5.17
   3  -7 -11    8.41    7.72
  -3   7  11    6.66    8.32
   2  -7 -11    7.10    7.02
  -2   7  11    8.04    8.75
   1  -7 -11    1.21    5.50
  -1   7  11    -.07    3.33
   0   7  11   32.01   13.07
   1   7  11     .19    3.90
   2   7  11    1.77    4.20
   3   7  11   38.40   16.93
   4   7  11     .30    3.97
   5   7  11    2.43    6.03
  -5   8  11   -1.66    6.06
  -4   8  11    6.01    8.34
   3  -8 -11   13.13    9.74
  -3   8  11   11.36   10.72
  -2   8  11    3.79    6.52
  -1   8  11   44.98   18.47
   1   8  11   12.65   10.99
   2   8  11   63.78   21.31
   3   8  11   56.77   20.77
   4   8  11   17.12   11.14
   5   8  11   12.47   10.54
  -4   9  11    3.60    6.48
  -3   9  11    1.28    5.64
  -2   9  11    -.10    6.08
  -1   9  11    9.21    9.88
   2   9  11   31.64   14.40
   3   9  11    7.56    8.55
   4   9  11     .89    5.20
   5   9  11   11.48   10.50
  -3  10  11    1.84    5.95
  -2  10  11   12.27   10.62
  -1  10  11   28.68   13.66
   0  10  11    5.68    6.84
   3  10  11    5.10    6.97
   4  10  11    5.29    7.42
   5  10  11   33.74   18.80
  -2  11  11   -2.03    5.55
  -1  11  11    3.72    6.60
   0  11  11   13.48   10.90
   4  11  11    -.50    4.62
  -1  12  11    6.48    8.10
   0  12  11   12.46    9.53
   1  12  11    4.58    8.36
  -4  -2  12    -.26    4.52
  -3  -2  12    5.83    8.09
  -3  -2  12    3.54    4.89
  -2  -2  12   20.40    9.96
  -2  -2  12   21.14   13.22
  -1  -2  12    1.47    5.61
  -1  -2  12    3.58    4.85
   0  -2  12   -2.15    5.36
   0  -2  12    1.30    5.56
   1  -2  12   10.85   10.16
  -4  -1  12    1.16    5.45
  -3  -1  12    7.23    5.46
  -3  -1  12    8.34    9.45
  -2  -1  12    6.50    7.52
  -2  -1  12    6.26    6.01
  -1  -1  12     .83    3.97
  -1  -1  12     .29    4.16
   0  -1  12    2.47    5.35
   0  -1  12    1.24    5.40
   1  -1  12   20.75   13.27
   2  -1  12    -.60    5.03
  -4   0  12    -.97    3.90
  -3   0  12   22.00   14.23
  -3   0  12   16.83    7.91
  -2   0  12   13.24   11.32
  -2   0  12   16.29    8.14
  -1   0  12    2.51    5.04
  -1   0  12     .60    5.34
   0   0  12    5.28    6.79
   1   0  12   12.81   10.47
   2   0  12    1.38    3.99
   3   0  12    2.00    6.51
  -4   1  12   47.33   20.39
  -3   1  12   34.27   10.10
  -3   1  12   35.78   16.21
  -2   1  12   23.58   14.93
  -2   1  12   26.73   10.36
  -1   1  12    6.83    6.78
  -1   1  12    8.85   10.47
   0   1  12     .26    4.26
   1   1  12    3.56    4.22
   2   1  12     .88    4.25
   3   1  12    1.17    5.70
  -4   2  12    -.02    4.86
  -3   2  12   27.18   13.65
  -3   2  12   24.24    8.53
   2  -2 -12    2.28    6.18
  -2   2  12    1.31    5.08
  -2   2  12     .33    3.41
   1  -2 -12    5.40    9.18
  -1   2  12    2.41    4.98
  -1   2  12    3.89    6.97
   0   2  12    7.00    7.07
   1   2  12    4.97    7.06
   2   2  12    1.16    4.82
   3   2  12    6.75    7.46
   4   2  12    2.76    5.35
  -4   3  12    8.39    9.06
   3  -3 -12   64.39   16.97
  -3   3  12   58.42   22.14
   2  -3 -12   45.43   17.28
  -2   3  12   50.37   19.75
  -2   3  12   44.88   13.78
   0   3  12   44.20   15.65
   1   3  12   66.53   20.99
   2   3  12     .91    4.54
   3   3  12    5.42    8.07
   4   3  12   39.90   17.60
  -4   4  12    -.71    5.10
   3  -4 -12   10.35    7.53
  -3   4  12    9.20   10.02
   2  -4 -12   -1.89    5.38
  -2   4  12     .13    3.41
   1  -4 -12    2.93    7.33
  -1   4  12    2.13    6.37
  -1   4  12    2.29    4.61
   0   4  12    4.21    5.73
   1   4  12    1.15    2.85
   2   4  12    6.79    7.72
   3   4  12     .36    3.83
   4   4  12    4.57    7.82
  -4   5  12   50.18   20.68
   3  -5 -12   45.37   14.64
  -3   5  12   50.81   20.56
   2  -5 -12    3.41    6.32
  -2   5  12    1.90    5.37
   1  -5 -12   10.11   10.34
  -1   5  12    9.01    7.69
  -1   5  12    6.81    8.61
   0   5  12   51.04   16.64
   1   5  12    -.35    2.26
   2   5  12    4.42    6.45
   3   5  12   42.68   17.92
   4   5  12    6.90    8.45
  -4   6  12    1.69    5.41
   3  -6 -12    -.98    5.46
  -3   6  12    -.96    4.51
   2  -6 -12   14.62   11.57
  -2   6  12   20.01   10.53
   1  -6 -12   22.51   23.25
  -1   6  12   17.85    9.73
  -1   6  12   15.42   13.42
   0   6  12    -.36    3.98
   1   6  12   18.73   11.11
   2   6  12    2.58    5.58
   3   6  12     .42    5.50
   4   6  12    9.92    9.72
   5   6  12   -1.86    3.97
  -4   7  12    4.10    7.18
   3  -7 -12   33.93   15.81
  -3   7  12   35.04   16.33
   2  -7 -12   31.16   14.61
  -2   7  12   27.60   14.98
  -1   7  12   33.70   15.78
   0   7  12   62.89   19.69
   1   7  12   32.45   14.17
   2   7  12    9.12    8.98
   3   7  12   37.33   16.28
   4   7  12   23.53   13.68
   5   7  12   -1.38    4.52
  -4   8  12   -2.10    6.30
  -3   8  12    1.48    5.09
  -2   8  12    -.67    5.12
  -1   8  12    5.94    7.73
   0   8  12    3.07    5.04
   1   8  12   11.02    9.61
   2   8  12   19.08   11.95
   3   8  12   20.38   13.01
   4   8  12     .23    4.92
  -3   9  12   20.53   13.15
  -2   9  12   -1.42    3.96
  -1   9  12    8.27    8.62
   0   9  12    5.55    7.23
   1   9  12     .03    3.79
   2   9  12   33.88   15.01
   3   9  12   75.44   23.91
   4   9  12    1.97    6.31
  -2  10  12    1.37    5.67
  -1  10  12     .02    5.07
   0  10  12     .97    6.71
   2  10  12    5.63    8.18
   3  10  12    3.83    7.78
   4  10  12    2.59    7.59
  -1  11  12   14.59   11.87
   0  11  12    3.42    6.21
   1  12  12    7.54    8.73
  -2   0  13   10.73    6.63
  -2   0  13   12.83   11.43
  -1   0  13    5.29    8.56
  -1   0  13    6.53    7.17
   1   0  13    3.74    6.08
  -2   1  13   -1.02    3.25
  -2   1  13    -.61    5.50
  -1   1  13   10.45    8.16
  -1   1  13    7.78   10.74
   0   1  13    -.10    5.38
   0   1  13   -1.22    3.84
   1   1  13   14.43   10.95
   2   1  13    -.80    5.07
  -3   2  13     .13    5.62
  -3   2  13     .81    3.12
  -2   2  13   15.19   12.90
  -2   2  13   18.86    9.05
  -1   2  13   30.57   16.99
  -1   2  13   37.60   13.24
   0   2  13    1.46    4.69
   1   2  13   14.76   11.14
   2   2  13   17.92    9.52
   3   2  13    1.22    7.93
  -3   3  13    3.24    5.21
   2  -3 -13    -.74   12.01
  -2   3  13    -.02    4.76
  -2   3  13    2.08    3.55
  -1   3  13    5.06    5.92
  -1   3  13     .74    5.92
   0   3  13     .63    3.05
   1   3  13    6.24    7.37
   2   3  13    1.20    4.35
   3   3  13   -1.98    3.88
  -3   4  13    6.09    7.27
   2  -4 -13    7.71   10.67
  -2   4  13    9.46    6.96
  -2   4  13    9.39    9.20
  -1   4  13     .53    6.09
  -1   4  13    4.67    5.44
   0   4  13   11.93    9.36
   1   4  13   29.27   13.99
   2   4  13    3.37    6.87
   3   4  13   -1.48    3.72
  -3   5  13    6.32    8.34
   2  -5 -13    1.66    8.26
  -2   5  13    1.55    4.33
  -1   5  13   13.21    8.56
  -1   5  13   15.82   12.11
   0   5  13    6.55    6.29
   1   5  13    3.78    7.00
   2   5  13    4.08    6.04
   3   5  13    4.50    5.84
  -3   6  13    8.12   10.42
   2  -6 -13   20.20   15.50
  -2   6  13   25.64   14.81
  -1   6  13   17.07   14.10
  -1   6  13   16.94    9.17
   0   6  13    4.69    6.27
   1   6  13   15.05    8.76
   2   6  13    5.53    6.92
   3   6  13     .27    4.07
  -2   7  13    2.20    6.57
  -1   7  13    1.25    5.74
   0   7  13     .74    4.80
   1   7  13    5.56    6.38
   2   7  13    1.59    4.81
   3   7  13    4.13    7.45
   4   7  13   11.89   15.60
  -2   8  13   20.83   11.66
  -1   8  13    1.87    6.54
   0   8  13   38.33   15.56
   1   8  13   42.37   15.93
   2   8  13    5.72    6.62
   3   8  13   -1.95    5.03
  -1   9  13   18.25   14.29
   0   9  13     .29    4.77
   2   9  13    -.82    4.16
   3   9  13    2.65    6.29
  -1  10  13   13.03   11.63
   0  10  13   25.49   13.81
   2  10  13    2.09    5.69
  -1   2  14    2.68    4.80
  -2   3  14    8.40    6.49
  -1   3  14   23.94   10.90
   1   3  14   10.79    9.10
  -2   4  14    2.96    4.36
   0   4  14    8.37    7.94
   1   4  14    2.51    5.22
   2   4  14   -1.58    4.84
  -1   5  14    7.70    7.50
   0   5  14    6.95    7.25
   1   5  14    2.59    5.89
   2   5  14    8.09    9.01
  -1   6  14    6.99    6.20
   0   6  14    -.50    4.40
   1   6  14    -.19    4.91
   2   6  14     .17    4.57
   0   7  14    5.30    7.44
   1   7  14   18.83   13.07
   2   7  14    7.74    8.25
   0   8  14    4.59    6.43
   1   8  14    -.74    4.39
   2   8  14    3.12    6.44
   0   0   0     .00     .00
   0   0   0     .00     .00
   0   0   0     .00     .00
;
_shelx_hkl_checksum              73121
_olex2_submission_special_instructions 'No special instructions were received'
loop_
_space_group_symop_operation_xyz
'x, y, z'
'-x, -y, -z'
loop_
_atom_site_label
_atom_site_type_symbol
_atom_site_fract_x
_atom_site_fract_y
_atom_site_fract_z
_atom_site_U_iso_or_equiv
_atom_site_adp_type
_atom_site_occupancy
_atom_site_site_symmetry_order
_atom_site_calc_flag
_atom_site_refinement_flags_posn
_atom_site_refinement_flags_adp
_atom_site_refinement_flags_occupancy
_atom_site_disorder_assembly
_atom_site_disorder_group
Cu1 Cu 0.00226(19) 0.76723(16) 0.76385(15) 0.0155(4) Uani 1 1 d . . . . .
I2 I -0.3215(3) 0.1930(3) 0.5102(3) 0.0640(9) Uani 0.5 1 d . . P . .
I1 I -0.2999(4) 0.5159(3) 0.8493(3) 0.0702(9) Uani 0.5 1 d . . P . .
O8 O 0.2994(11) 0.2685(9) 0.3957(9) 0.021(2) Uani 1 1 d . . . . .
H8 H 0.322270 0.247142 0.328305 0.031 Uiso 0.5 1 d R . P . .
O7 O 0.0499(11) 0.1903(9) 0.4293(9) 0.021(2) Uani 1 1 d . . . . .
O5 O -0.0590(10) -0.0257(9) 0.7255(9) 0.0184(19) Uani 1 1 d . . . . .
O6 O 0.2320(11) -0.0843(9) 0.6943(9) 0.023(2) Uani 1 1 d . . . . .
H6 H 0.262864 -0.065507 0.617169 0.035 Uiso 0.5 1 d R . P . .
O1 O 0.0662(11) 0.5635(9) 0.8099(9) 0.021(2) Uani 1 1 d . . . . .
O4 O -0.0512(11) 0.2675(10) 1.0403(9) 0.022(2) Uani 1 1 d . . . . .
O2 O 0.3188(11) 0.5593(9) 0.7012(9) 0.025(2) Uani 1 1 d . . . . .
H2 H 0.389841 0.537792 0.785337 0.037 Uiso 0.5 1 d R . P . .
O3 O 0.2327(12) 0.2805(10) 1.0559(9) 0.025(2) Uani 1 1 d . . . . .
H3 H 0.326673 0.219592 1.054929 0.038 Uiso 0.5 1 d R . P . .
O12 O -0.3653(12) 0.3541(11) 0.6840(12) 0.041(3) Uani 1 1 d . . . . .
H12A H -0.443747 0.433020 0.675740 0.062 Uiso 1 1 d R . . . .
H12B H -0.290437 0.329510 0.636610 0.062 Uiso 1 1 d R . . . .
O9 O 0.5549(12) -0.0213(12) 0.6867(12) 0.050(3) Uani 1 1 d . . . . .
H9A H 0.490776 0.052095 0.628750 0.075 Uiso 1 1 d R . . . .
H9B H 0.571226 -0.000975 0.757190 0.075 Uiso 1 1 d R . . . .
C10 C 0.1803(17) 0.2335(13) 0.4646(13) 0.021(3) Uani 1 1 d . . . . .
C4 C 0.0863(16) 0.1563(13) 0.8339(13) 0.018(3) Uani 1 1 d . . . . .
H4 H 0.043666 0.088551 0.906850 0.022 Uiso 1 1 calc R . . . .
C1 C 0.1930(18) 0.5078(14) 0.7527(14) 0.025(3) Uani 1 1 d . . . . .
C9 C 0.0927(17) 0.0023(12) 0.7095(12) 0.020(3) Uani 1 1 d D . . . .
C3 C 0.1192(16) 0.2682(13) 0.8518(12) 0.018(3) Uani 1 1 d . . . . .
C6 C 0.1686(15) 0.2413(13) 0.6031(13) 0.019(3) Uani 1 1 d . . . . .
C5 C 0.1126(14) 0.1376(11) 0.7133(12) 0.015(3) Uani 1 1 d D . . . .
C8 C 0.1001(19) 0.2743(13) 0.9901(13) 0.024(3) Uani 1 1 d . . . . .
C7 C 0.1975(15) 0.3574(14) 0.6204(13) 0.018(3) Uani 1 1 d . . . . .
H7 H 0.233734 0.428224 0.546195 0.022 Uiso 1 1 calc R . . . .
O11 O 0.5590(15) 0.3194(16) 1.0278(15) 0.088(6) Uani 1 1 d . . . . .
H11A H 0.676098 0.285632 1.047067 0.132 Uiso 1 1 d R . . . .
H11B H 0.482778 0.385582 0.974518 0.132 Uiso 1 1 d R . . . .
H11C H 0.526018 0.299822 1.109977 0.132 Uiso 1 1 d R . . . .
C2 C 0.1746(15) 0.3727(13) 0.7442(14) 0.020(3) Uani 1 1 d . . . . .
O10 O 0.609(2) 0.078(2) 0.8843(19) 0.028(4) Uani 0.5 1 d . . P . .
H10A H 0.602346 -0.008725 0.906646 0.042 Uiso 0.5 1 d R . P . .
H10B H 0.588126 0.117335 0.950536 0.042 Uiso 0.5 1 d R . P . .
loop_
_atom_site_aniso_label
_atom_site_aniso_U_11
_atom_site_aniso_U_22
_atom_site_aniso_U_33
_atom_site_aniso_U_23
_atom_site_aniso_U_13
_atom_site_aniso_U_12
Cu1 0.0220(8) 0.0140(8) 0.0121(8) -0.0055(6) 0.0033(6) -0.0073(6)
I2 0.0645(16) 0.0619(19) 0.0626(18) -0.0223(14) 0.0111(14) -0.0162(13)
I1 0.0776(19) 0.067(2) 0.068(2) -0.0244(15) 0.0117(15) -0.0273(15)
O8 0.020(4) 0.025(5) 0.024(5) -0.014(4) 0.010(4) -0.011(4)
O7 0.034(5) 0.023(5) 0.012(5) -0.008(4) -0.001(4) -0.015(4)
O5 0.023(4) 0.018(5) 0.021(5) -0.013(4) 0.009(4) -0.008(4)
O6 0.021(4) 0.022(5) 0.027(5) -0.008(4) 0.000(4) -0.009(4)
O1 0.032(5) 0.021(5) 0.017(5) -0.013(4) 0.013(4) -0.011(4)
O4 0.024(5) 0.031(6) 0.018(5) -0.015(4) 0.008(4) -0.011(4)
O2 0.029(5) 0.024(5) 0.029(5) -0.013(4) 0.010(4) -0.015(4)
O3 0.036(5) 0.020(5) 0.019(5) -0.007(4) 0.005(4) -0.006(4)
O12 0.036(6) 0.039(7) 0.065(8) -0.039(6) 0.008(5) -0.007(5)
O9 0.029(5) 0.039(7) 0.060(8) 0.006(6) 0.001(5) -0.014(5)
C10 0.030(7) 0.013(7) 0.017(7) -0.006(5) -0.007(6) 0.000(5)
C4 0.023(6) 0.016(7) 0.015(6) -0.005(5) 0.003(5) -0.008(5)
C1 0.038(8) 0.016(7) 0.016(7) -0.002(6) -0.010(6) -0.007(6)
C9 0.029(7) 0.024(7) 0.008(6) -0.005(5) 0.003(5) -0.009(5)
C3 0.023(6) 0.020(7) 0.009(6) -0.002(5) 0.003(5) -0.009(5)
C6 0.021(6) 0.017(7) 0.024(7) -0.013(6) 0.006(6) -0.006(5)
C5 0.009(5) 0.014(7) 0.016(6) -0.003(5) -0.002(5) 0.002(4)
C8 0.047(8) 0.010(7) 0.013(7) -0.002(5) -0.002(6) -0.008(6)
C7 0.014(6) 0.021(7) 0.020(7) -0.011(6) -0.001(5) -0.003(5)
O11 0.035(7) 0.087(11) 0.090(12) 0.029(9) -0.018(7) -0.029(7)
C2 0.017(6) 0.014(7) 0.027(7) -0.010(6) -0.010(5) 0.003(5)
O10 0.022(9) 0.029(11) 0.025(11) -0.006(9) -0.008(8) 0.000(8)
loop_
_atom_type_symbol
_atom_type_description
_atom_type_scat_dispersion_real
_atom_type_scat_dispersion_imag
_atom_type_scat_source
C C 0.0033 0.0016 'International Tables Vol C Tables 4.2.6.8 and 6.1.1.4'
H H 0.0000 0.0000 'International Tables Vol C Tables 4.2.6.8 and 6.1.1.4'
Cu Cu 0.3201 1.2651 'International Tables Vol C Tables 4.2.6.8 and 6.1.1.4'
I I -0.4742 1.8119 'International Tables Vol C Tables 4.2.6.8 and 6.1.1.4'
O O 0.0106 0.0060 'International Tables Vol C Tables 4.2.6.8 and 6.1.1.4'
loop_
_geom_angle_atom_site_label_1
_geom_angle_atom_site_label_2
_geom_angle_atom_site_label_3
_geom_angle
_geom_angle_site_symmetry_1
_geom_angle_site_symmetry_3
_geom_angle_publ_flag
O7 Cu1 O5 91.2(4) 2_566 1_565 ?
O7 Cu1 O1 91.5(4) 2_566 . ?
O7 Cu1 O4 177.6(4) 2_566 2_567 ?
O1 Cu1 O5 177.3(4) . 1_565 ?
O1 Cu1 O4 90.9(4) . 2_567 ?
O4 Cu1 O5 86.5(4) 2_567 1_565 ?
C10 O8 H8 121.1 . . ?
C10 O7 Cu1 118.2(8) . 2_566 ?
C9 O5 Cu1 103.4(7) . 1_545 ?
C9 O6 H6 117.4 . . ?
C1 O1 Cu1 120.0(8) . . ?
C8 O4 Cu1 105.0(8) . 2_567 ?
C1 O2 H2 98.3 . . ?
C8 O3 H3 109.6 . . ?
H12A O12 H12B 135.8 . . ?
H9A O9 H9B 105.0 . . ?
O8 C10 O7 126.0(12) . . ?
O8 C10 C6 120.5(11) . . ?
O7 C10 C6 113.5(11) . . ?
C3 C4 H4 119.1 . . ?
C3 C4 C5 121.9(10) . . ?
C5 C4 H4 119.1 . . ?
O1 C1 C2 114.0(11) . . ?
O2 C1 O1 125.6(13) . . ?
O2 C1 C2 120.3(12) . . ?
O5 C9 O6 121.7(10) . . ?
O5 C9 C5 119.7(10) . . ?
O6 C9 C5 118.5(10) . . ?
C4 C3 C8 118.3(10) . . ?
C4 C3 C2 120.3(11) . . ?
C2 C3 C8 121.4(11) . . ?
C5 C6 C10 120.8(10) . . ?
C7 C6 C10 119.9(11) . . ?
C7 C6 C5 119.0(11) . . ?
C4 C5 C9 117.6(10) . . ?
C4 C5 C6 119.0(10) . . ?
C6 C5 C9 123.3(10) . . ?
O4 C8 C3 117.8(11) . . ?
O3 C8 O4 121.9(12) . . ?
O3 C8 C3 120.2(12) . . ?
C6 C7 H7 119.4 . . ?
C6 C7 C2 121.2(11) . . ?
C2 C7 H7 119.4 . . ?
H11A O11 H11B 141.8 . . ?
H11A O11 H11C 100.3 . . ?
H11B O11 H11C 108.7 . . ?
C3 C2 C1 122.6(12) . . ?
C7 C2 C1 118.6(11) . . ?
C7 C2 C3 118.6(11) . . ?
H10A O10 H10B 118.2 . . ?
loop_
_geom_bond_atom_site_label_1
_geom_bond_atom_site_label_2
_geom_bond_distance
_geom_bond_site_symmetry_2
_geom_bond_publ_flag
Cu1 O7 1.934(9) 2_566 ?
Cu1 O5 1.993(8) 1_565 ?
Cu1 O1 1.943(9) . ?
Cu1 O4 1.979(9) 2_567 ?
O8 H8 0.8344 . ?
O8 C10 1.208(15) . ?
O7 C10 1.308(15) . ?
O5 C9 1.266(13) . ?
O6 H6 0.8116 . ?
O6 C9 1.275(14) . ?
O1 C1 1.282(16) . ?
O4 C8 1.281(15) . ?
O2 H2 0.9616 . ?
O2 C1 1.247(15) . ?
O3 H3 0.8400 . ?
O3 C8 1.263(16) . ?
O12 H12A 0.8699 . ?
O12 H12B 0.8200 . ?
O9 H9A 0.8123 . ?
O9 H9B 0.8700 . ?
C10 C6 1.501(17) . ?
C4 H4 0.9500 . ?
C4 C3 1.351(18) . ?
C4 C5 1.373(17) . ?
C1 C2 1.507(18) . ?
C9 C5 1.491(9) . ?
C3 C8 1.495(17) . ?
C3 C2 1.399(16) . ?
C6 C5 1.410(15) . ?
C6 C7 1.378(17) . ?
C7 H7 0.9500 . ?
C7 C2 1.386(18) . ?
O11 H11A 0.8701 . ?
O11 H11B 0.7995 . ?
O11 H11C 0.8651 . ?
O10 H10A 0.8703 . ?
O10 H10B 0.9388 . ?
loop_
_geom_hbond_atom_site_label_D
_geom_hbond_atom_site_label_H
_geom_hbond_atom_site_label_A
_geom_hbond_distance_DH
_geom_hbond_distance_HA
_geom_hbond_distance_DA
_geom_hbond_angle_DHA
_geom_hbond_site_symmetry_A
_geom_hbond_publ_flag
O8 H8 O9 0.83 2.40 3.023(15) 131.7 2_656 yes
O6 H6 O7 0.81 2.75 3.148(12) 112.3 . yes
O3 H3 O9 0.84 2.70 3.093(14) 110.0 2_657 yes
O12 H12A O2 0.87 2.05 2.874(13) 156.8 1_455 yes
O9 H9B O10 0.87 1.90 2.75(2) 168.8 . yes
O11 H11A O4 0.87 2.05 2.892(13) 161.4 1_655 yes
O11 H11C O6 0.87 2.67 3.122(15) 113.4 2_657 yes
O10 H10A O10 0.87 2.72 3.13(4) 110.1 2_657 yes
