#------------------------------------------------------------------------------
#$Date: 2022-03-08 01:52:40 +0200 (Tue, 08 Mar 2022) $
#$Revision: 273516 $
#$URL: file:///home/coder/svn-repositories/cod/cif/7/70/96/7709683.cif $
#------------------------------------------------------------------------------
#
# This file is available in the Crystallography Open Database (COD),
# http://www.crystallography.net/
#
# All data on this site have been placed in the public domain by the
# contributors.
#
data_7709683
loop_
_publ_author_name
'Pyrch, Mikaela M.'
'Augustine, Logan J.'
'Williams, James M.'
'Mason, Sara E.'
'Forbes, Tori Z.'
_publ_section_title
;
 Use of vibrational spectroscopy to identify the formation of
 neptunyl--neptunyl interactions: a paired density functional theory and
 Raman spectroscopy study
;
_journal_name_full               'Dalton Transactions'
_journal_paper_doi               10.1039/D2DT00200K
_journal_year                    2022
_chemical_formula_sum            'N6 Na Np3 O25'
_chemical_formula_weight         1218.05
_space_group_crystal_system      hexagonal
_space_group_IT_number           191
_space_group_name_Hall           '-P 6 2'
_space_group_name_H-M_alt        'P 6/m m m'
_audit_creation_method           SHELXL-2017/1
_cell_angle_alpha                90
_cell_angle_beta                 90
_cell_angle_gamma                120
_cell_formula_units_Z            1
_cell_length_a                   8.1842(5)
_cell_length_b                   8.1842(5)
_cell_length_c                   11.2773(8)
_cell_measurement_reflns_used    9970
_cell_measurement_temperature    100(2)
_cell_measurement_theta_max      50.895
_cell_measurement_theta_min      5.751
_cell_volume                     654.17(7)
_computing_structure_refinement  'SHELXL-2017/1 (Sheldrick, 2017)'
_computing_structure_solution    'SHELXT 2014/5 (Sheldrick, 2014)'
_diffrn_ambient_temperature      100(2)
_diffrn_measured_fraction_theta_full 0.986
_diffrn_measured_fraction_theta_max 0.989
_diffrn_measurement_device_type  'Bruker D8 Quest'
_diffrn_measurement_method       'Phi and omega scan'
_diffrn_radiation_type           MoK\a
_diffrn_radiation_wavelength     0.71073
_diffrn_reflns_av_R_equivalents  0.0319
_diffrn_reflns_av_unetI/netI     0.0076
_diffrn_reflns_Laue_measured_fraction_full 0.986
_diffrn_reflns_Laue_measured_fraction_max 0.989
_diffrn_reflns_limit_h_max       10
_diffrn_reflns_limit_h_min       -10
_diffrn_reflns_limit_k_max       10
_diffrn_reflns_limit_k_min       -10
_diffrn_reflns_limit_l_max       14
_diffrn_reflns_limit_l_min       -14
_diffrn_reflns_number            20562
_diffrn_reflns_point_group_measured_fraction_full 0.986
_diffrn_reflns_point_group_measured_fraction_max 0.989
_diffrn_reflns_theta_full        25.242
_diffrn_reflns_theta_max         27.157
_diffrn_reflns_theta_min         2.874
_diffrn_source                   'sealed tube'
_exptl_absorpt_coefficient_mu    11.946
_exptl_absorpt_correction_type   multi-scan
_exptl_absorpt_process_details   SADABS
_exptl_crystal_colour            green
_exptl_crystal_density_diffrn    3.092
_exptl_crystal_description       plate
_exptl_crystal_F_000             532
_exptl_crystal_size_max          0.45
_exptl_crystal_size_mid          0.3
_exptl_crystal_size_min          0.3
_exptl_transmission_factor_max   0.7455
_exptl_transmission_factor_min   0.5905
_refine_diff_density_max         0.647
_refine_diff_density_min         -1.449
_refine_diff_density_rms         0.132
_refine_ls_extinction_method     none
_refine_ls_goodness_of_fit_ref   1.198
_refine_ls_hydrogen_treatment    undef
_refine_ls_matrix_type           full
_refine_ls_number_parameters     32
_refine_ls_number_reflns         345
_refine_ls_number_restraints     0
_refine_ls_restrained_S_all      1.198
_refine_ls_R_factor_all          0.0132
_refine_ls_R_factor_gt           0.0132
_refine_ls_shift/su_max          0.000
_refine_ls_shift/su_mean         0.000
_refine_ls_structure_factor_coef Fsqd
_refine_ls_weighting_details
'w=1/[\s^2^(Fo^2^)+(0.0248P)^2^+0.4967P] where P=(Fo^2^+2Fc^2^)/3'
_refine_ls_weighting_scheme      calc
_refine_ls_wR_factor_gt          0.0361
_refine_ls_wR_factor_ref         0.0361
_reflns_Friedel_coverage         0.000
_reflns_number_gt                345
_reflns_number_total             345
_reflns_threshold_expression     'I > 2\s(I)'
_cod_data_source_file            d2dt00200k1.cif
_cod_data_source_block           p6onm_b_pl_sq
_cod_original_cell_volume        654.17(9)
_cod_database_code               7709683
_shelx_shelxl_version_number     2017/1
_shelx_space_group_comment
;
The symmetry employed for this shelxl refinement is uniquely defined
by the following loop, which should always be used as a source of
symmetry information in preference to the above space-group names.
They are only intended as comments.
;
_shelx_res_file
;
TITL p6onm_b.res in P6/m              New: P6/mmm
    p6onm_b_pl_sq.res
    created by SHELXL-2017/1 at 13:49:01 on 18-Jan-2022
CELL  0.71073    8.1842    8.1842   11.2773    90.000    90.000   120.000
ZERR        1    0.0005    0.0005    0.0008     0.000     0.000     0.000
LATT   1
SYMM           X - Y ,              X ,              Z
SYMM             - Y ,          X - Y ,              Z
SYMM             - X ,            - Y ,              Z
SYMM         - X + Y ,            - X ,              Z
SYMM               Y ,        - X + Y ,              Z
SYMM             - Y ,            - X ,            - Z
SYMM           X - Y ,            - Y ,            - Z
SYMM               X ,          X - Y ,            - Z
SYMM               Y ,              X ,            - Z
SYMM         - X + Y ,              Y ,            - Z
SYMM             - X ,        - X + Y ,            - Z
SFAC  N Na Np  O
UNIT 6 1.00008 3 25.0001
LIST 4
TEMP  -173
L.S. 10
FMAP 2
PLAN -20
ACTA
BOND $H
CONF
ABIN
WGHT    0.024800    0.496700
FVAR       0.37853
NP1   3    0.500000    0.500000    0.500000    10.12500    0.00803    0.00803 =
         0.03243    0.00000    0.00000    0.00457
NA1   2    0.000000    0.000000    0.500000    10.04167    0.01680    0.01680 =
         0.09375    0.00000    0.00000    0.00840
O1    4    0.420076    0.175211    0.500000    10.25000    0.01453    0.01669 =
         0.04700    0.00000    0.00000    0.00599
O2    4    0.500000    0.500000    0.128671    10.25000    0.10546    0.10546 =
         0.02845    0.00000    0.00000    0.01351
O3    4    0.349211    0.439900    0.295325    10.50000    0.02856    0.04417 =
         0.03841    0.00354   -0.00387    0.01392
O4    4    0.000000    0.000000    0.323960    10.04167    0.17508    0.17508 =
         0.04505    0.00000    0.00000    0.08754
N1    1    0.500000    0.500000    0.238078    10.25000    0.04522    0.04522 =
         0.03976    0.00000    0.00000    0.01020
HKLF 4 1 -1.0000 0.0000  0.0000  0.0000 -1.0000  0.0000  0.0000  0.0000  1.0000




REM  p6onm_b.res in P6/m              New: P6/mmm
REM R1 =  0.0132 for     345 Fo > 4sig(Fo)  and  0.0132 for all     345 data
REM     32 parameters refined using      0 restraints

END

WGHT      0.0248      0.4967

REM Highest difference peak  0.647,  deepest hole -1.449,  1-sigma level  0.132
Q1    1   0.0000  0.0000  0.3846  10.08333  0.05    0.65
Q2    1   0.0761  0.1523  0.5000  10.25000  0.05    0.47
Q3    1   0.0293  0.0400  0.0000  10.10000  0.05    0.42
Q4    1   0.0000  0.0000  0.2135  10.08333  0.05    0.40
Q5    1   0.0000  0.0000  0.0541  10.08333  0.05    0.37
Q6    1   0.5000  0.5000  0.3395  10.25000  0.05    0.33
Q7    1   0.4475  0.5525  0.0000  10.25000  0.05    0.28
Q8    1   0.5000  0.5000  0.0000  10.12500  0.05    0.28
Q9    1   0.0000  0.0000  0.1379  10.08333  0.05    0.26
Q10   1   0.0835  0.1671  0.3893  10.50000  0.05    0.23
Q11   1   0.6117  0.6117  0.0000  10.25000  0.05    0.21
Q12   1   0.4277  0.3784  0.3634  11.00000  0.05    0.20
Q13   1   0.5034  0.3674  0.0855  11.00000  0.05    0.20
Q14   1   0.2777  0.3447  0.5000  10.50000  0.05    0.20
Q15   1  -0.1974  0.0000  0.2762  10.50000  0.05    0.18
Q16   1   0.3717  0.3717  0.0761  10.50000  0.05    0.18
Q17   1   0.5000  0.5000  0.4250  10.25000  0.05    0.18
Q18   1   0.4513  0.5487  0.0795  10.50000  0.05    0.17
Q19   1   0.2894  0.2894  0.5000  10.25000  0.05    0.16
Q20   1   0.4124  0.5876  0.0683  10.50000  0.05    0.16
;
_shelx_res_checksum              48011
_shelx_hkl_file
;
  -1   1   0  808.62   28.90
   0  -1   0  815.72   28.70
   0  -1   0  808.62   28.90
   1   0   0  838.72   28.90
   1   0   0  818.62   28.80
   1   0   0  826.82   28.60
   0  -1   0  856.81   28.80
   0  -1   0  846.52   28.80
   0  -1   0  824.12   28.70
  -1   1   0  820.22   28.90
  -1   1   0  804.12   28.70
   1  -1   0  828.02   28.70
   0   1   0  812.92   28.70
   0   1   0  800.22   28.80
  -1   0   0  807.02   28.90
  -1   0   0  774.12   28.80
  -1   0   0  811.22   28.60
   0   1   0  819.22   28.70
   1  -1   0  839.32   28.90
   1  -1   0  684.93   28.50
   1  -1   0  805.32   28.90
   1  -1   0  842.02   28.80
   0   1   0  787.42   28.90
   1  -2   0 1217.48   42.50
   1  -2   0 1126.29   42.50
   1  -2   0 1233.18   42.20
   1  -2   0 1163.88   42.10
  -2   1   0 1201.58   42.30
  -2   1   0 1149.58   42.50
  -2   1   0 1203.68   42.30
  -2   1   0 1172.38   42.20
   1   1   0 1217.48   42.40
   1   1   0 1172.88   42.20
   1   1   0 1170.58   42.10
   1   1   0 1219.38   42.60
   1  -2   0 1219.08   42.50
   1   1   0 1161.68   42.20
  -1  -1   0 1223.18   42.20
  -1   2   0 1169.98   42.50
  -1   2   0 1179.98   42.50
  -1   2   0 1197.28   42.60
  -1  -1   0 1184.98   42.10
   2  -1   0 1228.48   42.30
   2  -1   0 1218.48   42.20
  -1  -1   0 1168.18   42.40
   2  -1   0 1217.18   42.30
   2  -1   0 1177.48   42.50
   2  -1   0 1172.58   42.00
   2  -1   0 1211.08   42.30
   2  -1   0 1179.58   42.20
  -1  -1   0 1152.48   42.60
  -1  -1   0 1226.18   42.20
  -1   2   0 1179.98   42.20
  -1   2   0 1191.08   42.10
  -3   1   0  340.17   12.50
  -3   1   0  313.87   13.00
  -3   1   0  303.37   12.70
   1   2   0  325.97   13.10
  -3   1   0  325.27   12.40
   1   2   0  329.97   12.70
   1   2   0  350.96   12.40
   2  -3   0  326.77   13.00
   2  -3   0  311.47   12.90
   2  -3   0  345.87   12.50
   2  -3   0  329.17   12.50
   2  -3   0  347.97   13.10
   1   2   0  302.57   12.80
   3  -1   0  340.77   12.50
  -1  -2   0  305.67   13.70
  -1  -2   0  327.97   12.70
  -1  -2   0  313.57   12.90
  -1  -2   0  325.47   12.40
  -1  -2   0  338.17   12.00
  -2   3   0  309.87   13.10
  -2   3   0  346.47   13.10
  -2   3   0  340.17   12.60
  -2   3   0  341.07   12.40
  -2   3   0  309.77   13.00
   3  -1   0  331.97   12.70
   3  -1   0  333.57   12.50
   3  -1   0  335.17   12.40
   3  -1   0  322.17   12.80
   3  -1   0  344.77   13.00
   2   1   0  342.37   13.20
   1  -3   0  320.07   12.70
   2   1   0  332.67   12.60
   2   1   0  348.47   12.60
   1  -3   0  337.77   13.20
  -3   2   0  344.97   13.10
  -3   2   0  326.27   12.40
   1  -3   0  319.37   13.20
   1  -3   0  338.57   12.60
  -3   2   0  338.37   12.80
  -3   2   0  326.47   12.90
   2   1   0  325.37   12.80
   2   1   0  337.87   13.10
   3  -2   0  365.66   13.00
  -2  -1   0  345.37   12.60
  -2  -1   0  331.67   12.50
   3  -2   0  325.87   13.10
   3  -2   0  346.07   12.60
   3  -2   0  336.77   12.70
  -1   3   0  334.97   13.30
  -2  -1   0  316.57   13.30
  -1   3   0  331.37   12.10
   3  -2   0  301.57   13.60
   3  -2   0  331.77   12.60
   3  -2   0  331.97   13.10
  -1   3   0  320.87   12.80
  -1   3   0  344.97   12.70
  -1   3   0  348.37   13.10
  -2  -1   0  321.77   13.00
  -2  -1   0  345.97   12.80
  -3   3   0  907.81   35.40
   0  -3   0  952.50   34.80
   0  -3   0  974.90   34.70
   3   0   0  942.71   34.50
   3   0   0  996.20   34.60
   0  -3   0  904.71   35.30
   3   0   0  992.10   35.40
   3   0   0  938.61   35.10
   3   0   0  965.10   34.10
  -3   3   0  950.90   34.60
   0  -3   0  967.90   34.80
   0  -3   0 1002.00   34.90
   0  -3   0 1014.90   35.20
   0   3   0 1005.20   35.50
   0   3   0  957.90   34.90
   0   3   0  999.80   34.70
   3  -3   0 1008.00   35.30
   0   3   0  984.60   34.80
   3  -3   0  991.20   35.40
   3  -3   0  948.21   34.30
   3  -3   0  954.80   34.80
   0   3   0  959.40   35.40
  -3   0   0  957.50   34.50
   3  -3   0  981.10   34.70
  -3   0   0  914.11   35.40
   3  -3   0  961.00   34.90
   0   3   0  955.00   34.80
  -3   0   0  946.21   35.20
   0   3   0  893.11   35.00
   3  -4   0  868.31   31.40
  -4   1   0  947.71   32.10
   3  -4   0  871.51   32.20
   1   3   0  840.32   31.90
  -4   1   0  843.52   31.30
   1   3   0  893.01   31.40
   3  -4   0  866.61   32.20
   1   3   0  870.71   31.80
   3  -4   0  842.82   32.20
   1   3   0  888.41   32.50
  -4   1   0  840.22   32.30
  -4   1   0  812.12   32.00
   1   3   0  852.61   31.90
   3  -4   0  846.12   31.50
   4  -1   0  891.91   32.20
  -3   4   0  831.02   32.40
  -1  -3   0  880.71   31.70
  -1  -3   0  914.21   31.90
   4  -1   0  873.21   31.40
  -1  -3   0  828.52   31.70
   4  -1   0  877.11   31.90
  -1  -3   0  882.01   30.90
  -1  -3   0  835.72   32.40
  -3   4   0  812.52   32.30
   4  -1   0  868.91   31.30
   4  -1   0  883.91   32.00
  -3   4   0  843.02   31.50
  -4   2   0 5727.23  212.58
  -4   2   0 5939.71  211.88
   2  -4   0 5721.53  211.58
   2  -4   0 6503.55  212.68
   2  -4   0 5634.34  212.48
   2   2   0 6126.09  212.68
   2  -4   0 6344.67  212.48
   2   2   0 5623.14  212.08
   2  -4   0 6297.87  211.88
   2   2   0 5845.42  212.08
   2   2   0 6217.88  212.28
   2  -4   0 5870.21  211.98
  -2   4   0 6035.70  212.58
  -2  -2   0 5941.91  212.28
  -2   4   0 5940.21  212.78
   4  -2   0 6231.18  212.08
   4  -2   0 6203.08  212.08
  -2  -2   0 6202.08  211.98
   4  -2   0 6245.18  211.88
  -2  -2   0 5913.71  212.68
  -2   4   0 6021.10  212.58
  -2   4   0 6087.99  211.68
   4  -2   0 5966.00  212.38
   4  -2   0 6016.00  211.58
   4  -2   0 6271.67  212.18
   4  -2   0 6172.58  211.98
  -2  -2   0 5856.41  211.68
  -2  -2   0 6169.88  211.88
   1  -4   0  900.01   31.50
   3   1   0  870.01   31.20
   3   1   0  845.02   31.50
   1  -4   0  828.52   31.10
   3   1   0  879.41   31.90
   3   1   0  878.61   32.20
   1  -4   0  844.12   31.50
  -4   3   0  790.52   31.90
   1  -4   0  874.51   31.60
  -4   3   0  840.22   31.80
   1  -4   0  827.42   32.10
  -4   3   0  858.11   31.00
   3   1   0  889.01   32.00
   3   1   0  866.61   31.20
   1  -4   0  895.41   32.00
  -3  -1   0  824.22   31.00
   4  -3   0  890.61   31.50
  -3  -1   0  835.22   31.90
  -1   4   0  864.51   30.80
   4  -3   0  863.51   31.20
   4  -3   0  873.01   31.40
  -1   4   0  844.02   31.80
   4  -3   0  851.51   31.10
  -3  -1   0  870.81   31.30
  -1   4   0  841.72   32.20
   4  -3   0  889.91   31.80
  -1   4   0  791.32   31.60
   4  -3   0  874.01   31.90
   4  -3   0  885.01   32.10
  -3  -1   0  836.42   32.20
  -1   4   0  878.91   32.30
  -4   4   0 4356.06  161.18
   4   0   0 4400.26  161.28
   0  -4   0 4863.51  161.58
   0  -4   0 4402.16  161.28
   0  -4   0 4866.21  161.98
   4   0   0 4866.21  162.28
   4   0   0 4716.03  160.48
   4   0   0 4750.22  161.98
   4   0   0 4576.44  161.08
   4   0   0 4381.56  160.98
   0  -4   0 4696.33  161.28
  -4   4   0 4485.95  162.18
  -4   4   0 3895.11  163.18
   0  -4   0 4425.26  161.38
   4   0   0 4658.03  161.98
   0   4   0 4605.34  161.38
   0   4   0 4538.85  161.78
   4  -4   0 4666.93  162.18
   4  -4   0 4684.63  160.68
   0   4   0 4514.55  162.18
   0   4   0 4725.23  161.58
   4  -4   0 4416.46  162.08
   0   4   0 3993.80  161.28
   0   4   0 4725.13  161.38
   4  -4   0 4727.83  161.98
   0   4   0 4805.92  162.48
  -4   0   0 4428.06  162.28
   4  -4   0 4736.73  161.58
   0   4   0 4873.41  161.38
  -4   0   0 4592.74  161.18
   4  -4   0 4745.93  161.28
   1   4   0  219.58    9.20
   1   4   0  214.88    9.10
  -5   1   0  210.88   10.30
   1   4   0  202.28   10.70
   4  -5   0  230.68   10.20
  -5   1   0  201.18    9.00
   1   4   0  203.98    9.50
   4  -5   0  209.98   10.10
   4  -5   0  213.18   10.20
   4  -5   0  211.38   10.10
   4  -5   0  212.88    9.60
   4  -5   0  217.48    9.10
   1   4   0  214.88    9.80
   1   4   0  218.88    9.70
  -4   5   0  200.38   10.20
  -1  -4   0  205.38    9.40
  -4   5   0  210.98   10.30
  -1  -4   0  216.98    8.60
   5  -1   0  203.88    8.70
   5  -1   0  202.78    9.00
  -1  -4   0  198.88    9.10
   5  -1   0  218.58   10.20
   5  -1   0  212.08    9.20
   5  -1   0  204.78    9.70
   5  -1   0  222.08    9.10
  -1  -4   0  203.58   10.20
   5  -1   0  207.88    9.90
  -1  -4   0  224.88    9.80
  -1  -4   0  215.98    9.50
  -4   5   0  201.58    9.10
   3  -5   0  453.35   17.10
   2   3   0  460.25   17.50
  -5   2   0  423.76   17.10
  -5   2   0  437.36   17.40
   3  -5   0  451.75   18.00
   2   3   0  446.76   17.70
   2   3   0  448.66   18.30
   2   3   0  451.15   16.90
   2   3   0  420.36   17.40
   3  -5   0  434.16   17.00
   3  -5   0  428.76   18.00
   3  -5   0  397.76   17.90
   2   3   0  423.16   17.60
   5  -2   0  460.25   17.70
  -3   5   0  424.06   18.20
  -3   5   0  461.55   18.30
  -2  -3   0  459.55   17.40
   5  -2   0  441.46   17.50
   5  -2   0  456.55   16.90
  -2  -3   0  470.95   17.40
   5  -2   0  453.85   17.30
  -3   5   0  419.46   18.30
  -3   5   0  425.56   17.30
  -3   5   0  444.66   17.00
   5  -2   0  442.76   17.10
  -2  -3   0  453.35   18.30
   5  -2   0  477.65   18.20
  -2  -3   0  417.06   17.50
  -2  -3   0  425.16   17.00
   5  -2   0  465.15   17.30
   2  -5   0  442.76   17.10
   2  -5   0  425.46   16.80
   2  -5   0  459.95   18.00
   3   2   0  433.66   17.10
   3   2   0  461.75   16.90
  -5   3   0  440.76   17.50
   2  -5   0  431.16   18.00
  -5   3   0  367.26   17.90
   3   2   0  439.66   17.50
   3   2   0  450.75   17.80
   3   2   0  450.85   17.60
   3   2   0  453.95   18.20
   2  -5   0  454.75   17.70
  -5   3   0  414.26   17.60
   2  -5   0  445.46   17.40
   5  -3   0  443.26   17.40
   5  -3   0  438.26   17.10
  -2   5   0  423.46   18.20
  -3  -2   0  442.56   16.90
   5  -3   0  458.65   17.20
   5  -3   0  459.45   17.50
  -3  -2   0  436.46   17.70
  -3  -2   0  429.06   18.20
   5  -3   0  455.35   17.90
   5  -3   0  461.95   17.00
   5  -3   0  440.06   17.50
  -2   5   0  445.96   17.10
  -2   5   0  407.96   17.30
  -2   5   0  391.06   17.90
  -2   5   0  462.75   18.30
  -3  -2   0  468.45   17.10
  -3  -2   0  446.96   17.20
   4   1   0  207.28    9.70
   4   1   0  208.78    9.80
   1  -5   0  198.18    9.20
   4   1   0  206.98   10.00
   4   1   0  206.68    9.30
  -5   4   0  207.88    8.60
  -5   4   0  201.78   10.00
  -5   4   0  192.28    9.60
   1  -5   0  215.38    9.40
   1  -5   0  215.98    9.30
   1  -5   0  224.68   10.00
   1  -5   0  207.18    8.90
   4   1   0  211.78    8.90
   1  -5   0  200.58   10.00
   4   1   0  202.68    8.80
  -4  -1   0  203.68    9.70
  -1   5   0  205.08    9.30
   5  -4   0  197.08    9.90
  -4  -1   0  208.58    8.70
  -1   5   0  204.28    9.50
   5  -4   0  208.48    9.30
  -1   5   0  207.88   10.30
  -1   5   0  183.88   10.10
  -1   5   0  210.88    8.20
  -1   5   0  193.28   10.00
   5  -4   0  217.28    9.10
   5  -4   0  211.08    8.70
   5  -4   0  224.08    9.80
   5  -4   0  215.38    9.20
  -1   5   0  205.78    8.50
   5  -4   0  195.48    9.40
   5  -4   0  211.58    9.80
  -4  -1   0  211.38   10.20
   5   0   0  413.76   15.90
   0  -5   0  402.26   16.30
   5   0   0  377.06   16.70
   0  -5   0  379.86   17.10
   5   0   0  409.56   14.80
   5   0   0  392.86   16.10
   5   0   0  401.76   17.00
   0  -5   0  395.96   16.20
   5   0   0  477.25   17.70
  -5   5   0  386.26   17.20
  -5   5   0  393.86   17.10
  -5   5   0  394.26   15.60
   5   0   0  397.46   15.60
   0  -5   0  380.26   16.00
   0  -5   0  418.86   16.00
   0  -5   0  423.36   16.90
   5  -5   0  428.96   17.10
   5  -5   0  418.56   15.90
   0   5   0  391.66   16.00
  -5   0   0  381.46   16.80
   5  -5   0  381.26   16.90
  -5   0   0  397.86   15.70
   0   5   0  421.36   15.60
   0   5   0  379.16   16.90
  -5   0   0  399.76   17.30
   5  -5   0  405.86   17.10
   0   5   0  429.26   16.60
   5  -5   0  406.36   16.50
   0   5   0  412.96   17.60
   5  -5   0  382.96   16.20
   5  -5   0  408.76   15.30
   0   5   0  389.16   16.70
   1   5   0  368.46   15.60
   1   5   0  363.16   15.90
   1   5   0  327.87   15.50
   5  -6   0  338.77   15.80
  -6   1   0  365.66   16.40
   1   5   0  370.96   14.90
   5  -6   0  368.86   15.10
   5  -6   0  363.76   14.70
   1   5   0  373.36   14.90
  -6   1   0  365.46   14.70
   5  -6   0  354.76   16.10
  -5   6   0  342.47   14.70
  -1  -5   0  365.66   14.90
   6  -1   0  344.37   14.40
   6  -1   0  369.76   14.90
  -5   6   0  346.67   16.20
   6  -1   0  343.37   14.70
   6  -1   0  376.06   14.80
  -5   6   0  356.76   16.50
   6  -1   0  376.16   14.10
  -1  -5   0  371.06   14.20
  -1  -5   0  378.86   15.70
  -1  -5   0  357.56   16.20
  -1  -5   0  349.47   15.10
   6  -1   0  372.16   16.30
   4  -6   0 4101.39  138.79
   2   4   0 3705.03  139.49
   2   4   0 4088.79  138.69
   2   4   0 3954.70  140.39
  -6   2   0 3717.93  140.19
   4  -6   0 3808.42  138.69
   4  -6   0 3799.52  139.99
   4  -6   0 3971.80  140.09
   2   4   0 3868.51  139.69
   4  -6   0 4002.70  140.09
   4  -6   0 3872.51  139.39
  -6   2   0 3907.31  138.89
   2   4   0 4029.60  139.19
   2   4   0 4068.39  139.59
   2   4   0 3878.11  139.49
  -2  -4   0 3896.91  139.39
   6  -2   0 3918.11  138.89
  -4   6   0 3832.62  140.39
  -2  -4   0 4044.50  139.19
   6  -2   0 4109.99  138.79
  -2  -4   0 3743.43  138.79
   6  -2   0 3982.20  139.49
  -4   6   0 3834.42  140.39
   6  -2   0 3904.01  139.59
  -4   6   0 3784.92  138.99
   6  -2   0 4000.70  138.79
   6  -2   0 4016.30  139.99
  -2  -4   0 4110.49  139.29
  -2  -4   0 3831.22  137.49
   6  -2   0 4011.80  138.59
   6  -2   0 4020.30  138.69
  -2  -4   0 3746.63  140.29
   3   3   0  312.37   14.20
   3   3   0  303.27   13.10
   3  -6   0  298.87   13.50
   3   3   0  304.87   13.50
   3   3   0  300.87   13.20
   3  -6   0  286.37   13.60
  -6   3   0  300.07   12.70
   3  -6   0  288.87   12.10
   3  -6   0  324.27   12.70
   3  -6   0  295.87   13.60
  -6   3   0  266.87   14.00
   3   3   0  304.57   12.20
   3  -6   0  291.27   12.80
  -3   6   0  299.57   14.00
   6  -3   0  321.07   13.00
   6  -3   0  301.77   12.60
  -3  -3   0  309.77   12.70
  -3  -3   0  292.57   12.80
  -3  -3   0  282.17   12.20
   6  -3   0  297.77   13.60
   6  -3   0  304.27   12.30
   6  -3   0  297.87   13.00
  -3  -3   0  304.57   13.90
  -3  -3   0  293.17   13.10
  -3   6   0  280.07   14.90
   6  -3   0  289.97   12.80
   6  -3   0  298.47   12.90
  -3   6   0  288.77   13.90
  -3   6   0  306.97   12.40
  -3   6   0  284.57   13.60
   2  -6   0 3823.22  139.09
   4   2   0 3913.71  140.09
  -6   4   0 3935.51  139.49
   4   2   0 3965.30  139.59
   4   2   0 3938.51  138.39
   4   2   0 4013.20  139.69
  -6   4   0 3947.60  139.89
   4   2   0 3896.61  138.69
   2  -6   0 4196.68  138.99
   4   2   0 3790.12  139.19
   2  -6   0 3788.12  138.39
   2  -6   0 4068.69  139.49
   2  -6   0 3778.92  139.99
  -2   6   0 3932.21  138.79
  -4  -2   0 4100.49  138.79
   6  -4   0 3940.41  138.99
  -2   6   0 3736.43  139.19
  -2   6   0 3861.71  139.79
   6  -4   0 4026.40  138.79
   6  -4   0 3932.01  139.79
   6  -4   0 3821.22  138.59
   6  -4   0 4036.10  139.39
   6  -4   0 4068.69  139.59
   6  -4   0 4042.00  139.09
  -4  -2   0 3859.61  140.29
  -4  -2   0 3726.73  138.29
  -4  -2   0 3831.22  139.59
  -2   6   0 3808.52  140.29
  -2   6   0 3932.41  140.29
   1  -6   0  364.16   15.00
   5   1   0  348.47   14.30
  -6   5   0  334.57   15.90
   1  -6   0  352.46   14.90
   5   1   0  358.36   15.00
   5   1   0  362.56   17.10
   1  -6   0  340.67   15.90
   1  -6   0  345.17   14.40
  -6   5   0  349.57   14.00
   1  -6   0  362.86   15.10
   5   1   0  352.26   14.40
  -6   5   0  345.67   15.70
  -5  -1   0  344.57   15.60
   6  -5   0  359.86   15.60
  -1   6   0  348.97   14.00
   6  -5   0  369.56   16.10
   6  -5   0  362.16   15.70
   6  -5   0  353.76   14.80
  -5  -1   0  350.36   14.10
  -1   6   0  372.26   16.20
   6  -5   0  347.47   15.80
  -1   6   0  369.76   15.20
  -5  -1   0  357.16   16.10
   6  -5   0  354.26   15.20
   6  -5   0  360.26   14.20
  -1   6   0  345.67   15.30
   6  -5   0  380.86   14.70
   6   0   0 2619.24   96.89
   0  -6   0 2668.13   98.49
   0  -6   0 2679.23   96.99
   6   0   0 2658.53   96.29
   0  -6   0 2721.13   96.89
  -6   6   0 2677.83   98.69
  -6   6   0 2603.24   98.19
  -6   6   0 2510.35   97.09
   0  -6   0 2839.02   96.69
   6   0   0 2752.82   96.69
   6  -6   0 2770.52   96.59
   6  -6   0 2639.54   98.09
   0   6   0 2641.94   97.69
  -6   0   0 2694.53   98.59
   0   6   0 2732.43   96.89
  -6   0   0 2749.23   96.49
   6  -6   0 2786.42   95.99
   0   6   0 2901.41   97.59
   0   6   0 2687.73   98.29
   6  -6   0 2569.14   97.19
  -6   0   0 2580.64   97.99
   6  -6   0 2879.41   96.79
   0   6   0 2861.61   96.39
   6  -6   0 2770.92   95.89
   1   6   0  216.38   10.20
   6  -7   0  192.18   11.00
   6  -7   0  200.08   10.40
   1   6   0  207.38   11.20
  -7   1   0  213.28    9.70
   1   6   0  198.68   11.50
   1   6   0  188.18   10.70
   1   6   0  195.48   10.40
  -7   1   0  197.28   11.60
   6  -7   0  204.88    9.90
  -6   7   0  191.18   11.70
  -1  -6   0  203.38   11.60
  -6   7   0  211.48    9.80
  -1  -6   0  204.58    9.20
   7  -1   0  219.78   10.30
  -6   7   0  221.48   11.80
   7  -1   0  198.38    9.80
  -1  -6   0  209.18   10.10
   7  -1   0  210.68   10.20
  -1  -6   0  203.88   10.20
   7  -1   0  195.68    8.70
   5  -7   0  376.76   15.60
   2   5   0  358.66   16.40
   2   5   0  376.16   16.10
  -7   2   0  372.76   17.40
   2   5   0  361.86   16.50
   2   5   0  373.16   16.70
   5  -7   0  378.86   17.00
   5  -7   0  364.76   16.10
   2   5   0  358.76   16.80
  -7   2   0  382.26   15.60
   5  -7   0  365.86   15.50
   2   5   0  380.06   15.50
  -2  -5   0  362.46   17.20
  -5   7   0  361.86   15.80
  -2  -5   0  384.46   14.10
  -2  -5   0  367.56   15.60
  -2  -5   0  369.06   16.10
  -5   7   0  363.46   17.40
  -5   7   0  367.76   17.30
   7  -2   0  372.46   15.70
   7  -2   0  371.46   15.40
   7  -2   0  395.56   15.90
  -2  -5   0  397.86   17.50
   7  -2   0  379.56   15.30
   7  -2   0  381.66   15.70
  -7   3   0  185.68    9.10
   3   4   0  178.88    9.30
   4  -7   0  188.58    9.10
   4  -7   0  180.68   10.00
   4  -7   0  188.18    8.50
   3   4   0  163.58    9.70
   3   4   0  159.28    9.80
   4  -7   0  186.98    9.30
   3   4   0  178.78    8.60
   3   4   0  179.78    9.60
   7  -3   0  177.68    9.10
   7  -3   0  188.28    9.10
  -4   7   0  157.78   10.20
   7  -3   0  228.38   14.20
  -4   7   0  178.98    9.20
  -3  -4   0  180.28   10.30
  -4   7   0  173.18   10.30
   7  -3   0  190.28    9.30
   7  -3   0  179.98    9.20
  -3  -4   0  166.68    8.60
  -3  -4   0  177.78    9.50
  -3  -4   0  179.98    9.40
   4   3   0  186.28    8.60
   3  -7   0  178.88   10.00
   3  -7   0  176.28    9.20
   3  -7   0  176.28    9.10
   4   3   0  173.88    9.40
   3  -7   0  177.28    8.30
   4   3   0  169.28    9.90
   4   3   0  183.38    9.10
   7  -4   0  180.68   10.70
  -3   7   0  163.98    9.90
  -4  -3   0  186.78    9.80
  -3   7   0  173.68   10.40
  -4  -3   0  176.98   10.30
  -3   7   0  175.78    8.90
  -4  -3   0  186.78    9.20
   7  -4   0  179.18    9.40
  -4  -3   0  176.18    8.50
   7  -4   0  187.48    9.70
   7  -4   0  187.38    9.00
  -3   7   0  178.48    9.30
   7  -4   0  172.68    9.70
  -7   5   0  372.46   17.10
   2  -7   0  363.46   15.20
  -7   5   0  372.26   16.50
   2  -7   0  369.76   16.50
   5   2   0  397.96   15.40
   5   2   0  366.56   15.50
   2  -7   0  381.16   17.10
   5   2   0  359.76   16.10
   2  -7   0  368.06   16.00
  -5  -2   0  370.26   17.30
   7  -5   0  377.36   15.60
  -2   7   0  377.56   16.00
  -2   7   0  371.36   16.40
   7  -5   0  379.06   16.70
   7  -5   0  359.26   16.00
   7  -5   0  366.56   16.40
   7  -5   0  403.46   15.90
  -5  -2   0  378.86   15.10
  -2   7   0  354.16   17.30
  -5  -2   0  368.26   16.60
   1  -7   0  207.58   10.30
   1  -7   0  204.68   11.50
   6   1   0  211.28   10.30
   6   1   0  197.08    9.60
   1  -7   0  194.68   10.60
  -7   6   0  215.18   11.20
   1  -7   0  191.78    9.60
   6   1   0  214.68   10.00
  -7   6   0  197.18   11.60
  -6  -1   0  211.38    9.40
   7  -6   0  204.08   10.60
  -1   7   0  197.38   11.00
  -6  -1   0  221.68   11.90
   7  -6   0  205.38   10.50
   7  -6   0  200.98   10.10
  -1   7   0  211.08    8.90
  -1   7   0  194.58   11.50
  -1   7   0  205.18   10.90
   7  -6   0  213.68    9.60
   7  -6   0  206.68   11.20
  -6  -1   0  201.68   11.00
   7  -6   0  192.48    9.50
   0  -7   0  261.27   12.00
   7   0   0  255.77   12.30
   7   0   0  253.77   12.30
   0  -7   0  256.87   12.00
  -7   7   0  271.27   13.90
   0  -7   0  239.18   13.70
   7   0   0  249.18   11.40
  -7   7   0  277.97   11.40
   0  -7   0  249.28   12.20
  -7   7   0  247.28   13.90
  -7   0   0  262.47   11.50
   0   7   0  257.17   13.60
   7  -7   0  259.57   12.40
   7  -7   0  247.48   10.70
  -7   0   0  251.27   13.90
   7  -7   0  254.07   13.40
   7  -7   0  255.77   12.30
   7  -7   0  255.57   11.00
   7  -7   0  257.27   12.40
   0   7   0  268.07   11.60
   0   7   0  253.87   13.10
   0   7   0  265.17   13.90
   7  -8   0  161.48    9.40
   1   7   0  156.38    9.70
   7  -8   0  144.39    9.80
  -8   1   0  168.68    8.80
   1   7   0  155.58    9.80
  -8   1   0  171.48   11.40
   7  -8   0  149.49    9.90
   1   7   0  160.58   10.30
   7  -8   0  155.28   10.40
   1   7   0  149.99   10.40
  -7   8   0  162.78    8.60
  -1  -7   0  165.78    9.30
   8  -1   0  146.29    7.60
   8  -1   0  144.89   10.10
  -1  -7   0  156.58    9.20
  -1  -7   0  151.48   10.70
   8  -1   0  164.28    8.30
   8  -1   0  155.48    7.50
  -1  -7   0  166.58    8.40
  -7   8   0  164.38   11.20
   8  -1   0  177.48    9.30
   6  -8   0 2407.86   86.19
  -8   2   0 2480.85   86.49
  -8   2   0 2447.35   88.99
   2   6   0 2341.37   87.79
   6  -8   0 2437.36   86.19
   2   6   0 2362.46   87.79
   6  -8   0 2353.56   88.09
   2   6   0 2435.56   87.69
   6  -8   0 2332.57   87.09
  -6   8   0 2442.16   86.39
  -6   8   0 2418.76   88.89
   8  -2   0 2431.86   85.79
  -2  -6   0 2419.66   86.49
  -6   8   0 2406.26   89.09
  -2  -6   0 2358.96   88.49
   8  -2   0 2327.57   85.59
   8  -2   0 2278.87   86.19
   8  -2   0 2406.66   86.39
  -2  -6   0 2401.26   86.99
  -2  -6   0 2365.36   84.69
  -8   3   0  216.98   11.00
   5  -8   0  206.28   11.80
   5  -8   0  214.68   10.30
   3   5   0  211.78   11.70
   3   5   0  216.78   11.60
   5  -8   0  203.58   11.30
   5  -8   0  229.78   11.50
   3   5   0  239.28   11.00
   3   5   0  207.98   12.10
   8  -3   0  209.68   10.20
   8  -3   0  206.08   11.00
   8  -3   0  231.98   11.60
  -3  -5   0  213.98   10.70
  -5   8   0  228.58   11.40
  -5   8   0  217.88   12.80
  -3  -5   0  230.88   12.70
   8  -3   0  232.68   10.50
  -3  -5   0  226.78   11.60
  -5   8   0  229.78   13.00
   4   4   0 2626.34   96.09
   4  -8   0 2647.14   93.49
   4   4   0 2667.33   93.69
   4  -8   0 2575.24   95.79
   4  -8   0 2579.84   94.89
   4   4   0 2699.33   94.79
   4   4   0 2517.35   95.19
  -4   8   0 2619.54   94.79
  -4  -4   0 2784.42   95.49
  -4  -4   0 2531.45   93.59
   8  -4   0 2581.84   94.49
  -4  -4   0 2593.74   96.29
   8  -4   0 2529.55   93.99
  -4   8   0 2662.63   96.69
  -4  -4   0 2579.34   95.19
  -4   8   0 2710.83   93.69
   3  -8   0  215.78   12.50
   3  -8   0  217.98   11.30
   5   3   0  215.88   10.70
   5   3   0  219.78   10.90
   5   3   0  212.48   12.50
   5   3   0  215.28   11.60
  -5  -3   0  220.68   11.50
   8  -5   0  248.08   13.40
  -3   8   0  207.88   11.60
  -3   8   0  240.78   13.30
  -5  -3   0  224.48   12.00
   8  -5   0  210.58   11.40
  -3   8   0  240.48   11.30
  -5  -3   0  226.88   10.20
  -5  -3   0  224.78   12.80
   6   2   0 2357.76   85.79
   2  -8   0 2439.76   86.99
   6   2   0 2416.36   88.79
   2  -8   0 2322.27   88.19
   6   2   0 2336.17   87.09
   2  -8   0 2452.95   85.89
   6   2   0 2400.76   86.09
  -8   6   0 2430.86   87.79
  -2   8   0 2361.86   88.69
   8  -6   0 2345.37   87.19
   8  -6   0 2365.06   86.09
  -6  -2   0 2388.26   87.89
   8  -6   0 2446.66   86.29
  -6  -2   0 2429.16   88.69
  -2   8   0 2358.36   87.39
  -2   8   0 2402.16   86.59
  -6  -2   0 2384.06   85.59
   8  -6   0 2383.66   86.49
   1  -8   0  162.58    9.40
   7   1   0  167.48    8.50
   7   1   0  150.68    9.60
   1  -8   0  149.88   10.60
   7   1   0  180.18    9.80
   1  -8   0  152.18    8.70
   7   1   0  141.99   10.80
  -8   7   0  163.18   10.50
  -1   8   0  162.58   11.70
   8  -7   0  163.68    9.80
  -7  -1   0  163.18   11.30
  -1   8   0  151.28   10.90
   8  -7   0  169.88    8.80
   8  -7   0  153.28    8.90
  -7  -1   0  153.98   10.40
  -1   8   0  158.28    7.90
  -7  -1   0  162.88    8.40
  -1   8   0  162.58   10.40
   8  -7   0  155.48   10.30
   8  -7   0  142.79    9.90
  -1   8   0  153.28    8.10
   8   0   0 1571.14   58.99
   8   0   0 1533.65   61.29
  -8   8   0 1694.03   57.79
  -8   8   0 1598.14   60.79
   0  -8   0 1611.94   58.99
   0  -8   0 1470.25   58.19
   8   0   0 1588.94   58.59
   0  -8   0 1583.74   60.99
   0  -8   0 1610.94   58.59
   8   0   0 1569.14   57.79
   8  -8   0 1524.45   58.29
   8  -8   0 1583.24   58.99
   8  -8   0 1574.34   60.49
   0   8   0 1646.74   58.59
   8  -8   0 1549.94   56.59
   0   8   0 1616.04   57.89
   0   8   0 1540.85   60.79
  -8   0   0 1639.64   61.59
   0   8   0 1555.04   60.19
  -8   0   0 1579.14   57.99
  -9   1   0  162.18   12.50
   8  -9   0  156.48   11.50
   8  -9   0  139.09    9.80
   1   8   0  134.49   11.10
  -9   1   0  168.68    9.40
   1   8   0  144.89   11.40
   1   8   0  149.39   10.50
   8  -9   0  146.29   10.20
   9  -1   0  148.29    8.80
  -1  -8   0  160.68   10.10
  -8   9   0  148.89   12.10
   9  -1   0  160.78    9.90
  -8   9   0  145.99    8.80
  -1  -8   0  162.18   10.00
   9  -1   0  139.49   11.80
  -1  -8   0  154.38   11.70
  -9   2   0  193.38   10.50
   2   7   0  173.98   11.90
   2   7   0  164.38   11.70
  -9   2   0  195.08   13.40
   7  -9   0  181.58   10.90
   2   7   0  185.88   11.70
   7  -9   0  168.68   11.80
   7  -9   0  200.68   10.40
  -2  -7   0  199.88   11.20
   9  -2   0  187.98    9.70
   9  -2   0  198.98   12.10
  -7   9   0  194.98   10.20
  -2  -7   0  185.58   10.50
  -2  -7   0  190.88    8.60
   9  -2   0  160.58   12.00
  -7   9   0  188.28   12.90
  -2  -7   0  184.38   12.50
   9  -2   0  185.98   10.30
  -2  -7   0  172.18    8.40
  -9   3   0  171.88   10.00
   6  -9   0  164.78   11.00
   6  -9   0  161.18   10.00
   3   6   0  161.68   10.60
   3   6   0  177.38   11.10
   6  -9   0  153.98    9.10
   3   6   0  152.98   10.70
  -6   9   0  177.28   10.10
   9  -3   0  172.78   10.20
  -6   9   0  166.08   11.90
   9  -3   0  165.38    9.10
  -3  -6   0  158.18   10.30
  -3  -6   0  163.08    9.40
   9  -3   0  158.48   11.60
  -3  -6   0  180.48   11.80
   9  -3   0  166.38   11.30
   9  -3   0  173.38    9.20
   5  -9   0  180.08   10.50
   4   5   0  179.48   11.10
   4   5   0  175.78   10.70
   5  -9   0  195.28   11.80
   5  -9   0  176.28   10.00
   4   5   0  174.98   11.90
  -4  -5   0  187.28   12.20
   9  -4   0  196.88    9.50
   9  -4   0  185.98   11.50
  -5   9   0  177.18   10.60
  -5   9   0  169.78   12.30
  -4  -5   0  186.58    9.70
  -4  -5   0  189.58   11.10
   5   4   0  202.58   11.80
   4  -9   0  193.78    9.50
   5   4   0  172.98   11.00
   4  -9   0  192.58   10.90
   4  -9   0  188.28   11.90
   5   4   0  175.48   12.10
   5   4   0  190.78   10.70
  -5  -4   0  195.98   12.30
  -5  -4   0  202.58   11.60
   9  -5   0  180.58   11.20
  -4   9   0  189.28   10.50
  -4   9   0  184.38   11.30
  -4   9   0  188.18   12.70
  -5  -4   0  184.88    9.60
   6   3   0  158.58   10.20
   3  -9   0  161.88    8.60
   6   3   0  209.18   12.30
   6   3   0  151.48    9.30
   3  -9   0  149.39   10.90
   6   3   0  147.09   11.30
   3  -9   0  146.29    9.70
  -3   9   0  151.28   10.50
   9  -6   0  144.69    9.90
  -6  -3   0  164.68   10.70
  -3   9   0  173.68   10.70
  -6  -3   0  156.78    8.40
  -3   9   0  158.08   11.90
  -6  -3   0  161.88   11.60
   9  -6   0  169.88   10.70
   7   2   0  190.88   10.30
   2  -9   0  193.38   11.10
   2  -9   0  195.58   10.00
   7   2   0  169.88   12.60
   2  -9   0  195.98   12.60
   7   2   0  188.38   11.20
  -7  -2   0  186.68   11.80
  -2   9   0  183.78   13.10
   9  -7   0  183.48   10.50
  -7  -2   0  186.88    9.60
  -7  -2   0  190.08   12.90
   9  -7   0  195.08   12.00
   9  -7   0  175.08   11.30
  -2   9   0  193.88   12.10
  -2   9   0  164.58   13.00
   1  -9   0  151.38   10.30
   1  -9   0  147.89   11.40
   8   1   0  136.49   12.00
   8   1   0  142.59   10.10
  -9   8   0  147.79   11.60
   1  -9   0  154.48    9.40
   8   1   0  158.98    9.20
  -1   9   0  149.99    8.80
  -8  -1   0  160.28    8.90
   9  -8   0  150.38   11.20
  -1   9   0  158.28   11.60
  -1   9   0  168.98   12.50
   9  -8   0  166.68   10.80
  -8  -1   0  157.88   12.20
   0  -9   0   83.79   10.00
   0  -9   0   76.99    8.10
   9   0   0   62.99    7.10
   0  -9   0   87.29    8.00
  -9   9   0   78.09    9.80
   9   0   0   60.89    7.10
   9   0   0   67.09    9.30
   0   9   0   80.89    9.70
  -9   0   0   81.59   10.20
  -9   0   0   78.69    7.30
   9  -9   0   71.69    9.50
   0   9   0   74.59    8.80
   9  -9   0   73.89    9.10
   0   9   0   81.09    8.40
   3   7   0  128.89   11.60
   3   7   0  133.99   10.90
   3   7   0  137.89   11.30
   7 -10   0  146.19    8.80
   7 -10   0  125.49    9.70
   7 -10   0  140.19   11.40
  10  -3   0  143.89    9.30
  -3  -7   0  135.49   10.40
  -3  -7   0  150.18    9.60
  10  -3   0  138.69    8.80
  -7  10   0  125.39   12.70
  10  -3   0  118.19   11.30
  -7  10   0  154.68   10.10
  -3  -7   0  142.49   12.00
   6 -10   0 1491.85   56.99
   4   6   0 1462.05   55.79
   4   6   0 1374.76   56.29
   6 -10   0 1432.46   55.59
   6 -10   0 1445.26   53.19
   4   6   0 1500.75   57.19
  10  -4   0 1465.15   53.99
  -4  -6   0 1475.45   55.79
  10  -4   0 1373.36   56.69
  -6  10   0 1486.75   55.09
  -4  -6   0 1454.15   53.99
  -4  -6   0 1438.66   57.39
  -6  10   0 1448.06   57.99
  10  -4   0 1498.65   54.09
   5   5   0  120.69    9.90
   5 -10   0  128.09    9.40
   5 -10   0  116.09    7.80
   5   5   0  115.79   10.80
   5 -10   0  132.69   11.00
   5   5   0  122.69    9.60
  10  -5   0  117.19   10.30
  10  -5   0  115.49    7.90
  -5  10   0  112.79   10.10
  -5  10   0  128.79   12.00
  -5  -5   0  127.59   11.00
  -5  -5   0  106.59    9.80
  -5  -5   0  122.59    8.00
   6   4   0 1429.16   56.29
   4 -10   0 1498.35   53.59
   6   4   0 1426.56   57.99
   6   4   0 1526.15   55.29
   4 -10   0 1448.06   55.79
   4 -10   0 1441.86   57.19
  -4  10   0 1456.15   56.19
  10  -6   0 1428.36   56.39
  -6  -4   0 1465.55   53.79
  10  -6   0 1402.16   55.99
  -6  -4   0 1483.35   56.69
  -4  10   0 1513.15   58.59
  -6  -4   0 1486.35   58.09
   7   3   0  132.79   12.10
   7   3   0  140.19    9.60
   3 -10   0  144.99    8.90
   7   3   0  127.29   10.50
   3 -10   0  144.69   11.70
   3 -10   0  133.69   10.10
  -7  -3   0  143.59    8.60
  -7  -3   0  130.39   11.10
  10  -7   0  145.49   11.30
  -3  10   0  152.98   11.70
  -7  -3   0  158.08   12.70
  10  -7   0  152.98   11.60
  10  -7   0  122.29   10.10
  -3  10   0  155.18   13.00
   1  -1  -1  982.70   34.70
   1  -1  -1  965.80   35.20
   0   1  -1  953.00   35.00
  -1   0  -1 1031.10   35.30
   0   1  -1 1024.50   34.90
  -1   0  -1  982.50   35.20
   0   1  -1  973.40   35.10
   1  -1  -1  972.80   34.90
   0   1  -1  950.60   35.20
   1  -1  -1 1022.60   35.10
   1  -1  -1 1002.30   35.10
  -1   0  -1  991.80   34.90
  -1   0  -1  963.00   35.00
   0   1  -1 1002.30   34.90
  -1   0  -1  964.40   34.90
   1   0   1  996.90   34.90
  -1   1   1  971.40   35.00
   0  -1   1 1016.50   34.90
   0  -1   1  986.50   35.20
   0  -1   1 1016.10   35.10
  -1   1   1  997.30   35.20
  -1   1   1  974.60   35.10
   0  -1   1  992.70   35.00
   1   0   1  986.70   35.00
   0  -1   1  970.80   35.10
   1   0   1 1030.20   34.90
   0  -1  -1  978.40   34.90
  -1   1  -1  974.60   35.00
   1   0  -1  973.70   35.00
   1   0  -1 1065.39   34.90
   1   0  -1 1013.20   35.10
  -1   1  -1  958.30   34.80
   0  -1  -1 1041.10   35.00
   0  -1  -1  931.31   35.00
   1   0  -1  960.30   35.00
   1   0  -1  991.90   34.50
   0  -1  -1  963.60   35.00
  -1   1  -1  966.50   34.90
   0  -1  -1 1010.40   35.00
  -1   1  -1 1005.50   35.10
  -1   1  -1  945.21   34.90
   1  -1   1  970.30   35.00
   0   1   1  972.00   35.00
   0   1   1  981.00   34.70
  -1   0   1  989.50   35.00
  -1   0   1  988.30   34.90
   1  -1   1  985.70   34.90
   0   1   1  966.60   34.90
   0   1   1  988.20   35.00
  -1   0   1  970.10   35.00
   1  -1   1  974.70   35.10
   1  -1   1 1051.29   34.90
  -1   0   1 1003.80   34.80
   0   1   1 1003.90   35.00
   0   1   1  983.00   35.00
   2  -1  -1  704.23   24.70
  -1   2  -1  695.03   24.40
  -1   2  -1  689.43   25.20
   2  -1  -1  703.33   24.90
   2  -1  -1  691.13   25.00
   2  -1  -1  691.93   24.90
  -1   2  -1  681.73   24.60
  -1  -1  -1  691.73   24.60
  -1  -1  -1  684.13   24.90
   2  -1  -1  662.43   25.00
  -1   2  -1  707.33   25.10
  -1  -1  -1  673.83   24.90
   2  -1  -1  729.73   25.00
  -1   2  -1  707.73   25.10
   2  -1  -1  687.73   24.80
  -1  -1  -1  703.33   25.20
  -1  -1  -1  689.83   24.50
  -1  -1  -1  722.43   24.90
  -1   2  -1  716.53   25.30
   1  -2   1  678.33   25.20
   1   1   1  687.83   25.20
   1   1   1  681.33   24.90
   1  -2   1  656.63   25.00
   1  -2   1  667.63   24.30
  -2   1   1  667.93   24.90
   1   1   1  707.03   24.70
   1  -2   1  713.93   25.10
  -2   1   1  671.13   24.90
   1   1   1  679.53   24.90
   1  -2   1  703.83   25.10
   1   1   1  686.03   25.20
  -2   1   1  700.33   24.90
  -2   1   1  675.03   24.80
   1  -2   1  665.03   24.50
   1   1   1  697.23   24.90
  -2  -1  -1   74.39    3.40
  -1   3  -1   71.69    3.90
   3  -2  -1   75.69    3.60
  -1   3  -1   82.99    4.10
  -2  -1  -1   72.09    3.90
  -1   3  -1   68.29    3.60
   3  -2  -1   75.69    4.10
   3  -2  -1   75.49    3.90
   3  -2  -1   80.09    4.10
  -2  -1  -1   76.69    3.80
   3  -2  -1   72.79    3.70
  -1   3  -1   76.29    4.20
   3  -2  -1   78.59    3.80
  -2  -1  -1   81.99    3.80
  -1   3  -1   74.99    3.10
   2   1   1   78.69    4.00
   1  -3   1   80.49    4.00
  -3   2   1   67.99    3.60
  -3   2   1   72.09    4.00
   1  -3   1   78.09    3.60
   2   1   1   66.59    4.60
  -3   2   1   74.59    3.60
   2   1   1   75.19    4.20
   2   1   1   75.49    3.80
   1  -3   1   70.79    3.80
   2   1   1   73.49    3.40
   2  -2  -1 4886.81  169.98
   2  -2  -1 5114.39  170.08
   2  -2  -1 4924.51  169.78
   0  -2   1 4650.53  169.98
   2   0   1 4817.62  170.08
  -2   2   1 4544.55  169.68
   2   0   1 4960.40  169.88
  -2   1  -1  667.03   24.50
  -2   1  -1  691.43   25.20
   1  -2  -1  692.13   24.60
   1  -2  -1  693.13   25.10
   1  -2  -1  667.13   24.80
  -2   1  -1  673.63   24.80
   1  -2  -1  702.53   24.90
   1   1  -1  685.73   24.70
   1   1  -1  676.63   24.80
   1   1  -1  688.43   24.30
   1   1  -1  687.13   25.00
   1  -2  -1  625.44   24.80
  -2   1  -1  673.13   24.80
   1  -2  -1  707.43   25.00
   1  -2  -1  683.93   24.20
   1   1  -1  681.63   24.30
   1   1  -1  695.43   25.00
   1   1  -1  708.93   24.90
   2  -1   1  706.43   24.50
  -1   2   1  673.53   24.90
  -1  -1   1  685.43   24.30
  -1  -1   1  672.13   24.90
  -1   2   1  694.83   24.90
  -1   2   1  682.03   24.60
   2  -1   1  720.03   24.80
  -1  -1   1  679.33   24.30
  -1   2   1  729.93   24.80
  -1  -1   1  672.93   24.80
   2  -1   1  686.13   25.10
  -1   2   1  688.63   24.20
  -1  -1   1  675.63   25.00
  -1   2   1  686.63   25.10
   2  -1   1  680.33   24.70
   2  -1   1  697.43   24.90
  -1  -1   1  709.53   24.80
   0  -2  -1 5075.29  169.28
   0  -2  -1 4657.53  169.08
   0  -2  -1 4931.51  169.28
  -2   2  -1 4608.84  169.18
  -2   2  -1 4893.71  169.28
  -2   0   1 4664.53  169.28
   0   2   1 4930.71  169.28
   2  -2   1 4912.71  169.08
   0   2   1 4766.02  169.28
  -1  -2  -1   66.89    3.70
  -1  -2  -1   77.29    3.30
   3  -1  -1   75.29    3.40
   3  -1  -1   79.29    3.70
   3  -1  -1   65.39    4.20
  -1  -2  -1   71.09    3.70
  -2   3  -1   75.69    3.50
  -1  -2  -1   74.29    3.30
   3  -1  -1   70.59    3.80
  -1  -2  -1   79.49    3.90
  -2   3  -1   76.19    3.90
  -1  -2  -1   70.19    3.70
  -2   3  -1   72.19    4.10
   3  -1  -1   77.89    3.90
   3  -1  -1   75.39    3.70
   1   2   1   74.79    3.80
   1   2   1   78.99    3.80
   1   2   1   79.19    4.30
   2  -3   1   76.89    3.40
  -3   1   1   76.29    4.00
   1   2   1   77.79    3.80
   2  -3   1   74.19    4.10
   2  -3   1   76.99    4.00
  -3   1   1   73.99    3.50
  -3   1   1   76.99    3.90
   2  -3   1   79.19    4.10
   1   2   1   72.59    4.00
   4  -2  -1 4492.25  154.98
   4  -2  -1 4462.25  154.58
  -2  -2  -1 4627.54  154.68
  -2   4  -1 4371.56  154.78
  -2  -2  -1 4159.68  155.38
  -2   4  -1 4172.58  154.38
  -2   4  -1 4056.69  155.28
   4  -2  -1 4443.66  154.38
   4  -2  -1 4588.64  154.88
   4  -2  -1 4442.26  154.78
  -2  -2  -1 4157.78  154.68
   4  -2  -1 4388.96  154.88
  -2   4  -1 4459.55  155.48
   4  -2  -1 4480.55  154.78
  -2  -2  -1 4308.37  154.88
  -2  -2  -1 4136.39  154.38
  -2   4  -1 4228.88  155.18
   2  -4   1 4692.03  155.28
  -4   2   1 4250.97  155.18
   2  -4   1 4674.63  155.18
   2  -4   1 4316.47  154.78
   2   2   1 4566.54  155.48
   2   2   1 4494.45  155.38
   2  -4   1 4054.29  155.28
   2   2   1 4489.45  154.58
   2  -4   1 4668.13  154.38
   2   2   1 4462.75  154.58
   2   2   1 4300.27  154.88
   2   2   1 4511.75  154.88
  -3  -2  -1  388.36   15.20
   5  -3  -1  395.76   15.60
   5  -3  -1  417.96   15.30
  -2   5  -1  389.76   15.40
  -3  -2  -1  390.26   14.80
   5  -3  -1  373.76   15.20
   5  -3  -1  383.06   15.60
  -2   5  -1  362.66   15.10
   5  -3  -1  383.36   15.20
  -2   5  -1  384.26   16.30
   5  -3  -1  390.96   15.10
  -3  -2  -1  368.46   15.00
  -3  -2  -1  353.96   15.70
  -3  -2  -1  376.96   16.10
  -2   5  -1  406.06   16.30
   5  -3  -1  383.36   15.60
   3   2   1  360.06   16.00
   3   2   1  383.06   15.10
   3   2   1  388.76   16.20
   2  -5   1  374.06   15.10
   2  -5   1  394.06   14.90
   2  -5   1  338.27   15.90
   3   2   1  397.96   15.70
   3   2   1  399.36   15.60
   2  -5   1  379.66   15.80
   2  -5   1  391.36   15.60
   2  -5   1  349.96   15.90
  -1   4  -1  416.36   16.30
  -3  -1  -1  403.76   15.80
  -3  -1  -1  433.76   15.50
  -1   4  -1  399.36   16.00
   4  -3  -1  420.36   16.00
   4  -3  -1  413.56   15.80
   4  -3  -1  430.16   16.00
  -3  -1  -1  405.56   16.30
   4  -3  -1  404.56   16.40
   4  -3  -1  416.36   16.30
  -1   4  -1  425.96   16.80
   4  -3  -1  402.36   15.70
   4  -3  -1  412.56   16.40
  -3  -1  -1  391.26   16.60
  -1   4  -1  387.86   16.10
  -3  -1  -1  422.16   15.90
  -1   4  -1  429.96   15.10
   1  -4   1  405.06   15.80
  -4   3   1  390.76   15.70
   1  -4   1  405.96   16.70
   3   1   1  403.66   15.40
  -4   3   1  394.86   16.40
   3   1   1  399.36   16.00
   3   1   1  424.66   16.00
   1  -4   1  427.26   16.50
   3   1   1  422.56   16.80
   3   1   1  417.86   16.40
   3   1   1  414.86   16.80
   1  -4   1  433.66   16.10
   1  -4   1  434.16   15.80
   0   3  -1  316.27   13.80
   3  -3  -1  353.56   13.10
   3  -3  -1  356.56   14.00
  -3   0  -1  351.66   13.40
   0   3  -1  353.26   13.40
   0   3  -1  355.06   13.80
   0   3  -1  345.07   14.00
  -3   0  -1  329.87   13.70
  -3   0  -1  351.46   12.90
   0   3  -1  344.07   13.10
  -3   0  -1  347.57   14.10
   3  -3  -1  356.16   14.00
   3  -3  -1  363.46   13.20
   3  -3  -1  357.66   13.70
   3  -3  -1  370.96   13.60
   3   0   1  354.46   12.80
   3   0   1  368.86   13.50
   0  -3   1  362.56   13.80
  -3   3   1  339.87   14.00
  -3   3   1  324.37   13.40
   0  -3   1  342.77   13.20
   3   0   1  343.07   13.30
   0  -3   1  336.87   13.60
   3   0   1  340.77   13.70
   0  -3   1  364.96   13.30
   0  -3   1  359.26   13.40
  -3   3   1  346.67   13.00
   0  -3   1  335.17   14.00
  -3   3   1  335.57   14.10
   3   0   1  339.27   12.80
   3   0   1  360.86   14.10
  -3   1  -1   71.89    3.70
   2  -3  -1   75.19    4.20
   2  -3  -1   76.79    3.30
   2  -3  -1   78.19    3.50
   1   2  -1   74.29    3.30
   1   2  -1   66.89    3.80
   1   2  -1   80.39    4.30
   1   2  -1   71.79    3.90
   2  -3  -1   63.49    4.20
   1   2  -1   65.29    4.00
   2  -3  -1   71.79    3.90
   1   2  -1   75.79    4.10
  -3   1  -1   78.49    3.80
   2  -3  -1   82.29    4.40
   1   2  -1   75.79    3.30
  -1  -2   1   74.99    4.00
  -2   3   1   75.49    3.30
  -1  -2   1   78.69    3.40
   3  -1   1   84.29    3.70
  -1  -2   1   77.29    3.70
   3  -1   1   73.69    4.20
  -1  -2   1   72.39    4.20
   3  -1   1   75.29    4.00
  -1  -2   1   78.59    3.20
   3  -1   1   73.39    3.40
  -2   3   1   72.59    4.50
  -2   3   1   72.49    3.90
  -1  -2   1   78.09    3.90
   3  -1   1   81.89    3.80
   1  -3  -1   73.29    4.00
   1  -3  -1   77.49    3.40
  -3   2  -1   67.29    4.20
   2   1  -1   79.59    4.20
   1  -3  -1   78.79    4.00
   1  -3  -1   80.09    4.30
   1  -3  -1   70.89    3.30
   1  -3  -1   61.89    4.10
   2   1  -1   74.59    4.00
   2   1  -1   79.09    4.10
  -3   2  -1   76.29    4.00
   1  -3  -1   75.09    4.10
   2   1  -1   77.79    3.30
  -3   2  -1   73.89    3.70
   2   1  -1   73.99    3.80
  -1   3   1   78.49    3.40
   3  -2   1   70.29    4.20
  -1   3   1   76.99    3.60
  -1   3   1   63.89    4.70
   3  -2   1   76.79    3.30
  -2  -1   1   76.99    4.20
   3  -2   1   81.19    3.90
  -1   3   1   73.79    3.80
  -1   3   1   85.39    4.30
  -2  -1   1   73.99    3.30
  -1   3   1   91.89    4.20
   3  -2   1   73.69    3.70
   3  -2   1   77.69    3.80
   3  -2   1   79.09    4.00
   3   0  -1  363.26   13.10
  -3   3  -1  332.97   14.10
   0  -3  -1  339.87   13.30
   3   0  -1  362.76   13.10
   3   0  -1  367.26   14.00
   3   0  -1  359.36   14.00
   0  -3  -1  364.16   13.90
  -3   3  -1  344.07   13.90
   0  -3  -1  369.06   13.60
   0  -3  -1  342.47   13.80
   0  -3  -1  368.86   13.80
   3   0  -1  353.86   13.60
  -3   3  -1  358.06   13.10
   3   0  -1  348.17   13.90
   0  -3  -1  337.17   14.10
  -3   0   1  325.27   13.90
   3  -3   1  350.16   13.20
   0   3   1  332.87   13.80
   0   3   1  357.76   13.70
   3  -3   1  344.77   13.80
   0   3   1  361.56   13.40
   3  -3   1  362.16   13.70
   0   3   1  347.67   13.60
   3  -3   1  359.96   14.10
   3  -3   1  361.26   13.10
  -3   0   1  349.67   13.10
   3  -3   1  371.56   13.90
   4  -1  -1  419.96   16.40
   4  -1  -1  419.16   15.80
  -1  -3  -1  414.26   15.40
  -1  -3  -1  401.26   16.00
  -3   4  -1  421.56   16.10
  -3   4  -1  361.76   16.50
  -1  -3  -1  433.16   16.10
   4  -1  -1  417.66   16.30
  -3   4  -1  405.06   16.60
  -1  -3  -1  387.46   16.60
   4  -1  -1  421.46   15.60
  -1  -3  -1  479.25   18.10
   4  -1  -1  421.86   16.40
  -3   4  -1  410.16   15.60
   4  -1  -1  415.26   15.80
   1   3   1  416.46   16.00
   1   3   1  419.06   16.80
   1   3   1  428.36   16.10
   3  -4   1  414.36   16.10
   1   3   1  402.06   16.30
   3  -4   1  428.06   15.50
   1   3   1  410.86   16.30
   3  -4   1  391.66   16.30
  -4   1   1  402.36   16.30
   3  -4   1  415.46   16.50
  -4   1   1  386.96   16.40
   3  -4   1  422.56   16.80
   1   3   1  407.06   16.20
  -4   1   1  412.16   15.60
   3  -4   1  439.26   16.50
   5  -2  -1  380.56   15.10
  -2  -3  -1  375.46   16.10
  -3   5  -1  378.46   16.20
  -2  -3  -1  383.16   13.90
  -2  -3  -1  393.16   15.30
   5  -2  -1  393.66   14.90
   5  -2  -1  364.86   15.40
  -3   5  -1  372.56   14.90
  -2  -3  -1  393.86   13.90
  -3   5  -1  397.76   15.30
   5  -2  -1  384.06   15.00
   5  -2  -1  382.96   15.60
  -2  -3  -1  376.76   15.30
  -2  -3  -1  387.16   15.00
  -2  -3  -1  353.96   15.10
   5  -2  -1  374.36   15.40
  -3   5  -1  363.86   16.00
   5  -2  -1  373.26   15.40
   3  -5   1  410.16   16.00
   2   3   1  415.26   16.40
  -5   2   1  361.56   15.80
   2   3   1  361.86   15.20
   2   3   1  399.26   15.10
   3  -5   1  388.66   15.90
  -5   2   1  387.96   14.90
   3  -5   1  365.86   16.00
   3  -5   1  355.36   15.20
   2   3   1  359.56   15.70
   2   3   1  390.16   15.50
   2   3   1  365.26   15.50
   3  -5   1  413.26   14.80
   3  -5   1  379.26   15.30
   6  -3  -1  282.37   11.80
   6  -3  -1  281.27   12.30
  -3  -3  -1  281.97   12.40
  -3   6  -1  256.17   13.20
  -3  -3  -1  276.37   13.30
   6  -3  -1  284.97   12.40
  -3   6  -1  290.47   12.30
  -3   6  -1  284.97   13.10
   6  -3  -1  296.47   12.80
   6  -3  -1  282.07   12.60
  -3  -3  -1  286.87   12.30
  -3   6  -1  266.67   13.40
  -3   6  -1  259.97   11.90
   6  -3  -1  274.67   12.30
   6  -3  -1  294.47   12.10
  -3  -3  -1  281.37   11.80
   3  -6   1  283.17   13.10
   3  -6   1  284.77   12.00
   3  -6   1  272.17   12.10
   3   3   1  277.97   12.60
   3   3   1  284.47   12.70
   3  -6   1  311.27   11.90
   3  -6   1  267.87   13.10
   3   3   1  273.77   12.00
   3   3   1  285.57   12.00
   3  -6   1  280.77   12.90
   3   3   1  297.67   13.70
   3   3   1  267.97   12.90
  -3   7  -1  221.88   11.80
  -3   7  -1  221.38   12.30
   7  -4  -1  230.98   11.10
   7  -4  -1  215.88   11.80
   7  -4  -1  219.48   11.40
  -4  -3  -1  234.68   10.50
  -4  -3  -1  266.57   10.70
   7  -4  -1  224.28   11.20
   7  -4  -1  225.08   11.30
  -4  -3  -1  229.98   12.10
   7  -4  -1  239.98   11.90
  -3   7  -1  225.18   10.90
   7  -4  -1  228.68   10.90
  -3   7  -1  254.17   11.40
  -4  -3  -1  222.58   11.30
   3  -7   1  231.28   12.00
   4   3   1  234.58   10.90
   4   3   1  212.48   11.90
   4   3   1  247.68   10.70
   4   3   1  215.78   11.10
   3  -7   1  236.38   10.60
   3  -7   1  226.78   10.90
  -2   6  -1 2894.31  107.09
  -4  -2  -1 2828.62  106.39
   6  -4  -1 2910.71  106.39
   6  -4  -1 3079.49  105.89
   6  -4  -1 3005.50  105.69
  -2   6  -1 2936.31  107.19
  -2   6  -1 3008.50  106.19
   6  -4  -1 3010.00  105.79
  -2   6  -1 2947.10  106.59
   6  -4  -1 2954.70  106.39
   6  -4  -1 3157.88  105.89
  -4  -2  -1 2830.42  107.09
  -4  -2  -1 3115.29  105.89
  -4  -2  -1 3133.19  105.39
   6  -4  -1 2994.40  106.39
  -2   6  -1 2823.02  105.89
   2  -6   1 2859.91  106.59
   2  -6   1 2912.41  106.99
   4   2   1 2986.70  107.09
   4   2   1 3020.30  105.69
   2  -6   1 2845.82  105.79
   4   2   1 2928.21  106.19
   2  -6   1 3122.79  106.39
   4   2   1 3044.50  106.59
   4   2   1 2908.61  107.09
   4   2   1 2914.81  105.39
   2  -6   1 3079.69  105.49
   2  -6   1 2906.21  105.69
  -1   5  -1  186.38    9.40
   5  -4  -1  183.08    9.20
   5  -4  -1  187.38    8.60
  -1   5  -1  204.28    9.70
   5  -4  -1  198.68    8.30
  -4  -1  -1  173.18    8.10
   5  -4  -1  198.18    8.60
  -1   5  -1  188.18    7.50
  -1   5  -1  182.68    8.80
  -1   5  -1  189.98    7.70
   5  -4  -1  189.48    9.20
   5  -4  -1  185.68    8.20
  -4  -1  -1  176.98    9.30
  -4  -1  -1  175.58    8.90
  -1   5  -1  183.88    8.90
  -1   5  -1  175.08    8.60
   5  -4  -1  188.88    9.00
  -5   4   1  179.58    8.10
   1  -5   1  187.78    8.60
  -5   4   1  178.68    9.20
   4   1   1  195.28    8.50
   4   1   1  180.98    8.50
   4   1   1  180.48    9.40
   4   1   1  191.88    9.20
   1  -5   1  184.98    9.10
   1  -5   1  158.28    8.90
   4   1   1  196.98    7.90
   1  -5   1  173.48    8.40
   1  -5   1  185.38    8.30
   1  -5   1  185.48    9.40
   4   1   1  205.38    9.70
   4  -4  -1 4258.77  141.69
   4  -4  -1 3920.41  141.99
   4  -4  -1 4095.59  141.09
  -4   0  -1 3931.01  140.59
   0   4  -1 4133.19  141.99
   4  -4  -1 4121.69  142.29
   4  -4  -1 4293.47  142.39
   4  -4  -1 4138.79  141.69
   0   4  -1 4170.18  142.59
   0   4  -1 3969.50  141.69
   0   4  -1 3686.13  142.09
   4  -4  -1 4020.30  140.99
   0   4  -1 3611.54  142.39
  -4   0  -1 3855.91  141.29
   4  -4  -1 3899.81  141.19
   0  -4   1 4238.58  141.49
  -4   4   1 3872.31  142.29
  -4   4   1 4026.20  141.49
   4   0   1 4150.58  141.49
   4   0   1 3767.82  141.29
   0  -4   1 4061.09  141.29
   4   0   1 3835.02  140.69
   0  -4   1 4370.56  142.09
   4   0   1 4079.79  142.09
   0  -4   1 3940.81  141.29
   0  -4   1 3897.71  141.69
   4   0   1 3842.62  140.49
   4   0   1 4151.08  142.49
   1   3  -1  423.26   16.80
   1   3  -1  400.86   16.10
   3  -4  -1  421.56   16.70
   1   3  -1  421.26   15.90
   3  -4  -1  396.66   16.50
   3  -4  -1  421.36   16.10
  -4   1  -1  415.86   15.70
   1   3  -1  414.26   15.40
  -4   1  -1  406.16   15.90
  -4   1  -1  411.26   16.80
   1   3  -1  428.06   15.50
   1   3  -1  384.96   16.40
   1   3  -1  435.26   16.50
   3  -4  -1  416.46   15.50
   3  -4  -1  421.16   16.40
   3  -4  -1  418.96   15.30
  -1  -3   1  395.36   16.60
   4  -1   1  403.66   15.50
  -1  -3   1  401.56   15.60
  -3   4   1  391.46   15.00
   4  -1   1  472.35   16.40
   4  -1   1  430.96   15.60
   4  -1   1  399.46   16.60
  -1  -3   1  391.86   16.20
  -3   4   1  380.96   16.70
  -1  -3   1  439.66   16.00
   4  -1   1  407.86   16.30
   4  -1   1  426.56   15.90
  -1  -3   1  432.16   15.30
  -3   4   1  402.36   16.10
  -3   4   1  403.76   16.80
  -1  -3   1  418.46   16.20
   2   2  -1 4460.15  155.38
   2   2  -1 4169.08  156.08
   2   2  -1 4178.58  156.08
   2   2  -1 4599.54  156.48
   2  -4  -1 4429.56  155.08
  -4   2  -1 4872.51  157.38
   2   2  -1 4620.04  156.68
   2  -4  -1 3984.50  156.28
   2   2  -1 4528.85  156.18
   2  -4  -1 4817.92  156.78
  -4   2  -1 4388.76  155.88
   2  -4  -1 4415.86  156.18
   2  -4  -1 4609.34  156.58
   2  -4  -1 4304.47  155.28
   2  -4  -1 4522.95  156.08
  -4   2  -1 4277.97  155.98
  -4   2  -1 4305.27  156.88
  -2  -2   1 4304.67  156.38
   4  -2   1 4439.36  156.68
  -2  -2   1 4214.38  156.58
  -2   4   1 4292.47  156.78
  -2   4   1 4167.68  156.18
   4  -2   1 4656.23  156.38
  -2  -2   1 4613.24  155.98
  -2  -2   1 4491.25  156.08
   4  -2   1 4640.94  156.08
  -2   4   1 4538.45  155.38
  -2   4   1 4360.96  156.48
   4  -2   1 4585.14  155.98
  -2  -2   1 4274.97  155.48
   4  -2   1 4389.36  155.78
  -4   3  -1  384.56   16.40
   3   1  -1  404.36   16.00
   3   1  -1  449.66   16.60
   1  -4  -1  397.56   16.10
   1  -4  -1  372.16   16.40
   1  -4  -1  425.26   16.20
   3   1  -1  420.16   15.40
   3   1  -1  429.36   16.40
  -4   3  -1  385.06   16.10
   1  -4  -1  415.76   15.40
   3   1  -1  409.86   16.40
   1  -4  -1  410.26   16.50
   1  -4  -1  420.36   16.10
   3   1  -1  420.76   16.00
  -3  -1   1  392.26   16.40
   4  -3   1  430.56   16.10
   4  -3   1  426.56   15.90
   4  -3   1  413.26   15.50
   4  -3   1  417.06   16.40
  -1   4   1  404.36   15.60
   4  -3   1  431.26   16.40
   4  -3   1  402.26   16.60
  -3  -1   1  436.96   16.10
  -3  -1   1  416.46   15.30
  -1   4   1  416.36   15.60
   4  -3   1  412.16   15.70
  -1   4   1  392.86   16.60
  -1   4   1  395.96   16.30
   4  -3   1  431.86   16.10
  -3  -1   1  438.86   16.80
  -1   4   1  413.06   16.60
   4   0  -1 4008.30  141.49
  -4   4  -1 4158.38  141.69
   0  -4  -1 3913.71  141.99
   0  -4  -1 4068.39  142.19
   4   0  -1 3969.40  141.49
   4   0  -1 3816.62  142.19
   4   0  -1 4186.48  142.99
   4   0  -1 4130.49  142.99
   0  -4  -1 3911.91  142.39
   4   0  -1 4022.20  141.79
   4   0  -1 3930.01  142.29
   4   0  -1 4127.19  142.89
  -4   4  -1 4024.20  142.99
   0  -4  -1 4249.57  142.69
   0  -4  -1 4251.47  142.89
   4  -4   1 4223.78  142.59
   4  -4   1 4120.59  141.79
   0   4   1 4170.48  142.49
   0   4   1 4060.79  142.39
   0   4   1 3492.85  143.49
   4  -4   1 3815.42  143.29
   0   4   1 4145.39  142.29
   4  -4   1 3892.41  142.69
  -4   0   1 3904.21  143.09
   0   4   1 4076.19  143.29
   4  -4   1 4304.67  143.19
   0   4   1 3881.01  142.99
   4  -4   1 4012.40  141.69
  -4   0   1 3976.90  141.69
   4  -4   1 4127.59  142.79
   4  -4   1 4160.58  141.59
   5  -1  -1  200.38    8.00
   5  -1  -1  195.18    9.10
  -4   5  -1  195.48    9.50
   5  -1  -1  191.88    9.10
   5  -1  -1  194.08    8.80
   5  -1  -1  186.88    8.00
   5  -1  -1  180.18    9.00
  -1  -4  -1  177.88    8.30
  -1  -4  -1  188.18    8.70
  -4   5  -1  178.28    8.10
   5  -1  -1  187.98    8.30
  -1  -4  -1  170.78    8.50
  -4   5  -1  173.08    9.30
  -1  -4  -1  188.48    9.30
   1   4   1  202.88    8.70
   1   4   1  176.38    8.90
   1   4   1  172.58    8.80
  -5   1   1  188.48    8.00
   1   4   1  194.78    8.50
   1   4   1  186.68    9.60
   4  -5   1  186.28    8.70
   4  -5   1  181.78    9.30
  -5   1   1  181.88   10.30
   4  -5   1  193.88    9.30
   1   4   1  174.58    8.70
   4  -5   1  183.18    7.90
   4  -5   1  179.78    9.30
   4  -5   1  187.98    8.80
  -5   1   1  184.18    9.00
  -2  -4  -1 2997.60  104.79
  -4   6  -1 2940.61  105.99
  -2  -4  -1 2873.61  106.39
   6  -2  -1 3049.99  105.89
  -4   6  -1 2941.31  107.59
   6  -2  -1 3030.70  106.09
  -2  -4  -1 2943.91  107.59
  -4   6  -1 3114.99  106.39
  -2  -4  -1 2969.60  106.39
  -2  -4  -1 2867.31  106.19
   6  -2  -1 2937.31  106.79
  -2  -4  -1 2919.61  104.89
  -4   6  -1 2899.51  107.59
   6  -2  -1 3135.29  107.09
  -2  -4  -1 3037.50  106.29
   6  -2  -1 3020.10  106.59
   6  -2  -1 3005.60  106.79
   6  -2  -1 3053.19  106.09
   2   4   1 3078.49  106.19
  -6   2   1 2940.51  107.39
   2   4   1 2965.80  107.69
   4  -6   1 2844.72  107.29
   4  -6   1 3049.20  107.19
   4  -6   1 3006.10  107.29
   2   4   1 3009.70  107.19
   4  -6   1 3104.99  105.69
   4  -6   1 2880.81  106.39
   2   4   1 3100.79  106.79
   2   4   1 3005.80  106.99
   4  -6   1 2853.21  106.29
   2   4   1 2906.81  106.59
   7  -3  -1  213.48   13.10
  -4   7  -1  231.28   12.20
   7  -3  -1  245.18   11.10
  -4   7  -1  255.87   11.20
   7  -3  -1  240.28   10.80
   7  -3  -1  230.28   11.40
  -3  -4  -1  239.38   11.30
  -4   7  -1  230.68   12.40
  -3  -4  -1  243.38   11.00
  -3  -4  -1  235.08   12.30
  -3  -4  -1  231.38   10.80
  -4   7  -1  226.18   10.80
   7  -3  -1  228.48   11.10
   4  -7   1  234.28   10.50
   3   4   1  228.18   10.70
   3   4   1  238.88   11.10
   3   4   1  230.58   11.50
   3   4   1  227.68   11.90
   4  -7   1  199.88   13.20
   3   4   1  236.18   13.30
   4  -7   1  230.98   11.00
  -4  -4  -1 1908.71   68.19
  -4  -4  -1 1987.10   69.39
  -4   8  -1 1879.11   70.29
  -4  -4  -1 1860.31   70.39
  -4   8  -1 1873.21   70.79
  -4  -4  -1 1839.22   68.09
  -4   8  -1 1906.21   68.39
  -4   8  -1 1821.62   68.49
   4  -8   1 1886.41   67.99
   4   4   1 1794.22   69.29
   4   4   1 1904.01   68.49
   4   4   1 1877.91   70.29
   4  -8   1 1787.12   69.89
   4  -8   1 1924.61   67.89
   4   4   1 1860.11   68.09
   4  -8   1 1871.61   68.79
  -5  -4  -1  125.09   10.30
  -5  -4  -1  130.69    8.10
  -4   9  -1  126.09   10.80
  -4   9  -1  138.99   10.30
  -5  -4  -1  136.49    9.40
  -4   9  -1  120.09   10.00
  -4   9  -1  156.68    9.70
   4  -9   1  147.69    9.10
   5   4   1  137.49    9.50
   4  -9   1  148.29    8.30
   4  -9   1  132.29   10.10
   5   4   1  118.29   10.10
   5   4   1  129.89    8.50
  -3   8  -1  218.68   13.20
  -3   8  -1  231.58   12.30
  -5  -3  -1  213.98   12.90
  -5  -3  -1  215.68   11.90
  -5  -3  -1  224.38   10.80
  -5  -3  -1  241.08   11.20
  -3   8  -1  229.98   11.70
  -3   8  -1  219.58   12.50
   5   3   1  219.18   11.30
   5   3   1  216.88   12.80
   5   3   1  247.28   11.00
   5   3   1  221.78   11.80
   3  -8   1  239.38   10.90
   3  -8   1  220.98   11.40
   3  -8   1  239.48   13.00
  -2   7  -1  257.37   12.50
  -5  -2  -1  255.57   11.10
   7  -5  -1  267.37   14.60
   7  -5  -1  254.67   11.80
  -2   7  -1  252.27   12.00
  -5  -2  -1  250.37   12.40
   7  -5  -1  248.78   12.10
   7  -5  -1  251.67   11.60
  -2   7  -1  258.07   12.50
  -2   7  -1  256.27   13.20
  -5  -2  -1  246.38   13.00
   5   2   1  261.47   11.60
   2  -7   1  248.98   12.90
   2  -7   1  238.38   12.20
   5   2   1  224.38   12.70
   5   2   1  249.18   11.10
   5   2   1  244.58   11.90
   2  -7   1  255.67   11.50
   2  -7   1  250.77   11.50
   2  -7   1  258.07   11.70
   6  -5  -1  316.97   13.00
  -1   6  -1  273.87   13.70
  -1   6  -1  309.97   11.60
  -1   6  -1  301.67   13.50
   6  -5  -1  277.97   13.80
  -5  -1  -1  291.77   14.00
   6  -5  -1  301.57   12.40
   6  -5  -1  280.17   13.60
  -5  -1  -1  282.07   13.40
   6  -5  -1  290.47   13.30
   6  -5  -1  290.67   13.60
  -1   6  -1  279.67   13.80
   6  -5  -1  264.17   12.70
  -1   6  -1  296.77   11.80
   6  -5  -1  317.27   12.40
   6  -5  -1  286.57   13.00
  -5  -1  -1  298.17   12.40
  -1   6  -1  308.57   13.30
  -6   5   1  292.97   13.60
   1  -6   1  287.77   12.90
   1  -6   1  307.77   12.70
   5   1   1  287.87   12.80
   1  -6   1  300.57   12.80
   5   1   1  295.27   12.70
   5   1   1  278.87   13.90
  -6   5   1  297.77   12.30
   1  -6   1  292.27   12.80
   1  -6   1  291.97   13.90
   5   1   1  300.07   11.90
   0   5  -1  125.29    7.40
   0   5  -1  123.39    6.30
   0   5  -1  128.79    6.00
   0   5  -1  136.29    7.30
   5  -5  -1  120.29    7.60
   0   5  -1  121.69    6.90
   5  -5  -1  126.89    6.10
   0   5  -1  121.99    6.50
   5  -5  -1  125.79    7.10
   5  -5  -1  133.49    6.80
   5  -5  -1  121.39    6.40
   5  -5  -1  132.29    6.00
  -5   0  -1  117.29    7.50
   0   5  -1  125.49    7.90
   5  -5  -1  116.19    6.80
   5  -5  -1  123.99    7.80
   0  -5   1  137.09    7.70
   5   0   1  128.79    6.60
   0  -5   1  143.39    6.70
  -5   5   1  118.49    7.40
   5   0   1  125.39    7.80
   5   0   1  128.29    5.30
   5   0   1  140.09    7.50
   5   0   1  130.79    6.50
   0  -5   1  100.79    6.80
   5   0   1  131.49    5.80
   0  -5   1  122.39    6.30
  -5   5   1  126.49    6.40
   4  -5  -1  196.28    8.70
  -5   1  -1  175.68    8.10
   1   4  -1  196.68    9.20
   4  -5  -1  192.98    9.50
   4  -5  -1  198.28    7.80
   1   4  -1  194.78    8.10
   1   4  -1  194.08    9.70
  -5   1  -1  182.88    8.40
   1   4  -1  190.08    9.00
   4  -5  -1  189.88    8.10
   1   4  -1  197.98    8.20
   1   4  -1  196.08    8.50
  -5   1  -1  200.68    9.80
   1   4  -1  183.88    9.20
   4  -5  -1  193.88    9.70
   5  -1   1  179.58    7.80
  -1  -4   1  179.88    8.20
   5  -1   1  201.58    9.70
  -1  -4   1  185.68    9.50
  -1  -4   1  187.68    8.60
   5  -1   1  189.28    9.20
  -4   5   1  192.18    8.70
  -4   5   1  175.08    9.50
   5  -1   1  195.38    8.60
  -1  -4   1  188.78    8.90
   5  -1   1  185.98    8.20
  -4   5   1  186.38    9.60
   5  -1   1  197.68    8.00
   2   3  -1  388.16   16.00
   2   3  -1  395.16   15.30
  -5   2  -1  338.97   15.00
   2   3  -1  389.36   14.40
   3  -5  -1  391.36   15.20
  -5   2  -1  384.26   15.20
   2   3  -1  356.36   15.30
   3  -5  -1  313.47   16.20
   2   3  -1  378.56   13.80
  -5   2  -1  378.96   16.20
   2   3  -1  358.06   15.20
   3  -5  -1  368.16   15.70
   3  -5  -1  401.06   16.00
   3  -5  -1  394.46   14.40
   3  -5  -1  368.76   15.20
   2   3  -1  383.96   15.60
  -2  -3   1  394.26   15.20
  -2  -3   1  366.66   15.90
  -3   5   1  354.76   16.00
   5  -2   1  387.46   14.50
  -3   5   1  355.46   15.20
   5  -2   1  372.86   14.70
   5  -2   1  418.36   16.10
   5  -2   1  371.76   15.40
  -2  -3   1  381.06   13.80
   5  -2   1  381.76   14.40
   5  -2   1  387.26   15.00
  -2  -3   1  320.87   15.00
  -3   5   1  399.46   15.90
  -2  -3   1  358.66   16.40
   5  -2   1  421.46   15.00
  -2  -3   1  396.36   15.10
   2  -5  -1  375.66   14.30
   2  -5  -1  390.46   16.00
  -5   3  -1  389.06   15.20
   3   2  -1  396.06   14.40
  -5   3  -1  358.76   15.50
   3   2  -1  412.46   16.10
   3   2  -1  361.26   15.20
   2  -5  -1  405.66   15.70
  -5   3  -1  379.76   15.30
   2  -5  -1  391.16   15.30
   3   2  -1  389.06   15.80
   2  -5  -1  371.06   15.30
   2  -5  -1  324.37   16.40
   3   2  -1  356.96   15.20
   3   2  -1  401.16   15.60
  -2   5   1  348.67   15.30
   5  -3   1  379.16   15.90
  -2   5   1  397.46   14.50
   5  -3   1  370.66   15.00
   5  -3   1  376.66   15.30
  -2   5   1  370.06   16.10
   5  -3   1  388.36   15.10
  -2   5   1  374.36   14.10
   5  -3   1  385.46   15.40
  -2   5   1  373.16   15.90
  -3  -2   1  372.66   15.70
  -3  -2   1  364.16   16.00
   5  -3   1  392.36   14.60
  -3  -2   1  401.36   15.20
   5  -3   1  379.56   15.10
  -3  -2   1  365.56   14.40
   4   1  -1  185.58    8.60
   1  -5  -1  183.28    9.20
   1  -5  -1  192.78    9.30
   1  -5  -1  183.18    8.70
   4   1  -1  178.08    9.20
   4   1  -1  197.68    9.30
   4   1  -1  193.58    8.00
  -5   4  -1  169.78    9.20
   1  -5  -1  199.48    8.90
   1  -5  -1  187.98    7.90
   1  -5  -1  185.98    8.70
   4   1  -1  190.18    8.50
  -5   4  -1  178.38    8.80
   4   1  -1  184.08    9.10
   5  -4   1  195.78    9.20
  -4  -1   1  186.38    7.70
  -1   5   1  187.28    9.40
  -1   5   1  189.98    9.10
   5  -4   1  181.08    8.60
   5  -4   1  188.18    8.80
  -4  -1   1  190.88    9.50
  -1   5   1  181.58    8.00
   5  -4   1  192.08    8.10
  -1   5   1  195.48    9.60
  -1   5   1  196.58    8.40
  -4  -1   1  176.88    9.00
   5  -4   1  187.98    8.00
   5  -4   1  189.28    9.00
   5  -4   1  195.58    9.50
   0  -5  -1  120.89    6.90
   0  -5  -1  129.29    6.70
   0  -5  -1  123.19    7.40
   5   0  -1  125.89    5.40
   5   0  -1  130.59    7.50
   0  -5  -1  137.19    7.30
  -5   5  -1  126.49    7.40
   5   0  -1  118.39    6.30
  -5   5  -1  113.79    7.40
   5   0  -1  114.39    7.30
   5   0  -1  128.59    7.40
   5   0  -1  128.49    6.50
   5   0  -1  120.09    5.30
   0  -5  -1  127.09    6.40
   0  -5  -1  122.39    6.10
   5   0  -1  127.69    6.00
  -5   0   1  122.79    5.80
   5  -5   1  124.59    5.50
   5  -5   1  123.59    6.00
   5  -5   1  119.69    7.50
   0   5   1  128.79    6.60
   0   5   1  130.09    6.80
   5  -5   1  125.39    5.70
   5  -5   1  139.59    7.60
   5  -5   1  116.39    6.80
   5  -5   1  124.19    7.30
  -5   0   1  132.09    7.30
   0   5   1  128.99    6.80
   0   5   1  126.29    7.90
  -5   0   1  127.49    7.50
   0   5   1  128.29    7.20
   5  -5   1  131.09    6.90
   0   5   1  124.39    7.30
   6  -1  -1  307.77   13.00
  -1  -5  -1  296.97   13.90
  -5   6  -1  303.07   12.20
   6  -1  -1  272.77   13.30
   6  -1  -1  290.57   12.60
  -1  -5  -1  291.77   12.70
  -5   6  -1  294.57   14.00
   6  -1  -1  305.07   13.10
  -5   6  -1  291.87   14.10
  -1  -5  -1  302.37   12.10
   6  -1  -1  320.57   14.00
  -1  -5  -1  303.17   12.90
   6  -1  -1  291.57   11.90
  -1  -5  -1  318.77   13.60
   6  -1  -1  308.27   12.30
   1   5   1  327.97   13.30
   5  -6   1  253.07   13.80
   1   5   1  292.27   13.50
   1   5   1  299.67   12.90
   5  -6   1  285.27   13.90
   1   5   1  286.27   13.50
   5  -6   1  286.57   13.80
   1   5   1  301.87   14.30
  -6   1   1  292.87   13.60
  -6   1   1  291.97   14.00
   5  -6   1  297.07   12.10
  -6   1   1  293.57   12.20
  -2  -5  -1  259.57   11.70
  -2  -5  -1  250.37   10.10
   7  -2  -1  242.28   11.30
   7  -2  -1  251.07   11.30
   7  -2  -1  240.08   11.20
  -5   7  -1  235.38   13.10
  -5   7  -1  241.68   13.00
  -2  -5  -1  256.57   13.00
   7  -2  -1  248.48   11.30
  -2  -5  -1  249.68   11.70
  -5   7  -1  207.88   11.90
   7  -2  -1  267.77   12.30
  -2  -5  -1  257.77   10.00
  -2  -5  -1  238.98   12.00
   2   5   1  239.88   11.70
   5  -7   1  259.17   12.90
   2   5   1  263.27   12.10
   2   5   1  242.08   12.30
   5  -7   1  263.87   12.00
  -7   2   1  261.97   11.20
   2   5   1  268.17   12.80
   2   5   1  264.37   12.60
  -7   2   1  254.57   13.00
   5  -7   1  263.87   11.20
   2   5   1  269.87   12.40
  -3  -5  -1  228.88   13.00
  -3  -5  -1  241.08   11.80
  -5   8  -1  230.58   11.10
   8  -3  -1  218.88   12.40
  -5   8  -1  236.58   13.20
   8  -3  -1  221.48   11.60
  -3  -5  -1  235.68   11.30
   8  -3  -1  229.68   10.80
   8  -3  -1  232.38   11.10
  -5   8  -1  218.58   13.00
   5  -8   1  224.38   11.00
   5  -8   1  219.08   11.40
   5  -8   1  231.78   12.70
   3   5   1  252.07   12.80
   3   5   1  210.18   12.10
   3   5   1  232.88   11.80
   5  -8   1  239.58   11.20
  -5   9  -1  135.69    9.00
  -4  -5  -1  126.69   10.10
  -5   9  -1  125.39   10.20
   9  -4  -1  124.09    7.80
  -5   9  -1  151.78   11.20
  -4  -5  -1  136.09    9.20
  -4  -5  -1  137.39    8.40
   4   5   1  136.99    9.10
   5  -9   1  139.79    8.90
   4   5   1  134.29   10.20
   4   5   1  132.39    9.50
   5  -9   1  142.09    8.20
   5  -9   1  132.19   10.20
  -5  -5  -1  140.39    8.80
  -5  10  -1  128.69   10.10
  -5  10  -1  135.29   12.10
  -5  -5  -1  118.79    9.90
  10  -5  -1  121.09    8.20
  -5  -5  -1  114.89   10.80
   5   5   1  117.69    9.50
   5 -10   1  127.79   11.00
   5   5   1  111.89   10.00
   5   5   1  110.19   10.70
   5 -10   1  120.09    8.50
   5 -10   1  136.99    9.50
  -4  10  -1 1344.37   53.09
  -6  -4  -1 1313.17   50.99
  -6  -4  -1 1312.77   48.70
  -4  10  -1 1323.07   50.49
  -6  -4  -1 1301.37   52.49
  10  -6  -1 1293.67   50.49
   4 -10   1 1312.07   50.19
   6   4   1 1230.28   50.59
   4 -10   1 1260.17   51.79
   6   4   1 1305.77   49.30
   4 -10   1 1351.36   48.70
   6   4   1 1279.77   52.29
  -6  -3  -1  125.69    9.30
  -3   9  -1  126.89    9.40
  -3   9  -1  130.69   10.90
  -6  -3  -1  127.69    7.80
  -3   9  -1  113.69   11.30
  -6  -3  -1  134.69   10.40
   9  -6  -1  126.89    9.20
   6   3   1  119.49    9.10
   3  -9   1  129.99    8.80
   6   3   1  107.59   10.00
   6   3   1  140.09    8.30
   3  -9   1  122.39    8.20
   3  -9   1  130.69   10.00
  -2   8  -1 2006.50   77.09
   8  -6  -1 1983.50   74.59
  -6  -2  -1 2081.69   76.29
  -2   8  -1 2009.20   75.49
   8  -6  -1 2088.99   75.39
  -6  -2  -1 2014.20   74.19
  -2   8  -1 2118.49   76.19
  -2   8  -1 2024.60   75.49
  -6  -2  -1 2067.89   77.19
   2  -8   1 2032.00   76.79
   2  -8   1 2160.08   74.69
   2  -8   1 2129.19   75.29
   6   2   1 2041.20   75.59
   6   2   1 2029.20   74.09
   6   2   1 2055.19   77.29
  -6  -1  -1  181.58   10.90
  -1   7  -1  173.08   11.00
  -1   7  -1  164.48   10.00
   7  -6  -1  191.68    9.10
   7  -6  -1  195.28    9.60
  -1   7  -1  190.38    8.20
   7  -6  -1  187.88   10.20
  -1   7  -1  168.48    8.20
  -6  -1  -1  188.98    9.00
   7  -6  -1  182.18   10.10
   7  -6  -1  177.18    9.40
  -1   7  -1  172.38   10.70
  -1   7  -1  182.18    9.90
   1  -7   1  187.88    9.40
   1  -7   1  177.28    9.30
   6   1   1  165.88   10.70
   6   1   1  189.28    9.70
   6   1   1  172.48    9.60
   1  -7   1  180.58    9.80
  -7   6   1  191.88   10.70
   6   1   1  189.28    8.60
  -7   6   1  189.48    8.90
   0   6  -1 2503.05   87.29
   6  -6  -1 2529.25   86.99
   0   6  -1 2099.89   88.19
   6  -6  -1 2523.75   86.69
   6  -6  -1 2427.76   87.49
  -6   0  -1 2448.26   89.29
   0   6  -1 2387.06   88.09
   0   6  -1 2426.36   88.99
   6  -6  -1 2412.96   88.39
  -6   0  -1 2442.16   87.19
   0   6  -1 2566.14   88.49
   6  -6  -1 2438.96   87.29
   0   6  -1 2532.25   86.89
   0  -6   1 2510.05   87.19
   6   0   1 2342.27   89.09
   6   0   1 2455.85   85.69
   6   0   1 2377.06   87.39
   6   0   1 2448.85   86.49
   0  -6   1 2369.76   89.09
   6   0   1 2485.55   87.49
  -6   6   1 2481.25   87.29
   0  -6   1 2408.46   87.69
  -6   6   1 2431.56   88.99
   0  -6   1 2416.76   87.39
   1   5  -1  309.67   13.90
   1   5  -1  308.17   12.60
  -6   1  -1  287.27   14.10
   5  -6  -1  303.07   11.70
   1   5  -1  265.67   13.10
   5  -6  -1  299.97   12.50
   1   5  -1  283.37   13.30
   1   5  -1  325.17   14.00
  -6   1  -1  296.37   12.70
   5  -6  -1  303.17   13.60
   5  -6  -1  305.77   13.00
   1   5  -1  295.87   12.70
  -1  -5   1  310.97   12.10
   6  -1   1  297.67   11.90
   6  -1   1  291.17   12.50
  -1  -5   1  300.67   13.50
   6  -1   1  308.07   12.30
  -5   6   1  288.47   14.10
  -1  -5   1  300.07   13.10
  -5   6   1  298.87   13.00
   6  -1   1  301.67   12.30
  -1  -5   1  287.17   13.10
  -1  -5   1  288.97   13.30
   6  -1   1  314.17   12.90
  -6   2  -1 2967.00  106.09
   2   4  -1 2915.71  106.79
   2   4  -1 2937.31  106.69
   4  -6  -1 2895.21  105.29
   2   4  -1 3154.98  106.49
   2   4  -1 3173.08  107.09
   4  -6  -1 2838.42  107.09
   4  -6  -1 3014.20  106.29
  -6   2  -1 2936.81  106.09
   4  -6  -1 2799.12  106.79
   2   4  -1 3155.88  105.59
   4  -6  -1 2797.82  106.39
   4  -6  -1 2897.21  107.19
  -6   2  -1 2975.70  107.69
   6  -2   1 3082.89  107.49
  -4   6   1 2873.91  107.49
  -2  -4   1 3133.09  106.59
   6  -2   1 3141.29  105.89
   6  -2   1 2968.10  106.79
   6  -2   1 3014.30  106.69
  -2  -4   1 2896.21  107.39
  -4   6   1 2915.21  106.39
   6  -2   1 3066.29  106.09
  -2  -4   1 2932.31  106.69
  -2  -4   1 2937.61  105.69
   6  -2   1 3008.60  105.69
  -2  -4   1 3091.79  106.29
  -2  -4   1 2900.31  104.69
   6  -2   1 3015.80  105.59
   3  -6  -1  279.87   13.10
  -6   3  -1  272.47   12.60
   3  -6  -1  281.17   12.30
  -6   3  -1  286.17   12.30
   3   3  -1  296.77   11.50
   3  -6  -1  269.57   12.80
   3   3  -1  285.67   13.40
   3   3  -1  279.57   12.50
   3   3  -1  292.37   13.10
   3   3  -1  273.87   12.50
   3  -6  -1  283.77   13.40
   3  -6  -1  277.17   12.50
   3   3  -1  289.27   12.80
   3  -6  -1  279.07   11.20
   6  -3   1  289.47   12.40
  -3   6   1  278.87   13.40
  -3  -3   1  291.47   12.40
   6  -3   1  296.17   12.90
  -3  -3   1  288.87   13.40
   6  -3   1  296.77   12.30
  -3   6   1  280.37   13.50
  -3  -3   1  285.47   12.80
   6  -3   1  289.77   12.10
   6  -3   1  299.87   12.40
   6  -3   1  284.87   11.60
  -3  -3   1  278.97   11.50
  -3   6   1  275.97   12.60
  -3   6   1  260.77   12.90
   6  -3   1  289.07   13.30
   6  -3   1  284.27   12.80
   4   2  -1 2888.41  105.69
   2  -6  -1 3065.99  106.19
  -6   4  -1 2857.21  105.79
   2  -6  -1 2828.72  106.39
   4   2  -1 2997.20  106.19
   2  -6  -1 2831.52  105.69
  -6   4  -1 2951.20  106.49
   4   2  -1 2867.51  105.79
   2  -6  -1 2911.91  104.59
   2  -6  -1 2901.51  106.39
   4   2  -1 2975.00  104.59
   2  -6  -1 3108.39  105.69
   4   2  -1 3014.80  106.39
   4   2  -1 3011.70  106.59
  -4  -2   1 2925.71  106.39
   6  -4   1 2970.60  105.59
   6  -4   1 2995.40  104.89
  -2   6   1 2919.41  106.89
  -2   6   1 2855.91  104.29
   6  -4   1 2924.61  105.69
  -2   6   1 3023.50  106.79
  -4  -2   1 2879.91  104.49
   6  -4   1 2938.11  106.59
  -4  -2   1 3169.78  105.69
   6  -4   1 2990.20  105.59
  -2   6   1 2833.32  105.99
   6  -4   1 3131.19  106.19
  -2   6   1 2975.10  104.89
  -4  -2   1 2892.31  106.69
   6  -4   1 3061.79  105.89
   6  -4   1 3102.69  105.29
   1  -6  -1  284.57   13.80
  -6   5  -1  283.87   13.70
   1  -6  -1  291.17   13.70
  -6   5  -1  293.27   13.30
   1  -6  -1  285.57   13.00
   5   1  -1  293.47   11.90
   5   1  -1  273.87   13.60
   1  -6  -1  292.67   12.90
   1  -6  -1  291.17   12.90
   1  -6  -1  289.47   11.90
   5   1  -1  278.37   12.60
   5   1  -1  266.07   13.20
   6  -5   1  278.27   14.00
   6  -5   1  312.67   12.10
  -5  -1   1  302.27   11.70
   6  -5   1  287.57   12.20
   6  -5   1  292.37   13.10
  -5  -1   1  287.67   13.50
  -1   6   1  281.87   13.70
   6  -5   1  293.57   13.20
   6  -5   1  295.87   11.90
   6  -5   1  290.97   13.70
  -5  -1   1  313.27   14.00
  -1   6   1  289.67   12.00
  -1   6   1  319.17   12.70
  -1   6   1  287.97   13.30
   6   0  -1 2501.35   87.59
   6   0  -1 2367.86   88.19
  -6   6  -1 2478.55   89.49
   0  -6  -1 2304.97   89.39
   6   0  -1 2398.16   87.79
   6   0  -1 2451.85   86.39
  -6   6  -1 2501.05   89.99
   0  -6  -1 2476.05   88.39
   0  -6  -1 2539.95   87.99
  -6   6  -1 2476.85   87.09
   6  -6   1 2369.46   89.49
   0   6   1 2407.26   88.19
   0   6   1 2574.24   87.59
   0   6   1 2562.84   88.39
   0   6   1 2390.76   89.09
  -6   0   1 2468.35   89.69
  -6   0   1 2382.86   89.19
  -6   0   1 2485.15   87.39
   6  -6   1 2599.84   87.49
   6  -6   1 2486.15   88.69
   6  -6   1 2363.96   88.79
   0   6   1 2465.35   89.49
   6  -6   1 2415.16   86.99
  -6   7  -1  174.88    8.40
  -1  -6  -1  171.18   10.50
  -6   7  -1  171.68   10.70
   7  -1  -1  188.18    8.20
  -6   7  -1  189.18   11.10
   7  -1  -1  174.28    9.20
  -1  -6  -1  183.58    9.50
   7  -1  -1  171.18    9.10
   7  -1  -1  175.58    8.90
   7  -1  -1  198.68   10.20
  -1  -6  -1  184.98    9.20
  -1  -6  -1  179.28    8.70
   7  -1  -1  181.88    9.10
   6  -7   1  180.38   10.50
   1   6   1  178.38   10.30
  -7   1   1  187.08    8.70
  -7   1   1  184.58   10.80
   1   6   1  188.68    9.90
   1   6   1  175.68   10.20
   1   6   1  196.28   10.80
  -7   1   1  171.88   10.20
   1   6   1  177.18    9.30
   6  -7   1  192.88    9.90
   6  -7   1  189.48    8.80
  -2  -6  -1 2070.19   76.09
  -6   8  -1 2149.69   75.29
  -2  -6  -1 2062.59   74.39
  -6   8  -1 2009.80   77.79
   8  -2  -1 2303.57   76.79
   8  -2  -1 2069.99   74.99
   8  -2  -1 1986.10   75.49
  -2  -6  -1 2051.09   75.89
   8  -2  -1 2104.49   75.49
  -2  -6  -1 2043.80   73.99
   8  -2  -1 2007.10   76.09
  -6   8  -1 2127.69   78.39
  -2  -6  -1 2053.99   77.89
   6  -8   1 2132.59   76.09
  -8   2   1 2035.90   77.79
   2   6   1 2121.39   77.29
   2   6   1 2070.59   76.99
   6  -8   1 1945.11   77.29
   6  -8   1 2160.78   75.09
  -8   2   1 2182.48   75.49
   2   6   1 2077.49   76.89
  -6   9  -1  141.69    8.60
  -3  -6  -1  125.69    8.40
  -6   9  -1  119.49   10.60
   9  -3  -1  135.09    8.20
   9  -3  -1  119.49    7.90
   9  -3  -1  105.49    9.30
  -3  -6  -1  132.19   10.30
  -3  -6  -1  138.49    9.00
  -6   9  -1  137.69   10.90
   6  -9   1  125.39    9.80
   3   6   1  134.99    9.20
   6  -9   1  136.49    8.50
   6  -9   1  131.09    8.90
   6  -9   1  115.99    9.60
   3   6   1  116.49    9.30
   3   6   1  116.49    9.70
  10  -4  -1 1335.27   50.19
  -6  10  -1 1357.06   50.49
  -4  -6  -1 1342.17   50.29
  -6  10  -1 1342.97   53.89
  10  -4  -1 1311.87   49.99
  -4  -6  -1 1350.66   53.39
  -4  -6  -1 1350.26   51.49
   4   6   1 1338.97   52.89
   6 -10   1 1324.27   49.70
   4   6   1 1320.87   52.29
   4   6   1 1306.37   51.29
   6 -10   1 1370.26   53.09
   6 -10   1 1289.87   51.29
  -3  10  -1  132.09   11.20
  -7  -3  -1  133.19    8.70
  -7  -3  -1  115.49   11.60
  10  -7  -1  126.19   10.60
  10  -7  -1  142.89   10.90
  -3  10  -1  147.19   12.90
  10  -7  -1  134.39   10.10
   3 -10   1  126.09    9.20
   7   3   1  136.69    9.30
   7   3   1  122.59   11.90
   3 -10   1  139.49   11.60
   7   3   1  146.19   10.70
   3 -10   1  126.99    9.90
  -2   9  -1  132.39   11.30
  -2   9  -1  131.09   10.10
  -7  -2  -1  143.89    8.40
  -7  -2  -1  133.99   11.00
   9  -7  -1  154.18   10.40
   9  -7  -1  129.09    8.80
   9  -7  -1  122.49    9.40
   2  -9   1  137.49    8.60
   7   2   1  142.89    8.20
   7   2   1  131.59    9.40
   2  -9   1  128.19   10.50
   7   2   1  115.09   10.70
   2  -9   1  138.79    9.20
  -1   8  -1  141.39    9.70
   8  -7  -1  160.38   10.70
  -1   8  -1  148.89    7.50
  -1   8  -1  183.38   10.70
   8  -7  -1  137.09    9.50
   8  -7  -1  144.99    8.90
   8  -7  -1  144.09    9.10
  -7  -1  -1  147.39   10.60
  -1   8  -1  126.19   10.40
  -7  -1  -1  146.89    8.20
  -8   7   1  142.39   10.00
   7   1   1  139.79    8.90
   1  -8   1  143.29    8.80
   1  -8   1  145.19   10.30
   1  -8   1  141.99    8.60
   7   1   1  131.09   10.30
   7   1   1  125.29    8.90
   7  -7  -1  124.09    9.20
   0   7  -1  110.89    8.80
  -7   0  -1  123.49    7.30
   0   7  -1  123.69    8.50
   7  -7  -1  118.59    8.50
   0   7  -1  132.29    7.30
   7  -7  -1  119.79    7.50
   7  -7  -1  128.19    7.80
  -7   0  -1  121.09    9.30
   7  -7  -1  137.59    7.20
   0   7  -1  107.09    7.30
  -7   7   1  123.89    7.20
   0  -7   1  116.09    7.60
   7   0   1  131.19    6.60
   7   0   1  129.49    7.40
   7   0   1  119.69    7.60
  -7   7   1  128.09    9.20
   0  -7   1  116.89    7.60
   0  -7   1  124.59    9.10
   0  -7   1  135.59    7.70
   7   0   1  111.29    9.00
   1   6  -1  175.28   10.00
   6  -7  -1  175.88    8.60
   6  -7  -1  182.58   10.20
   6  -7  -1  179.38    7.70
   6  -7  -1  158.78    9.60
  -7   1  -1  175.68   10.90
   1   6  -1  181.68   10.40
   6  -7  -1  178.48    9.00
   1   6  -1  182.78    9.30
   1   6  -1  175.78    9.70
  -7   1  -1  180.28    9.10
   6  -7  -1  180.28    9.60
  -1  -6   1  183.18    9.70
  -1  -6   1  174.68    8.40
   7  -1   1  174.08   10.70
   7  -1   1  185.78    8.90
  -1  -6   1  197.58    9.20
   7  -1   1  177.98    9.90
  -6   7   1  194.38    9.30
   7  -1   1  185.58    9.10
   7  -1   1  173.38    8.10
  -6   7   1  183.58   10.90
   7  -1   1  184.48    8.10
  -1  -6   1  186.88   10.80
  -7   2  -1  244.48   13.30
   5  -7  -1  254.37   10.90
   5  -7  -1  259.27   12.00
   2   5  -1  255.57   12.50
   2   5  -1  259.77   12.40
   5  -7  -1  241.68   11.90
   5  -7  -1  251.27   12.50
   2   5  -1  265.37   11.20
   2   5  -1  259.57   12.40
   2   5  -1  251.57   12.10
  -7   2  -1  259.67   11.80
   7  -2   1  255.47   11.10
  -5   7   1  256.87   12.00
  -2  -5   1  255.87   11.40
  -2  -5   1  261.47   12.20
  -2  -5   1  263.27   10.10
   7  -2   1  247.28   11.20
   7  -2   1  260.37   11.50
   7  -2   1  241.78   11.90
   7  -2   1  263.37   13.00
  -5   7   1  254.97   13.30
   7  -2   1  256.07   11.20
  -2  -5   1  248.68   13.10
   7  -2   1  254.27   10.80
   4  -7  -1  258.97   11.40
   3   4  -1  225.68   11.40
   4  -7  -1  234.18   11.70
   4  -7  -1  238.08   10.00
   3   4  -1  243.68   11.50
   4  -7  -1  236.68   11.30
  -7   3  -1  238.48   11.30
   3   4  -1  224.48   11.70
   3   4  -1  241.28   10.20
  -7   3  -1  241.78   11.10
  -3  -4   1  229.88   11.40
  -3  -4   1  233.08   10.20
  -3  -4   1  235.58   11.50
   7  -3   1  225.28   10.10
  -3  -4   1  215.38   12.00
  -4   7   1  218.28   12.40
   7  -3   1  221.48   13.20
   7  -3   1  235.98   11.00
  -4   7   1  239.98   11.40
   7  -3   1  246.78   10.70
   7  -3   1  222.48   11.70
   7  -3   1  228.78   10.50
  -7   4  -1  230.08   11.60
   3  -7  -1  230.58   11.80
   4   3  -1  243.08   10.00
   4   3  -1  237.18   11.10
   4   3  -1  215.58   11.10
  -7   4  -1  234.08   11.30
   3  -7  -1  227.78   11.40
   3  -7  -1  233.58   11.20
   7  -4   1  246.88   11.20
   7  -4   1  229.28   11.30
   7  -4   1  245.58   10.60
  -3   7   1  227.98   12.40
  -4  -3   1  220.58   11.60
  -4  -3   1  235.18   12.20
  -3   7   1  234.28   11.60
  -4  -3   1  223.08    9.90
  -3   7   1  244.18   10.10
   7  -4   1  236.68   11.30
   7  -4   1  225.28   11.50
  -4  -3   1  242.28   11.30
   5   2  -1  255.47   11.50
  -7   5  -1  237.48   12.70
   2  -7  -1  252.57   11.90
   5   2  -1  255.97   11.90
   2  -7  -1  241.58   10.50
   5   2  -1  258.07   10.70
   2  -7  -1  243.28   12.50
   2  -7  -1  230.48   12.40
  -7   5  -1  263.37   12.10
   7  -5   1  243.28   12.20
  -5  -2   1  251.47   12.50
  -2   7   1  252.17   11.30
  -5  -2   1  247.68   10.40
  -2   7   1  251.87   13.20
  -2   7   1  257.37   10.20
   7  -5   1  260.37   16.10
  -2   7   1  265.47    9.80
   7  -5   1  237.68   12.10
   7  -5   1  262.37   11.40
   7  -5   1  240.38   11.70
  -2   7   1  237.78   12.20
   7  -5   1  259.97   11.20
  -5  -2   1  235.18   12.80
   1  -7  -1  175.88   10.00
   1  -7  -1  176.18    8.70
   1  -7  -1  187.48    9.60
   6   1  -1  183.98    8.60
  -7   6  -1  174.78   10.70
   6   1  -1  170.38    8.90
  -7   6  -1  182.68   10.30
   6   1  -1  177.78    9.40
   1  -7  -1  181.38   10.50
  -1   7   1  187.08   10.80
  -1   7   1  197.58    9.90
  -6  -1   1  188.98   10.90
   7  -6   1  168.48    8.60
   7  -6   1  182.98   10.00
   7  -6   1  177.88   10.40
  -1   7   1  187.68    8.20
   7  -6   1  175.18    8.50
  -1   7   1  175.38    8.60
  -1   7   1  151.28    9.70
  -6  -1   1  172.18   10.20
   7  -6   1  184.18    8.80
   7  -6   1  175.98   10.40
   0  -7  -1  121.49    8.90
   7   0  -1  119.79    7.50
   0  -7  -1  112.69    7.70
  -7   7  -1  131.09    9.00
   7   0  -1  119.69    7.10
  -7   7  -1   99.89    8.90
   0  -7  -1  123.29    7.80
   7   0  -1  123.99    7.50
   0  -7  -1  122.99    7.00
   0   7   1  112.59    8.50
   0   7   1  120.59    8.90
  -7   0   1  113.29    8.90
   7  -7   1  111.89    8.00
   7  -7   1  123.19    7.20
   0   7   1  118.69    7.80
  -7   0   1  107.59    8.40
   7  -7   1  119.59    6.10
   7  -7   1  128.89    8.70
  -7   0   1  127.39    6.70
   0   7   1  132.09    7.30
   0   7   1  131.99    9.00
   8  -1  -1  155.88    8.20
  -7   8  -1  128.59   10.70
   8  -1  -1  139.49    7.00
  -7   8  -1  134.39   10.40
   8  -1  -1  112.79    8.10
   8  -1  -1  137.59   10.40
   8  -1  -1  150.28    9.20
  -1  -7  -1  142.29    8.80
  -1  -7  -1  141.99    8.00
  -7   8  -1  149.79    7.60
  -1  -7  -1  140.49    8.40
  -1  -7  -1  130.29   10.00
   1   7   1  131.19    9.10
   7  -8   1  141.79    9.30
   1   7   1  144.69   10.00
  -8   1   1  162.18   10.90
   1   7   1  127.69    9.70
   7  -8   1  135.09    8.50
   7  -8   1  135.59    9.80
   1   7   1  125.39    9.20
  -8   1   1  146.49    7.90
   9  -2  -1  122.89    8.10
  -2  -7  -1  150.08   10.80
  -2  -7  -1  140.59    9.10
  -7   9  -1  140.99   11.30
  -7   9  -1  129.69    8.00
  -2  -7  -1  137.59    6.90
  -2  -7  -1  130.49    9.00
  -7   9  -1  136.39   11.40
   9  -2  -1   98.59    9.80
   9  -2  -1  124.59    8.60
   7  -9   1  123.39    9.00
   2   7   1  135.89    9.90
   7  -9   1  140.19   10.70
   2   7   1  139.09   10.40
  -9   2   1  129.29   11.20
   2   7   1  136.29   10.30
   7  -9   1  133.09    9.30
  10  -3  -1  136.79    9.50
  -7  10  -1  141.49    9.40
  -3  -7  -1  143.39    9.90
  -3  -7  -1  146.49   10.30
  10  -3  -1  139.69    9.40
  -7  10  -1  148.09   12.90
  10  -3  -1  122.09    9.10
  -3  -7  -1  152.28   12.10
   3   7   1  150.98   11.20
   3   7   1  123.29   11.10
   7 -10   1  148.59    9.70
   7 -10   1  131.59   11.60
   7 -10   1  137.49   10.00
   3   7   1  135.29   11.50
   9  -8  -1  151.18   10.80
  -8  -1  -1  149.39    9.00
   9  -8  -1  144.09   10.20
  -1   9  -1  141.69   10.90
  -1   9  -1  146.89   12.00
  -8  -1  -1  139.19   11.70
   9  -8  -1  140.89    9.00
   1  -9   1  149.99   11.60
   1  -9   1  138.19    9.60
   1  -9   1  145.19    9.40
  -9   8   1  142.99   11.30
   8   1   1  149.79    8.70
   8   1   1  125.59   11.50
   8   1   1  132.49    9.80
   8  -8  -1 1515.75   55.69
   0   8  -1 1556.84   55.59
   0   8  -1 1448.66   58.09
   0   8  -1 1512.05   57.39
  -8   0  -1 1483.05   55.39
  -8   0  -1 1513.65   58.59
   8  -8  -1 1427.66   55.19
   0   8  -1 1543.85   55.09
   8  -8  -1 1518.85   54.39
   8  -8  -1 1481.25   57.29
   8  -8  -1 1567.44   54.99
   8   0   1 1530.95   54.99
   0  -8   1 1512.95   56.09
   0  -8   1 1432.56   55.29
   0  -8   1 1531.15   55.99
  -8   8   1 1532.45   55.19
  -8   8   1 1546.15   58.19
   0  -8   1 1507.05   58.29
   8   0   1 1318.97   55.39
   8   0   1 1488.65   58.69
   8   0   1 1510.65   56.19
  -8   1  -1  152.48   10.80
   1   7  -1  141.29   10.00
   7  -8  -1  141.49    8.70
  -8   1  -1  147.09    8.40
   7  -8  -1  147.69    9.70
   7  -8  -1  131.09    8.70
   1   7  -1  140.39    9.10
   7  -8  -1  129.39    8.30
   1   7  -1  136.99    9.70
   1   7  -1  136.99    9.40
  -1  -7   1  155.78    8.50
   8  -1   1  141.79    8.60
   8  -1   1  128.29   10.30
  -1  -7   1  142.99   10.40
  -1  -7   1  139.09    8.80
   8  -1   1  138.99    7.30
   8  -1   1  144.49    7.10
  -7   8   1  139.19    8.30
  -7   8   1  148.69   10.60
  -1  -7   1  144.29    7.90
   8  -1   1  134.59    8.30
   2   6  -1 2070.99   76.79
  -8   2  -1 2102.89   78.09
   6  -8  -1 2040.50   76.79
   6  -8  -1 2179.88   74.39
  -8   2  -1 2074.69   75.59
   2   6  -1 2026.80   76.89
   2   6  -1 2109.29   76.69
   6  -8  -1 2071.09   74.59
   6  -8  -1 1969.70   75.99
  -6   8   1 2120.59   75.79
   8  -2   1 2170.78   74.69
  -2  -6   1 2123.69   77.79
  -2  -6   1 2120.09   75.29
   8  -2   1 2060.89   74.79
  -2  -6   1 2142.89   73.89
  -2  -6   1 2074.39   76.19
   8  -2   1 2029.70   75.09
  -6   8   1 1995.30   77.69
   8  -2   1 2016.30   74.39
   8  -2   1 2029.10   77.49
   5  -8  -1  225.58   10.00
   5  -8  -1  217.28   12.30
  -8   3  -1  240.08   11.60
   3   5  -1  228.98   12.40
   3   5  -1  235.38   12.20
   3   5  -1  246.18   10.80
   5  -8  -1  235.28   11.80
   3   5  -1  236.68   12.20
   8  -3   1  229.68   12.60
  -3  -5   1  240.68   10.80
   8  -3   1  214.48   11.10
   8  -3   1  232.18   11.30
  -5   8   1  216.38   13.30
  -5   8   1  230.38   11.90
   8  -3   1  244.38   12.60
  -3  -5   1  227.38   12.90
   8  -3   1  238.98   10.60
  -3  -5   1  230.28   12.10
   8  -3   1  226.58   11.20
   4  -8  -1 1841.02   69.99
  -8   4  -1 1984.50   69.49
   4   4  -1 1806.32   69.59
   4  -8  -1 1887.41   69.39
   4   4  -1 1987.30   67.79
   4  -8  -1 1929.61   67.39
  -8   4  -1 1949.20   69.79
   4   4  -1 1844.32   69.19
  -4  -4   1 1912.51   70.89
   8  -4   1 1893.61   67.69
  -4  -4   1 1900.71   69.79
   8  -4   1 1846.02   68.19
  -4  -4   1 1862.61   67.69
  -4   8   1 1863.11   69.39
   8  -4   1 1855.11   68.49
   8  -4   1 1776.42   69.79
  -4   8   1 1892.71   71.09
   5   3  -1  243.18   10.30
   5   3  -1  234.78   11.40
   5   3  -1  241.18   12.00
   3  -8  -1  234.88   11.70
   3  -8  -1  214.58   12.20
   3  -8  -1  232.78    9.90
  -8   5  -1  218.38   12.40
  -5  -3   1  228.88   12.30
  -3   8   1  227.38   12.10
   8  -5   1  219.28   11.10
   8  -5   1  218.68   12.10
  -3   8   1  223.88   10.40
   8  -5   1  230.58   12.20
  -3   8   1  230.58   13.20
  -5  -3   1  205.98   12.50
   8  -5   1  220.68   11.70
   8  -5   1  222.38   11.90
  -5  -3   1  215.18   10.10
   6   2  -1 2013.20   75.99
   2  -8  -1 2010.80   76.99
  -8   6  -1 2106.49   76.39
  -8   6  -1 2154.38   77.49
   6   2  -1 2014.00   75.19
   6   2  -1 2136.99   74.29
   2  -8  -1 2084.39   74.29
   2  -8  -1 2079.49   75.89
  -6  -2   1 2099.39   74.09
   8  -6   1 2097.89   75.39
  -6  -2   1 2043.90   76.79
   8  -6   1 2045.00   74.89
  -2   8   1 1983.60   76.39
  -6  -2   1 2064.99   77.49
   8  -6   1 2146.59   74.79
  -2   8   1 2063.79   77.69
   8  -6   1 2067.99   76.39
  -2   8   1 2056.29   74.89
   1  -8  -1  144.09    7.90
   7   1  -1  143.79    8.40
   1  -8  -1  139.29    8.90
  -8   7  -1  124.99   10.30
   1  -8  -1  147.59   10.40
   7   1  -1  144.09    8.30
   7   1  -1  135.99    8.90
  -8   7  -1  154.28   10.10
  -1   8   1  144.89   10.30
  -1   8   1  153.38    7.60
  -7  -1   1  151.78   10.10
   8  -7   1  141.69    9.00
   8  -7   1  137.79    8.00
  -1   8   1  139.39   10.00
   8  -7   1  147.39   10.10
  -7  -1   1  152.08   10.80
  -1   8   1  148.99    8.40
  -7  -1   1  151.48    7.60
   8  -7   1  137.79    9.50
   8  -7   1  139.19    8.10
  -1   8   1  137.39   10.40
   8   0  -1 1438.56   56.09
  -8   8  -1 1515.45   57.89
   0  -8  -1 1551.34   58.29
   0  -8  -1 1531.55   55.39
   8   0  -1 1528.15   55.39
   0  -8  -1 1371.46   55.19
  -8   8  -1 1467.85   58.69
   8   0  -1 1409.56   54.99
   0  -8  -1 1533.35   56.29
   8  -8   1 1467.15   57.79
  -8   0   1 1518.25   54.79
   0   8   1 1541.45   55.09
   0   8   1 1501.05   57.49
   0   8   1 1545.85   58.09
   8  -8   1 1425.46   54.69
   8  -8   1 1508.55   56.49
   0   8   1 1564.44   55.89
  -8   0   1 1542.15   58.49
  -8   9  -1  134.19   11.80
  -1  -8  -1  146.19   11.40
  -8   9  -1  154.08    8.30
   9  -1  -1  137.19    8.90
  -1  -8  -1  141.29    9.40
  -8   9  -1  147.19   12.20
   9  -1  -1  141.09    9.50
  -1  -8  -1  144.99    8.10
  -1  -8  -1  152.18    9.90
   1   8   1  145.99   10.40
   8  -9   1  136.19   11.00
   8  -9   1  137.29   10.50
  -9   1   1  138.19   11.80
   1   8   1  140.59   11.00
  -9   1   1  142.99    8.80
   1   8   1  130.69   11.10
   9  -9  -1  100.89   10.10
  -9   0  -1   86.69   11.20
   9  -9  -1  102.09    9.40
   0   9  -1   91.69    8.40
  -9   0  -1  104.79    8.20
   9  -9  -1   87.29    8.20
   0   9  -1   91.29    9.50
   0   9  -1   95.89   10.60
  -9   9   1   84.09   10.40
   9   0   1   89.19    7.40
  -9   9   1  101.69    7.90
   0  -9   1  100.19    8.80
   9   0   1   93.39   10.80
   0  -9   1  112.19   11.10
   0  -9   1   86.49    8.50
   9   0   1   90.19    8.70
  -9   1  -1  147.49    9.30
  -9   1  -1  139.09   11.90
   1   8  -1  162.88   11.40
   8  -9  -1  156.38    9.50
   8  -9  -1  133.69    9.40
   1   8  -1  137.89    9.90
   8  -9  -1  149.19   10.80
   1   8  -1  139.89   11.10
   9  -1   1  132.29    9.20
  -8   9   1  149.88    9.00
  -8   9   1  126.89   11.60
   9  -1   1  120.99   11.40
   9  -1   1  142.49    8.10
  -1  -8   1  128.09   11.10
  -1  -8   1  138.59    9.40
  -1  -8   1  138.09    9.90
   2   7  -1  137.49   10.10
  -9   2  -1  131.49    8.70
   2   7  -1  136.49   10.40
   7  -9  -1  138.69   10.10
   2   7  -1  127.69    9.80
  -9   2  -1  134.39   11.30
   7  -9  -1  141.79    9.30
   9  -2   1  144.49    8.60
  -2  -7   1  120.69    9.30
  -7   9   1  118.29   10.90
  -7   9   1  132.69    8.90
   9  -2   1  120.79   10.50
  -2  -7   1  129.59    8.60
  -2  -7   1  143.89   10.90
   9  -2   1  133.59    7.60
  -2  -7   1  128.79    6.80
   3   6  -1  131.79    9.70
   6  -9  -1  121.59    8.80
   3   6  -1  139.69   10.00
   6  -9  -1  139.79    9.80
  -9   3  -1  134.89    8.80
   6  -9  -1  127.99    7.20
   9  -3   1  129.89    7.50
   9  -3   1  107.79    8.90
   9  -3   1  126.99    9.30
  -3  -6   1  142.69    9.70
  -3  -6   1  126.69    8.00
  -6   9   1  129.39    9.10
  -6   9   1  126.89   10.60
  -3  -6   1  115.99   10.00
   9  -3   1  113.59    9.80
   9  -3   1  142.09    7.90
   4   5  -1  138.19    9.40
   4   5  -1  132.69    8.40
   4   5  -1  135.89   10.20
   4   5  -1  122.99    9.30
   5  -9  -1  148.19   10.00
   5  -9  -1  130.89    9.00
   5  -9  -1  131.79    7.00
  -4  -5   1  135.59   10.40
   9  -4   1  138.19   10.30
   9  -4   1  125.69    7.60
   9  -4   1  120.69    9.70
  -5   9   1  147.39   11.10
  -4  -5   1  134.59    7.70
  -4  -5   1  154.88    9.70
  -5   9   1  147.29    9.70
   5   4  -1  140.59   10.50
   4  -9  -1  138.89   10.10
   5   4  -1  136.19    9.30
   5   4  -1  137.09    9.20
   5   4  -1  142.69    8.50
   4  -9  -1  134.79    7.10
   4  -9  -1  140.09    9.20
   9  -5   1  145.49   11.30
  -5  -4   1  136.59    7.40
   9  -5   1  142.39    7.60
  -4   9   1  133.79    9.60
  -5  -4   1  138.89   10.30
  -5  -4   1  146.29    9.80
  -4   9   1  122.19   10.80
   9  -5   1  139.49    9.80
   3  -9  -1  131.69    9.00
   3  -9  -1  130.19    7.00
   3  -9  -1  130.39    9.70
   6   3  -1  128.49    8.80
   6   3  -1  116.99    7.90
   6   3  -1  125.39    8.90
  -3   9   1  128.99    9.80
  -6  -3   1  118.99   10.10
   9  -6   1  106.89    8.70
  -6  -3   1  119.89    9.40
   9  -6   1  120.29    9.60
  -3   9   1  141.39    8.50
   9  -6   1  114.69   10.20
  -3   9   1  128.99   10.60
  -6  -3   1  130.19    7.00
   7   2  -1  135.59    8.80
   2  -9  -1  127.89    7.70
   2  -9  -1  133.99    9.20
  -9   7  -1  154.08   10.40
   2  -9  -1  126.59   10.30
   7   2  -1  118.39    9.30
  -7  -2   1  124.39   10.80
  -7  -2   1  137.79    7.60
   9  -7   1  128.29   10.10
  -2   9   1  120.09   10.10
  -2   9   1  117.39   10.80
  -2   9   1  120.89   10.70
   9  -7   1  133.99    8.70
   9  -7   1  153.28   10.40
  -7  -2   1  134.89   10.30
   8   1  -1  152.08    9.30
   1  -9  -1  137.39    9.70
   8   1  -1  132.69    9.70
   1  -9  -1  154.98   11.60
   1  -9  -1  137.89    8.60
  -9   8  -1  147.09   11.20
  -1   9   1  139.89   11.60
  -1   9   1  129.69   10.90
  -8  -1   1  154.28   11.10
   9  -8   1  129.79   10.40
  -8  -1   1  131.19   11.60
   9  -8   1  124.49    8.30
  -8  -1   1  156.98    8.40
   9  -8   1  139.49   10.70
  -1   9   1  133.09    9.00
   0  -9  -1   82.99    8.00
  -9   9  -1   98.19   10.70
   0  -9  -1   86.99   10.20
   9   0  -1   98.09   10.70
   9   0  -1   92.19    8.00
   9   0  -1   93.39    8.90
   0  -9  -1   89.19    8.70
  -9   0   1   89.69   10.90
   0   9   1  111.19   10.80
   0   9   1  108.19    9.30
  -9   0   1   86.79    7.40
   9  -9   1   90.79   10.10
   0   9   1  103.99   11.00
   9  -9   1   91.19    9.90
   3   7  -1  124.89   11.50
   7 -10  -1  142.29   10.10
   7 -10  -1  134.49    7.90
 -10   3  -1  153.18   10.30
   7 -10  -1  131.99   11.20
   3   7  -1  120.49   10.80
   3   7  -1  122.19   11.10
  -3  -7   1  132.59    9.00
  -3  -7   1  137.19   10.60
  -7  10   1  122.09   10.10
  10  -3   1  139.69    8.20
  -3  -7   1  130.69   11.80
  -7  10   1  130.29   12.40
  10  -3   1  127.59   11.50
  10  -3   1  126.29    9.00
   6 -10  -1 1302.77   51.79
   4   6  -1 1355.46   52.59
   6 -10  -1 1299.77   48.60
   4   6  -1 1356.86   52.29
   4   6  -1 1329.27   53.09
   6 -10  -1 1333.77   52.79
  -4  -6   1 1324.87   49.70
  -6  10   1 1386.16   54.49
  10  -4   1 1289.37   53.09
  -4  -6   1 1350.36   53.89
  10  -4   1 1396.76   50.09
  -6  10   1 1354.86   51.59
  10  -4   1 1326.07   49.70
  -4  -6   1 1425.26   52.59
   5   5  -1  116.79   10.80
   5   5  -1  119.49    9.90
   5   5  -1  108.29    9.80
   5 -10  -1  127.99   10.80
   5 -10  -1  116.69    9.60
   5 -10  -1  110.19    6.90
  -5  -5   1  124.89   11.10
  10  -5   1  134.29   10.80
  -5  -5   1  124.49    7.60
  -5  -5   1  130.59   10.30
  -5  10   1  125.29   10.40
  10  -5   1  121.19    7.90
  -5  10   1  129.99   12.00
   4 -10  -1 1331.07   51.29
   6   4  -1 1331.57   51.79
   6   4  -1 1364.36   50.99
   4 -10  -1 1317.57   48.20
   4 -10  -1 1338.57   52.49
   6   4  -1 1302.27   53.29
  -4  10   1 1327.47   51.69
  -6  -4   1 1322.37   52.09
  10  -6   1 1379.96   48.90
  -4  10   1 1336.17   53.79
  -6  -4   1 1365.46   48.80
  10  -6   1 1219.38   51.09
  10  -6   1 1332.57   52.19
  -6  -4   1 1325.07   53.19
   3 -10  -1  126.69   10.30
   7   3  -1  148.79   10.60
   3 -10  -1  138.39   11.40
   3 -10  -1  143.39    8.30
   7   3  -1  127.69    9.70
   7   3  -1  129.69   11.80
  -7  -3   1  136.09   12.30
  10  -7   1  113.69    9.90
  -7  -3   1  136.29   11.10
  10  -7   1  141.49   11.40
  -7  -3   1  131.69    8.00
  -3  10   1  148.49   12.50
  10  -7   1  129.39   11.30
  -3  10   1  129.89   11.30
   1  -1  -2  217.98    8.20
   1  -1  -2  219.18    8.60
   0   1  -2  245.78    8.50
  -1   0  -2  213.78    8.40
   0   1  -2  214.98    8.50
  -1   0  -2  211.08    8.20
   1  -1  -2  200.88    8.50
   0   1  -2  208.78    8.40
  -1   0  -2  221.58    8.70
   1  -1  -2  232.28    8.10
   0   1  -2  222.78    8.50
  -1   0  -2  204.58    8.40
   1  -1  -2  225.08    8.70
  -1   0  -2  223.58    8.50
   0   1  -2  214.78    8.00
   1  -1  -2  230.98    7.90
   0   1  -2  211.48    8.70
   0  -1   2  219.28    8.40
  -1   1   2  208.58    8.50
   0  -1   2  218.68    8.70
  -1   1   2  225.08    8.10
   0  -1   2  223.18    8.00
   1   0   2  213.18    8.50
  -1   1   2  228.38    8.30
   1   0   2  216.28    8.70
   1   0   2  228.28    8.50
   0  -1   2  218.58    8.40
   0  -1   2  218.88    8.40
   1   0   2  227.68    8.40
   1   0   2  213.98    8.20
  -1   1   2  213.38    8.60
   0  -1   2  213.28    8.40
  -1   1  -2  228.18    8.70
   0  -1  -2  221.48    8.50
   1   0  -2  217.18    8.30
  -1   1  -2  202.68    8.20
   0  -1  -2  228.88    8.70
   0  -1  -2  214.28    8.40
  -1   1  -2  215.78    8.50
   0  -1  -2  213.88    8.30
  -1   1  -2  211.48    8.30
   1   0  -2  224.98    7.90
  -1   1  -2  216.28    8.50
   1   0  -2  211.98    8.50
   1   0  -2  213.08    8.50
   1   0  -2  223.28    8.50
   1   0  -2  228.68    8.70
   0  -1  -2  212.08    8.40
   0  -1  -2  222.58    8.50
   1   0  -2  241.78    8.10
   0   1   2  217.58    8.40
   1  -1   2  209.78    8.50
   1  -1   2  223.88    8.20
  -1   0   2  222.38    8.50
  -1   0   2  208.68    8.30
   0   1   2  233.48    8.40
   1  -1   2  210.48    8.60
   0   1   2  225.58    8.10
  -1   0   2  225.68    8.50
   0   1   2  227.18    8.50
   0   1   2  223.88    8.50
   0   1   2  225.08    8.50
   1  -1   2  225.88    8.30
  -1   0   2  210.98    8.60
  -1   0   2  216.18    7.90
  -1   0   2  226.78    8.10
   1  -1   2  206.48    8.50
   0   1   2  212.58    8.70
   2  -1  -2  309.37   11.90
  -1   2  -2  307.07   12.00
  -1  -1  -2  308.67   11.60
   2  -1  -2  304.57   11.60
  -1   2  -2  299.47   11.90
  -1  -1  -2  317.07   11.70
  -1  -1  -2  314.07   11.90
  -1   2  -2  309.77   12.10
  -1   2  -2  303.07   11.20
  -1  -1  -2  326.17   11.30
  -1  -1  -2  328.57   12.10
   2  -1  -2  285.27   11.30
   2  -1  -2  313.67   11.70
  -1  -1  -2  277.07   11.80
  -1   2  -2  316.27   11.90
  -1   2  -2  320.67   11.60
  -1   2  -2  303.07   11.60
   1   1   2  305.27   12.10
  -2   1   2  294.07   11.80
  -2   1   2  304.17   11.40
   1   1   2  303.97   12.00
   1   1   2  311.57   11.80
   1  -2   2  306.97   11.40
   1   1   2  304.47   11.30
   1  -2   2  310.17   11.50
   1   1   2  309.07   11.50
   1  -2   2  312.67   11.80
   1  -2   2  309.77   12.10
   1   1   2  299.57   11.60
   1  -2   2  313.47   11.80
   1  -2   2  312.57   11.10
   1   1   2  315.37   11.90
  -2   1   2  302.37   11.70
   1  -2   2  302.87   12.10
  -2   1   2  303.77   11.60
  -2  -1  -2  306.77   12.70
   3  -2  -2  317.97   12.00
  -1   3  -2  321.77   11.70
  -1   3  -2  320.47   12.60
   3  -2  -2  318.97   12.10
   3  -2  -2  306.77   12.50
  -1   3  -2  297.77   12.60
  -1   3  -2  301.27   12.40
   3  -2  -2  307.37   12.70
  -1   3  -2  301.97   11.80
   3  -2  -2  319.67   12.30
  -2  -1  -2  298.47   11.60
  -2  -1  -2  315.27   11.50
  -2  -1  -2  331.67   12.10
   3  -2  -2  328.67   12.40
   2   1   2  316.47   11.70
   2   1   2  299.27   12.70
  -3   2   2  309.57   12.20
   1  -3   2  305.47   12.70
   2   1   2  319.77   12.40
   1  -3   2  307.27   12.00
   2   1   2  329.17   12.80
   1  -3   2  298.97   12.50
   1  -3   2  323.07   11.70
   2   1   2  302.87   11.50
   1  -3   2  325.27   12.40
   2   1   2  305.47   12.30
  -3   2   2  306.27   11.90
   1  -3   2  332.57   12.50
   1  -3   2  306.37   11.50
  -2   0  -2 2855.71  100.49
   2  -2  -2 2893.41  100.59
  -2   0  -2 2934.71   99.89
   2  -2  -2 2863.21   99.49
   2  -2  -2 2901.11  100.19
  -2   0  -2 2909.11   99.79
   0   2  -2 2774.72  100.39
   2  -2  -2 2909.01   99.99
   0   2  -2 2895.61  100.09
   0   2  -2 2925.41   99.89
   0   2  -2 2606.44  100.79
   0   2  -2 2894.71   99.99
  -2   0  -2 2712.93  100.19
  -2   0  -2 3056.09  100.69
   2  -2  -2 2487.25   99.79
   2   0   2 2547.65  100.59
   0  -2   2 2855.31  100.29
  -2   2   2 2847.02  100.19
   2   0   2 2758.32  100.59
   0  -2   2 2858.61   99.89
   0  -2   2 2921.11  100.09
   0  -2   2 2810.12  100.39
   0  -2   2 2773.42  100.39
   2   0   2 2892.41   99.89
  -2   2   2 2858.41  100.29
   2   0   2 2911.61   99.89
   0  -2   2 3119.79   99.89
  -2   2   2 2821.12  100.59
  -2   1  -2  310.27   10.80
  -2   1  -2  287.57   11.50
  -2   1  -2  278.67   11.50
   1   1  -2  291.17   11.30
   1   1  -2  301.87   11.70
   1   1  -2  310.27   11.60
   1  -2  -2  320.37   11.70
   1  -2  -2  286.77   11.50
   1   1  -2  308.77   11.80
  -2   1  -2  300.87   11.90
   1   1  -2  303.17   11.50
  -2   1  -2  322.77   11.80
   1  -2  -2  285.27   11.30
   1  -2  -2  306.67   11.80
  -2   1  -2  297.07   11.00
   1  -2  -2  307.37   11.70
   2  -1   2  275.37   11.40
   2  -1   2  333.77   11.00
   2  -1   2  292.07   11.80
  -1  -1   2  319.87   11.60
   2  -1   2  285.47   11.70
  -1  -1   2  316.17   11.60
  -1  -1   2  295.57   11.70
  -1   2   2  288.67   11.80
  -1  -1   2  297.97   11.60
  -1   2   2  290.07   11.70
  -1   2   2  298.57   11.50
   2  -1   2  307.17   11.90
  -1   2   2  312.77   11.40
   2  -1   2  312.77   11.50
  -1   2   2  300.47   11.70
  -1  -1   2  311.07   11.30
   2  -1   2  293.07   10.90
   0  -2  -2 2955.00  100.79
   2   0  -2 2832.02  100.59
  -2   2  -2 2769.62  100.69
   0  -2  -2 2725.63  100.79
   0  -2  -2 2967.20  100.99
   0  -2  -2 2980.10  100.89
   0  -2  -2 2962.30  100.99
  -2   2  -2 3164.48  100.69
  -2   2  -2 2817.52  101.09
   0  -2  -2 2973.80  100.99
  -2   2  -2 2873.21  100.79
   2   0  -2 2706.13  100.89
   2   0  -2 2947.51  101.09
   2   0  -2 2887.81  100.59
   2  -2   2 2837.22  101.19
  -2   0   2 2444.46  100.59
   2  -2   2 2826.62  100.59
   2  -2   2 2896.71  100.69
  -2   0   2 2783.02  100.99
   0   2   2 2899.91  100.99
   0   2   2 2935.21  100.89
  -2   0   2 2748.23  100.99
   2  -2   2 2860.41  100.79
   0   2   2 2827.32  100.99
   2  -2   2 2871.61  100.99
   0   2   2 2940.71  101.09
   0   2   2 2819.92  100.89
  -2   3  -2  309.97   12.60
  -2   3  -2  321.47   11.60
  -2   3  -2  275.37   12.60
  -2   3  -2  324.77   12.60
   3  -1  -2  307.97   12.10
  -1  -2  -2  325.27   12.60
   3  -1  -2  319.97   12.20
  -1  -2  -2  312.17   12.00
  -1  -2  -2  317.47   12.30
  -1  -2  -2  315.67   12.00
   3  -1  -2  307.17   12.40
   3  -1  -2  312.47   11.60
   3  -1  -2  319.77   12.30
  -2   3  -2  323.77   11.60
  -1  -2  -2  317.07   13.60
  -1  -2  -2  322.87   11.90
   2  -3   2  305.27   12.70
   2  -3   2  306.67   11.60
   2  -3   2  309.77   12.60
   1   2   2  319.17   12.30
  -3   1   2  308.47   12.20
  -3   1   2  303.47   12.60
   1   2   2  300.07   12.60
   1   2   2  331.97   12.80
   2  -3   2  319.87   11.40
   1   2   2  321.77   12.10
  -3   1   2  299.17   12.30
   2  -3   2  308.37   12.50
   2  -3   2  306.67   12.40
   2  -3   2  316.07   12.20
   1   2   2  317.87   12.50
   1   2   2  302.27   12.00
  -2  -2  -2 4203.68  154.88
   4  -2  -2 4529.65  154.78
  -2   4  -2 4401.76  155.18
  -2   4  -2 4219.68  154.18
  -2   4  -2 4323.87  155.38
   4  -2  -2 4501.85  154.98
  -2   4  -2 4226.48  155.28
  -2  -2  -2 4418.36  154.28
   4  -2  -2 4360.56  154.68
  -2  -2  -2 4525.35  154.78
  -2  -2  -2 4326.27  155.48
   4  -2  -2 4649.13  155.08
  -2  -2  -2 4280.67  154.78
   4  -2  -2 4512.95  154.78
   4  -2  -2 4545.65  155.28
   4  -2  -2 4350.06  154.28
   2  -4   2 4199.68  155.08
   2   2   2 4426.96  155.58
   2   2   2 4262.07  154.88
   2   2   2 4344.97  154.38
   2  -4   2 4405.76  154.58
   2   2   2 4499.75  154.88
   2  -4   2 4503.35  155.08
  -4   2   2 4209.38  154.68
   2   2   2 4508.65  154.88
   2   2   2 4350.26  155.48
   2  -4   2 4629.64  154.08
  -4   2   2 4402.56  154.88
   2  -4   2 4500.45  155.18
   2  -4   2 4213.48  155.48
   5  -3  -2  444.66   17.50
   5  -3  -2  428.66   17.10
  -3  -2  -2  415.86   17.40
  -3  -2  -2  455.55   16.40
   5  -3  -2  442.96   17.20
   5  -3  -2  427.06   17.60
  -2   5  -2  422.66   17.90
   5  -3  -2  439.96   16.90
   5  -3  -2  416.26   17.10
  -3  -2  -2  457.15   17.10
  -2   5  -2  450.05   18.10
  -3  -2  -2  417.46   17.00
   5  -3  -2  438.56   16.70
  -2   5  -2  400.26   17.80
  -3  -2  -2  415.86   17.90
  -2   5  -2  436.86   17.50
  -2   5  -2  422.06   16.70
   2  -5   2  442.36   17.30
   3   2   2  441.06   17.10
   2  -5   2  412.06   17.20
   3   2   2  417.06   17.90
   2  -5   2  410.56   17.90
   3   2   2  450.65   17.40
   2  -5   2  439.16   16.40
   2  -5   2  440.36   17.00
   2  -5   2  432.86   17.60
  -5   3   2  418.16   17.00
   3   2   2  414.16   16.40
   3   2   2  430.26   17.30
  -1   4  -2  441.76   15.80
  -1   4  -2  411.26   16.40
   4  -3  -2  433.06   16.70
   4  -3  -2  428.46   16.50
   4  -3  -2  442.46   16.40
  -3  -1  -2  395.96   16.40
  -3  -1  -2  443.66   15.70
   4  -3  -2  436.66   17.00
  -1   4  -2  417.06   17.10
  -1   4  -2  419.76   16.70
  -3  -1  -2  415.46   17.20
   4  -3  -2  428.86   16.50
   4  -3  -2  447.86   17.20
   4  -3  -2  427.76   16.10
  -3  -1  -2  423.76   15.50
  -1   4  -2  416.06   17.20
  -1   4  -2  435.06   17.00
  -3  -1  -2  428.46   16.30
   1  -4   2  430.96   17.30
   3   1   2  404.96   16.40
   3   1   2  429.56   16.80
   3   1   2  393.16   17.20
   3   1   2  435.66   15.60
   3   1   2  434.46   17.30
  -4   3   2  402.56   16.30
   1  -4   2  427.16   16.90
  -4   3   2  408.56   17.10
   1  -4   2  442.06   16.60
   1  -4   2  423.86   16.20
  -4   3   2  396.56   16.30
   3   1   2  434.36   15.70
   1  -4   2  432.46   16.00
   3   1   2  438.26   16.70
   1  -4   2  407.96   16.70
   3  -3  -2  793.12   29.20
  -3   0  -2  781.92   29.30
   3  -3  -2  820.32   29.90
   0   3  -2  809.22   29.20
   3  -3  -2  777.52   29.20
  -3   0  -2  779.92   28.80
   3  -3  -2  814.52   29.20
   3  -3  -2  846.82   29.60
  -3   0  -2  803.62   28.90
   0   3  -2  818.42   29.00
  -3   0  -2  759.12   29.90
   3  -3  -2  787.32   29.90
   0   3  -2  784.12   29.80
   0   3  -2  846.12   29.90
   0   3  -2  803.32   29.80
   3  -3  -2  820.52   28.60
   3   0   2  825.12   28.80
   0  -3   2  840.82   29.00
  -3   3   2  786.92   29.50
  -3   3   2  771.02   29.90
   0  -3   2  785.32   29.60
   3   0   2  855.41   30.10
   3   0   2  843.42   29.40
   0  -3   2  793.32   28.90
   3   0   2  764.32   29.90
  -3   3   2  797.82   29.10
   0  -3   2  722.63   29.70
   3   0   2  781.82   29.00
   3   0   2  809.42   29.60
   3   0   2  801.82   28.20
   0  -3   2  769.82   29.80
   0  -3   2  783.42   28.80
   2  -3  -2  325.07   12.70
   1   2  -2  311.77   11.70
   2  -3  -2  290.47   12.00
  -3   1  -2  307.17   12.20
   1   2  -2  325.97   12.50
   2  -3  -2  307.57   12.10
   2  -3  -2  333.07   12.40
   1   2  -2  296.87   12.40
   2  -3  -2  306.27   12.60
   1   2  -2  317.57   12.50
  -3   1  -2  304.07   12.70
  -3   1  -2  313.17   12.00
   2  -3  -2  290.47   12.10
   1   2  -2  318.27   12.20
  -1  -2   2  317.17   11.70
   3  -1   2  323.97   12.70
   3  -1   2  297.57   11.30
   3  -1   2  301.37   11.50
   3  -1   2  323.97   12.10
   3  -1   2  326.47   12.00
  -1  -2   2  298.87   12.00
  -1  -2   2  288.67   12.40
  -2   3   2  338.77   12.30
  -1  -2   2  315.57   12.30
  -2   3   2  321.17   12.00
  -1  -2   2  265.17   13.00
  -1  -2   2  308.37   11.40
   2   1  -2  322.27   11.70
   1  -3  -2  321.17   12.40
  -3   2  -2  291.17   11.90
   2   1  -2  315.77   11.30
   1  -3  -2  328.77   12.60
  -3   2  -2  311.97   12.30
  -3   2  -2  280.27   13.10
   2   1  -2  319.17   12.50
   1  -3  -2  330.87   12.20
   2   1  -2  298.47   12.10
   1  -3  -2  330.57   12.70
   1  -3  -2  322.07   11.30
   2   1  -2  328.77   12.60
   2   1  -2  319.77   12.60
   1  -3  -2  292.37   12.30
   1  -3  -2  316.07   12.60
  -1   3   2  305.37   12.30
   3  -2   2  302.17   12.80
  -2  -1   2  319.27   12.60
  -1   3   2  322.27   11.40
   3  -2   2  314.27   12.40
  -2  -1   2  306.27   12.50
  -2  -1   2  324.87   11.80
   3  -2   2  318.77   11.90
   3  -2   2  315.57   11.40
  -1   3   2  295.27   12.50
   3  -2   2  307.57   11.30
  -2  -1   2  314.87   11.30
   3  -2   2  304.07   12.70
  -1   3   2  322.57   12.40
   3  -2   2  330.87   12.30
  -1   3   2  349.07   14.00
   3  -2   2  312.77   12.40
  -2  -1   2  288.87   12.50
  -2  -1   2  328.47   12.50
  -1   3   2  318.27   12.50
   0  -3  -2  809.22   28.60
   0  -3  -2  830.42   29.40
  -3   3  -2  804.32   29.30
   0  -3  -2  663.93   29.50
   3   0  -2  835.92   29.50
   0  -3  -2  798.32   29.30
  -3   3  -2  749.13   29.20
   3   0  -2  836.92   29.20
  -3   3  -2  793.92   29.70
   3   0  -2  811.12   28.60
   3   0  -2  813.32   28.30
   0  -3  -2  738.83   29.40
   3   0  -2  800.62   29.40
  -3   3  -2  805.62   28.10
   0  -3  -2  827.62   29.40
   3   0  -2  781.82   29.20
   0  -3  -2  824.92   29.40
   3  -3   2  757.82   29.40
   3  -3   2  815.92   28.10
   0   3   2  823.72   28.70
   0   3   2  749.13   29.40
  -3   0   2  761.42   29.30
   0   3   2  780.92   29.30
  -3   0   2  781.82   28.20
  -3   0   2  757.42   29.40
   3  -3   2  809.22   28.80
  -3   0   2  774.42   29.40
   0   3   2  827.42   29.30
   3  -3   2  781.02   29.10
   3  -3   2  798.22   29.10
   0   3   2  813.12   29.60
   3  -3   2  840.52   29.50
  -3   4  -2  416.36   17.00
   4  -1  -2  409.76   16.30
  -1  -3  -2  380.86   16.60
  -3   4  -2  427.16   15.70
   4  -1  -2  437.26   16.30
  -3   4  -2  446.66   16.90
   4  -1  -2  441.46   16.80
  -1  -3  -2  436.26   16.10
   4  -1  -2  413.36   16.80
  -1  -3  -2  414.76   17.10
   4  -1  -2  395.16   16.00
   4  -1  -2  468.55   16.70
  -1  -3  -2  447.16   16.70
  -3   4  -2  416.96   17.20
  -1  -3  -2  433.46   16.50
  -1  -3  -2  420.06   16.60
  -1  -3  -2  427.76   16.00
   3  -4   2  439.06   16.50
   1   3   2  393.06   16.70
   1   3   2  421.66   16.60
   3  -4   2  426.16   15.50
   1   3   2  428.66   16.60
   3  -4   2  421.86   16.90
   3  -4   2  428.26   16.80
  -4   1   2  418.86   16.80
   3  -4   2  443.06   17.00
  -4   1   2  406.46   16.70
   1   3   2  407.36   16.90
  -4   1   2  393.76   16.70
   3  -4   2  440.96   15.60
   1   3   2  449.06   17.30
   1   3   2  433.26   16.30
   3  -4   2  415.26   17.20
  -2  -3  -2  450.45   17.30
  -2  -3  -2  427.86   18.00
   5  -2  -2  440.36   17.50
   5  -2  -2  431.16   16.60
   5  -2  -2  450.45   17.40
   5  -2  -2  440.46   17.20
  -2  -3  -2  417.56   17.10
  -2  -3  -2  457.75   16.90
  -3   5  -2  416.26   17.90
   5  -2  -2  426.46   17.30
  -3   5  -2  433.16   16.60
  -2  -3  -2  360.96   17.90
   5  -2  -2  444.66   17.20
  -2  -3  -2  439.06   16.20
   5  -2  -2  419.06   17.50
  -3   5  -2  433.36   18.10
  -3   5  -2  461.25   17.70
  -2  -3  -2  445.56   16.10
   3  -5   2  447.66   16.30
   3  -5   2  461.15   17.80
   2   3   2  400.06   17.50
   2   3   2  468.15   18.40
  -5   2   2  429.66   17.60
   2   3   2  412.56   16.90
   2   3   2  451.25   17.30
   3  -5   2  443.76   17.20
   3  -5   2  419.46   17.60
   3  -5   2  424.66   17.60
   2   3   2  444.56   17.30
  -3   6  -2   52.39    6.20
  -3  -3  -2   66.59    5.10
   6  -3  -2   62.49    5.00
   6  -3  -2   58.39    4.30
  -3   6  -2   53.99    4.20
   6  -3  -2   58.59    4.90
  -3   6  -2   52.49    5.30
  -3  -3  -2   62.09    4.60
  -3  -3  -2   65.79    4.30
   6  -3  -2   62.69    5.10
   6  -3  -2   51.89    5.40
  -3   6  -2   55.89    5.50
  -3  -3  -2   56.79    5.30
   6  -3  -2   62.29    4.90
  -3   6  -2   54.89    5.10
  -3  -3  -2   58.19    4.50
   6  -3  -2   47.50    4.90
   3   3   2   51.49    6.10
   3   3   2   55.39    4.20
   3   3   2   60.79    4.90
   3  -6   2   65.09    3.90
   3  -6   2   54.99    5.30
   3   3   2   62.99    5.40
   3   3   2   55.69    5.20
   3  -6   2   43.40    4.70
   3  -6   2   63.29    5.70
   3  -6   2   60.19    5.20
   3   3   2   61.79    5.00
   7  -4  -2  167.48    9.50
  -3   7  -2  158.98    9.40
   7  -4  -2  155.38    9.90
   7  -4  -2  155.08    8.40
   7  -4  -2  147.39    9.30
  -3   7  -2  161.18    8.50
   7  -4  -2  161.58    9.00
  -4  -3  -2  152.88    8.70
  -3   7  -2  141.09    9.30
   7  -4  -2  155.98    9.10
  -4  -3  -2  154.08    8.30
  -3   7  -2  146.59    9.70
   7  -4  -2  158.18    9.10
  -4  -3  -2  160.58    9.60
  -4  -3  -2  173.48    8.00
   3  -7   2  167.78    7.90
   3  -7   2  160.08    8.50
   4   3   2  171.98    9.10
   4   3   2  157.98    8.00
   3  -7   2  162.08    9.80
   4   3   2  159.38    9.60
   3  -7   2  161.78    8.50
   4   3   2  161.48    8.90
  -4  -2  -2 2922.71  105.49
  -4  -2  -2 2883.91  106.09
  -2   6  -2 2839.52  106.79
   6  -4  -2 2984.70  105.79
  -2   6  -2 2869.11  106.29
   6  -4  -2 3021.00  105.39
  -4  -2  -2 2870.01  106.89
   6  -4  -2 3086.69  106.49
  -4  -2  -2 3039.90  104.69
   6  -4  -2 2969.70  105.29
   6  -4  -2 2867.21  106.09
   6  -4  -2 2963.30  105.69
  -2   6  -2 3075.59  106.29
  -4  -2  -2 2981.70  105.49
   6  -4  -2 2932.11  105.79
   4   2   2 3372.96  105.99
   2  -6   2 2925.11  105.49
   4   2   2 2826.42  105.79
   2  -6   2 3058.39  104.99
   2  -6   2 3074.99  105.99
   2  -6   2 2853.61  105.69
   4   2   2 2932.41  106.99
   4   2   2 2854.21  106.09
   2  -6   2 2791.62  106.69
   4   2   2 3012.50  105.59
   5  -4  -2  414.66   16.70
   5  -4  -2  440.96   16.90
  -1   5  -2  428.66   15.60
  -1   5  -2  396.96   16.40
  -4  -1  -2  415.16   16.30
   5  -4  -2  407.96   16.40
   5  -4  -2  420.16   16.00
   5  -4  -2  424.66   17.30
   5  -4  -2  414.36   17.30
  -1   5  -2  414.36   17.10
  -1   5  -2  390.26   17.30
  -1   5  -2  393.26   16.70
  -4  -1  -2  411.86   17.50
  -1   5  -2  416.86   17.60
   5  -4  -2  403.56   16.40
   1  -5   2  386.76   16.60
   4   1   2  406.66   16.50
   1  -5   2  403.16   17.40
   1  -5   2  396.86   16.20
   4   1   2  415.76   15.50
  -5   4   2  397.16   16.10
   4   1   2  385.76   17.50
  -5   4   2  400.46   17.30
   4   1   2  429.46   16.70
   1  -5   2  435.76   17.20
   1  -5   2  425.36   16.60
   4   1   2  423.56   15.00
   4   1   2  431.26   17.70
   1  -5   2  411.16   16.00
   4   1   2  420.96   17.00
   0   4  -2 4045.80  141.09
   4  -4  -2 3972.10  140.39
  -4   0  -2 3901.41  140.19
   4  -4  -2 4156.88  141.19
   0   4  -2 3903.61  140.19
   0   4  -2 3963.80  139.79
  -4   0  -2 3940.21  139.49
   0   4  -2 3817.02  140.19
   4  -4  -2 4025.70  139.49
   0   4  -2 4112.09  140.89
   4  -4  -2 4172.38  140.59
   4  -4  -2 4017.40  139.99
   4  -4  -2 4145.49  141.09
   0   4  -2 4007.00  141.09
  -4   0  -2 3842.02  141.19
   4   0   2 4065.69  141.19
   0  -4   2 4205.08  140.79
  -4   4   2 3746.93  139.69
   0  -4   2 3825.22  141.19
   0  -4   2 3917.61  140.59
  -4   4   2 3697.03  140.29
   4   0   2 4028.30  139.39
   0  -4   2 4230.48  139.99
   0  -4   2 3865.31  139.79
   4   0   2 3919.51  138.99
  -4   4   2 3607.24  141.39
   4   0   2 3843.82  139.99
   4   0   2 3993.90  140.29
   4   0   2 4110.99  140.89
   0  -4   2 4076.09  139.99
   3  -4  -2  459.85   16.90
   3  -4  -2  420.46   15.60
   3  -4  -2  430.66   17.20
   1   3  -2  421.06   16.00
  -4   1  -2  411.56   17.40
  -4   1  -2  404.96   16.50
   1   3  -2  402.66   16.50
   3  -4  -2  430.06   17.30
   3  -4  -2  424.36   15.40
   1   3  -2  410.66   17.00
   1   3  -2  438.26   16.50
   3  -4  -2  415.96   16.60
   1   3  -2  457.75   17.30
  -4   1  -2  432.86   16.30
   3  -4  -2  442.56   16.30
   3  -4  -2  414.46   16.60
   1   3  -2  434.36   17.10
  -1  -3   2  420.06   15.90
   4  -1   2  432.66   16.50
  -3   4   2  456.15   16.00
  -1  -3   2  423.16   15.90
  -1  -3   2  446.96   16.90
  -1  -3   2  404.56   17.10
   4  -1   2  413.76   16.00
   4  -1   2  426.76   16.10
   4  -1   2  403.26   17.20
   4  -1   2  428.96   17.30
   4  -1   2  435.86   17.00
  -3   4   2  423.56   16.90
   4  -1   2  437.76   15.60
  -1  -3   2  402.06   16.90
  -1  -3   2  433.36   16.30
   4  -1   2  422.46   15.50
   2  -4  -2 4579.34  154.88
  -4   2  -2 4308.27  154.28
  -4   2  -2 4225.78  154.28
   2   2  -2 4179.68  154.38
   2  -4  -2 4648.44  154.48
   2  -4  -2 4192.28  154.28
   2   2  -2 4486.45  154.68
   2   2  -2 4233.08  154.08
   2   2  -2 4494.25  153.18
   2   2  -2 4492.55  154.38
   2   2  -2 4481.25  154.58
   2  -4  -2 4514.75  153.78
   2  -4  -2 4272.97  154.28
  -4   2  -2 4344.17  153.58
   2  -4  -2 4508.25  154.78
   4  -2   2 4551.84  154.68
  -2  -2   2 4237.38  153.18
   4  -2   2 4349.96  154.88
  -2   4   2 4177.48  154.48
   4  -2   2 4450.55  154.18
  -2   4   2 4317.47  154.98
   4  -2   2 4570.84  154.18
  -2  -2   2 4451.75  154.28
  -2  -2   2 4159.78  154.58
   4  -2   2 4504.55  153.58
  -2  -2   2 4246.18  154.68
   4  -2   2 4335.77  153.28
  -2   4   2 4301.57  153.78
  -2  -2   2 4324.07  153.28
  -2   4   2 4485.95  154.58
   4  -2   2 4275.67  153.28
   1  -4  -2  405.66   16.60
   3   1  -2  438.86   17.00
  -4   3  -2  393.06   16.60
   1  -4  -2  457.45   17.20
   3   1  -2  415.56   16.60
   1  -4  -2  414.96   16.80
   1  -4  -2  436.06   16.80
   1  -4  -2  441.76   16.20
  -4   3  -2  398.96   16.90
  -4   3  -2  418.16   16.40
   3   1  -2  421.16   15.50
   3   1  -2  412.86   16.40
   3   1  -2  432.26   15.50
   1  -4  -2  432.96   16.80
   3   1  -2  427.86   16.90
   3   1  -2  496.95   17.10
   1  -4  -2  412.46   15.50
  -3  -1   2  430.16   15.40
  -3  -1   2  407.56   16.90
  -1   4   2  417.66   15.70
  -3  -1   2  380.26   16.80
   4  -3   2  438.66   16.30
   4  -3   2  387.96   16.90
  -1   4   2  454.75   17.20
   4  -3   2  421.36   17.20
   4  -3   2  425.96   16.80
  -1   4   2  423.86   16.40
  -1   4   2  398.26   17.00
  -1   4   2  446.56   16.70
   4  -3   2  438.66   15.60
  -3  -1   2  440.06   16.70
  -1   4   2  417.26   16.90
   4  -3   2  424.16   16.40
   4  -3   2  438.16   16.60
   4   0  -2 3939.71  138.09
   0  -4  -2 3750.12  138.19
   4   0  -2 4149.88  139.19
   0  -4  -2 3519.55  139.69
   0  -4  -2 4085.99  138.79
   4   0  -2 4016.90  138.09
  -4   4  -2 3940.91  139.79
  -4   4  -2 3967.00  137.69
   4   0  -2 3969.20  139.29
  -4   4  -2 3835.52  139.29
   0  -4  -2 4159.98  139.19
   4   0  -2 4000.40  139.39
   4   0  -2 3719.03  138.79
   0  -4  -2 4127.59  139.29
   0  -4  -2 3575.14  140.99
   4   0  -2 3829.02  137.89
  -4   0   2 3742.73  139.59
   4  -4   2 4283.07  139.19
   0   4   2 3909.11  139.39
   4  -4   2 4238.48  139.59
   4  -4   2 3862.01  137.79
   0   4   2 4066.09  139.09
  -4   0   2 3805.62  139.29
   0   4   2 3904.01  139.09
   4  -4   2 3924.11  138.29
  -4   0   2 3917.01  137.89
   0   4   2 3837.42  139.39
   4  -4   2 3813.22  139.29
   4  -4   2 4032.60  138.99
   0   4   2 4032.90  139.69
   5  -1  -2  415.26   16.50
  -1  -4  -2  415.66   16.00
   5  -1  -2  401.76   16.50
   5  -1  -2  425.76   15.70
   5  -1  -2  426.86   16.90
  -1  -4  -2  404.36   16.20
  -1  -4  -2  419.66   16.60
  -1  -4  -2  435.76   16.90
  -1  -4  -2  416.26   16.70
  -1  -4  -2  394.36   17.30
  -4   5  -2  399.16   17.40
  -4   5  -2  416.36   15.60
   5  -1  -2  410.96   17.00
  -4   5  -2  392.16   17.20
   5  -1  -2  428.26   16.10
  -1  -4  -2  413.76   15.90
   5  -1  -2  427.56   17.10
   4  -5   2  402.56   17.20
   1   4   2  422.26   17.20
   1   4   2  427.56   16.50
  -5   1   2  448.36   16.40
   1   4   2  388.06   16.70
   4  -5   2  401.86   17.00
   4  -5   2  400.06   16.60
  -5   1   2  424.56   17.10
  -5   1   2  398.96   17.10
   4  -5   2  431.96   15.50
   1   4   2  424.66   17.70
   4  -5   2  403.96   16.90
   4  -5   2  407.96   17.50
   1   4   2  418.66   16.60
   1   4   2  401.76   17.00
  -2  -4  -2 2986.40  103.49
  -4   6  -2 2829.72  104.09
   6  -2  -2 3013.20  104.79
  -4   6  -2 3040.80  105.19
   6  -2  -2 3070.09  104.69
  -4   6  -2 2828.02  105.99
  -2  -4  -2 2824.22  105.89
   6  -2  -2 3031.20  105.39
   6  -2  -2 3054.99  105.29
  -4   6  -2 2841.62  105.89
  -2  -4  -2 2884.91  103.49
  -2  -4  -2 2878.91  104.89
   6  -2  -2 2881.11  105.29
   6  -2  -2 2927.41  105.19
  -2  -4  -2 2923.21  104.79
   6  -2  -2 3006.90  104.09
  -2  -4  -2 3072.99  104.69
   4  -6   2 2733.93  105.89
   2   4   2 2964.00  104.89
   2   4   2 3013.10  104.99
   2   4   2 2841.72  105.39
  -6   2   2 2942.11  105.69
   4  -6   2 3135.99  103.79
   4  -6   2 2932.31  104.89
   4  -6   2 2841.82  105.69
   4  -6   2 2787.92  105.39
  -6   2   2 2858.01  105.39
   2   4   2 2974.60  105.79
   4  -6   2 2971.20  105.49
   2   4   2 3045.60  107.29
  -4   7  -2  151.28    9.70
  -3  -4  -2  181.78    8.70
  -4   7  -2  157.48    9.40
   7  -3  -2  155.88    9.80
   7  -3  -2  171.48    9.70
   7  -3  -2  167.58    9.00
  -4   7  -2  160.28    8.20
  -4   7  -2  160.68   10.00
  -3  -4  -2  165.48    8.70
  -3  -4  -2  154.48    8.60
   7  -3  -2  167.98    8.30
  -3  -4  -2  154.28    9.80
   3   4   2  157.78    8.80
   3   4   2  168.28    9.40
   3   4   2  169.28    9.60
   4  -7   2  164.18    9.90
   4  -7   2  167.68    7.80
   3   4   2  166.98    9.70
   3   4   2  165.78    8.70
   4  -7   2  162.28    8.90
  -4  -4  -2 1474.75   54.39
  -4   8  -2 1489.95   57.09
  -4  -4  -2 1450.05   54.89
  -4   8  -2 1477.65   55.39
  -4   8  -2 1530.45   54.89
  -4  -4  -2 1483.75   55.49
  -4  -4  -2 1430.76   56.69
  -4   8  -2 1537.25   56.89
   4   4   2 1420.06   55.79
   4  -8   2 1505.15   53.99
   4   4   2 1543.35   54.79
   4   4   2 1503.75   56.79
   4  -8   2 1495.55   54.99
   4  -8   2 1487.05   55.29
   4  -8   2 1448.66   56.69
  -5  -4  -2   89.59    8.10
  -4   9  -2   88.89    8.80
  -5  -4  -2   86.49    8.80
  -4   9  -2   83.09    7.90
  -5  -4  -2   93.29    7.00
  -4   9  -2   87.69    9.50
  -5  -4  -2   89.99    7.80
   5   4   2   76.29    7.80
   4  -9   2   87.69    7.10
   5   4   2   93.19    8.80
   5   4   2   82.39    7.00
   4  -9   2   84.89    7.30
   4  -9   2   68.99    8.30
  -3   8  -2  122.29    9.10
  -3   8  -2  134.89   10.00
  -3   8  -2  146.09    8.70
  -5  -3  -2  143.89    7.80
  -5  -3  -2  131.19    9.70
  -3   8  -2  147.69   10.70
  -5  -3  -2  139.29    8.80
  -5  -3  -2  126.79    7.90
   3  -8   2  125.79    9.60
   5   3   2  119.09    8.50
   3  -8   2  136.69    8.20
   5   3   2  126.79    9.50
   3  -8   2  153.68    8.50
   5   3   2  135.39    7.70
   3  -8   2  137.99    9.40
  -2   7  -2  132.59    8.30
   7  -5  -2  135.19    8.00
  -2   7  -2  116.09    9.20
   7  -5  -2  124.89    8.80
  -5  -2  -2  134.99    7.50
   7  -5  -2  128.69    7.70
  -2   7  -2  146.49    8.00
  -2   7  -2  142.89    9.10
   7  -5  -2  138.09    8.70
  -5  -2  -2  138.09    9.00
   5   2   2  123.09    8.80
   2  -7   2  134.79    7.70
   5   2   2  119.89    8.00
   5   2   2  128.09    6.60
   2  -7   2  132.49    8.80
   2  -7   2  138.19    7.50
   2  -7   2  130.99    7.50
   5   2   2  133.19    7.80
   6  -5  -2  272.87   12.40
  -1   6  -2  275.67   12.30
  -1   6  -2  284.17   13.30
   6  -5  -2  270.57   12.70
  -1   6  -2  274.17   11.30
   6  -5  -2  289.47   12.60
   6  -5  -2  285.97   12.80
  -1   6  -2  264.17   13.30
  -5  -1  -2  274.77   13.50
   6  -5  -2  283.07   11.70
   6  -5  -2  283.77   12.10
   6  -5  -2  270.97   13.50
  -1   6  -2  275.77   11.10
  -5  -1  -2  280.07   12.00
  -1   6  -2  262.67   12.50
   1  -6   2  276.97   12.20
   5   1   2  282.67   12.50
   1  -6   2  280.47   11.90
   5   1   2  256.47   13.40
  -6   5   2  275.97   11.90
   1  -6   2  288.87   12.00
   1  -6   2  274.07   13.40
   5   1   2  258.17   10.90
  -6   5   2  272.57   13.20
   5   1   2  257.47   12.10
   1  -6   2  280.67   12.50
   5  -5  -2  114.69    6.70
   0   5  -2  104.19    5.90
  -5   0  -2  109.79    7.10
   5  -5  -2   89.09    6.70
   0   5  -2  109.89    7.60
   5  -5  -2   98.99    6.00
   0   5  -2  108.09    5.50
   0   5  -2  109.69    6.90
   5  -5  -2  103.09    7.40
   0   5  -2  110.89    7.00
  -5   0  -2  108.99    5.00
   5  -5  -2  105.69    5.20
   5  -5  -2  108.79    5.70
   5  -5  -2   94.49    7.10
   5  -5  -2  102.69    6.40
  -5   0  -2  107.89    5.90
   0   5  -2  100.99    6.10
   0  -5   2  105.09    6.40
   5   0   2  109.39    7.80
   5   0   2   95.09    5.80
   5   0   2  106.09    6.90
  -5   5   2  121.59    7.10
  -5   5   2  114.09    5.50
   0  -5   2  109.69    6.80
   0  -5   2  101.89    5.50
   5   0   2  105.79    5.00
   5   0   2   93.99    6.80
   5   0   2  107.79    4.80
   5   0   2  113.99    5.00
  -5   5   2  112.69    6.30
   0  -5   2   94.19    6.80
   0  -5   2  108.39    5.90
   5   0   2  120.19    6.30
   0  -5   2  114.19    5.80
   4  -5  -2  419.56   17.40
   4  -5  -2  433.16   17.60
   1   4  -2  423.06   16.30
  -5   1  -2  407.76   16.50
   4  -5  -2  409.76   16.70
   1   4  -2  393.86   17.10
   1   4  -2  387.86   16.60
   4  -5  -2  398.96   16.50
   4  -5  -2  411.36   16.70
   4  -5  -2  402.66   15.50
   1   4  -2  417.06   17.40
   1   4  -2  411.26   15.90
  -5   1  -2  379.06   17.40
   4  -5  -2  413.36   15.20
   1   4  -2  429.16   17.20
   4  -5  -2  425.96   16.00
  -1  -4   2  425.66   15.80
   5  -1   2  423.76   16.50
  -1  -4   2  403.36   15.80
   5  -1   2  438.56   15.90
   5  -1   2  408.76   17.00
  -1  -4   2  403.16   17.40
  -1  -4   2  402.56   16.90
   5  -1   2  405.56   15.90
   5  -1   2  413.26   15.40
   5  -1   2  423.16   17.60
  -4   5   2  391.76   15.40
   5  -1   2  405.86   17.40
  -1  -4   2  420.86   16.90
  -1  -4   2  410.66   16.20
   5  -1   2  413.46   15.20
  -4   5   2  406.86   17.50
  -5   2  -2  437.76   17.30
  -5   2  -2  413.36   18.30
   2   3  -2  456.65   18.00
   3  -5  -2  401.96   17.30
   2   3  -2  433.36   16.10
   2   3  -2  455.45   17.40
   2   3  -2  470.35   18.10
   3  -5  -2  459.15   18.30
   3  -5  -2  446.46   16.40
   2   3  -2  413.96   17.60
   3  -5  -2  426.36   15.80
   3  -5  -2  407.66   17.30
   3  -5  -2  442.56   17.50
  -5   2  -2  428.06   17.20
   3  -5  -2  452.35   18.00
   2   3  -2  419.16   17.30
  -2  -3   2  440.56   18.10
  -3   5   2  423.96   17.70
   5  -2   2  423.76   18.10
  -2  -3   2  446.16   16.20
   5  -2   2  446.36   16.40
  -3   5   2  440.26   16.30
   5  -2   2  452.25   17.20
  -2  -3   2  428.56   16.30
  -2  -3   2  436.36   17.80
   5  -2   2  435.46   16.50
  -2  -3   2  464.45   17.60
   5  -2   2  431.26   17.00
  -3   5   2  405.06   18.10
   5  -2   2  441.56   17.80
   2  -5  -2  432.46   16.10
  -5   3  -2  398.06   17.40
   3   2  -2  445.26   17.40
   3   2  -2  437.26   15.80
   3   2  -2  435.96   17.60
   2  -5  -2  441.36   17.20
   3   2  -2  381.16   18.00
   2  -5  -2  443.26   17.50
  -5   3  -2  436.96   17.20
   2  -5  -2  448.36   17.80
   3   2  -2  442.26   17.60
   3   2  -2  420.46   17.00
   2  -5  -2  410.36   15.50
   2  -5  -2  410.26   17.00
   5  -3   2  435.86   17.90
  -2   5   2  441.66   17.70
  -2   5   2  409.46   17.80
   5  -3   2  442.46   17.00
  -3  -2   2  417.96   17.50
  -2   5   2  404.56   17.30
  -3  -2   2  438.36   15.80
  -2   5   2  429.86   15.70
  -3  -2   2  451.25   17.10
  -2   5   2  418.86   16.30
   5  -3   2  429.76   17.10
   5  -3   2  427.86   16.50
  -3  -2   2  405.06   17.70
   5  -3   2  421.96   17.20
   1  -5  -2  431.96   17.20
   4   1  -2  418.16   15.10
   4   1  -2  430.96   15.40
   1  -5  -2  437.36   16.90
   4   1  -2  396.66   17.10
   1  -5  -2  398.86   17.10
   4   1  -2  387.76   16.70
   1  -5  -2  412.26   16.70
   4   1  -2  426.26   17.20
  -5   4  -2  396.96   17.20
   1  -5  -2  406.96   15.50
  -5   4  -2  401.06   16.80
  -5   4  -2  380.96   16.60
   4   1  -2  437.66   17.20
   1  -5  -2  419.76   16.80
   4   1  -2  390.56   16.40
   5  -4   2  417.36   17.00
   5  -4   2  410.56   16.30
  -4  -1   2  402.66   17.10
  -1   5   2  425.56   17.50
   5  -4   2  414.16   17.50
  -1   5   2  442.16   16.90
   5  -4   2  429.26   15.50
  -1   5   2  391.26   16.30
  -1   5   2  407.96   17.10
  -1   5   2  419.56   15.80
   5  -4   2  405.56   16.60
   5  -4   2  422.46   16.50
  -4  -1   2  409.26   15.30
   5  -4   2  396.76   17.10
  -1   5   2  398.36   17.30
  -4  -1   2  450.55   17.50
   0  -5  -2  100.89    6.60
  -5   5  -2  100.19    6.80
   0  -5  -2  106.09    5.30
   5   0  -2   91.99    6.80
   5   0  -2  103.89    6.90
   5   0  -2  106.39    4.90
   5   0  -2  112.99    5.20
  -5   5  -2  108.29    4.70
  -5   5  -2  105.19    6.70
   5   0  -2  106.99    6.60
   0  -5  -2  105.39    6.70
   5   0  -2  105.19    5.90
   5   0  -2  102.29    6.10
   0  -5  -2  100.09    6.00
   0  -5  -2  113.59    6.60
   0  -5  -2  112.79    6.00
   5   0  -2  105.19    4.90
   5  -5   2  104.69    6.50
   0   5   2  110.99    6.60
   0   5   2  105.29    6.60
  -5   0   2  104.89    6.60
   5  -5   2  102.69    6.80
   5  -5   2   97.89    6.90
   5  -5   2  111.89    6.60
  -5   0   2   99.59    4.90
   5  -5   2  101.99    4.80
   0   5   2   95.29    7.10
   0   5   2  119.39    6.60
   5  -5   2  101.09    6.30
   5  -5   2  104.09    5.20
   5  -5   2   97.49    4.90
   0   5   2  108.49    5.80
   0   5   2   98.29    6.10
  -5   0   2  117.79    7.00
  -1  -5  -2  270.07   11.30
  -5   6  -2  262.47   13.40
  -1  -5  -2  283.87   12.60
   6  -1  -2  306.37   13.50
   6  -1  -2  284.27   13.10
   6  -1  -2  272.37   11.30
  -1  -5  -2  258.47   13.00
   6  -1  -2  289.77   11.40
  -5   6  -2  274.27   13.20
   6  -1  -2  259.87   12.10
  -1  -5  -2  291.47   11.60
   6  -1  -2  282.07   11.50
  -1  -5  -2  284.87   12.50
  -5   6  -2  259.57   11.60
  -1  -5  -2  234.28   12.90
   5  -6   2  276.07   13.00
   5  -6   2  272.77   12.80
   1   5   2  286.57   12.60
  -6   1   2  267.17   13.00
   1   5   2  296.17   12.90
  -6   1   2  264.17   11.20
   1   5   2  276.17   12.30
   1   5   2  280.57   12.80
   1   5   2  274.07   12.90
  -6   1   2  285.87   13.00
   5  -6   2  284.87   11.10
   5  -6   2  258.67   13.20
  -2  -5  -2  133.19    7.00
  -2  -5  -2  127.69    7.70
  -2  -5  -2  134.79    8.70
  -5   7  -2  135.49    9.10
  -2  -5  -2  131.59    8.10
   7  -2  -2  133.99    7.40
   7  -2  -2  140.29    7.20
   7  -2  -2  147.89   13.20
  -2  -5  -2  130.79    6.10
  -2  -5  -2  131.89    7.40
  -5   7  -2  126.19    8.80
   7  -2  -2  135.19    9.00
  -5   7  -2  131.69    6.80
   7  -2  -2  128.59    7.50
   2   5   2  137.19    8.70
   5  -7   2  135.89    6.70
   2   5   2  133.19    8.50
  -7   2   2  126.69    8.30
   2   5   2  121.19    8.30
  -7   2   2  134.79    8.80
   2   5   2  144.09    8.10
   5  -7   2  121.99    8.70
   5  -7   2  148.69    8.30
  -3  -5  -2  142.39    9.20
  -5   8  -2  142.89   10.20
   8  -3  -2  130.79    8.80
  -5   8  -2  140.29    8.00
  -3  -5  -2  139.39    9.80
  -5   8  -2  133.29    9.90
  -3  -5  -2  133.49    8.30
  -3  -5  -2  132.89    8.30
   8  -3  -2  134.99    8.20
   8  -3  -2  132.19    8.40
   3   5   2  139.09    9.40
   5  -8   2  122.89    9.40
   5  -8   2  131.89    7.50
   5  -8   2  149.49    8.70
   3   5   2  132.49    8.40
   3   5   2  125.79    8.90
  -5   9  -2   96.49    7.40
  -4  -5  -2   79.29    7.40
  -4  -5  -2   87.29    8.70
  -4  -5  -2   77.29    7.00
  -5   9  -2   80.79    8.70
  -5   9  -2   87.29    9.30
   5  -9   2   79.59    7.10
   5  -9   2   77.49    7.00
   4   5   2   84.49    8.60
   4   5   2   86.49    7.80
   5  -9   2   91.89    8.90
   4   5   2   89.59    7.40
   5  -9   2   83.29    7.70
  -5  -5  -2  120.29   11.20
  -5  10  -2  145.29   12.50
  -5  10  -2  123.79   10.00
  -5  -5  -2  130.19    9.10
  -5  10  -2  126.59   11.50
   5   5   2  132.49    9.70
   5   5   2  114.29   11.10
   5 -10   2  136.79    9.80
   5   5   2  116.99   10.40
   5 -10   2  137.89    9.50
   5 -10   2  129.09   11.40
  -4  10  -2 1086.59   46.00
  -6  -4  -2 1092.09   45.40
  -4  10  -2 1142.59   43.40
  -4  10  -2 1111.09   45.20
  -6  -4  -2 1113.79   42.30
   4 -10   2 1125.89   45.40
   4 -10   2 1088.49   42.30
   6   4   2 1129.69   42.10
   4 -10   2 1088.59   43.20
   6   4   2 1056.49   43.90
   6   4   2 1105.29   45.60
  -3   9  -2  110.39   10.50
  -6  -3  -2  119.29    7.60
  -3   9  -2  106.39    9.50
  -3   9  -2   98.99    8.60
  -6  -3  -2  104.89    9.80
   3  -9   2  104.39    8.10
   3  -9   2  109.09    8.10
   6   3   2  103.19    8.60
   6   3   2  116.99   10.00
   6   3   2  121.69    7.50
   3  -9   2  115.99   10.00
  -2   8  -2 1635.04   63.19
   8  -6  -2 1769.92   63.69
   8  -6  -2 1719.83   62.99
   8  -6  -2 1670.03   63.49
  -6  -2  -2 1724.83   62.59
  -6  -2  -2 1772.72   65.19
  -2   8  -2 1728.93   63.99
  -2   8  -2 1689.33   65.09
   8  -6  -2 1686.93   62.79
   2  -8   2 1743.03   62.99
   6   2   2 1736.83   61.59
   6   2   2 1638.54   64.99
   2  -8   2 1716.23   64.89
   2  -8   2 1726.23   62.89
   6   2   2 1644.24   63.29
  -6  -1  -2  237.78   13.20
   7  -6  -2  299.67   14.70
  -1   7  -2  246.28   10.50
   7  -6  -2  260.07   11.80
  -1   7  -2  250.77   12.30
  -1   7  -2  271.27   12.60
  -1   7  -2  236.88   13.20
  -6  -1  -2  237.58   11.40
  -1   7  -2  222.08   13.60
  -1   7  -2  260.67   10.60
   7  -6  -2  250.87   11.40
   7  -6  -2  237.68   12.20
   7  -6  -2  249.48   11.60
   6   1   2  245.18   10.50
   1  -7   2  248.28   12.10
   1  -7   2  255.07   12.00
   6   1   2  241.08   11.80
  -7   6   2  251.97   11.40
   1  -7   2  233.28   11.50
   6   1   2  242.08   13.50
   1  -7   2  245.88   13.20
  -7   6   2  251.57   13.20
   0   6  -2 2102.79   80.29
   6  -6  -2 2208.98   80.69
   6  -6  -2 2253.57   79.59
   6  -6  -2 2240.18   80.39
   6  -6  -2 2333.67   79.69
   0   6  -2 2285.57   79.79
   0   6  -2 2219.18   81.59
   0   6  -2 2133.49   80.59
  -6   0  -2 2214.98   79.99
   0   6  -2 2340.37   79.49
   6  -6  -2 2211.08   79.09
  -6   0  -2 2153.68   81.69
   0   6  -2 2205.18   81.09
   6   0   2 2245.68   78.49
   0  -6   2 2224.38   80.59
   0  -6   2 2243.98   79.79
  -6   6   2 2253.07   80.09
   6   0   2 2149.39   80.59
  -6   6   2 2220.18   81.59
   6   0   2 2214.78   80.29
   6   0   2 2241.58   78.59
   6   0   2 2162.68   81.89
   0  -6   2 2123.39   81.59
   6   0   2 2204.98   79.99
   0  -6   2 2335.57   79.79
  -6   1  -2  270.87   12.20
  -6   1  -2  281.37   11.50
   5  -6  -2  274.27   12.50
   1   5  -2  267.97   11.50
   1   5  -2  267.37   13.30
   1   5  -2  297.87   12.10
   1   5  -2  266.37   13.00
   5  -6  -2  281.67   12.70
   5  -6  -2  277.47   11.30
  -6   1  -2  269.17   13.50
   5  -6  -2  263.97   12.20
   1   5  -2  271.67   12.50
   5  -6  -2  269.27   10.80
  -5   6   2  285.47   12.40
   6  -1   2  261.47   11.00
   6  -1   2  270.97   11.60
  -1  -5   2  258.67   12.00
   6  -1   2  265.97   13.40
  -1  -5   2  273.77   12.60
   6  -1   2  288.67   11.30
   6  -1   2  282.87   10.70
  -1  -5   2  255.37   13.10
  -1  -5   2  286.87   11.40
  -5   6   2  268.77   13.40
   6  -1   2  278.37   12.40
  -1  -5   2  286.07   11.60
   2   4  -2 2928.21  104.69
   2   4  -2 2924.81  103.09
   4  -6  -2 2985.30  102.99
   4  -6  -2 2842.62  105.39
   4  -6  -2 3188.48  109.99
  -6   2  -2 2956.70  104.49
   2   4  -2 2928.11  105.39
   2   4  -2 2998.30  104.49
  -6   2  -2 2909.41  104.29
   4  -6  -2 2834.52  102.79
   4  -6  -2 2916.71  104.79
  -6   2  -2 2949.80  105.99
   2   4  -2 3051.09  105.29
   4  -6  -2 2731.43  104.49
   4  -6  -2 3067.69  104.59
   2   4  -2 2871.61  105.09
  -2  -4   2 2912.01  102.99
  -4   6   2 2867.01  105.79
   6  -2   2 2973.20  105.69
   6  -2   2 2998.40  104.39
  -4   6   2 2798.12  104.69
   6  -2   2 2960.90  103.89
   6  -2   2 2843.12  105.39
  -2  -4   2 3050.89  104.69
  -2  -4   2 2827.12  104.89
   6  -2   2 2937.81  103.39
  -4   6   2 2852.01  102.79
  -2  -4   2 2850.41  103.49
   6  -2   2 2920.81  105.69
   6  -2   2 2981.70  103.49
  -2  -4   2 2812.22  105.39
   3   3  -2   51.19    5.90
   3  -6  -2   59.49    5.00
   3  -6  -2   56.29    5.70
  -6   3  -2   62.89    4.60
   3  -6  -2   53.09    6.30
   3  -6  -2   50.59    4.50
   3   3  -2   52.39    5.70
   3   3  -2   64.59    4.90
   3   3  -2   63.79    3.50
   3  -6  -2   60.99    3.40
   3   3  -2   69.69    5.40
   3  -6  -2   62.79    3.10
  -6   3  -2   57.39    4.80
   3  -6  -2   66.69    5.40
   3   3  -2   66.59    4.80
  -3   6   2   69.99    5.30
   6  -3   2   54.49    3.40
  -3   6   2   61.89    3.30
  -3   6   2   70.39    6.00
   6  -3   2   55.49    4.90
  -3   6   2   64.89    5.80
   6  -3   2   61.49    6.00
   6  -3   2   54.39    3.80
   6  -3   2   52.89    6.00
  -3  -3   2   63.89    5.10
  -3  -3   2   54.39    5.20
   6  -3   2   62.99    4.80
  -3  -3   2   63.09    5.10
  -3  -3   2   58.59    3.50
   6  -3   2   60.19    5.00
   6  -3   2   63.29    4.30
   4   2  -2 2898.71  104.39
  -6   4  -2 2893.11  104.09
   4   2  -2 2943.41  104.79
   2  -6  -2 2817.32  104.39
   4   2  -2 2949.90  102.89
  -6   4  -2 2850.51  104.49
   2  -6  -2 3027.30  104.49
   4   2  -2 2880.91  104.29
   2  -6  -2 2890.31  102.69
  -6   4  -2 2897.71  104.99
   2  -6  -2 3053.59  104.89
   4   2  -2 3156.78  105.29
   2  -6  -2 2852.01  104.89
   2  -6  -2 2897.01  105.09
   6  -4   2 3008.70  104.69
  -2   6   2 2862.51  105.39
  -2   6   2 2866.21  103.39
   6  -4   2 2830.82  104.29
   6  -4   2 2964.90  103.89
  -4  -2   2 2939.01  102.79
   6  -4   2 2950.70  103.19
  -4  -2   2 3111.09  104.49
  -2   6   2 2847.42  104.79
  -4  -2   2 2937.61  105.29
   6  -4   2 2725.23  105.19
   6  -4   2 2801.72  104.89
   6  -4   2 2792.92  104.09
  -2   6   2 2949.21  102.99
  -4  -2   2 2793.32  104.89
   6  -4   2 3071.49  103.99
  -2   6   2 3039.10  105.39
  -6   5  -2  274.97   12.60
   1  -6  -2  286.17   12.50
   5   1  -2  290.57   12.30
   1  -6  -2  289.17   13.40
   5   1  -2  286.37   10.90
  -6   5  -2  265.77   13.10
   5   1  -2  276.27   13.10
   5   1  -2  256.77   12.10
   1  -6  -2  269.77   12.30
   1  -6  -2  269.47   13.00
   6  -5   2  283.37   11.10
   6  -5   2  260.57   11.70
  -5  -1   2  245.48   11.20
   6  -5   2  270.97   11.30
  -1   6   2  291.17   11.70
   6  -5   2  270.77   12.80
  -5  -1   2  259.57   13.10
  -1   6   2  265.37   11.80
  -5  -1   2  260.77   12.80
  -1   6   2  295.17   15.00
  -1   6   2  263.97   13.10
   6  -5   2  277.67   12.40
  -1   6   2  274.97   12.80
   0  -6  -2 2290.37   79.59
  -6   6  -2 2105.69   81.29
   6   0  -2 2331.27   78.19
   6   0  -2 2222.08   78.19
  -6   6  -2 2199.18   80.79
   0  -6  -2 2186.08   78.99
   0  -6  -2 2203.08   79.99
   6   0  -2 2210.78   79.69
   6   0  -2 2289.87   78.79
   6   0  -2 2172.38   79.79
   0  -6  -2 2242.38   81.09
   6  -6   2 2125.79   80.19
  -6   0   2 2222.28   80.89
   0   6   2 2168.58   80.59
  -6   0   2 2208.68   78.49
   6  -6   2 2118.39   81.19
  -6   0   2 2337.77   81.19
   6  -6   2 2169.88   80.29
   6  -6   2 2123.19   78.59
   6  -6   2 2193.48   78.39
   0   6   2 2293.87   79.59
   0   6   2 2204.08   80.89
  -1  -6  -2  232.88   11.10
   7  -1  -2  241.58   11.00
  -6   7  -2  255.77   13.10
   7  -1  -2  248.18   11.60
   7  -1  -2  249.68   10.60
   7  -1  -2  237.58   11.50
  -1  -6  -2  239.78   12.90
  -1  -6  -2  253.27   12.00
  -6   7  -2  257.77   10.30
   7  -1  -2  253.27   10.60
  -1  -6  -2  250.67   11.00
  -1  -6  -2  242.28   10.70
   7  -1  -2  247.88   13.00
  -6   7  -2  222.58   13.10
   1   6   2  247.38   12.40
   1   6   2  252.07   12.80
   1   6   2  248.88   12.60
  -7   1   2  255.27   12.80
  -7   1   2  232.88   11.40
   1   6   2  256.67   12.40
   6  -7   2  231.98   13.00
  -7   1   2  250.67   13.00
   6  -7   2  253.07   12.50
   6  -7   2  250.07   10.50
   8  -2  -2 1690.63   62.09
   8  -2  -2 1729.03   62.19
   8  -2  -2 1722.03   62.19
  -6   8  -2 1726.13   65.39
   8  -2  -2 1682.73   62.79
  -2  -6  -2 1690.73   64.79
  -6   8  -2 1522.45   62.09
   8  -2  -2 1728.33   62.99
  -2  -6  -2 1708.03   62.89
  -6   8  -2 1649.23   64.79
  -2  -6  -2 1755.12   63.29
  -2  -6  -2 1779.32   61.19
  -8   2   2 1808.52   64.89
   2   6   2 1703.23   63.69
   2   6   2 1677.43   64.19
   6  -8   2 1647.84   64.79
   2   6   2 1737.73   64.29
   6  -8   2 1832.02   61.69
   6  -8   2 1720.73   63.59
  -6   9  -2  107.99   10.40
   9  -3  -2  104.29   10.60
  -6   9  -2  114.99    7.50
  -3  -6  -2  103.99    8.00
   9  -3  -2  111.19    7.60
   9  -3  -2   99.59    7.70
  -3  -6  -2  111.79    9.80
  -3  -6  -2  114.79    8.20
  -6   9  -2  102.29   10.10
   6  -9   2  113.39    8.10
   3   6   2  108.59    9.20
   3   6   2  110.09    9.30
   6  -9   2  104.99    8.20
   6  -9   2  109.79    8.10
   3   6   2  104.49    8.60
  10  -4  -2 1098.59   42.80
  10  -4  -2 1099.09   42.40
  -4  -6  -2 1083.09   42.90
  -4  -6  -2 1087.29   45.40
  -6  10  -2 1150.58   46.30
  -4  -6  -2 1150.88   43.80
  -6  10  -2 1122.19   46.20
  -6  10  -2 1143.29   42.30
   6 -10   2 1120.49   42.80
   4   6   2 1063.49   45.10
   6 -10   2 1086.09   43.50
   4   6   2 1092.79   44.70
   6 -10   2 1157.88   45.70
   4   6   2 1104.99   43.40
  -3  10  -2  140.99   13.30
  -7  -3  -2  147.99    9.70
  -3  10  -2  126.89   11.30
  10  -7  -2  139.19   11.00
  10  -7  -2  166.58   11.50
  -7  -3  -2  147.49   12.60
   7   3   2  135.49   10.80
   7   3   2  145.69   12.30
   7   3   2  144.49    9.10
   3 -10   2  140.99   10.30
   3 -10   2  138.99   12.20
   3 -10   2  149.99   10.30
  -2   9  -2  125.99    9.90
   9  -7  -2  112.39    9.10
  -7  -2  -2  124.69    8.30
  -7  -2  -2  135.69   11.00
  -2   9  -2  142.89   10.30
  -2   9  -2  136.99   11.40
   9  -7  -2  124.09    9.20
   7   2   2  114.79    9.00
   2  -9   2  126.79    9.00
   2  -9   2  124.89   10.30
   7   2   2  120.69   10.60
   2  -9   2  129.59    8.90
   8  -7  -2  155.28    9.10
  -1   8  -2  154.08   10.70
  -1   8  -2  150.58    7.70
  -7  -1  -2  144.69   10.60
  -7  -1  -2  137.39    8.40
   8  -7  -2  135.49    9.40
  -1   8  -2  143.19    9.90
   8  -7  -2  156.38    9.70
  -1   8  -2  127.29    9.40
   8  -7  -2  155.58    9.70
   1  -8   2  158.28   10.70
   7   1   2  139.49    7.30
   1  -8   2  152.58    8.90
  -8   7   2  148.29   10.50
   1  -8   2  128.09    8.80
  -8   7   2  162.88    8.60
   7   1   2  134.99    9.00
   7   1   2  146.69   10.80
   7  -7  -2   88.59    6.20
   0   7  -2   95.79    7.50
   0   7  -2  105.79    8.50
   7  -7  -2   85.29    6.50
   7  -7  -2  100.49    7.40
   0   7  -2   86.79    6.50
   7  -7  -2   85.59    7.40
   0   7  -2  107.29    6.80
  -7   0  -2   87.59    8.30
  -7   0  -2   88.79    6.40
   0   7  -2   95.69    6.80
   7  -7  -2   87.59    6.70
   0  -7   2   94.29    6.50
   0  -7   2   99.09    7.00
   0  -7   2   95.99    7.20
   7   0   2   92.39    6.80
   7   0   2   96.59    5.80
  -7   7   2   96.49    6.60
   7   0   2   95.29    8.40
  -7   7   2   95.29    8.20
   0  -7   2   86.79    8.00
   1   6  -2  230.88   12.10
   1   6  -2  246.18   11.80
   6  -7  -2  238.98   11.90
  -7   1  -2  248.18   11.70
   6  -7  -2  256.87   10.90
   6  -7  -2  259.27   10.50
   1   6  -2  241.88   12.90
   6  -7  -2  249.58   12.30
  -7   1  -2  256.77   13.60
   6  -7  -2  253.87   12.00
   1   6  -2  237.98   11.10
   7  -1   2  253.47   10.60
   7  -1   2  233.38   13.30
  -1  -6   2  261.67   10.90
  -1  -6   2  238.48   12.10
   7  -1   2  257.77   11.50
   7  -1   2  240.38   10.40
  -6   7   2  258.47   13.40
  -1  -6   2  244.88   11.20
  -6   7   2  259.27   12.00
   7  -1   2  245.68   10.00
  -1  -6   2  243.38   13.20
  -7   2  -2  122.59    7.40
   2   5  -2  137.39    8.50
   5  -7  -2  127.59    8.50
   5  -7  -2  126.29    7.90
   5  -7  -2  139.09    6.10
  -7   2  -2  136.39    9.20
   5  -7  -2  119.09    7.50
   2   5  -2  123.49    7.80
   2   5  -2  136.39    8.20
   7  -2   2  129.49    8.60
  -2  -5   2  127.89    8.00
  -5   7   2  137.49    9.10
  -2  -5   2  135.99    8.80
   7  -2   2  133.09    6.60
   7  -2   2  132.19    7.40
  -2  -5   2  121.39    6.80
  -2  -5   2  127.59    6.50
   7  -2   2  117.99    6.70
  -5   7   2  128.79    7.90
   7  -2   2  138.49    7.20
  -7   3  -2  157.28    8.60
   3   4  -2  167.58    7.30
   4  -7  -2  157.48   10.20
  -7   3  -2  161.58    8.70
   3   4  -2  156.98    9.00
   4  -7  -2  144.49    8.60
   3   4  -2  163.98    8.90
   4  -7  -2  155.18    9.00
   4  -7  -2  159.38    6.60
   7  -3   2  165.88    7.80
   7  -3   2  150.88    8.50
  -3  -4   2  164.58    9.30
   7  -3   2  156.78    8.40
  -4   7   2  162.08    9.10
   7  -3   2  164.78    9.40
  -3  -4   2  158.58    7.30
  -4   7   2  156.98    9.90
   7  -3   2  164.38    7.90
  -3  -4   2  164.68    9.70
  -7   4  -2  153.38    8.70
   3  -7  -2  161.98    6.70
   4   3  -2  159.08    8.80
   4   3  -2  180.28    7.20
   3  -7  -2  155.68    8.70
   4   3  -2  150.68    8.70
   3  -7  -2  157.58    9.20
  -7   4  -2  167.68    9.40
   7  -4   2  164.68    7.80
   7  -4   2  149.69    8.80
  -4  -3   2  177.08    9.90
   7  -4   2  130.39    8.90
   7  -4   2  146.59    8.30
  -4  -3   2  153.58    9.10
   7  -4   2  155.98    8.90
  -3   7   2  162.98    9.20
  -3   7   2  159.58    9.80
  -3   7   2  161.68    6.90
  -3   7   2  169.68    6.60
  -4  -3   2  166.28    9.40
  -4  -3   2  154.38    7.00
   7  -4   2  165.88    7.20
   5   2  -2  132.39    7.50
   5   2  -2  122.89    7.70
   2  -7  -2  128.09    6.00
  -7   5  -2  137.09    8.80
   2  -7  -2  122.39    8.20
   2  -7  -2  127.49    7.70
   5   2  -2  139.19    6.30
  -7   5  -2  137.79    8.00
   7  -5   2  136.69    7.50
   7  -5   2  135.89    6.90
  -5  -2   2  128.49    8.60
   7  -5   2  138.39    8.40
  -5  -2   2  133.09    6.00
  -2   7   2  122.39    8.20
  -2   7   2  130.99    6.70
  -2   7   2  126.59    6.70
  -5  -2   2  131.09    8.50
   7  -5   2  130.49    7.70
  -2   7   2  116.39    8.60
   7  -5   2  128.39    8.10
   1  -7  -2  243.18   10.50
  -7   6  -2  231.98   12.90
   1  -7  -2  226.68   11.70
   6   1  -2  234.08   11.70
   6   1  -2  247.58   11.70
   1  -7  -2  242.98   12.30
   6   1  -2  260.77   10.40
   1  -7  -2  255.67   12.80
  -7   6  -2  248.98   12.50
   7  -6   2  258.27   10.80
  -1   7   2  247.58   13.10
   7  -6   2  253.37   10.50
   7  -6   2  242.78   12.40
   7  -6   2  236.68   11.10
   7  -6   2  241.18   12.90
  -1   7   2  251.67   11.50
  -6  -1   2  251.57   10.10
  -1   7   2  244.78   11.40
  -1   7   2  242.48   12.60
  -6  -1   2  245.38   12.70
   7  -6   2  228.48   12.90
  -6  -1   2  230.38   12.90
   0  -7  -2   90.89    6.10
   0  -7  -2   93.59    8.00
   7   0  -2   88.69    6.40
   0  -7  -2   97.69    7.10
   0  -7  -2   97.49    7.40
   7   0  -2   97.79    6.20
  -7   7  -2   90.59    8.30
   7   0  -2   93.49    6.70
  -7   7  -2  101.89    8.20
   0   7   2   95.89    8.00
  -7   0   2   82.69    6.80
   7  -7   2   89.79    5.30
   7  -7   2   99.29    8.10
  -7   0   2   96.29    7.80
   0   7   2   98.49    7.10
   0   7   2   98.59    7.70
   7  -7   2   97.59    5.70
  -7   0   2   83.29    7.80
   0   7   2   93.59    7.90
   7  -7   2   88.29    7.50
  -1  -7  -2  147.79    9.10
   8  -1  -2  132.49    8.60
  -7   8  -2  129.69   10.30
   8  -1  -2  149.69    7.40
  -1  -7  -2  145.69    8.40
   8  -1  -2  143.59    7.10
   8  -1  -2  138.59    8.70
  -1  -7  -2  149.69   10.40
  -7   8  -2  134.39    7.00
  -7   8  -2  125.29   10.70
  -1  -7  -2  141.29    7.80
   8  -1  -2  143.59    8.70
  -1  -7  -2  131.49    8.20
   1   7   2  152.48   10.30
  -8   1   2  149.88   10.30
  -8   1   2  149.69   10.60
   1   7   2  154.08    9.70
   7  -8   2  145.29   10.40
   7  -8   2  152.78   10.00
   7  -8   2  150.68    8.00
   1   7   2  142.19    9.90
  -2  -7  -2  131.29    6.90
   9  -2  -2  127.69    8.50
  -7   9  -2  121.29   11.10
  -2  -7  -2  117.89   10.20
  -7   9  -2  124.99   11.30
   9  -2  -2  126.19    8.10
  -2  -7  -2  136.69    8.80
  -2  -7  -2  134.89    7.00
  -7   9  -2  133.79    7.50
   9  -2  -2  123.89    8.50
  -2  -7  -2  131.39    9.10
  -9   2   2  118.79   10.90
   7  -9   2  116.79   10.30
   2   7   2  109.19    9.80
   2   7   2  126.59    9.70
   7  -9   2  116.09    9.50
   2   7   2  128.59   10.30
  10  -3  -2  151.88   10.10
  -3  -7  -2  159.38   12.70
  -3  -7  -2  161.38   10.60
  -7  10  -2  143.49   13.60
  -7  10  -2  174.28   13.60
  10  -3  -2  136.99    9.80
  10  -3  -2  145.09    9.80
  -7  10  -2  153.58    9.30
  -3  -7  -2  151.28   10.50
   7 -10   2  155.58   12.50
   3   7   2  155.08   11.90
   7 -10   2  146.09   10.60
   7 -10   2  156.08   10.80
   3   7   2  155.28   11.40
   3   7   2  142.49   12.00
   9  -8  -2  117.19    9.20
  -8  -1  -2  127.59   11.20
  -1   9  -2  118.69   11.40
   9  -8  -2  106.69    8.60
  -1   9  -2  114.29   10.60
  -8  -1  -2  118.89    8.60
   9  -8  -2  126.59   10.10
   1  -9   2  122.09    9.00
   1  -9   2  131.99   10.90
   1  -9   2  134.29    9.30
   8   1   2  132.39    9.40
  -9   8   2  136.39   11.30
   8   1   2  123.89   11.10
   8   1   2  130.39    7.40
   0   8  -2 1410.16   52.79
   8  -8  -2 1387.56   52.19
   0   8  -2 1480.95   52.69
   0   8  -2 1410.26   54.39
  -8   0  -2 1426.76   56.09
  -8   0  -2 1418.96   53.09
   8  -8  -2 1418.26   52.69
   8  -8  -2 1357.26   53.59
   0   8  -2 1420.86   55.69
   8  -8  -2 1427.76   54.49
   8  -8  -2 1434.86   52.29
   8   0   2 1370.56   53.39
   0  -8   2 1519.85   53.99
  -8   8   2 1412.86   55.59
  -8   8   2 1514.05   53.09
   8   0   2 1392.56   56.09
   0  -8   2 1399.46   55.69
   8   0   2 1395.66   51.19
   8   0   2 1411.96   51.49
   0  -8   2 1450.35   53.19
   0  -8   2 1431.36   53.79
   1   7  -2  141.39    9.90
   1   7  -2  161.98    9.90
   7  -8  -2  135.59    8.10
  -8   1  -2  146.09   10.90
   7  -8  -2  131.59    9.10
  -8   1  -2  151.78    8.90
   7  -8  -2  159.68    9.80
   7  -8  -2  129.49    7.40
   7  -8  -2  155.98    8.00
   1   7  -2  147.79   10.60
   1   7  -2  162.78    9.70
  -7   8   2  159.18    9.10
  -1  -7   2  149.29    9.50
  -1  -7   2  154.28    8.40
  -1  -7   2  158.18    8.70
  -1  -7   2  151.08   10.80
   8  -1   2  145.09   10.80
   8  -1   2  154.68    7.50
   8  -1   2  158.08    7.50
   8  -1   2  150.98    8.80
   8  -1   2  139.99    8.60
  -7   8   2  140.89   10.70
   6  -8  -2 1618.24   61.59
   2   6  -2 1686.43   63.89
  -8   2  -2 1786.62   65.79
   2   6  -2 1750.52   63.89
   6  -8  -2 1674.83   63.49
  -8   2  -2 1712.53   63.09
   6  -8  -2 1697.53   60.99
   2   6  -2 1745.53   64.59
   6  -8  -2 1656.33   63.79
   8  -2   2 1707.03   61.59
   8  -2   2 1676.73   65.09
  -2  -6   2 1725.73   63.89
   8  -2   2 1722.83   62.39
  -6   8   2 1697.23   63.29
  -2  -6   2 1753.12   62.29
  -2  -6   2 1714.33   64.99
   8  -2   2 1744.93   62.09
  -2  -6   2 1716.63   61.19
  -6   8   2 1709.43   65.29
   8  -2   2 1749.72   61.19
  -8   3  -2  148.69    8.50
   5  -8  -2  140.19    6.10
  -8   3  -2  148.89    8.60
   5  -8  -2  142.19    6.20
   3   5  -2  131.79    8.70
   3   5  -2  127.39    9.00
   5  -8  -2  134.99    8.50
   5  -8  -2  125.49    8.80
   8  -3   2  148.79    7.90
  -3  -5   2  143.89    7.50
  -3  -5   2  133.69    9.70
   8  -3   2  140.19    8.30
   8  -3   2  134.59    9.50
  -5   8   2  128.59    9.90
  -5   8   2  139.29    9.00
  -3  -5   2  130.79    8.90
   8  -3   2  136.49    7.30
   8  -3   2  137.69    7.00
   8  -3   2  121.49    8.30
   4  -8  -2 1529.05   57.09
  -8   4  -2 1545.95   56.79
   4   4  -2 1496.75   56.69
   4  -8  -2 1492.75   56.49
   4   4  -2 1584.44   54.39
   4  -8  -2 1531.95   53.59
   4   4  -2 1466.75   56.59
  -8   4  -2 1554.64   56.49
  -4   8   2 1440.86   57.89
   8  -4   2 1595.44   55.39
   8  -4   2 1506.65   54.99
  -4   8   2 1504.65   56.69
  -4  -4   2 1512.85   57.79
   8  -4   2 1494.05   54.59
  -4  -4   2 1508.65   57.09
  -4  -4   2 1482.75   54.39
   8  -4   2 1451.95   56.89
   3  -8  -2  132.89    9.00
   3  -8  -2  126.29    8.30
   3  -8  -2  135.59    6.10
   5   3  -2  141.99    6.80
   5   3  -2  135.39    8.50
  -8   5  -2  132.19    9.40
   5   3  -2  135.79    8.60
  -3   8   2  127.99    9.00
   8  -5   2  144.99    9.20
  -3   8   2  136.99   10.00
   8  -5   2  139.49    7.90
   8  -5   2  158.08   11.30
   8  -5   2  125.39    8.50
  -5  -3   2  137.19    9.50
   8  -5   2  134.59    9.00
  -5  -3   2  131.59    9.10
  -5  -3   2  127.09    6.40
   8  -5   2  124.39    7.10
  -8   6  -2 1758.82   65.39
   2  -8  -2 1710.13   61.69
   6   2  -2 1764.22   63.79
  -8   6  -2 1755.02   64.09
   6   2  -2 1763.72   61.79
   2  -8  -2 1707.43   64.89
   2  -8  -2 1733.93   63.99
   6   2  -2 1675.43   63.89
   8  -6   2 1684.13   63.29
  -2   8   2 1767.72   62.29
  -2   8   2 1730.53   65.59
   8  -6   2 1682.63   64.49
  -2   8   2 1628.94   64.39
   8  -6   2 1693.03   62.79
  -6  -2   2 1734.93   65.39
  -2   8   2 1774.12   61.49
  -6  -2   2 1762.42   61.69
   8  -6   2 1813.22   62.29
  -2   8   2 1600.54   62.29
  -6  -2   2 1754.02   64.99
   1  -8  -2  149.99    9.30
   7   1  -2  150.78    9.20
  -8   7  -2  146.99   10.90
   1  -8  -2  145.39   10.30
  -8   7  -2  153.38   10.10
   1  -8  -2  148.79    9.30
   7   1  -2  147.99    7.70
   7   1  -2  143.89    8.70
   8  -7   2  136.59   10.00
   8  -7   2  144.29    8.20
  -7  -1   2  109.49    8.20
  -7  -1   2  136.79   10.00
  -1   8   2  153.68   10.70
  -1   8   2  147.49    9.70
  -7  -1   2  149.79   10.80
   8  -7   2  135.99    8.00
  -1   8   2  153.08    7.90
  -1   8   2  153.18   10.30
  -1   8   2  138.79    8.60
   8  -7   2  142.49    7.80
   8  -7   2  130.39    9.70
   8   0  -2 1386.96   53.09
  -8   8  -2 1427.76   55.69
   0  -8  -2 1452.75   53.39
   8   0  -2 1398.26   51.59
   0  -8  -2 1401.66   53.49
  -8   8  -2 1422.26   54.69
   0  -8  -2 1406.36   51.79
   0  -8  -2 1385.26   54.69
   8   0  -2 1391.86   52.59
   0   8   2 1404.56   52.09
   8  -8   2 1368.86   54.99
   8  -8   2 1400.86   53.79
  -8   0   2 1408.46   54.79
   0   8   2 1425.46   54.59
   8  -8   2 1376.66   50.99
   0   8   2 1405.56   54.79
  -8   0   2 1446.66   51.29
   0   8   2 1394.46   52.89
   0   8   2 1419.86   53.29
  -8   0   2 1444.66   55.19
  -1  -8  -2  115.19    7.60
  -1  -8  -2  123.19    9.30
  -8   9  -2  121.09   11.60
  -8   9  -2  133.39   11.40
   9  -1  -2  115.19    8.60
  -1  -8  -2  124.39   10.70
   9  -1  -2  113.39    8.90
  -1  -8  -2  116.59    8.60
  -9   1   2  131.29   11.20
   8  -9   2  113.89   10.80
   8  -9   2  122.19   10.40
   1   8   2  130.29   10.80
   1   8   2  118.29   10.60
   1   8   2  121.59    9.90
   0   9  -2   99.69   11.20
   0   9  -2  112.09   10.90
   9  -9  -2   99.39    9.00
   9  -9  -2  119.69   10.30
  -9   0  -2  118.59   11.80
  -9   9   2  111.89   11.40
   0  -9   2  113.09    9.00
   0  -9   2  110.19   11.70
   9   0   2  110.59    7.80
   9   0   2  100.99    9.30
   8  -9  -2  129.59    9.90
   8  -9  -2  122.79    9.20
   1   8  -2  130.09   10.80
  -9   1  -2  139.29   11.50
  -9   1  -2  116.69    8.90
   1   8  -2  119.09    9.30
   1   8  -2  129.69   10.60
   9  -1   2  124.79    9.10
  -8   9   2  128.99   11.40
   9  -1   2  124.29    6.80
  -1  -8   2  140.19   11.10
   9  -1   2   97.49   10.80
  -1  -8   2  127.39    8.90
  -1  -8   2  132.19    9.80
  -8   9   2  136.59    9.30
  -9   2  -2  137.29   11.10
  -9   2  -2  132.89    8.80
   7  -9  -2  120.09    8.90
   7  -9  -2  118.49    9.50
   2   7  -2  106.89    9.70
   2   7  -2  139.59    9.90
   2   7  -2  124.99   10.00
   7  -9  -2  116.69    6.80
   9  -2   2  116.69   10.40
  -2  -7   2  137.39   10.90
  -2  -7   2  129.59    7.00
   9  -2   2  124.69    6.60
  -7   9   2  116.79   10.70
   9  -2   2  120.69    8.30
  -2  -7   2  123.29    8.00
  -2  -7   2  125.79    9.60
  -7   9   2  108.69    8.90
   3   6  -2  110.39    9.20
   6  -9  -2  105.09    8.90
   3   6  -2  113.09    9.00
   3   6  -2  100.69    8.90
  -9   3  -2  108.09    8.20
   6  -9  -2  117.69    8.40
  -6   9   2   97.49   10.00
   9  -3   2  110.89    7.20
  -3  -6   2  104.29    9.70
  -3  -6   2  115.19    7.00
   9  -3   2  116.19    8.00
   9  -3   2  102.09    9.50
  -6   9   2  102.79    8.60
   9  -3   2  110.99   10.20
  -3  -6   2  111.89    8.90
   9  -3   2  104.39    6.30
   5  -9  -2   84.29    8.20
   4   5  -2   76.79    7.50
  -9   4  -2   90.79    7.60
   4   5  -2   87.79    8.20
  -9   4  -2   84.49    8.00
   5  -9  -2   75.19    7.20
   9  -4   2   85.49    8.20
  -5   9   2   97.39    8.30
   9  -4   2   83.79    6.10
  -5   9   2   81.59    9.10
  -4  -5   2   76.49    8.10
   9  -4   2   84.79    8.40
  -4  -5   2   78.29    5.80
  -4  -5   2   96.89    8.90
   5   4  -2   82.99    6.00
   4  -9  -2   67.59    7.70
   5   4  -2   88.29    7.80
   4  -9  -2   85.79    7.50
   5   4  -2   86.89    7.70
  -9   5  -2   65.29    8.10
   9  -5   2   97.69    8.30
   9  -5   2   79.69    5.60
   9  -5   2   76.49    8.40
  -4   9   2   77.39    8.90
  -5  -4   2   97.79    9.00
  -4   9   2   88.09    8.20
   9  -5   2   90.29    9.30
  -5  -4   2   87.79    8.10
   9  -5   2   83.89    7.80
   3  -9  -2  107.29    9.00
  -9   6  -2  108.99    9.90
   3  -9  -2  111.49    8.50
   6   3  -2  118.19    6.80
   6   3  -2  100.49    8.50
   6   3  -2  113.59    8.30
   9  -6   2  104.19    9.40
  -3   9   2  101.69    9.30
  -6  -3   2  111.79    9.10
  -3   9   2  108.29   10.10
  -3   9   2  116.59    6.60
   9  -6   2  106.09    8.80
  -6  -3   2  110.79    9.90
   9  -6   2  108.29    6.30
   9  -6   2  106.59    8.50
  -6  -3   2  100.39    5.90
   2  -9  -2  121.39    9.00
   7   2  -2  130.19    8.80
   7   2  -2  113.69    9.10
  -9   7  -2  135.19    9.80
   2  -9  -2  119.39    9.80
   2  -9  -2  127.19    6.90
  -9   7  -2  108.09   10.80
   9  -7   2  118.29    8.50
  -2   9   2  107.99    9.80
   9  -7   2  106.39    9.80
   9  -7   2  122.09    9.90
  -2   9   2  117.99    7.10
  -7  -2   2  118.89   10.70
  -2   9   2  118.99   10.20
  -7  -2   2  129.89   10.40
  -2   9   2  121.99   10.60
   1  -9  -2  128.19   10.70
   8   1  -2  107.39    9.20
  -9   8  -2  138.49   10.90
  -9   8  -2  125.79   11.70
   8   1  -2  124.99    9.00
   1  -9  -2  140.29    7.90
   1  -9  -2  123.59    9.50
   9  -8   2  108.49    8.10
  -8  -1   2  122.49    7.30
  -8  -1   2  124.49   10.70
  -1   9   2  141.09   11.10
   9  -8   2  117.49   10.60
  -1   9   2  131.19   10.20
  -1   9   2  125.49   11.10
   9  -8   2  121.59   10.60
  -8  -1   2  125.89   11.40
  -9   9  -2  114.89   12.60
  -9   9  -2  109.19   11.20
   9   0  -2  113.39    9.50
   9   0  -2  117.39    9.00
   0  -9  -2  119.19   10.80
   9  -9   2  106.09   10.60
   0   9   2  101.09   11.20
   0   9   2   96.89   10.90
  -9   0   2  110.59   11.40
   3   7  -2  147.49   12.10
 -10   3  -2  172.08   10.70
   7 -10  -2  133.09   10.40
   7 -10  -2  135.39   11.30
   3   7  -2  146.89   11.80
   3   7  -2  132.29   11.60
  -3  -7   2  143.49    9.00
  -3  -7   2  151.18   11.70
  -3  -7   2  145.19   12.20
  10  -3   2  133.99    8.00
  -7  10   2  149.09   13.10
  -7  10   2  161.98   11.30
  10  -3   2  161.18    9.70
  10  -3   2  140.89   12.00
   4   6  -2 1099.59   44.20
   4   6  -2 1117.59   44.20
   6 -10  -2 1105.59   43.60
   6 -10  -2 1116.79   44.30
 -10   4  -2 1136.59   43.40
   4   6  -2 1079.19   44.60
  10  -4   2 1090.39   41.40
  -4  -6   2 1117.69   45.40
  -4  -6   2 1122.19   44.20
  10  -4   2 1087.99   40.80
  10  -4   2 1046.90   44.60
  -6  10   2 1097.89   45.90
  -4  -6   2 1096.39   40.80
  -6  10   2 1103.79   43.50
   5 -10  -2  133.09   10.20
   5 -10  -2  131.29   10.90
   5   5  -2  131.69   10.40
   5   5  -2  117.39    9.80
   5   5  -2  127.99   11.00
  -5  10   2  140.39   12.50
  10  -5   2  127.49    8.00
  10  -5   2  149.19   11.80
  -5  10   2  129.19   10.70
  -5  -5   2  147.19   11.00
  -5  -5   2  125.79    7.30
  10  -5   2  120.09   10.70
  -5  -5   2  133.89   11.80
   6   4  -2 1106.09   43.40
   4 -10  -2 1057.19   44.20
   6   4  -2 1089.19   45.30
   6   4  -2 1047.60   43.80
   4 -10  -2 1080.19   43.50
  10  -6   2 1122.09   44.80
  -6  -4   2 1147.49   40.40
  -6  -4   2 1107.29   45.40
  -4  10   2 1109.09   44.10
  -6  -4   2 1115.19   44.40
  10  -6   2 1062.89   43.50
  10  -6   2 1132.59   40.70
  -4  10   2 1150.88   46.20
   7   3  -2  146.69   10.70
   7   3  -2  158.68   11.20
   3 -10  -2  156.68   11.90
   3 -10  -2  156.08   11.00
  -3  10   2  161.58   13.30
  -7  -3   2  148.09   12.90
  -7  -3   2  143.99   11.70
  10  -7   2  149.79    8.10
  -3  10   2  154.08   12.10
  10  -7   2  161.18   12.20
  10  -7   2  133.19   10.80
  -7  -3   2  147.79    8.00
   0   0  -3 5751.92  201.88
  -1   0  -3  857.11   30.50
   0   1  -3  835.72   30.60
   0   1  -3  824.32   30.50
   1  -1  -3  814.02   30.60
  -1   0  -3  827.22   30.90
  -1   0  -3  845.52   30.40
   0   1  -3  844.22   30.00
  -1   0  -3  801.92   30.50
   1  -1  -3  849.52   30.10
   1  -1  -3  856.01   30.70
  -1   0  -3  823.62   30.10
   0   1  -3  818.52   29.90
   1  -1  -3  852.81   30.20
   1  -1  -3  865.01   30.90
   0   1  -3  849.81   30.20
  -1   0  -3  851.71   29.90
   1  -1  -3  866.81   30.60
   0   1  -3  876.31   30.80
   0   1  -3  869.91   30.80
   1   0   3  848.72   30.10
   1   0   3  833.12   30.50
  -1   1   3  851.11   30.90
  -1   1   3  845.32   30.70
   1   0   3  823.52   30.40
   0  -1   3  815.52   30.30
  -1   1   3  826.32   30.50
   1   0   3  865.81   30.60
   0  -1   3  787.22   30.70
   1   0   3  840.12   30.40
   0  -1   3  874.71   30.60
  -1   1   3  826.12   30.20
  -1   1   3  849.12   30.10
   0  -1   3  864.01   30.40
   0  -1   3  864.21   29.90
   0  -1   3  853.51   30.70
  -1   1  -3  817.52   30.40
  -1   1  -3  877.01   31.00
   1   0  -3  882.11   30.80
   0  -1  -3  909.11   31.20
  -1   1  -3  813.32   30.80
   0  -1  -3  829.22   30.30
   0  -1  -3  819.82   30.60
   1   0  -3  824.12   30.70
   1   0  -3  875.31   31.00
  -1   1  -3  833.62   30.40
  -1   1  -3  900.41   31.00
   1   0  -3  891.81   30.00
   1   0  -3  805.12   30.80
   0  -1  -3  820.02   30.80
   0  -1  -3  865.21   30.40
   1   0  -3  857.21   30.00
   0  -1  -3  853.21   30.60
   0  -1  -3  895.31   30.70
   1   0  -3  879.01   30.50
  -1   1  -3  842.52   30.00
   0   1   3  856.21   30.30
   0   1   3  825.92   30.30
   0   1   3  820.72   30.70
  -1   0   3  837.62   30.00
  -1   0   3  831.42   31.00
   1  -1   3  895.41   30.30
   1  -1   3  818.92   30.90
  -1   0   3  840.02   30.70
   1  -1   3  821.02   29.90
   1  -1   3  827.02   30.90
  -1   0   3  843.22   30.80
   0   1   3  888.41   30.70
  -1   0   3  872.91   30.00
   0   1   3  795.32   31.10
   1  -1   3  859.71   30.80
   1  -1   3  840.42   30.40
   0   1   3  836.82   30.80
  -1  -1  -3  587.24   21.30
   2  -1  -3  580.84   21.20
  -1  -1  -3  603.34   21.80
  -1   2  -3  566.44   21.50
  -1   2  -3  626.74   21.90
  -1   2  -3  556.34   21.90
  -1   2  -3  616.54   22.30
  -1  -1  -3  600.04   21.90
  -1   2  -3  579.34   21.80
   2  -1  -3  584.94   21.00
   2  -1  -3  598.94   21.60
  -1  -1  -3  639.64   22.40
  -1   2  -3  603.54   21.00
  -1  -1  -3  564.54   21.90
   2  -1  -3  586.14   21.90
   1   1   3  612.34   22.00
  -2   1   3  564.24   22.10
   1  -2   3  598.64   22.00
   1  -2   3  603.34   21.50
   1   1   3  585.14   21.30
   1   1   3  618.14   21.80
  -2   1   3  568.54   21.80
   1   1   3  575.24   21.90
   1   1   3  579.84   21.80
   1  -2   3  575.94   21.80
   1   1   3  572.74   22.30
   1  -2   3  570.94   22.00
  -2   1   3  601.04   21.60
   1  -2   3  596.94   22.30
   3  -2  -3  338.37   13.40
  -1   3  -3  380.86   14.40
   3  -2  -3  360.96   14.40
  -1   3  -3  331.97   14.00
  -2  -1  -3  341.47   14.20
  -1   3  -3  367.36   14.50
  -1   3  -3  361.46   13.30
   3  -2  -3  351.56   13.30
  -1   3  -3  332.77   14.20
  -2  -1  -3  334.47   14.00
   3  -2  -3  352.56   13.40
  -1   3  -3  378.76   13.70
  -2  -1  -3  342.97   13.50
  -2  -1  -3  358.66   12.90
   3  -2  -3  350.16   14.10
  -2  -1  -3  360.06   13.70
   3  -2  -3  359.66   14.10
   2   1   3  375.86   14.20
   2   1   3  364.16   14.40
   2   1   3  354.16   14.60
   2   1   3  355.46   13.60
  -3   2   3  346.57   13.90
   1  -3   3  363.76   14.00
   1  -3   3  343.77   14.40
   1  -3   3  354.06   14.00
   2   1   3  371.16   13.90
  -3   2   3  344.27   14.00
   1  -3   3  352.86   14.30
   2   1   3  358.16   13.90
   1  -3   3  353.26   13.40
   2   1   3  346.97   12.90
  -3   2   3  354.26   13.50
   1  -3   3  362.36   13.40
  -2   0  -3 5410.66  183.58
   2  -2  -3 5296.07  183.48
   2  -2  -3 5187.88  183.28
   0   2  -3 5302.27  183.08
  -2   0  -3 4964.00  183.28
   0   2  -3 5393.96  183.58
   0   2  -3 5062.49  183.08
   0   2  -3 5233.98  183.28
   2  -2  -3 5174.68  184.08
  -2   2   3 4786.62  183.18
  -2   2   3 5069.19  183.28
   0  -2   3 5470.25  183.18
   2   0   3 5139.09  183.38
   2   0   3 5288.47  183.08
  -2   2   3 5458.95  186.38
   1   1  -3  588.04   21.60
   1   1  -3  592.24   21.50
   1  -2  -3  612.84   22.10
   1  -2  -3  592.44   22.10
   1   1  -3  615.14   22.00
  -2   1  -3  555.54   21.70
   1  -2  -3  595.44   21.90
   1  -2  -3  617.44   21.30
  -2   1  -3  594.24   21.70
   1   1  -3  574.04   21.90
   1  -2  -3  568.94   21.60
  -2   1  -3  589.44   20.90
   1  -2  -3  573.64   21.90
   1   1  -3  607.04   22.00
  -2   1  -3  590.04   21.00
  -1  -1   3  597.64   21.60
  -1  -1   3  571.54   21.80
  -1  -1   3  539.15   21.90
  -1   2   3  533.95   21.20
  -1  -1   3  607.54   21.70
   2  -1   3  600.94   21.60
   2  -1   3  595.14   22.00
   2  -1   3  577.64   22.00
   2  -1   3  582.34   21.80
   2  -1   3  570.14   20.90
   2  -1   3  572.64   22.00
  -1   2   3  610.74   21.70
  -1  -1   3  619.14   21.90
  -1   2   3  559.44   21.90
  -1   2   3  569.84   21.90
   2  -1   3  623.34   20.90
  -1   2   3  588.04   22.10
  -2   2  -3 4998.60  185.98
   0  -2  -3 5365.36  186.28
  -2   2  -3 5477.45  186.08
   2   0  -3 5419.36  186.18
   2   0  -3 5523.85  186.58
   2   0  -3 5020.80  185.88
  -2   2  -3 5304.27  186.58
   0  -2  -3 5404.76  186.48
   0  -2  -3 5405.46  186.08
  -2   0   3 5041.90  186.18
   0   2   3 5032.00  186.48
   0   2   3 5338.57  186.18
   2  -2   3 5425.76  186.18
   2  -2   3 5456.95  186.28
   0   2   3 5058.79  185.98
   2  -2   3 5290.37  185.88
   2  -2   3 5585.94  185.88
  -1  -2  -3  363.56   13.60
  -2   3  -3  345.97   14.30
   3  -1  -3  354.16   13.20
  -1  -2  -3  364.86   14.30
  -1  -2  -3  370.46   14.40
  -2   3  -3  373.36   14.60
  -2   3  -3  338.67   13.80
   3  -1  -3  363.16   13.20
   3  -1  -3  362.66   14.40
  -1  -2  -3  322.27   14.00
   3  -1  -3  350.46   13.90
   3  -1  -3  349.27   13.90
  -2   3  -3  371.96   13.70
   3  -1  -3  354.26   13.50
  -1  -2  -3  365.06   13.80
  -2   3  -3  354.06   12.90
   3  -1  -3  370.96   14.00
  -1  -2  -3  369.66   14.10
  -2   3  -3  355.86   14.30
   1   2   3  374.06   14.20
   1   2   3  370.16   14.40
   2  -3   3  365.56   13.80
  -3   1   3  346.27   14.20
   1   2   3  344.57   13.60
   2  -3   3  399.36   14.10
  -3   1   3  351.46   13.60
   2  -3   3  361.16   13.60
   2  -3   3  351.66   14.20
   1   2   3  346.87   14.20
   2  -3   3  343.87   14.50
   2  -3   3  360.96   14.50
   1   2   3  345.97   14.50
   1   2   3  332.77   13.90
   4  -2  -3 5765.92  191.98
   4  -2  -3 5479.75  192.18
  -2  -2  -3 5466.65  191.28
  -2  -2  -3 5340.57  191.48
   4  -2  -3 5604.74  192.68
  -2   4  -3 5273.17  192.58
  -2  -2  -3 4857.31  192.38
  -2   4  -3 5406.36  192.58
   4  -2  -3 5450.55  191.38
  -2  -2  -3 5691.53  192.08
  -2   4  -3 5435.76  191.28
   4  -2  -3 5508.95  192.48
  -2   4  -3 5634.24  192.88
   4  -2  -3 5367.66  191.58
  -2   4  -3 5643.44  192.68
  -2   4  -3 5464.15  191.28
  -2  -2  -3 5333.67  192.28
   2   2   3 5381.66  191.38
   2  -4   3 5671.53  190.98
   2  -4   3 5195.18  192.58
  -4   2   3 5324.77  192.38
   2   2   3 5370.56  192.28
   2  -4   3 5738.03  191.88
  -4   2   3 5434.66  191.98
   2  -4   3 5178.18  192.78
   2  -4   3 5788.82  192.48
  -4   2   3 5171.28  191.88
   2   2   3 5443.16  191.98
   2   2   3 5709.53  192.88
   2   2   3 5651.03  192.38
   2   2   3 5326.37  192.88
   2  -4   3 5613.24  192.28
  -2   5  -3  604.34   23.80
   5  -3  -3  634.84   23.50
  -3  -2  -3  611.94   23.00
   5  -3  -3  608.54   23.30
  -3  -2  -3  654.73   22.10
   5  -3  -3  588.14   23.50
  -2   5  -3  572.54   22.40
  -2   5  -3  547.75   23.70
   5  -3  -3  634.44   22.90
  -2   5  -3  607.74   21.90
  -2   5  -3  629.84   24.20
  -3  -2  -3  550.24   23.70
  -3  -2  -3  574.94   23.20
   5  -3  -3  606.54   23.90
  -2   5  -3  586.64   23.60
   5  -3  -3  612.74   22.60
  -3  -2  -3  554.34   21.80
   5  -3  -3  589.04   22.80
   3   2   3  607.64   23.30
  -5   3   3  563.44   22.80
   3   2   3  620.14   24.20
   2  -5   3  611.94   23.40
   3   2   3  613.04   24.20
   2  -5   3  532.25   24.50
   3   2   3  595.44   22.20
   3   2   3  590.14   23.30
   2  -5   3  640.44   22.20
   3   2   3  614.14   23.30
   2  -5   3  614.84   22.80
   2  -5   3  614.64   23.60
  -5   3   3  592.34   23.00
   4  -3  -3  448.06   17.30
  -1   4  -3  453.25   16.50
  -3  -1  -3  453.25   16.70
   4  -3  -3  434.46   16.40
  -3  -1  -3  408.76   17.00
  -3  -1  -3  404.96   16.10
   4  -3  -3  451.85   17.20
   4  -3  -3  422.36   16.60
  -3  -1  -3  430.76   15.70
   4  -3  -3  433.76   17.70
   4  -3  -3  406.06   16.50
   4  -3  -3  423.36   17.50
  -1   4  -3  421.26   17.20
  -1   4  -3  441.46   17.70
  -1   4  -3  449.26   17.70
   3   1   3  461.75   20.80
   3   1   3  443.26   17.20
   1  -4   3  452.45   16.20
   3   1   3  422.16   15.70
   1  -4   3  388.86   18.50
   3   1   3  452.15   16.40
   1  -4   3  441.66   17.00
   3   1   3  418.06   16.80
   1  -4   3  440.86   17.30
   1  -4   3  442.66   16.50
  -4   3   3  426.06   17.00
  -4   3   3  415.56   16.90
   3   1   3  456.15   17.30
  -4   3   3  416.26   16.40
   1  -4   3  421.16   17.40
   1  -4   3  437.36   16.10
   3   1   3  454.05   17.90
   3  -3  -3  764.42   28.60
   3  -3  -3  739.73   28.30
   3  -3  -3  805.02   29.30
   0   3  -3  717.63   28.80
  -3   0  -3  758.22   29.10
   0   3  -3  816.32   29.20
   0   3  -3  808.42   29.00
  -3   0  -3  779.52   28.00
   3  -3  -3  797.32   27.60
  -3   0  -3  764.02   28.60
   3  -3  -3  808.62   28.10
   0   3  -3  768.42   28.80
   3  -3  -3  790.12   28.90
  -3   0  -3  745.43   28.10
   3   0   3  763.82   28.50
   3   0   3  839.42   28.80
   0  -3   3  782.32   27.80
   3   0   3  801.32   28.90
   3   0   3  777.92   29.10
  -3   3   3  746.43   28.50
   0  -3   3  789.22   28.40
  -3   3   3  728.23   29.10
   0  -3   3  793.92   28.80
  -3   3   3  765.52   28.80
   0  -3   3  753.72   28.10
   0  -3   3  760.72   29.00
   0  -3   3  753.12   28.90
   3   0   3  744.13   28.10
   3   0   3  699.03   29.10
   1   2  -3  354.66   13.50
  -3   1  -3  377.76   14.30
   1   2  -3  366.26   14.30
   2  -3  -3  373.76   13.50
  -3   1  -3  334.27   14.30
   2  -3  -3  363.36   14.30
   1   2  -3  398.66   14.10
   2  -3  -3  368.76   14.10
  -3   1  -3  351.96   12.90
   1   2  -3  368.26   13.90
  -3   1  -3  333.07   13.70
   2  -3  -3  335.97   13.70
   1   2  -3  345.27   14.00
  -3   1  -3  339.77   13.70
   1   2  -3  353.46   13.50
  -1  -2   3  355.66   12.70
  -2   3   3  324.67   14.20
  -1  -2   3  320.47   14.00
   3  -1   3  359.66   13.10
  -1  -2   3  354.96   13.50
  -2   3   3  328.27   14.00
   3  -1   3  340.47   13.60
  -1  -2   3  362.76   12.70
  -2   3   3  360.56   13.80
   3  -1   3  350.56   13.70
  -1  -2   3  372.16   14.00
  -2   3   3  315.57   13.40
   3  -1   3  345.17   14.20
   3  -1   3  338.17   14.20
  -2   3   3  344.17   13.80
   1  -3  -3  362.96   14.20
   2   1  -3  375.16   14.30
   2   1  -3  371.46   14.30
   2   1  -3  376.46   13.80
   2   1  -3  338.67   14.00
   1  -3  -3  377.16   14.30
   2   1  -3  346.77   13.50
  -3   2  -3  379.66   14.10
   1  -3  -3  305.77   13.60
  -3   2  -3  342.47   13.30
   1  -3  -3  353.46   13.90
  -3   2  -3  337.27   14.10
   1  -3  -3  367.26   14.20
  -3   2  -3  336.97   13.80
  -1   3   3  334.67   14.20
   3  -2   3  347.07   14.30
  -2  -1   3  349.07   14.10
   3  -2   3  346.87   12.60
  -1   3   3  343.67   14.10
   3  -2   3  378.16   13.90
  -2  -1   3  333.97   14.20
  -1   3   3  373.56   14.00
  -1   3   3  356.56   14.00
   3  -2   3  344.37   14.30
  -2  -1   3  362.36   13.90
   3  -2   3  343.67   14.00
   3  -2   3  369.66   13.20
  -2  -1   3  371.96   13.60
  -1   3   3  322.07   14.10
   3  -2   3  367.56   14.00
  -2  -1   3  371.06   14.10
  -3   3  -3  737.93   28.80
   0  -3  -3  801.52   28.60
   0  -3  -3  817.52   28.70
   3   0  -3  775.02   28.20
  -3   3  -3  818.02   28.10
   3   0  -3  754.62   27.10
   3   0  -3  770.62   28.10
  -3   3  -3  778.82   28.30
   0  -3  -3  789.22   28.50
   3   0  -3  740.43   28.00
   0  -3  -3  741.33   28.40
  -3   3  -3  767.22   28.40
   3   0  -3  795.32   28.60
   3   0  -3  764.32   28.70
   0  -3  -3  733.73   28.40
  -3   3  -3  808.12   29.00
   3   0  -3  695.73   28.40
   3  -3   3  781.12   28.30
   3  -3   3  775.72   28.60
  -3   0   3  730.53   28.60
   0   3   3  809.12   28.70
   3  -3   3  707.33   28.70
   0   3   3  782.82   28.50
   0   3   3  750.02   28.60
   3  -3   3  754.72   28.10
  -3   0   3  653.43   28.10
  -3   0   3  759.92   28.70
   0   3   3  754.22   28.60
   0   3   3  779.22   27.60
   0   3   3  788.42   28.90
   3  -3   3  824.52   28.20
  -1  -3  -3  424.16   17.50
   4  -1  -3  446.56   17.20
   4  -1  -3  411.06   17.20
  -3   4  -3  455.55   17.70
  -1  -3  -3  439.46   16.80
  -3   4  -3  359.86   18.40
   4  -1  -3  431.56   16.10
   4  -1  -3  439.76   17.50
  -3   4  -3  455.55   16.20
   4  -1  -3  446.56   17.00
   4  -1  -3  476.05   17.80
  -3   4  -3  448.06   15.80
  -1  -3  -3  398.96   17.30
  -1  -3  -3  448.16   17.30
  -1  -3  -3  471.25   17.60
   4  -1  -3  452.15   16.80
  -1  -3  -3  423.66   16.60
  -3   4  -3  405.76   17.30
   3  -4   3  435.76   16.30
  -4   1   3  432.06   17.30
   1   3   3  428.26   17.60
   3  -4   3  421.16   17.30
   1   3   3  431.36   17.10
   1   3   3  451.05   17.80
   1   3   3  435.96   16.70
   1   3   3  456.45   17.30
   3  -4   3  425.16   17.60
   3  -4   3  425.16   16.90
   3  -4   3  454.95   17.20
   3  -4   3  432.96   15.60
  -2  -3  -3  623.14   22.70
  -3   5  -3  584.84   24.30
  -2  -3  -3  649.93   23.80
  -3   5  -3  559.14   24.10
   5  -2  -3  635.74   23.60
   5  -2  -3  608.24   22.70
  -2  -3  -3  596.34   23.80
   5  -2  -3  619.54   23.60
   5  -2  -3  593.34   23.60
   5  -2  -3  702.83   23.50
  -2  -3  -3  639.24   23.00
  -3   5  -3  594.24   22.50
  -3   5  -3  630.04   24.30
   5  -2  -3  588.74   24.10
  -2  -3  -3  606.94   24.30
   5  -2  -3  600.64   23.90
   2   3   3  644.14   23.50
  -5   2   3  577.54   23.80
   3  -5   3  604.34   23.40
   2   3   3  588.24   23.10
   3  -5   3  626.54   23.90
   2   3   3  608.44   24.50
   2   3   3  625.84   24.60
   2   3   3  600.14   23.90
   2   3   3  633.04   23.80
   3  -5   3  624.54   22.20
   3  -5   3  572.54   24.40
  -5   2   3  595.04   23.60
   3  -5   3  622.64   24.10
   6  -3  -3  139.29    8.10
  -3  -3  -3  156.68    6.30
  -3  -3  -3  155.88    8.70
  -3   6  -3  142.49    8.60
   6  -3  -3  151.48    7.90
   6  -3  -3  145.59    8.20
   6  -3  -3  155.58    7.20
  -3   6  -3  143.39    8.40
  -3  -3  -3  155.98    7.00
   6  -3  -3  147.59    8.40
  -3  -3  -3  136.99    7.90
  -3   6  -3  136.39    8.80
  -3  -3  -3  150.58    7.90
   6  -3  -3  158.78    8.90
   6  -3  -3  154.48    7.80
  -3   6  -3  134.69    6.90
  -3  -3  -3  139.29    6.10
   3  -6   3  155.08    8.70
   3   3   3  143.89    7.10
   3   3   3  146.99    8.10
   3  -6   3  140.19    6.50
  -6   3   3  146.39    7.80
   3  -6   3  142.99    8.10
   3   3   3  143.59    8.20
   3   3   3  140.89    8.60
   3  -6   3  140.09    8.50
   3   3   3  137.39    7.90
   3  -6   3  145.79    7.80
   3  -6   3  139.99    8.60
   7  -4  -3  251.57   12.50
  -3   7  -3  257.57   13.10
  -4  -3  -3  268.97   11.20
  -3   7  -3  258.27   13.70
  -4  -3  -3  261.47   13.40
  -3   7  -3  271.87   12.10
  -3   7  -3  260.27   13.60
   7  -4  -3  258.67   11.80
   7  -4  -3  263.57   12.50
  -4  -3  -3  276.47   12.40
   3  -7   3  268.87   11.10
   4   3   3  262.87   11.30
   3  -7   3  273.77   12.60
   4   3   3  257.87   13.50
   3  -7   3  258.47   12.00
   4   3   3  244.48   12.60
   3  -7   3  253.97   13.40
   6  -4  -3 3099.69  105.79
  -2   6  -3 2933.21  105.69
   6  -4  -3 3082.29  105.79
   6  -4  -3 3050.39  106.49
  -2   6  -3 2997.70  106.89
  -4  -2  -3 2765.42  105.79
  -4  -2  -3 2969.80  106.19
  -2   6  -3 2889.31  107.39
  -4  -2  -3 2988.50  105.89
  -4  -2  -3 2926.01  107.39
   6  -4  -3 3029.70  106.89
   6  -4  -3 3017.20  106.39
  -4  -2  -3 2901.51  104.19
  -2   6  -3 3122.39  107.09
   6  -4  -3 2911.11  107.09
   6  -4  -3 2982.20  105.99
   4   2   3 2960.30  106.59
   4   2   3 3085.49  106.39
   2  -6   3 2963.70  106.59
   2  -6   3 3060.09  105.79
   4   2   3 2884.71  106.29
   4   2   3 2862.21  104.89
   2  -6   3 3009.60  106.39
   2  -6   3 3142.19  105.19
   2  -6   3 2909.21  107.39
   2  -6   3 2933.81  105.79
  -6   4   3 2885.21  105.89
   4   2   3 2879.71  107.49
  -6   4   3 2923.31  106.09
  -4  -1  -3  443.56   18.90
  -4  -1  -3  456.55   18.10
   5  -4  -3  453.35   18.40
   5  -4  -3  451.05   17.20
   5  -4  -3  452.95   18.00
  -1   5  -3  451.65   18.90
   5  -4  -3  459.35   17.80
   5  -4  -3  436.86   17.70
  -4  -1  -3  444.06   17.60
  -1   5  -3  452.35   18.80
  -1   5  -3  471.45   19.10
   5  -4  -3  460.05   18.80
  -1   5  -3  394.96   19.10
   5  -4  -3  454.75   17.80
  -1   5  -3  428.56   17.60
   5  -4  -3  456.55   17.80
   5  -4  -3  459.85   19.00
  -4  -1  -3  457.85   16.70
  -1   5  -3  476.35   17.20
   1  -5   3  446.46   17.50
   1  -5   3  449.46   18.50
  -5   4   3  460.85   18.00
   1  -5   3  455.85   17.50
   4   1   3  443.66   18.40
   4   1   3  441.46   18.20
   4   1   3  439.96   17.90
   1  -5   3  479.95   18.10
   4   1   3  427.56   18.90
   4   1   3  465.45   16.90
   4   1   3  449.95   16.50
   1  -5   3  429.26   18.80
   1  -5   3  438.46   18.40
  -5   4   3  423.16   17.60
   4   1   3  440.96   19.10
   1  -5   3  472.55   17.30
   0   4  -3 4806.62  173.58
   0   4  -3 5019.20  174.48
   0   4  -3 4493.65  174.38
  -4   0  -3 4711.43  173.78
   0   4  -3 5014.10  173.38
   4  -4  -3 5086.49  174.18
   4  -4  -3 5206.08  174.68
  -4   0  -3 4736.03  174.58
  -4   0  -3 5084.39  173.18
   4  -4  -3 5006.70  173.78
   0   4  -3 4855.71  173.48
   0   4  -3 5199.08  174.58
   4  -4  -3 4506.65  173.38
  -4   0  -3 4988.90  173.08
   4  -4  -3 4882.71  172.58
   4  -4  -3 5202.68  174.78
   4   0   3 4884.41  173.08
  -4   4   3 4725.33  174.58
   0  -4   3 5155.38  173.18
   0  -4   3 4412.76  175.08
   4   0   3 4839.62  173.78
   4   0   3 4965.00  174.18
   4   0   3 4685.63  173.28
  -4   4   3 4787.22  173.38
   0  -4   3 5077.99  173.48
   0  -4   3 5237.38  174.18
   4   0   3 5301.87  174.88
   0  -4   3 4674.63  174.38
   0  -4   3 5309.47  173.98
   4   0   3 4970.60  174.78
   3  -4  -3  439.56   17.60
   1   3  -3  444.46   16.50
   1   3  -3  465.55   17.00
  -4   1  -3  442.96   16.80
   1   3  -3  427.86   16.70
   3  -4  -3  388.56   16.90
   1   3  -3  457.25   17.60
   1   3  -3  463.15   17.50
   3  -4  -3  437.06   17.70
   3  -4  -3  471.85   17.10
   3  -4  -3  457.15   17.40
  -4   1  -3  375.66   17.00
  -3   4   3  439.26   16.70
  -1  -3   3  404.46   17.30
   4  -1   3  416.46   17.50
   4  -1   3  444.36   16.90
  -3   4   3  408.96   17.20
   4  -1   3  441.86   17.70
  -1  -3   3  423.86   15.90
   4  -1   3  450.95   16.30
  -3   4   3  364.06   18.30
   4  -1   3  421.06   16.50
   4  -1   3  439.86   17.40
  -1  -3   3  448.66   17.20
  -1  -3   3  383.56   18.20
  -1  -3   3  422.96   16.70
  -1  -3   3  437.76   16.40
   2  -4  -3 5774.52  192.58
   2   2  -3 5714.73  192.08
   2   2  -3 5631.64  192.08
   2  -4  -3 5758.12  192.48
   2   2  -3 5347.17  191.08
   2   2  -3 5178.58  192.08
   2  -4  -3 4931.71  191.88
  -4   2  -3 5383.16  190.88
   2  -4  -3 5501.05  191.78
  -4   2  -3 5369.56  191.98
   2  -4  -3 5590.44  191.78
   2   2  -3 5789.22  192.48
   2   2  -3 5219.58  191.58
   2  -4  -3 5805.52  192.18
  -4   2  -3 5225.78  192.08
  -2   4   3 5354.16  191.78
  -2   4   3 5407.96  192.58
   4  -2   3 5735.03  190.78
  -2  -2   3 5322.77  192.18
  -2   4   3 5244.98  191.68
   4  -2   3 5333.57  192.48
  -2  -2   3 5383.16  191.98
   4  -2   3 5023.00  192.48
   4  -2   3 5255.97  192.18
   4  -2   3 5549.44  191.78
  -2  -2   3 5484.25  191.18
  -2   4   3 5192.08  192.08
  -2   4   3 5777.62  191.98
   4  -2   3 5566.84  190.68
   4  -2   3 5453.35  191.68
  -2  -2   3 5688.73  192.08
   1  -4  -3  449.06   17.30
   1  -4  -3  443.06   16.90
  -4   3  -3  380.86   17.70
   1  -4  -3  427.16   17.00
   3   1  -3  449.95   17.40
   3   1  -3  415.06   17.10
  -4   3  -3  420.16   16.50
   1  -4  -3  441.76   17.40
   3   1  -3  449.46   17.40
   3   1  -3  433.96   16.20
  -4   3  -3  429.46   17.40
   1  -4  -3  454.25   17.30
  -1   4   3  448.86   17.30
   4  -3   3  447.46   17.10
   4  -3   3  457.25   17.80
  -1   4   3  449.86   17.20
   4  -3   3  429.36   17.60
  -3  -1   3  389.96   17.00
  -1   4   3  425.76   15.60
   4  -3   3  380.86   17.40
   4  -3   3  430.26   16.80
  -1   4   3  406.46   17.30
   4  -3   3  417.86   16.30
  -3  -1   3  448.46   17.20
  -4   4  -3 4759.12  173.98
  -4   4  -3 4827.42  173.98
   4   0  -3 4822.62  173.58
   0  -4  -3 4814.82  173.58
   4   0  -3 4790.52  172.38
   0  -4  -3 4846.62  172.88
   4   0  -3 4936.01  174.18
   0  -4  -3 4760.02  173.98
   4   0  -3 4993.30  174.38
   0  -4  -3 5163.38  174.18
   4   0  -3 4853.71  173.18
  -4   4  -3 4916.41  174.68
   4   0  -3 5036.90  173.78
   0  -4  -3 5071.59  173.88
   0  -4  -3 4992.00  173.98
   0  -4  -3 5208.98  174.08
   4  -4   3 5166.18  174.38
   0   4   3 4906.91  172.98
   0   4   3 4634.54  174.18
   4  -4   3 5161.48  173.68
   4  -4   3 4999.20  173.38
  -4   0   3 4803.02  173.98
  -4   0   3 4749.72  174.28
  -4   0   3 4806.12  174.38
   0   4   3 5145.39  174.58
   0   4   3 5198.18  174.18
   4  -4   3 5070.39  173.88
   0   4   3 4742.83  174.08
   0   4   3 4794.42  174.18
  -1  -4  -3  412.76   18.50
  -1  -4  -3  452.15   17.40
  -4   5  -3  450.05   18.50
   5  -1  -3  469.85   16.90
   5  -1  -3  450.35   17.40
  -4   5  -3  421.26   18.50
  -4   5  -3  430.46   18.80
  -4   5  -3  454.15   16.50
   5  -1  -3  477.85   18.00
  -1  -4  -3  447.76   18.10
   5  -1  -3  461.35   17.90
  -1  -4  -3  476.35   18.00
   5  -1  -3  465.45   18.40
   5  -1  -3  461.35   17.60
   5  -1  -3  419.56   18.00
  -1  -4  -3  464.55   18.30
  -1  -4  -3  457.95   17.50
  -1  -4  -3  436.56   17.30
   5  -1  -3  444.56   18.60
   1   4   3  476.65   19.10
   1   4   3  433.16   18.00
  -5   1   3  430.66   18.40
   1   4   3  466.65   18.20
  -5   1   3  428.86   18.10
   4  -5   3  454.15   18.70
   1   4   3  422.46   18.50
   4  -5   3  458.85   16.30
  -5   1   3  450.95   18.50
   4  -5   3  452.05   16.80
   4  -5   3  470.05   18.70
   4  -5   3  434.36   18.90
   4  -5   3  440.76   18.10
   1   4   3  472.65   17.70
   4  -5   3  435.56   17.90
  -4   6  -3 2948.70  108.49
   6  -2  -3 2924.41  107.29
   6  -2  -3 2992.10  107.69
  -2  -4  -3 2946.71  107.69
   6  -2  -3 2958.10  107.39
  -2  -4  -3 3138.49  107.09
  -4   6  -3 2970.30  108.69
   6  -2  -3 3080.59  108.29
  -2  -4  -3 2917.21  108.49
  -2  -4  -3 3065.79  106.39
   6  -2  -3 3097.59  107.39
   6  -2  -3 3039.90  107.39
  -4   6  -3 3091.89  108.19
  -2  -4  -3 3014.00  106.39
   6  -2  -3 3032.90  108.29
  -4   6  -3 3016.30  106.29
   6  -2  -3 3083.99  106.49
  -2  -4  -3 3012.00  107.19
   2   4   3 3172.28  107.49
   2   4   3 2971.70  107.59
  -6   2   3 3036.20  107.89
   4  -6   3 2956.40  108.09
   4  -6   3 3028.00  107.89
  -6   2   3 2977.70  107.89
   4  -6   3 2868.31  107.39
   2   4   3 3013.30  108.59
   2   4   3 2910.91  108.09
   4  -6   3 3116.19  105.89
   4  -6   3 3004.30  108.89
   2   4   3 2866.21  107.29
  -4   7  -3  258.57   13.50
  -3  -4  -3  270.97   12.30
   7  -3  -3  228.18   12.30
   7  -3  -3  265.17   11.50
  -3  -4  -3  245.18   13.20
  -4   7  -3  261.37   13.40
  -3  -4  -3  286.07   11.80
  -4   7  -3  256.57   13.50
  -3  -4  -3  260.77   10.10
  -4   7  -3  263.47   11.40
  -3  -4  -3  272.07   12.50
   7  -3  -3  257.37   12.60
   3   4   3  257.27   12.10
   4  -7   3  260.87   13.50
   3   4   3  258.17   12.90
   4  -7   3  270.47   12.90
   4  -7   3  269.77   10.80
   3   4   3  273.07   13.00
   3   4   3  289.97   13.70
  -4  -4  -3 1502.65   53.19
  -4   8  -3 1411.76   55.69
  -4  -4  -3 1337.57   55.39
  -4  -4  -3 1497.45   54.19
  -4   8  -3 1428.46   55.99
  -4   8  -3 1469.45   53.39
   4  -8   3 1489.35   54.49
   4  -8   3 1438.76   52.49
   4   4   3 1468.05   53.39
   4  -8   3 1443.16   55.79
   4   4   3 1487.15   56.09
   4  -8   3 1464.55   54.19
   4   4   3 1438.26   54.89
  -5  -4  -3  103.79    7.70
  -4   9  -3  107.59    9.40
  -4   9  -3   71.09    8.40
  -4   9  -3   87.29    7.90
  -5  -4  -3  105.19    7.70
  -5  -4  -3   89.99    8.70
   4  -9   3   86.59    7.80
   5   4   3   86.59    8.20
   5   4   3   93.79    9.30
   4  -9   3   95.29    9.10
   5   4   3   97.09    6.90
   4  -9   3   93.89    7.50
  -3   8  -3  160.38    9.10
  -3   8  -3  138.19   10.40
  -5  -3  -3  160.48    7.80
  -5  -3  -3  144.29    8.70
  -5  -3  -3  148.49   10.20
  -3   8  -3  157.58   10.00
   5   3   3  141.29   10.20
   5   3   3  140.69    7.70
   5   3   3  136.39    9.00
   3  -8   3  144.69    8.60
   3  -8   3  149.88    8.50
   3  -8   3  148.69   10.50
   3  -8   3  140.89    8.90
  -2   7  -3  194.78    9.90
   7  -5  -3  192.88   10.50
  -5  -2  -3  181.68   11.00
  -5  -2  -3  190.58    9.70
   7  -5  -3  202.08   10.40
  -2   7  -3  165.08   11.60
  -2   7  -3  192.88   11.30
  -2   7  -3  194.28   10.50
   7  -5  -3  185.68    9.50
   5   2   3  193.18    8.50
   2  -7   3  200.78   11.20
   2  -7   3  186.08   10.00
   5   2   3  189.38   10.00
   2  -7   3  205.88    9.70
   2  -7   3  192.38    9.20
   5   2   3  203.68   11.30
  -1   6  -3  301.17   11.80
  -1   6  -3  286.27   12.70
  -1   6  -3  281.07   13.80
  -5  -1  -3  290.37   14.00
  -5  -1  -3  272.47   12.40
  -1   6  -3  280.57   14.10
  -5  -1  -3  289.57   10.90
   6  -5  -3  294.77   11.90
   6  -5  -3  281.27   12.80
  -5  -1  -3  272.27   12.70
  -1   6  -3  288.57   13.00
   6  -5  -3  275.57   12.80
   6  -5  -3  289.47   12.80
   6  -5  -3  297.47   13.70
   6  -5  -3  285.47   12.50
   6  -5  -3  277.27   12.70
   1  -6   3  288.97   12.10
  -6   5   3  284.57   12.60
   1  -6   3  288.97   12.30
   5   1   3  297.07   11.00
   1  -6   3  285.77   12.80
   5   1   3  270.87   13.90
  -6   5   3  272.07   12.50
   5   1   3  278.37   13.20
   1  -6   3  288.17   12.30
   5   1   3  297.47   12.80
   1  -6   3  281.07   13.90
   1  -6   3  279.97   13.10
  -6   5   3  274.97   13.70
   5   1   3  297.77   11.00
   0   5  -3  143.09    8.50
  -5   0  -3  149.79    8.60
   0   5  -3  132.89    8.60
   5  -5  -3  142.39    6.60
   0   5  -3  147.69    7.50
   5  -5  -3  153.18    7.50
   0   5  -3  145.19    7.60
   0   5  -3  143.99    8.70
   5  -5  -3  143.89    9.20
  -5   0  -3  157.18    7.70
   0   5  -3  140.89    7.20
   5  -5  -3  153.08    7.50
   5  -5  -3  139.69    8.30
   5  -5  -3  143.29    7.50
   5  -5  -3  139.59    8.80
  -5   0  -3  146.69    6.60
   5  -5  -3  144.09    6.50
   0  -5   3  152.68    7.30
   5   0   3  150.08    8.00
  -5   5   3  136.49    8.40
   5   0   3  140.89    8.60
   0  -5   3  139.99    8.20
  -5   5   3  151.78    7.00
  -5   5   3  146.89    7.70
   5   0   3  145.59    7.30
   5   0   3  150.48    6.70
   5   0   3  156.78    9.40
   0  -5   3  143.59    6.80
   0  -5   3  159.78    7.30
   5   0   3  141.09    8.40
   0  -5   3  139.19    8.40
   0  -5   3  146.29    8.00
   1   4  -3  454.25   17.50
   4  -5  -3  423.66   17.90
   4  -5  -3  466.95   17.80
   4  -5  -3  431.16   17.80
   4  -5  -3  467.65   18.50
   4  -5  -3  452.75   16.30
   1   4  -3  463.05   18.00
  -5   1  -3  443.66   17.50
   1   4  -3  493.85   19.00
   4  -5  -3  448.26   18.90
   4  -5  -3  454.05   19.20
   1   4  -3  436.56   18.60
   1   4  -3  466.25   18.90
   1   4  -3  475.95   18.00
  -5   1  -3  446.26   18.00
  -5   1  -3  443.66   19.10
   5  -1   3  431.76   17.20
  -1  -4   3  471.65   18.50
   5  -1   3  409.36   18.70
  -1  -4   3  446.26   18.80
  -4   5   3  427.46   18.90
  -1  -4   3  421.66   17.00
   5  -1   3  452.65   17.40
   5  -1   3  465.85   18.10
  -1  -4   3  430.36   18.40
   5  -1   3  473.55   19.20
  -1  -4   3  472.75   17.40
  -4   5   3  434.06   18.30
   5  -1   3  442.06   18.60
  -5   2  -3  581.14   23.20
  -5   2  -3  582.44   23.10
   2   3  -3  634.84   23.90
   3  -5  -3  616.94   22.70
   2   3  -3  628.44   23.70
   3  -5  -3  608.24   23.90
   2   3  -3  607.34   23.10
   2   3  -3  594.44   23.60
   3  -5  -3  610.04   23.50
   3  -5  -3  613.54   24.10
   2   3  -3  603.24   22.10
  -5   2  -3  595.74   24.30
   3  -5  -3  564.84   23.00
   3  -5  -3  596.04   23.20
   2   3  -3  608.94   23.30
  -2  -3   3  593.94   23.60
   5  -2   3  594.44   23.60
   5  -2   3  625.54   23.10
  -3   5   3  581.24   22.40
  -2  -3   3  608.04   22.30
  -2  -3   3  588.04   23.80
   5  -2   3  559.64   22.70
   5  -2   3  577.94   22.00
   5  -2   3  594.04   24.00
  -2  -3   3  618.94   23.30
  -3   5   3  634.14   23.50
   5  -2   3  578.04   23.70
  -3   5   3  556.94   23.40
  -2  -3   3  588.04   21.80
   5  -2   3  619.24   21.80
  -3   5   3  596.14   24.10
   3   2  -3  592.54   23.50
   3   2  -3  615.94   21.60
   3   2  -3  608.04   23.30
  -5   3  -3  579.24   22.90
  -5   3  -3  587.84   22.20
   3   2  -3  583.14   23.10
   2  -5  -3  606.44   23.40
   3   2  -3  622.24   23.30
   2  -5  -3  610.04   23.60
   3   2  -3  560.14   22.70
  -5   3  -3  588.54   23.30
   2  -5  -3  569.54   22.90
   2  -5  -3  539.15   22.80
   2  -5  -3  608.14   22.40
   2  -5  -3  626.24   23.20
  -3  -2   3  619.24   21.70
   5  -3   3  602.84   21.40
   5  -3   3  577.84   23.70
  -2   5   3  566.54   22.50
   5  -3   3  610.14   22.90
  -2   5   3  570.94   23.30
  -3  -2   3  612.14   21.10
   5  -3   3  582.44   22.00
   5  -3   3  606.94   22.80
  -3  -2   3  571.04   23.40
   5  -3   3  586.34   21.40
  -2   5   3  559.04   23.20
  -2   5   3  576.34   23.60
  -3  -2   3  611.54   23.10
   5  -3   3  598.94   23.20
   5  -3   3  601.14   23.60
  -3  -2   3  549.35   23.50
   1  -5  -3  476.25   17.80
   1  -5  -3  478.05   18.50
  -5   4  -3  448.46   18.70
   1  -5  -3  433.26   18.30
   4   1  -3  427.26   17.80
  -5   4  -3  437.26   18.10
   1  -5  -3  447.66   18.20
   4   1  -3  452.25   18.60
   1  -5  -3  466.65   18.60
   4   1  -3  470.45   18.30
   4   1  -3  452.15   18.10
   1  -5  -3  454.05   18.10
  -5   4  -3  450.25   17.90
   4   1  -3  455.75   18.60
   4   1  -3  458.95   16.80
   1  -5  -3  444.16   16.50
   4   1  -3  454.95   16.20
  -1   5   3  451.15   18.70
  -1   5   3  450.35   16.70
  -4  -1   3  452.05   16.20
  -4  -1   3  397.86   19.30
   5  -4   3  439.46   17.70
   5  -4   3  452.15   18.00
  -4  -1   3  416.56   18.40
  -1   5   3  462.25   18.30
   5  -4   3  416.06   18.50
   5  -4   3  448.36   17.50
  -1   5   3  432.76   17.90
   5  -4   3  468.05   16.30
  -1   5   3  432.86   18.50
   5  -4   3  444.96   19.00
  -1   5   3  443.16   18.60
   5  -4   3  444.36   16.10
   5  -4   3  475.75   18.50
   5   0  -3  153.28    6.20
   5   0  -3  152.58    6.70
   5   0  -3  142.19    7.60
   0  -5  -3  137.69    8.00
   0  -5  -3  156.18    7.70
   5   0  -3  146.49    7.90
   5   0  -3  153.88    6.80
   5   0  -3  137.49    7.80
   5   0  -3  137.89    8.40
   0  -5  -3  141.99    7.70
   5   0  -3  145.69    8.50
  -5   5  -3  137.99    8.40
  -5   5  -3  147.69    8.10
   0  -5  -3  146.19    7.20
   0  -5  -3  158.58    8.30
  -5   0   3  137.39    8.10
   0   5   3  156.58    8.30
   5  -5   3  154.58    7.90
   5  -5   3  142.19    7.70
   5  -5   3  145.09    8.40
   5  -5   3  133.19    8.40
   5  -5   3  146.29    8.10
   0   5   3  140.59    8.10
   0   5   3  140.99    7.80
  -5   0   3  136.49    8.10
   0   5   3  148.69    8.10
   0   5   3  156.68    8.80
   0   5   3  149.09    7.00
   5  -5   3  144.49    6.80
   5  -5   3  146.69    5.80
  -1  -5  -3  296.07   12.40
  -1  -5  -3  286.87   12.20
  -5   6  -3  304.77   11.20
   6  -1  -3  287.17   12.20
   6  -1  -3  288.97   13.10
  -1  -5  -3  297.77   12.50
  -5   6  -3  297.77   14.30
   6  -1  -3  290.97   11.70
  -1  -5  -3  292.17   13.80
   6  -1  -3  299.47   12.40
  -1  -5  -3  320.97   13.40
   6  -1  -3  300.17   13.40
  -5   6  -3  294.27   14.00
  -1  -5  -3  289.27   13.20
   1   5   3  279.67   13.70
   1   5   3  309.57   12.90
   5  -6   3  288.57   13.70
   1   5   3  290.37   13.30
   5  -6   3  258.77   13.30
   5  -6   3  282.67   14.20
   1   5   3  285.57   13.60
   5  -6   3  300.97   11.20
  -6   1   3  290.57   13.60
  -6   1   3  299.87   13.70
   7  -2  -3  192.18   10.00
  -5   7  -3  219.58    9.70
   7  -2  -3  199.28    9.50
   7  -2  -3  189.28   10.90
  -2  -5  -3  193.48   11.00
  -2  -5  -3  199.58    9.70
  -2  -5  -3  208.98    8.80
  -5   7  -3  184.08   11.20
   7  -2  -3  195.08    9.90
  -2  -5  -3  219.68    9.10
  -2  -5  -3  200.98   10.30
  -2  -5  -3  198.88   10.40
   7  -2  -3  190.18    9.00
  -5   7  -3  185.58   11.30
   5  -7   3  193.28    8.30
   5  -7   3  197.38   10.80
   5  -7   3  188.08   11.30
   2   5   3  188.28   10.90
  -7   2   3  196.38   10.70
   2   5   3  181.88   10.60
   2   5   3  205.48   10.80
   2   5   3  191.48   10.10
  -7   2   3  197.98   10.90
   8  -3  -3  146.79    8.90
  -5   8  -3  143.99   10.30
   8  -3  -3  141.29    9.70
  -3  -5  -3  142.19    9.80
  -5   8  -3  133.59   10.40
   8  -3  -3  138.89    8.30
   8  -3  -3  144.89    8.70
  -3  -5  -3  158.78    9.60
  -5   8  -3  158.98    8.00
  -3  -5  -3  156.18    9.00
  -3  -5  -3  140.09    8.70
   5  -8   3  148.09   10.40
   3   5   3  151.78    9.70
   5  -8   3  146.59    9.30
   3   5   3  149.29    8.80
   3   5   3  145.49   10.00
   5  -8   3  153.38    7.30
  -4  -5  -3   98.89    7.80
  -5   9  -3   75.09    9.50
  -5   9  -3   89.19    9.30
  -5   9  -3   97.59    7.30
  -4  -5  -3   94.09    9.00
   4   5   3   93.09    8.50
   5  -9   3   87.89    7.10
   4   5   3   91.59    9.00
   5  -9   3  100.59    7.80
   4   5   3   83.49    7.50
   5  -9   3   90.99    9.20
   5  -9   3  103.29    8.20
  -5  10  -3   94.89   11.90
  -5  10  -3  120.59    9.40
  -5  -5  -3  119.19    9.10
  -5  10  -3  113.69   11.20
  -5  -5  -3   95.59   10.70
   5 -10   3  121.39    9.50
   5   5   3  105.39   10.80
   5 -10   3  105.29    9.00
   5 -10   3  109.79   11.20
   5   5   3  108.39    8.90
   5   5   3  112.49   10.10
  -4  10  -3 1166.78   47.80
  -6  -4  -3 1179.58   47.30
  -6  -4  -3 1109.49   44.00
  -4  10  -3 1158.78   44.60
  -4  10  -3 1197.68   47.00
   4 -10   3 1147.09   44.40
   6   4   3 1160.58   43.10
   4 -10   3 1168.18   44.80
   6   4   3 1101.79   47.20
   4 -10   3 1119.89   46.90
   6   4   3 1106.99   45.50
  -6  -3  -3  108.89    8.00
  -3   9  -3  106.89    9.70
  -3   9  -3  106.19    8.70
   9  -6  -3  112.19    8.60
  -6  -3  -3  102.19    9.70
  -3   9  -3  100.79   10.10
   6   3   3  101.59    6.80
   6   3   3  111.89    8.80
   6   3   3  117.69   10.10
   3  -9   3  104.59    9.80
   3  -9   3  108.49    8.50
   3  -9   3  100.69    8.10
  -2   8  -3 1791.22   65.89
   8  -6  -3 1729.13   65.89
   8  -6  -3 1725.53   65.09
  -6  -2  -3 1801.32   65.69
  -2   8  -3 1740.83   67.89
  -2   8  -3 1848.62   66.89
  -6  -2  -3 1814.72   67.99
   6   2   3 1764.72   67.99
   2  -8   3 1768.52   67.69
   2  -8   3 1778.52   65.59
   2  -8   3 1797.52   66.09
   6   2   3 1679.33   65.99
   6   2   3 1969.30   66.19
   7  -6  -3  234.38   12.50
   7  -6  -3  228.08   11.10
  -6  -1  -3  226.08   11.20
  -1   7  -3  223.38   11.80
   7  -6  -3  233.38   10.60
  -6  -1  -3  245.68   13.00
  -1   7  -3  238.58   11.70
   7  -6  -3  225.08   11.60
  -1   7  -3  219.18   12.80
  -1   7  -3  241.88   10.30
   7  -6  -3  225.68   11.50
   6   1   3  218.88   12.80
   1  -7   3  227.48   11.70
   6   1   3  231.38   11.40
   6   1   3  234.48    9.30
  -7   6   3  238.58   11.20
   1  -7   3  229.78   12.70
   1  -7   3  240.98   11.00
   1  -7   3  230.48   11.40
  -7   6   3  240.78   12.80
   1  -7   3  217.28   11.60
   0   6  -3 2473.95   87.69
   0   6  -3 2397.96   87.79
   6  -6  -3 2511.65   86.29
   6  -6  -3 2399.66   87.69
   0   6  -3 2377.86   89.09
   6  -6  -3 2577.84   87.49
  -6   0  -3 2366.86   89.29
   6  -6  -3 2403.26   87.79
  -6   0  -3 2436.36   86.19
   0   6  -3 2547.15   87.09
  -6   0  -3 2381.36   87.69
   6  -6  -3 2401.46   86.59
   6   0   3 2322.37   89.29
  -6   6   3 2388.16   89.09
   0  -6   3 2317.77   88.99
  -6   6   3 2387.56   87.69
  -6   6   3 2508.25   86.79
   6   0   3 2484.35   86.19
   0  -6   3 2383.36   88.19
   0  -6   3 2445.36   86.99
   6   0   3 2452.55   87.39
   0  -6   3 2521.65   87.29
  -6   1  -3  282.47   12.20
   1   5  -3  290.87   12.30
   5  -6  -3  294.97   11.10
   1   5  -3  264.87   12.90
   1   5  -3  313.47   13.00
   5  -6  -3  309.77   12.70
   5  -6  -3  293.37   13.80
   5  -6  -3  296.87   11.40
  -6   1  -3  286.87   14.30
   5  -6  -3  276.97   12.90
   5  -6  -3  284.17   12.90
   1   5  -3  286.37   13.80
  -6   1  -3  289.17   12.90
  -1  -5   3  307.27   12.20
  -5   6   3  264.17   14.00
   6  -1   3  307.27   14.20
   6  -1   3  302.47   12.10
  -5   6   3  291.97   13.30
  -1  -5   3  275.77   13.90
  -5   6   3  306.17   11.90
   6  -1   3  285.87   12.30
  -1  -5   3  287.87   11.90
   6  -1   3  297.17   14.20
  -1  -5   3  293.17   13.50
   2   4  -3 3186.58  108.49
   4  -6  -3 2807.52  106.29
   2   4  -3 3005.00  106.49
   4  -6  -3 3109.79  106.79
   2   4  -3 2924.11  105.09
  -6   2  -3 2954.00  106.39
   2   4  -3 3131.19  107.39
  -6   2  -3 2692.83  107.09
   2   4  -3 3094.79  106.49
   2   4  -3 2876.11  106.99
   4  -6  -3 2976.70  106.39
  -6   2  -3 2985.10  107.89
   4  -6  -3 3098.39  105.49
   6  -2   3 2997.40  106.29
   6  -2   3 2785.72  105.19
  -4   6   3 2903.91  107.59
   6  -2   3 2908.71  104.49
  -4   6   3 2945.61  105.09
  -4   6   3 2928.11  106.79
  -2  -4   3 2876.61  104.99
   6  -2   3 3144.89  105.89
  -2  -4   3 2924.71  107.29
   6  -2   3 3094.89  104.69
  -2  -4   3 3033.60  106.69
  -2  -4   3 3014.70  105.09
   6  -2   3 2947.91  107.29
  -2  -4   3 2964.80  107.09
   3   3  -3  144.39    8.80
   3  -6  -3  142.89    8.90
   3  -6  -3  141.09    8.50
  -6   3  -3  144.29    7.80
   3   3  -3  148.49    8.20
   3   3  -3  134.59    7.70
   3   3  -3  149.69    8.30
   3   3  -3  144.89    6.10
  -6   3  -3  162.68    8.30
   3  -6  -3  150.68    8.00
   3  -6  -3  143.49    7.80
   3  -6  -3  145.49    6.90
   6  -3   3  154.08    6.80
  -3  -3   3  139.89    8.50
  -3   6   3  133.99    8.10
  -3  -3   3  145.69    8.30
   6  -3   3  146.09    8.00
  -3  -3   3  140.59    8.30
  -3   6   3  153.88    8.70
   6  -3   3  149.69    7.80
  -3  -3   3  143.69    6.00
   6  -3   3  148.09    6.50
   6  -3   3  136.99    8.10
  -3  -3   3  147.99    6.20
  -3   6   3  147.29    8.80
   6  -3   3  171.38   10.90
  -3   6   3  145.99    6.80
  -6   4  -3 2987.10  107.89
  -6   4  -3 2990.70  108.59
   4   2  -3 2924.41  108.29
   2  -6  -3 3308.87  110.89
   4   2  -3 2948.00  108.69
   2  -6  -3 3154.38  107.49
   4   2  -3 3060.09  106.29
   2  -6  -3 3360.46  109.59
  -6   4  -3 3010.40  109.09
   2  -6  -3 2875.31  108.39
   4   2  -3 2871.11  108.39
   2  -6  -3 3046.20  108.89
   2  -6  -3 2799.32  108.49
  -4  -2   3 2830.52  108.89
  -2   6   3 3226.38  109.39
   6  -4   3 3246.08  107.69
   6  -4   3 3041.70  106.79
  -2   6   3 2938.91  109.29
  -4  -2   3 2985.80  106.29
   6  -4   3 2845.62  108.99
  -4  -2   3 3140.19  108.59
   6  -4   3 2971.40  106.39
   6  -4   3 3141.89  108.59
  -2   6   3 3118.89  108.49
  -2   6   3 2932.41  108.89
  -4  -2   3 3062.49  109.19
   1  -6  -3  283.07   11.20
   5   1  -3  299.37   13.60
   5   1  -3  285.77   10.90
   5   1  -3  294.67   11.00
   1  -6  -3  290.77   13.00
   1  -6  -3  300.17   15.70
   5   1  -3  268.17   12.60
   1  -6  -3  295.57   13.50
  -6   5  -3  280.97   13.70
  -6   5  -3  275.47   13.00
   1  -6  -3  291.37   13.20
   5   1  -3  279.77   12.90
   5   1  -3  296.97   11.10
  -5  -1   3  279.87   13.60
   6  -5   3  302.67   12.80
  -1   6   3  282.27   12.70
   6  -5   3  278.87   13.50
  -1   6   3  300.87   14.50
  -1   6   3  268.97   13.40
   6  -5   3  295.77   11.00
  -5  -1   3  287.77   10.90
  -5  -1   3  280.07   13.60
   6  -5   3  283.87   12.30
  -1   6   3  262.67   13.50
   0  -6  -3 2356.76   87.19
   0  -6  -3 2371.76   85.79
   0  -6  -3 2362.56   87.99
  -6   6  -3 2430.06   88.59
   0  -6  -3 2442.56   86.79
   6   0  -3 2392.76   85.59
   6   0  -3 2467.15   85.39
   6   0  -3 2380.06   86.99
   0  -6  -3 2408.26   86.59
   6   0  -3 2403.96   87.39
   6   0  -3 2379.66   87.09
   6   0  -3 2487.05   85.59
  -6   6  -3 2316.87   87.59
  -6   0   3 2429.86   88.09
  -6   0   3 2400.86   87.89
   6  -6   3 2469.55   85.39
   6  -6   3 2504.95   84.89
   0   6   3 2554.84   86.39
   0   6   3 2435.46   87.39
   6  -6   3 2388.06   85.79
   0   6   3 2424.46   87.99
   6  -6   3 2366.16   87.09
   0   6   3 2302.87   87.79
   6  -6   3 2406.26   87.79
  -1  -6  -3  245.38   10.80
   7  -1  -3  229.48   11.40
  -6   7  -3  236.38   12.70
   7  -1  -3  224.68   10.30
  -6   7  -3  205.78   12.70
   7  -1  -3  240.48   10.30
  -1  -6  -3  237.68   11.00
  -1  -6  -3  230.18   11.80
   7  -1  -3  230.48   11.30
  -6   7  -3  238.38    9.30
   7  -1  -3  236.38   10.50
  -1  -6  -3  243.78   12.70
   6  -7   3  230.78   10.00
   1   6   3  240.78   12.40
   6  -7   3  227.68   12.40
  -7   1   3  236.68   12.50
   1   6   3  239.68   12.20
  -7   1   3  229.08   12.40
   1   6   3  256.47   12.00
   6  -7   3  244.88   13.30
   1   6   3  220.78   12.20
  -2  -6  -3 1831.62   65.59
  -2  -6  -3 1728.43   67.49
  -2  -6  -3 1793.92   64.19
  -6   8  -3 1750.52   67.59
   8  -2  -3 1762.42   65.89
   8  -2  -3 1757.62   64.69
   8  -2  -3 1760.42   65.69
   8  -2  -3 1807.72   64.99
   8  -2  -3 1787.42   65.09
  -2  -6  -3 1850.31   64.19
  -6   8  -3 1773.42   68.19
  -2  -6  -3 1803.52   66.29
  -6   8  -3 1812.02   63.89
   6  -8   3 1731.33   67.79
  -8   2   3 1860.61   67.29
  -8   2   3 1801.72   67.19
   6  -8   3 1761.22   63.69
   2   6   3 1804.12   66.39
   6  -8   3 1793.02   66.69
   2   6   3 1845.22   67.29
   2   6   3 1748.13   67.29
  -3  -6  -3  111.99    8.40
  -6   9  -3  109.59   10.60
   9  -3  -3  107.79    8.10
  -6   9  -3   88.59   10.20
   9  -3  -3  112.99    7.70
  -3  -6  -3  106.79    9.40
  -6   9  -3  104.89   10.30
   3   6   3  113.29    9.70
   3   6   3  107.59    9.30
   6  -9   3  109.19    9.00
   3   6   3  115.49    8.60
   6  -9   3  100.19   10.00
   6  -9   3  102.29    7.10
  -6  10  -3 1166.48   47.20
  -4  -6  -3 1151.68   44.10
  10  -4  -3 1118.09   43.60
  10  -4  -3 1053.89   43.20
  -4  -6  -3 1129.59   46.40
  -6  10  -3 1144.59   47.00
  -6  10  -3 1207.88   42.70
  10  -4  -3 1129.19   44.00
   4   6   3 1147.09   44.00
   6 -10   3 1151.78   46.60
   6 -10   3 1120.89   44.00
   6 -10   3 1083.19   44.30
   4   6   3 1115.19   45.40
   4   6   3 1143.09   46.30
  -3  10  -3  115.39   12.20
  10  -7  -3  129.49    9.30
  -7  -3  -3  127.39   12.00
  -3  10  -3  129.69   11.10
  -7  -3  -3  106.29    9.10
  10  -7  -3  128.79   10.50
  -3  10  -3  121.89   11.50
   7   3   3  124.89   10.80
   3 -10   3  113.49   11.80
   3 -10   3  128.19    9.80
   7   3   3  122.99    8.40
   9  -7  -3  135.39    8.90
  -2   9  -3  122.09   10.10
   9  -7  -3  115.49    9.40
  -7  -2  -3  145.89   11.40
   9  -7  -3  129.69    9.40
  -2   9  -3  127.69   11.20
  -7  -2  -3  130.29    8.70
  -2   9  -3  135.79   10.10
   7   2   3  136.09    9.60
   2  -9   3  123.79   11.00
   7   2   3  119.69   11.00
   2  -9   3  134.19    9.50
   2  -9   3  144.89    9.10
  -1   8  -3  133.99    9.40
  -7  -1  -3  123.29   10.00
   8  -7  -3  118.39    8.30
   8  -7  -3  124.69    8.90
  -1   8  -3  134.99    9.30
  -1   8  -3  146.09    7.40
  -7  -1  -3  133.59    8.40
   8  -7  -3  136.59   10.50
   8  -7  -3  123.59    8.60
  -1   8  -3  125.99   10.30
   8  -7  -3  129.09    8.20
  -1   8  -3  131.49    7.80
   1  -8   3  147.29   10.50
   1  -8   3  117.29    8.20
  -8   7   3  148.89    8.50
   1  -8   3  141.39    9.20
   7   1   3  131.89    8.80
   7   1   3  128.39   10.30
  -7   0  -3  115.39    9.00
   7  -7  -3   98.29    7.50
   0   7  -3  117.69    7.50
   0   7  -3   99.99    8.50
   7  -7  -3  112.79    6.70
   0   7  -3  126.49    7.60
   7  -7  -3  110.19    6.40
  -7   0  -3   97.39    7.10
   0   7  -3  103.39    7.90
   7  -7  -3  102.99    7.20
   7  -7  -3  117.89    8.00
  -7   7   3  102.59    8.60
   0  -7   3  103.69    6.70
   0  -7   3  103.99    8.80
   0  -7   3  101.39    8.00
   0  -7   3  112.99    7.90
   7   0   3  109.79    7.30
  -7   7   3  101.49    7.40
   7   0   3  102.59    8.80
   6  -7  -3  231.98   11.50
  -7   1  -3  221.18   10.40
   1   6  -3  229.18   11.20
  -7   1  -3  235.58   11.50
   1   6  -3  237.28   11.70
   1   6  -3  239.58   11.90
   6  -7  -3  224.88   10.80
  -7   1  -3  241.18   13.10
   6  -7  -3  225.78   11.60
   1   6  -3  209.78   12.40
   6  -7  -3  234.48    9.80
   7  -1   3  221.68   12.70
  -6   7   3  219.78   12.80
  -1  -6   3  238.38   10.60
  -1  -6   3  246.88   10.70
  -1  -6   3  239.18   12.10
  -1  -6   3  221.28   12.60
  -6   7   3  261.97   12.00
   7  -1   3  238.68   10.90
   7  -1   3  235.08   10.20
   2   5  -3  188.48   10.40
   2   5  -3  207.58    9.50
  -7   2  -3  186.88   10.10
  -7   2  -3  197.88   11.70
   5  -7  -3  202.18   10.30
   5  -7  -3  207.78   10.40
   5  -7  -3  204.08    9.00
  -7   2  -3  195.28    9.90
   2   5  -3  206.68   10.80
   2   5  -3  190.88   10.90
  -5   7   3  183.08   11.30
   7  -2   3  198.88    9.50
   7  -2   3  187.78   11.10
   7  -2   3  199.08    8.00
  -5   7   3  201.68    8.30
  -2  -5   3  203.38   10.80
  -2  -5   3  197.18   11.30
   7  -2   3  191.88    9.10
  -2  -5   3  209.78    8.90
  -2  -5   3  204.18    8.90
   7  -2   3  200.88    8.30
  -5   7   3  214.98   10.80
   4  -7  -3  256.07   12.40
   3   4  -3  269.87   13.00
   3   4  -3  254.77   12.50
   3   4  -3  271.27   10.40
   4  -7  -3  266.77   11.00
  -7   3  -3  278.37   12.60
  -7   3  -3  269.37   12.60
   4  -7  -3  288.77   12.90
  -3  -4   3  266.27   13.20
  -3  -4   3  270.17   10.30
   7  -3   3  263.87   11.00
  -4   7   3  251.47   12.70
   7  -3   3  285.57   11.10
  -4   7   3  259.67   10.60
  -3  -4   3  261.97   13.40
  -3  -4   3  226.28   11.60
  -4   7   3  257.67   13.60
  -4   7   3  263.87   13.80
   7  -3   3  269.07   11.20
   7  -3   3  263.57   13.10
   7  -3   3  269.77   12.30
   3  -7  -3  258.07   12.50
  -7   4  -3  256.17   12.50
   3  -7  -3  264.37   12.70
   4   3  -3  279.17   12.80
   4   3  -3  245.78   12.40
  -7   4  -3  268.57   13.10
   3  -7  -3  268.67   10.90
  -3   7   3  262.67   13.00
  -4  -3   3  269.67   10.20
  -4  -3   3  257.47   13.10
   7  -4   3  260.67   10.60
  -3   7   3  268.47   11.00
   7  -4   3  263.47   13.30
   7  -4   3  265.77   12.90
  -3   7   3  269.67   13.80
   7  -4   3  270.87   11.60
   7  -4   3  287.17   11.10
  -4  -3   3  251.47   13.30
  -7   5  -3  196.78   10.60
   2  -7  -3  201.38    7.80
   5   2  -3  192.68   10.20
   2  -7  -3  182.08   10.50
   5   2  -3  204.88    7.90
   5   2  -3  185.28   10.10
   2  -7  -3  202.88   10.30
  -7   5  -3  202.08   10.20
  -7   5  -3  176.58   10.90
  -2   7   3  196.88    8.10
  -2   7   3  187.78   11.10
  -5  -2   3  202.48    7.90
  -5  -2   3  203.58   11.10
   7  -5   3  209.48    9.90
  -5  -2   3  202.08   11.00
  -2   7   3  188.28    9.50
  -2   7   3  194.38   10.80
   7  -5   3  196.48   10.10
   7  -5   3  199.48    8.00
   7  -5   3  224.48   10.30
   7  -5   3  200.58    8.60
   7  -5   3  183.28   10.80
   6   1  -3  223.48   11.30
  -7   6  -3  221.18   11.70
   1  -7  -3  213.78   11.80
   6   1  -3  230.18    9.20
   1  -7  -3  236.48    9.60
  -7   6  -3  217.88   12.50
   1  -7  -3  235.18   11.50
   1  -7  -3  232.58   12.10
   6   1  -3  222.28   11.20
   7  -6   3  217.48   10.60
  -6  -1   3  237.28   12.40
  -6  -1   3  237.58    9.10
   7  -6   3  228.18   10.20
   7  -6   3  221.28   12.50
  -1   7   3  229.38   10.30
  -1   7   3  231.28   12.40
   7  -6   3  209.68   11.90
   7  -6   3  231.38   12.20
   7  -6   3  214.58    9.20
  -1   7   3  221.08   12.10
  -1   7   3  176.18   11.90
  -6  -1   3  228.38   12.20
   7   0  -3  111.39    5.40
   0  -7  -3  103.99    8.10
   7   0  -3  109.19    6.00
   0  -7  -3  105.99    6.70
   0  -7  -3  105.89    8.20
  -7   7  -3  105.59    9.10
   7   0  -3  112.49    7.40
   0  -7  -3  104.69    7.60
  -7   7  -3  120.39    8.60
   7   0  -3   96.79    7.20
  -7   0   3  110.79    8.60
   7  -7   3  110.79    6.00
   0   7   3  107.59    7.80
   7  -7   3  100.69    8.40
   0   7   3  116.49    7.90
   0   7   3  105.59    8.70
   0   7   3  105.59    8.40
  -7   0   3   99.19    8.40
   7  -7   3  105.49    8.40
   7  -7   3  110.59    5.70
   8  -1  -3  152.18    8.00
   8  -1  -3  113.09    8.10
   8  -1  -3  115.89    8.40
   8  -1  -3  125.19    7.40
  -1  -7  -3  127.09    8.50
  -1  -7  -3  128.99    7.60
  -1  -7  -3  128.39    7.80
  -1  -7  -3  127.29    9.80
  -7   8  -3  139.99   10.30
  -7   8  -3  134.29   10.50
  -1  -7  -3  128.29    8.90
   8  -1  -3  125.69    7.20
   7  -8   3  126.19   10.10
  -8   1   3  120.89    9.60
   1   7   3  123.29    9.70
   1   7   3  125.69   11.10
   7  -8   3  130.49    9.80
   1   7   3  148.79    9.80
   1   7   3  135.39    9.60
  -8   1   3  138.99   10.10
   7  -8   3  130.19    6.50
  -2  -7  -3  136.29    8.80
  -2  -7  -3  122.89    9.30
  -2  -7  -3  124.79   10.70
  -2  -7  -3  132.99    7.20
   9  -2  -3  136.19    8.70
   9  -2  -3  128.89    9.10
   9  -2  -3  115.29    8.00
  -7   9  -3  115.09   11.40
  -7   9  -3  127.29    6.70
  -7   9  -3  110.59   11.00
   7  -9   3  138.39   10.30
   2   7   3  130.99   10.50
   2   7   3  137.89   10.50
  -9   2   3  122.49   10.80
   2   7   3  128.59   10.00
   7  -9   3  148.29   11.80
  10  -3  -3  113.19    9.00
  -7  10  -3  117.49   12.60
  -7  10  -3  124.29    7.90
  -3  -7  -3  121.79   11.30
  10  -3  -3  121.49    9.00
  -7  10  -3  112.49   12.50
  -3  -7  -3  116.19    9.70
  10  -3  -3  125.69    9.80
   3   7   3  123.19   10.70
   7 -10   3  116.69   12.20
   3   7   3  115.39   11.50
   7 -10   3  119.09    9.50
  -8  -1  -3  125.69    9.10
  -1   9  -3  108.99   10.00
   9  -8  -3  116.09    9.00
   9  -8  -3  132.79    9.90
  -8  -1  -3  113.99   11.00
  -1   9  -3  123.19   10.60
   9  -8  -3  105.69    9.20
  -1   9  -3  118.99   11.30
   8   1   3  120.09    9.40
   1  -9   3  125.49    9.00
   1  -9   3  128.49   11.30
  -9   8   3  129.49    9.00
   1  -9   3  115.59    9.70
   8   1   3  122.89   11.70
   0   8  -3 1463.45   53.99
  -8   0  -3 1439.96   53.89
   8  -8  -3 1368.66   53.99
   0   8  -3 1467.65   53.19
   0   8  -3 1408.76   54.79
  -8   0  -3 1408.16   56.49
   0   8  -3 1542.75   54.39
   0   8  -3 1438.36   56.29
   8  -8  -3 1392.46   54.29
  -8   8   3 1408.26   56.19
   0  -8   3 1454.35   56.29
   8   0   3 1331.17   56.19
   0  -8   3 1429.16   54.59
  -8   8   3 1447.36   53.79
   8   0   3 1440.96   53.89
   0  -8   3 1492.75   53.39
   7  -8  -3  126.99    8.70
  -8   1  -3  132.69    8.50
   1   7  -3  125.49    8.10
   1   7  -3  120.19    9.40
   1   7  -3  124.69    9.80
   1   7  -3  130.89    9.80
   7  -8  -3  135.99    8.00
   7  -8  -3  136.99    6.60
   7  -8  -3  116.09    8.40
  -8   1  -3  120.89   10.30
   1   7  -3  121.49    8.70
  -1  -7   3  129.69   10.20
   8  -1   3  148.99   10.60
   8  -1   3  122.59    8.10
   8  -1   3  123.29    7.20
  -1  -7   3  127.49    7.80
  -1  -7   3  125.69    7.90
  -1  -7   3  125.19    9.20
  -7   8   3  130.59   10.30
  -7   8   3  131.29    8.70
  -8   2  -3 1859.91   65.29
   2   6  -3 1771.42   66.49
  -8   2  -3 1785.62   68.29
   6  -8  -3 1793.42   66.29
   2   6  -3 1755.02   67.19
  -8   2  -3 1797.52   65.99
   2   6  -3 1812.62   64.29
   6  -8  -3 1727.23   66.09
   8  -2   3 1821.92   64.79
  -2  -6   3 1822.02   64.09
   8  -2   3 1758.22   67.69
  -2  -6   3 1803.02   64.49
  -6   8   3 1790.52   68.09
  -2  -6   3 1796.42   66.69
  -2  -6   3 1702.63   67.39
   8  -2   3 1785.02   64.89
  -6   8   3 1756.62   66.19
   5  -8  -3  154.58    9.40
  -8   3  -3  153.58    9.00
   3   5  -3  128.49    9.20
   3   5  -3  161.18    9.90
   5  -8  -3  143.89    9.10
  -8   3  -3  149.88    9.00
  -3  -5   3  145.69   10.20
  -3  -5   3  151.58    9.60
   8  -3   3  136.69    8.40
  -3  -5   3  152.08    7.20
  -5   8   3  145.59   10.60
   8  -3   3  154.48    7.50
   8  -3   3  141.49    7.60
   8  -3   3  153.48    9.20
  -5   8   3  156.88    9.70
   8  -3   3  149.39    9.90
   4   4  -3 1482.85   55.29
   4  -8  -3 1521.45   55.29
  -8   4  -3 1455.95   55.19
   4   4  -3 1474.55   55.49
   4  -8  -3 1390.06   55.19
  -8   4  -3 1505.65   55.49
   8  -4   3 1516.05   53.49
   8  -4   3 1454.65   56.09
  -4  -4   3 1406.76   56.09
  -4   8   3 1461.55   55.59
   8  -4   3 1464.65   55.69
  -4  -4   3 1506.05   55.99
   8  -4   3 1463.85   53.29
  -4   8   3 1487.35   56.89
   5   3  -3  157.78    9.30
   5   3  -3  152.08    9.20
   3  -8  -3  146.69    9.10
   5   3  -3  163.38    6.70
  -8   5  -3  138.39    9.40
  -8   5  -3  148.19    9.90
   3  -8  -3  146.59    9.30
   8  -5   3  131.59    9.00
   8  -5   3  150.78    9.10
   8  -5   3  128.59    9.60
  -3   8   3  144.39   10.40
  -5  -3   3  146.49    6.30
   8  -5   3  145.09    7.80
  -3   8   3  149.09    9.80
  -3   8   3  150.68    7.10
  -5  -3   3  160.58   10.20
   8  -5   3  141.79    6.80
  -5  -3   3  139.49   10.00
   2  -8  -3 1789.92   66.69
   2  -8  -3 1789.02   62.99
  -8   6  -3 1780.22   67.29
  -8   6  -3 1755.62   65.59
   6   2  -3 1825.82   62.99
   2  -8  -3 1787.02   65.99
   6   2  -3 1766.22   65.69
   6   2  -3 1750.42   65.89
  -6  -2   3 1832.22   67.29
   8  -6   3 1794.72   65.29
  -2   8   3 1752.02   64.49
  -6  -2   3 1803.02   62.99
   8  -6   3 1716.93   65.19
  -2   8   3 1734.93   66.59
  -2   8   3 1776.82   67.39
   8  -6   3 1809.52   63.39
   8  -6   3 1708.13   66.59
  -6  -2   3 1720.63   66.89
   8  -6   3 1775.52   64.79
  -2   8   3 1849.11   64.09
  -8   7  -3  127.09    9.40
   1  -8  -3  119.59    6.70
   7   1  -3  137.59    8.60
   7   1  -3  123.09    8.60
   1  -8  -3  131.49    9.60
  -8   7  -3  114.59   10.10
   7   1  -3  128.09    6.50
   1  -8  -3  133.09    8.90
  -1   8   3  134.79    9.90
  -1   8   3  125.19    8.50
   8  -7   3  114.09    7.60
   8  -7   3  115.89    9.40
   8  -7   3  138.89    7.00
  -1   8   3  126.69    9.90
  -7  -1   3  137.29   10.30
  -7  -1   3  132.59    9.80
   8  -7   3  117.19    9.70
   8  -7   3  123.79    7.90
  -1   8   3  127.19    8.90
   0  -8  -3 1396.26   54.79
   0  -8  -3 1469.25   51.69
   8   0  -3 1333.07   53.09
  -8   8  -3 1447.56   55.99
   8   0  -3 1423.26   53.19
   0  -8  -3 1429.76   53.59
  -8   8  -3 1402.16   54.59
   0  -8  -3 1407.76   52.39
   8  -8   3 1360.36   55.29
   0   8   3 1369.46   54.79
   8  -8   3 1424.26   54.39
   0   8   3 1440.36   54.89
   0   8   3 1399.06   54.69
  -8   0   3 1432.36   54.99
  -8   0   3 1396.16   54.79
   0   8   3 1410.96   53.59
  -8   9  -3  128.19   12.10
  -8   9  -3  121.99   11.60
  -1  -8  -3  130.29   10.90
  -1  -8  -3  117.39    8.50
  -1  -8  -3  120.99    9.60
   9  -1  -3  134.89    9.20
  -1  -8  -3  136.39    8.10
   9  -1  -3  123.79    9.00
   8  -9   3  112.79   10.60
  -9   1   3  131.19   11.40
  -9   1   3  150.28   11.50
   1   8   3  109.99   10.30
   1   8   3  127.39   11.20
   8  -9   3  116.99   11.50
   1   8   3  105.69   10.50
   8  -9  -3  123.39    9.30
   8  -9  -3  124.79    8.40
   1   8  -3  123.29    9.60
   1   8  -3  144.09   10.90
  -9   1  -3  123.29    9.30
  -9   1  -3  137.19   11.80
   8  -9  -3  123.89   10.00
   1   8  -3  124.79   11.30
   9  -1   3  120.79    9.00
  -1  -8   3  105.69   10.80
  -8   9   3  103.99   11.10
  -8   9   3  146.49   10.00
  -1  -8   3  117.89    8.60
  -1  -8   3  118.19   10.00
   9  -1   3  110.89   10.90
  -9   2  -3  134.09   11.70
  -9   2  -3  122.49    9.10
   7  -9  -3  133.59    9.30
   2   7  -3  124.79    9.70
   2   7  -3  114.59   10.40
   7  -9  -3  124.59    9.60
   2   7  -3  116.59   10.00
   9  -2   3  122.19   10.60
  -2  -7   3  144.49    8.20
  -2  -7   3  130.79   10.10
  -7   9   3  138.29   11.50
   9  -2   3  132.19    8.60
  -2  -7   3  138.59   11.20
  -7   9   3  116.99    9.40
   3   6  -3  116.79    9.40
  -9   3  -3  106.39    8.30
  -9   3  -3  106.89    8.40
   6  -9  -3  101.79    8.30
   3   6  -3  107.89    8.90
   6  -9  -3  100.59    8.70
   9  -3   3  105.99    7.10
   9  -3   3  110.69    9.70
  -6   9   3  112.39   10.40
   9  -3   3  107.99    6.40
   9  -3   3  110.99    6.70
  -3  -6   3  104.49    9.00
  -6   9   3  107.19    9.00
  -3  -6   3  107.19    9.80
  -3  -6   3  105.89    6.80
   5  -9  -3  101.59    8.20
  -9   4  -3   91.59    8.40
   4   5  -3   82.79    8.40
   4   5  -3   93.99    8.30
   5  -9  -3  102.09    8.60
  -9   4  -3   96.69    8.10
   9  -4   3   92.49    5.90
  -5   9   3   94.89    8.80
   9  -4   3   93.39    8.90
   9  -4   3   94.59    8.20
   9  -4   3  102.09    6.40
  -4  -5   3   72.49    8.90
   9  -4   3   81.49    9.20
  -4  -5   3   80.69    8.50
  -4  -5   3   90.59    5.40
   9  -4   3  103.19    7.40
  -5   9   3   98.99    9.80
   4  -9  -3   91.79    8.50
   5   4  -3   98.79    8.40
  -9   5  -3   93.69    8.50
   4  -9  -3  101.59    8.10
   5   4  -3   86.49    8.20
  -9   5  -3   94.79    8.90
   9  -5   3   94.39    8.80
  -5  -4   3   86.49    9.00
   9  -5   3   96.19    6.00
   9  -5   3   97.59    8.50
  -4   9   3  100.09    9.70
   9  -5   3   90.09    7.80
  -4   9   3   91.29    8.60
  -5  -4   3   97.39    5.20
   9  -5   3   99.59    9.10
  -5  -4   3   75.69    9.00
   6   3  -3  118.79    8.80
  -9   6  -3  102.59    9.90
   3  -9  -3   94.19    8.90
   3  -9  -3  117.69    8.80
   6   3  -3  108.69    8.60
   6   3  -3  113.09    5.60
  -6  -3   3  116.99    9.50
   9  -6   3  103.59    5.70
  -3   9   3  103.09   10.10
  -6  -3   3  101.49    9.70
  -6  -3   3   88.09    6.10
   9  -6   3  101.69    7.40
   9  -6   3   94.49    8.50
  -3   9   3  117.89    9.90
   9  -6   3   98.59    9.60
  -9   7  -3  125.89    9.80
  -9   7  -3  122.39   11.50
   7   2  -3  116.89    9.30
   7   2  -3  123.99    9.40
   2  -9  -3  139.29    9.70
   2  -9  -3  152.98   10.80
  -2   9   3  125.29    8.30
   9  -7   3  116.29   10.40
  -7  -2   3  131.69   10.50
  -7  -2   3  132.69   11.30
   9  -7   3  144.69   11.00
   9  -7   3  153.18    9.40
  -2   9   3  127.39   11.00
  -2   9   3  131.59   10.70
  -9   8  -3  126.49   11.90
   1  -9  -3  126.39    9.80
   1  -9  -3  125.29   10.60
   1  -9  -3  108.49    8.80
  -9   8  -3  123.59   10.60
   8   1  -3  134.09    9.40
   8   1  -3  118.89    9.60
  -8  -1   3  118.19   10.60
  -1   9   3  132.29   10.00
   9  -8   3  130.29   11.10
  -8  -1   3  112.79   11.10
  -1   9   3  113.29   11.10
   9  -8   3  121.89    8.30
   9  -8   3  122.49   10.80
  -1   9   3  135.79   11.10
 -10   3  -3  122.69   10.00
   3   7  -3  110.79   11.40
   3   7  -3  117.09   10.80
   7 -10  -3  107.99    9.90
   7 -10  -3  129.79   10.60
  10  -3   3  136.29    9.10
  -3  -7   3  129.39   12.00
  -7  10   3  121.19   12.20
  -7  10   3  119.39   10.50
   4   6  -3 1118.59   45.60
 -10   4  -3 1186.98   45.30
   6 -10  -3 1119.99   45.50
   4   6  -3 1178.08   46.30
   4   6  -3 1133.89   45.90
   6 -10  -3 1110.69   45.20
  10  -4   3 1141.79   46.60
  -4  -6   3 1186.38   46.20
  10  -4   3 1182.78   47.10
  10  -4   3 1111.79   41.60
  -6  10   3 1186.38   47.80
  10  -4   3 1145.99   42.90
  -6  10   3 1141.89   45.30
  -4  -6   3 1144.39   46.90
  -4  -6   3 1123.49   41.90
   5   5  -3  117.89   10.00
   5 -10  -3  114.89    9.90
   5   5  -3   96.59    9.70
   5 -10  -3  100.29   10.10
 -10   5  -3  123.09   10.90
  -5  -5   3  123.69   11.80
  10  -5   3  103.89    7.40
  -5  10   3  121.69   12.00
  10  -5   3  143.99   12.00
  10  -5   3  116.29   10.60
  -5  10   3   98.29   10.00
  -5  -5   3  115.09   11.30
  -5  -5   3  105.69    6.10
   4 -10  -3 1139.29   45.70
   4 -10  -3 1166.48   45.10
   6   4  -3 1108.19   45.10
   6   4  -3 1138.09   45.10
 -10   6  -3 1167.18   46.20
  -4  10   3 1129.39   45.60
  -4  10   3 1162.78   47.30
  -6  -4   3 1211.98   47.00
  -6  -4   3 1152.38   46.10
  10  -6   3 1106.39   45.00
  10  -6   3 1124.39   41.70
  10  -6   3 1069.39   45.90
   7   3  -3  125.99   10.40
 -10   7  -3  121.69   12.10
   7   3  -3  113.59   10.30
   3 -10  -3  115.79   11.00
   3 -10  -3  135.19   10.40
  10  -7   3  134.89    7.10
  -3  10   3  118.89   11.50
  -7  -3   3  115.19   12.20
  -3  10   3  135.19   12.60
   0   1  -4  439.26   16.20
   0   1  -4  441.46   17.10
   0   1  -4  453.25   16.30
   0   1  -4  437.66   17.10
  -1   0  -4  419.76   16.90
   1  -1  -4  451.65   16.50
  -1   0  -4  460.95   17.50
  -1   0  -4  450.45   16.50
   1  -1  -4  461.25   17.00
  -1   0  -4  424.06   16.70
   1  -1  -4  465.65   17.60
   1  -1  -4  465.95   16.60
   0   1  -4  416.16   16.80
  -1   0  -4  467.75   17.00
   1  -1  -4  432.36   17.00
  -1   0  -4  446.46   16.70
  -1   0  -4  449.95   16.30
   0   1  -4  474.95   17.40
  -1   1   4  425.86   16.80
   0  -1   4  391.26   17.20
   1   0   4  435.96   16.40
   1   0   4  449.26   16.80
  -1   1   4  376.36   18.10
  -1   1   4  470.95   17.20
   1   0   4  436.56   16.90
   0  -1   4  451.85   17.00
   1   0   4  452.65   17.10
   0  -1   4  472.75   16.80
   0  -1   4  454.25   16.20
   0  -1   4  457.25   16.60
  -1   1   4  425.56   16.50
   0  -1   4  426.56   17.20
  -1   1   4  437.86   16.50
   1   0   4  443.46   16.70
  -1   1  -4  436.66   17.40
  -1   1  -4  436.96   16.60
  -1   1  -4  427.16   16.50
   0  -1  -4  444.96   16.70
   0  -1  -4  448.26   16.30
   0  -1  -4  473.15   17.60
   0  -1  -4  421.36   17.10
   1   0  -4  452.05   16.70
   1   0  -4  435.46   17.10
   1   0  -4  445.56   16.20
   1   0  -4  474.35   17.50
   1   0  -4  457.55   17.20
   0  -1  -4  460.55   16.90
  -1   1  -4  451.75   17.20
  -1   1  -4  461.05   16.20
   0  -1  -4  428.46   16.70
   1   0  -4  428.36   16.90
   0  -1  -4  453.15   16.60
   1  -1   4  431.76   17.30
  -1   0   4  449.86   17.10
   0   1   4  464.45   17.20
  -1   0   4  442.46   16.20
   0   1   4  424.36   16.60
   0   1   4  455.35   16.80
  -1   0   4  439.66   16.60
  -1   0   4  445.26   16.00
   0   1   4  424.56   16.80
   0   1   4  436.06   16.30
   1  -1   4  461.05   17.10
   1  -1   4  477.95   16.50
   1  -1   4  439.46   16.10
   1  -1   4  403.66   17.60
  -1   0   4  420.46   16.90
  -1  -1  -4  466.05   19.40
  -1   2  -4  497.85   20.70
  -1   2  -4  512.45   19.90
  -1  -1  -4  517.25   19.80
   2  -1  -4  524.45   19.80
  -1  -1  -4  540.45   19.20
   2  -1  -4  516.25   19.90
  -1  -1  -4  545.95   20.40
  -1   2  -4  557.64   18.80
   2  -1  -4  530.95   19.00
  -1   2  -4  554.04   20.30
   2  -1  -4  499.85   19.80
   2  -1  -4  548.45   20.30
  -1  -1  -4  552.54   19.60
  -1   2  -4  505.55   19.70
  -1   2  -4  528.95   19.30
  -1  -1  -4  486.45   19.70
  -2   1   4  542.75   20.20
   1   1   4  525.95   19.60
  -2   1   4  473.15   19.60
   1   1   4  535.35   19.80
   1  -2   4  515.85   19.90
   1  -2   4  553.34   19.60
   1  -2   4  519.45   20.30
  -2   1   4  525.65   19.50
   1   1   4  531.45   19.80
   1   1   4  514.85   20.30
   1  -2   4  499.35   19.80
   1   1   4  497.55   19.50
   1  -2   4  464.65   19.50
   1   1   4  444.46   20.10
  -2   1   4  552.64   19.00
  -2   1   4  562.94   20.10
   1  -2   4  579.74   20.00
  -1   3  -4  184.28    8.70
  -2  -1  -4  173.68    8.10
  -2  -1  -4  181.78    8.60
  -2  -1  -4  178.08    7.70
  -2  -1  -4  179.38    8.10
   3  -2  -4  168.08    7.30
   3  -2  -4  179.08    8.50
  -1   3  -4  183.78    7.10
   3  -2  -4  186.58    8.30
   3  -2  -4  165.98    8.00
  -2  -1  -4  175.68    6.80
  -1   3  -4  177.28    8.20
  -1   3  -4  166.08    8.10
  -1   3  -4  197.78    8.40
  -1   3  -4  170.58    8.70
  -2  -1  -4  172.68    7.70
   3  -2  -4  161.08    6.90
   3  -2  -4  189.78    8.50
   1  -3   4  184.88    7.40
   1  -3   4  168.18    8.20
   2   1   4  171.48    8.60
   1  -3   4  187.08    8.10
   2   1   4  179.78    7.80
   2   1   4  184.08    8.30
   1  -3   4  176.08    8.60
   2   1   4  185.68    8.40
  -3   2   4  167.28    7.90
  -3   2   4  159.18    8.10
   2   1   4  182.78    7.90
   2   1   4  178.28    7.90
   1  -3   4  185.48    8.10
   1  -3   4  182.98    7.70
  -3   2   4  177.98    7.50
  -2   0  -4 4084.39  145.09
   0   2  -4 3926.01  144.19
   2  -2  -4 3990.20  145.29
   0   2  -4 4072.69  145.19
   2  -2  -4 4327.87  145.39
   2  -2  -4 4248.17  145.59
  -2   0  -4 4338.47  145.79
   0   2  -4 4103.29  144.89
   0   2  -4 4257.17  145.29
  -2   0  -4 4174.78  146.29
   2  -2  -4 3924.81  144.59
  -2   0  -4 3906.01  145.19
  -2   0  -4 3995.50  144.49
   0   2  -4 4011.40  145.19
   2  -2  -4 4305.87  145.59
   0   2  -4 4331.67  145.69
   2  -2  -4 4310.87  144.29
   2   0   4 4024.40  144.59
  -2   2   4 4278.97  144.69
  -2   2   4 3899.31  145.39
   0  -2   4 4263.97  145.09
   2   0   4 4231.28  145.19
   0  -2   4 4012.90  144.99
   0  -2   4 4279.47  145.09
   2   0   4 3943.81  145.69
   2   0   4 4114.29  145.29
  -2   2   4 4048.50  144.29
   0  -2   4 3873.51  145.49
   2   0   4 4273.57  145.09
   2   0   4 3959.70  145.19
   0  -2   4 4108.59  145.09
   1   1  -4  547.35   19.60
  -2   1  -4  529.55   19.20
   1  -2  -4  554.84   20.40
  -2   1  -4  518.65   20.00
   1   1  -4  529.05   18.90
  -2   1  -4  551.74   20.60
   1   1  -4  525.05   20.10
   1   1  -4  552.24   20.50
   1   1  -4  548.65   19.70
   1  -2  -4  532.25   20.10
   1   1  -4  492.15   20.20
   1  -2  -4  524.35   19.30
  -2   1  -4  529.05   20.20
   1  -2  -4  554.04   20.70
  -2   1  -4  511.75   19.20
   1  -2  -4  516.95   20.30
   1  -2  -4  550.64   20.30
   1  -2  -4  554.64   19.30
   1   1  -4  559.34   20.50
  -1  -1   4  516.65   19.60
  -1   2   4  498.95   20.20
   2  -1   4  535.65   20.30
  -1   2   4  548.05   20.00
  -1   2   4  504.95   19.20
   2  -1   4  552.74   19.20
  -1  -1   4  551.84   20.20
   2  -1   4  560.64   20.20
   2  -1   4  554.34   21.40
  -1  -1   4  545.25   20.20
  -1   2   4  457.35   19.20
   2  -1   4  546.85   20.00
   2  -1   4  516.85   19.20
   2  -1   4  515.65   20.40
  -1  -1   4  504.65   20.30
  -1  -1   4  535.95   19.00
  -2   2  -4 3942.51  144.59
  -2   2  -4 3999.20  144.99
   2   0  -4 4011.80  144.99
  -2   2  -4 4093.49  144.39
   2   0  -4 4386.26  145.39
   0  -2  -4 4369.66  145.49
   2   0  -4 3836.72  144.89
   2   0  -4 3990.50  143.89
  -2   2  -4 4176.58  144.99
   0  -2  -4 4056.79  144.79
  -2   2  -4 4414.76  145.49
   0  -2  -4 3872.31  144.39
   0  -2  -4 4070.49  144.89
   0  -2  -4 4314.27  144.89
   2   0  -4 4269.07  144.89
   2   0  -4 4177.58  144.59
   0  -2  -4 4052.99  144.79
   2  -2   4 4461.35  144.99
  -2   0   4 3967.10  144.89
  -2   0   4 4431.96  144.99
   0   2   4 4330.67  144.99
   0   2   4 3957.20  144.09
  -2   0   4 3868.51  143.99
   0   2   4 3988.50  144.89
   0   2   4 4046.10  145.39
   0   2   4 4063.49  144.49
   2  -2   4 4018.80  144.99
   2  -2   4 3989.10  145.19
  -2   0   4 3855.21  145.09
   0   2   4 4002.50  144.59
   0   2   4 4021.90  144.79
   2  -2   4 4328.77  144.29
   2  -2   4 4224.18  144.49
  -2   3  -4  161.38    8.20
   3  -1  -4  187.98    7.90
  -2   3  -4  186.18    6.60
  -2   3  -4  175.58    7.70
   3  -1  -4  176.18    8.40
  -2   3  -4  180.88    6.70
  -1  -2  -4  173.08    7.50
  -2   3  -4  171.68    8.30
  -1  -2  -4  171.98    8.10
  -1  -2  -4  195.78    8.20
  -2   3  -4  180.58    8.70
   3  -1  -4  184.58    8.00
  -1  -2  -4  179.78    8.50
   3  -1  -4  178.08    7.00
  -2   3  -4  172.58    8.00
   3  -1  -4  181.18    7.10
   3  -1  -4  170.88    7.90
  -1  -2  -4  187.88    8.10
   1   2   4  176.48    7.50
   2  -3   4  172.48    8.60
   2  -3   4  186.18    7.80
   2  -3   4  178.98    8.10
   1   2   4  162.98    8.00
   2  -3   4  177.38    7.60
   1   2   4  164.48    8.50
   1   2   4  179.88    8.20
   1   2   4  176.18    7.50
   1   2   4  194.18    8.40
   2  -3   4  168.38    8.30
   1   2   4  196.08    8.00
  -3   1   4  177.18    7.20
  -3   1   4  176.08    7.90
   2  -3   4  183.28    7.90
   4  -2  -4 3527.65  124.89
  -2  -2  -4 3697.83  124.19
  -2   4  -4 3437.86  122.99
   4  -2  -4 3736.73  124.79
  -2  -2  -4 3767.12  125.09
   4  -2  -4 3477.15  123.29
  -2  -2  -4 3856.71  123.19
  -2   4  -4 3665.93  124.99
   4  -2  -4 3264.27  123.19
  -2   4  -4 3249.48  124.59
  -2  -2  -4 3076.79  124.49
  -2  -2  -4 3328.57  124.29
   4  -2  -4 3530.15  124.29
  -2   4  -4 3579.74  123.69
   4  -2  -4 3452.55  124.19
   4  -2  -4 3562.44  123.79
  -2  -2  -4 3463.15  123.69
   4  -2  -4 3673.63  123.29
   2  -4   4 3582.44  123.69
  -4   2   4 3312.07  123.99
   2   2   4 3757.42  124.89
  -4   2   4 3437.76  123.89
   2   2   4 3437.86  123.19
   2   2   4 3658.83  124.49
   2   2   4 3559.14  123.69
   2  -4   4 3560.84  124.39
   2  -4   4 3667.73  124.29
   2   2   4 3388.56  125.09
   2   2   4 3153.88  125.29
   2  -4   4 3466.05  123.39
   2   2   4 3504.55  123.99
   2  -4   4 3256.07  124.99
  -3  -2  -4  273.57   11.50
   5  -3  -4  290.57   12.90
  -3  -2  -4  300.67   11.20
   5  -3  -4  295.57   13.20
  -3  -2  -4  288.17   12.70
   5  -3  -4  294.57   11.90
  -2   5  -4  311.87   13.50
  -2   5  -4  297.87   11.70
  -2   5  -4  299.57   13.10
   5  -3  -4  286.67   12.90
  -3  -2  -4  297.77   12.40
   5  -3  -4  268.47   13.40
  -2   5  -4  300.67   13.60
   5  -3  -4  294.37   12.10
   5  -3  -4  264.27   11.60
  -2   5  -4  281.97   13.20
   5  -3  -4  295.77   11.90
  -3  -2  -4  287.17   13.20
   3   2   4  281.27   13.50
   3   2   4  288.67   11.30
   2  -5   4  294.67   12.90
   2  -5   4  293.87   12.00
   2  -5   4  312.87   13.60
  -5   3   4  280.97   12.70
   3   2   4  285.77   12.60
   2  -5   4  296.87   12.80
   3   2   4  297.07   11.70
   3   2   4  281.47   12.60
  -5   3   4  286.97   12.40
   2  -5   4  290.27   13.20
   2  -5   4  281.47   11.20
   3   2   4  293.87   12.90
  -5   3   4  274.57   12.10
   3   2   4  293.77   13.60
  -1   4  -4  462.55   19.00
   4  -3  -4  467.35   17.60
   4  -3  -4  470.75   18.80
  -3  -1  -4  441.36   18.50
  -1   4  -4  496.05   19.00
  -3  -1  -4  438.36   18.80
   4  -3  -4  499.35   18.90
   4  -3  -4  463.35   17.50
  -1   4  -4  468.75   18.70
  -1   4  -4  454.85   19.20
   4  -3  -4  459.05   17.80
   4  -3  -4  472.35   19.20
   4  -3  -4  456.05   17.60
  -3  -1  -4  438.56   17.70
  -1   4  -4  491.15   18.20
  -3  -1  -4  466.55   19.20
  -3  -1  -4  488.95   18.00
  -4   3   4  451.75   17.60
   3   1   4  476.25   18.50
   3   1   4  511.05   19.40
   1  -4   4  495.35   18.50
   3   1   4  474.85   17.90
   3   1   4  461.55   19.30
   1  -4   4  479.65   18.60
   3   1   4  467.95   18.20
  -4   3   4  423.16   18.40
  -4   3   4  437.66   18.40
   1  -4   4  464.75   19.00
   1  -4   4  449.16   17.60
   1  -4   4  430.36   18.90
   3   1   4  496.65   18.80
   1  -4   4  480.05   17.70
   3  -3  -4  466.15   16.10
   3  -3  -4  455.05   17.60
   0   3  -4  461.05   18.00
  -3   0  -4  446.26   16.50
   3  -3  -4  452.45   17.60
  -3   0  -4  429.16   17.60
   3  -3  -4  450.65   16.30
  -3   0  -4  386.46   17.10
   0   3  -4  399.86   17.40
   3  -3  -4  418.56   16.70
   0   3  -4  449.76   17.40
   0   3  -4  425.86   17.10
   0   3  -4  453.05   17.20
   3  -3  -4  436.96   17.80
   0   3  -4  434.56   16.50
   3   0   4  421.26   17.90
   3   0   4  439.26   17.20
  -3   3   4  438.06   17.30
   0  -3   4  429.06   17.00
   3   0   4  449.46   17.80
   3   0   4  446.66   16.90
   0  -3   4  423.36   17.60
  -3   3   4  431.66   16.00
   0  -3   4  417.56   17.00
   0  -3   4  442.96   17.30
   0  -3   4  458.85   16.20
  -3   3   4  434.46   17.40
   0  -3   4  437.76   17.40
   2  -3  -4  184.28    8.60
   1   2  -4  170.68    8.30
   2  -3  -4  182.28    8.40
  -3   1  -4  174.78    8.00
   2  -3  -4  179.98    7.30
   1   2  -4  188.68    8.00
   2  -3  -4  184.48    7.90
   2  -3  -4  168.98    8.20
   1   2  -4  172.18    7.60
  -3   1  -4  172.08    7.90
   1   2  -4  190.48    8.30
  -3   1  -4  183.98    8.50
   1   2  -4  198.38    8.70
  -3   1  -4  171.38    8.50
   2  -3  -4  183.98    8.50
  -3   1  -4  178.78    7.10
   3  -1   4  182.68    8.00
  -2   3   4  186.28    7.50
   3  -1   4  184.08    8.50
  -1  -2   4  176.58    8.10
   3  -1   4  175.88    7.20
   3  -1   4  169.08    8.40
  -1  -2   4  167.28    8.40
  -2   3   4  188.48    8.00
  -1  -2   4  203.38    9.00
  -1  -2   4  184.28    7.90
  -2   3   4  173.28    8.30
  -2   3   4  163.58    8.30
  -2   3   4  169.88    8.20
   3  -1   4  175.98    8.60
  -1  -2   4  189.98    8.20
   3  -1   4  180.48    8.00
  -1  -2   4  184.28    6.70
   2   1  -4  176.78    7.60
   2   1  -4  182.98    8.30
  -3   2  -4  154.28    8.00
   2   1  -4  168.98    8.10
   1  -3  -4  172.78    7.90
   1  -3  -4  189.68    8.30
  -3   2  -4  162.68    7.80
   1  -3  -4  184.38    8.40
   1  -3  -4  193.08    8.50
   1  -3  -4  163.68    8.00
   1  -3  -4  160.78    7.50
  -3   2  -4  175.58    8.10
   2   1  -4  184.08    7.80
   2   1  -4  190.88    8.40
   2   1  -4  179.88    7.60
  -3   2  -4  175.28    7.30
  -2  -1   4  189.88    7.90
   3  -2   4  187.68    7.10
  -1   3   4  171.48    8.10
  -2  -1   4  180.68    8.20
   3  -2   4  188.08    8.10
  -2  -1   4  169.08    7.60
  -2  -1   4  174.28    8.30
  -1   3   4  180.68    8.00
   3  -2   4  178.38    8.50
  -1   3   4  160.48    8.10
   3  -2   4  184.68    7.80
   3  -2   4  181.18    8.30
   3  -2   4  183.28    8.40
  -2  -1   4  182.78    8.20
  -1   3   4  170.98    8.40
   0  -3  -4  452.45   17.00
  -3   3  -4  453.65   16.90
   3   0  -4  407.66   17.10
  -3   3  -4  447.86   17.70
   0  -3  -4  392.26   17.10
   0  -3  -4  426.06   16.90
  -3   3  -4  403.56   16.80
   0  -3  -4  445.56   17.20
   3   0  -4  441.66   17.20
   3   0  -4  455.45   17.60
  -3   3  -4  407.16   17.40
   0  -3  -4  424.46   16.90
   3   0  -4  438.46   16.70
   0  -3  -4  442.66   17.40
   0   3   4  418.36   17.50
  -3   0   4  402.66   16.50
   3  -3   4  477.05   16.70
   0   3   4  463.15   17.30
  -3   0   4  405.26   17.10
   0   3   4  448.96   16.00
   3  -3   4  447.26   17.20
   0   3   4  410.96   17.20
   0   3   4  428.46   16.90
   3  -3   4  417.16   17.50
  -3   0   4  416.36   17.50
   0   3   4  444.86   17.10
   3  -3   4  416.46   16.80
   3  -3   4  452.15   16.80
  -1  -3  -4  455.85   18.40
   4  -1  -4  474.05   17.50
  -1  -3  -4  496.55   18.90
   4  -1  -4  478.45   18.80
  -3   4  -4  454.35   18.80
  -3   4  -4  456.95   17.60
  -1  -3  -4  468.45   17.90
  -1  -3  -4  504.85   18.50
   4  -1  -4  468.45   18.20
   4  -1  -4  445.96   18.20
  -3   4  -4  452.45   18.40
  -1  -3  -4  471.55   17.80
  -3   4  -4  476.75   19.00
   4  -1  -4  437.56   17.90
   4  -1  -4  464.25   16.90
  -3   4  -4  406.96   18.80
  -1  -3  -4  456.95   18.50
   4  -1  -4  459.25   18.50
   4  -1  -4  463.45   16.90
   1   3   4  429.06   18.40
  -4   1   4  470.25   17.70
   1   3   4  410.46   19.00
   1   3   4  453.25   17.90
   3  -4   4  467.75   17.70
   1   3   4  476.45   18.50
   3  -4   4  484.15   18.60
   3  -4   4  425.96   18.80
   3  -4   4  450.85   19.00
   1   3   4  494.05   18.90
  -4   1   4  457.35   18.70
   3  -4   4  454.85   17.90
  -4   1   4  446.16   18.30
   1   3   4  476.15   17.70
   3  -4   4  485.85   18.10
   5  -2  -4  278.37   11.50
  -3   5  -4  285.97   13.40
  -2  -3  -4  316.57   12.70
   5  -2  -4  285.77   12.60
  -2  -3  -4  285.47   12.80
   5  -2  -4  294.67   12.80
   5  -2  -4  311.07   12.10
  -2  -3  -4  294.27   12.80
   5  -2  -4  290.57   13.30
  -3   5  -4  283.97   11.30
  -3   5  -4  306.77   11.50
  -3   5  -4  282.77   13.20
   5  -2  -4  309.17   13.10
   5  -2  -4  291.47   11.60
  -2  -3  -4  301.47   11.90
  -3   5  -4  289.97   13.60
   5  -2  -4  298.07   13.50
  -2  -3  -4  293.57   13.20
  -5   2   4  286.87   12.30
   2   3   4  301.57   12.50
  -5   2   4  290.27   12.90
   3  -5   4  310.47   13.20
   2   3   4  310.87   13.70
  -5   2   4  278.07   12.90
   2   3   4  307.07   13.70
   2   3   4  298.37   13.10
   3  -5   4  274.47   13.40
   2   3   4  274.17   12.10
   3  -5   4  278.27   13.40
   3  -5   4  287.37   12.30
   3  -5   4  290.97   11.30
   3  -5   4  303.97   13.00
   2   3   4  307.57   13.20
   6  -3  -4  215.48   12.50
  -3   6  -4  178.78   10.30
   6  -3  -4  197.08    9.50
  -3   6  -4  167.18   10.90
  -3  -3  -4  200.78    8.50
   6  -3  -4  196.68    8.70
  -3  -3  -4  194.18    8.20
   6  -3  -4  193.88    9.50
  -3   6  -4  204.18   10.50
   6  -3  -4  222.18    9.40
  -3   6  -4  198.08    8.60
  -3  -3  -4  188.38    9.70
   6  -3  -4  214.08   10.40
  -3  -3  -4  186.58   10.30
   6  -3  -4  167.98   10.30
   3   3   4  187.08    9.80
   3  -6   4  199.18    8.00
  -6   3   4  178.58    9.40
   3   3   4  184.98   10.50
   3   3   4  204.18   11.50
   3   3   4  181.28    8.60
   3   3   4  197.68   10.00
   3  -6   4  186.48   10.60
   3  -6   4  189.58    9.40
  -6   3   4  196.08    9.90
   3  -6   4  194.68   10.30
   7  -4  -4  153.58    8.80
   7  -4  -4  151.38    8.90
  -4  -3  -4  166.68    9.90
  -3   7  -4  139.39    8.00
   7  -4  -4  154.08    8.50
  -4  -3  -4  159.78    9.00
  -3   7  -4  156.28    9.70
  -3   7  -4  157.68    9.90
  -4  -3  -4  166.28    7.50
   3  -7   4  158.88   10.00
   4   3   4  163.18    7.70
   3  -7   4  178.08    9.70
   4   3   4  143.79    9.00
   3  -7   4  160.48    7.40
   4   3   4  149.49   10.00
   6  -4  -4 2567.94   92.39
  -2   6  -4 2604.54   93.99
  -4  -2  -4 2536.35   91.29
  -4  -2  -4 2544.55   93.99
  -2   6  -4 2565.64   93.69
  -2   6  -4 2620.14   91.59
   6  -4  -4 2628.34   92.29
   6  -4  -4 2593.74   93.29
   6  -4  -4 2601.14   92.29
  -2   6  -4 2526.45   94.09
   6  -4  -4 2549.04   93.79
  -4  -2  -4 2551.94   93.09
  -4  -2  -4 2732.33   91.19
  -2   6  -4 2553.14   92.19
   6  -4  -4 2527.15   92.29
  -4  -2  -4 2556.84   92.59
   2  -6   4 2548.15   93.59
   4   2   4 2592.64   93.09
  -6   4   4 2616.94   92.89
   2  -6   4 2469.15   94.09
   4   2   4 2431.36   94.29
   4   2   4 2521.15   93.29
   4   2   4 2622.24   91.29
  -6   4   4 2708.63   93.19
   2  -6   4 2765.12   91.69
   2  -6   4 2619.94   93.19
   2  -6   4 2674.33   92.39
   5  -4  -4  218.58   10.60
   5  -4  -4  216.88   10.40
   5  -4  -4  202.78    9.80
  -4  -1  -4  191.88    9.50
  -1   5  -4  195.98   10.20
   5  -4  -4  183.48    8.80
   5  -4  -4  197.48   10.70
  -4  -1  -4  205.38   10.20
  -4  -1  -4  200.78    9.00
  -1   5  -4  215.98    9.10
  -1   5  -4  202.08   10.30
  -4  -1  -4  181.18    8.20
   5  -4  -4  186.38    8.70
  -1   5  -4  193.78    8.80
  -1   5  -4  193.38    9.60
  -1   5  -4  191.48   10.50
   5  -4  -4  206.78    8.90
   5  -4  -4  210.38    8.50
   1  -5   4  192.78    9.30
   1  -5   4  188.78    8.30
   4   1   4  194.28    9.20
   1  -5   4  202.58   10.00
  -5   4   4  190.48    9.50
  -5   4   4  197.28    9.50
   4   1   4  194.08   10.70
   1  -5   4  187.98    9.80
   4   1   4  187.98    9.80
   1  -5   4  193.88   10.20
   4   1   4  209.38   10.00
   1  -5   4  202.38    8.70
   4   1   4  185.38   10.30
   4   1   4  199.88    8.60
  -4   0  -4 2969.70  109.89
   0   4  -4 2913.11  110.29
   0   4  -4 3247.18  110.79
   0   4  -4 3024.20  109.29
   4  -4  -4 3250.87  110.89
   0   4  -4 3031.80  109.69
   0   4  -4 3239.48  109.69
  -4   0  -4 2955.10  110.49
   4  -4  -4 3293.67  110.79
   0   4  -4 3220.88  110.49
   4  -4  -4 3021.20  109.09
   4  -4  -4 3198.18  110.29
   4  -4  -4 3126.79  108.39
   4  -4  -4 3160.78  110.09
   4  -4  -4 2932.91  109.39
  -4   0  -4 2974.90  109.09
  -4   0  -4 3135.59  108.99
   4   0   4 3158.08  109.29
   0  -4   4 3266.47  109.59
   0  -4   4 2953.50  110.39
  -4   4   4 2991.10  109.99
   0  -4   4 2915.01  110.29
  -4   4   4 3039.20  110.69
   4   0   4 3197.78  109.99
   4   0   4 2928.01  110.79
  -4   4   4 2972.90  109.59
   4   0   4 2954.20  109.29
   0  -4   4 3097.09  108.69
   0  -4   4 3277.37  110.19
   4   0   4 3143.69  110.19
   4   0   4 3216.38  110.79
   0  -4   4 2922.11  109.09
   3  -4  -4  433.86   17.50
   3  -4  -4  478.85   19.10
   3  -4  -4  458.45   18.50
   1   3  -4  457.25   17.90
  -4   1  -4  448.56   18.00
   3  -4  -4  491.85   18.80
  -4   1  -4  466.65   18.40
   1   3  -4  467.55   17.90
   1   3  -4  439.16   18.70
   1   3  -4  478.25   19.00
  -4   1  -4  460.45   17.20
  -4   1  -4  456.55   19.00
   3  -4  -4  418.96   18.10
   1   3  -4  484.35   18.40
   1   3  -4  503.75   18.60
  -1  -3   4  447.86   18.10
  -3   4   4  459.65   18.70
   4  -1   4  463.15   17.40
   4  -1   4  483.75   18.30
   4  -1   4  458.25   18.90
  -3   4   4  459.05   18.20
  -3   4   4  435.56   18.90
  -1  -3   4  449.66   18.50
   4  -1   4  453.25   19.00
  -1  -3   4  484.65   16.90
  -1  -3   4  448.66   18.80
  -1  -3   4  454.15   17.80
  -1  -3   4  475.25   18.50
  -1  -3   4  473.05   16.80
   4  -1   4  477.55   18.00
   2   2  -4 3711.03  126.39
   2   2  -4 3649.23  126.99
  -4   2  -4 3478.05  125.09
   2   2  -4 3457.95  125.79
   2  -4  -4 4058.39  128.29
   2   2  -4 3431.46  126.69
   2   2  -4 3699.03  126.79
  -4   2  -4 3960.60  126.99
   2  -4  -4 3376.46  126.29
  -4   2  -4 3515.15  126.59
  -4   2  -4 3541.75  126.49
   2  -4  -4 3670.03  127.09
   2  -4  -4 3658.33  126.59
   2  -4  -4 3735.03  126.79
   4  -2   4 3614.84  126.29
  -2   4   4 3581.04  126.39
  -2   4   4 3429.26  126.79
   4  -2   4 3538.75  126.89
   4  -2   4 3601.04  127.09
   4  -2   4 3604.84  126.29
  -2  -2   4 3354.96  126.69
  -2   4   4 3054.99  127.49
   4  -2   4 3608.74  124.99
   4  -2   4 3521.65  124.99
  -2  -2   4 3624.74  125.99
  -2  -2   4 3706.73  126.69
  -2  -2   4 3414.66  126.89
  -2   4   4 3505.85  126.09
  -2  -2   4 3652.73  126.59
  -2   4   4 3389.06  126.49
   4  -2   4 3427.36  126.99
   3   1  -4  467.65   18.70
   1  -4  -4  471.45   18.20
   1  -4  -4  466.45   18.40
   1  -4  -4  439.76   18.30
  -4   3  -4  455.45   17.70
  -4   3  -4  457.15   18.30
   3   1  -4  470.95   18.00
   3   1  -4  453.55   17.70
  -4   3  -4  494.15   18.40
   3   1  -4  441.36   18.50
   1  -4  -4  439.86   18.30
   3   1  -4  468.25   18.70
  -4   3  -4  438.86   18.60
   1  -4  -4  475.75   18.60
   1  -4  -4  494.75   18.70
   4  -3   4  468.25   18.40
  -1   4   4  470.55   18.50
  -1   4   4  445.96   18.70
  -1   4   4  459.15   18.70
  -1   4   4  447.66   18.30
   4  -3   4  498.25   17.50
   4  -3   4  483.85   18.20
   4  -3   4  449.06   18.90
   4  -3   4  449.76   18.30
  -3  -1   4  468.75   18.70
   4  -3   4  470.45   19.00
  -3  -1   4  455.95   18.20
  -1   4   4  431.46   18.50
  -3  -1   4  483.95   17.80
  -3  -1   4  445.76   18.70
   4   0  -4 3050.29  109.09
   4   0  -4 3135.49  108.69
  -4   4  -4 2961.70  108.89
  -4   4  -4 3227.28  108.39
   4   0  -4 3255.17  109.69
   0  -4  -4 2983.00  108.69
   4   0  -4 2911.11  108.29
  -4   4  -4 2949.00  109.59
   4   0  -4 2852.61  108.29
   0  -4  -4 3207.68  109.19
  -4   4  -4 3122.29  108.89
   0  -4  -4 3270.17  109.29
   4   0  -4 2993.70  109.09
   0  -4  -4 2906.11  108.89
   0  -4  -4 3248.18  108.99
   0   4   4 3001.80  109.29
   0   4   4 2985.20  109.29
   4  -4   4 3233.38  108.79
   4  -4   4 2995.80  109.49
   0   4   4 2942.81  108.99
   0   4   4 2981.20  109.39
   4  -4   4 2794.52  109.39
  -4   0   4 2989.50  108.69
   0   4   4 3094.69  107.69
  -4   0   4 2994.60  109.29
   4  -4   4 3276.77  108.49
   0   4   4 3200.18  109.19
   4  -4   4 3175.58  109.29
  -4   0   4 2935.41  109.29
   5  -1  -4  195.28    9.00
  -1  -4  -4  197.78    9.80
  -1  -4  -4  227.38   10.20
  -4   5  -4  208.68   10.50
  -1  -4  -4  186.88    8.80
   5  -1  -4  215.28    9.80
  -1  -4  -4  207.18    9.40
  -4   5  -4  187.78   10.10
   5  -1  -4  198.58    8.00
   5  -1  -4  190.28    8.90
   5  -1  -4  199.98    9.60
   5  -1  -4  194.98    9.80
  -4   5  -4  165.68    9.60
  -1  -4  -4  189.48    9.50
   5  -1  -4  207.18   10.50
   1   4   4  208.08    8.90
  -5   1   4  198.18    9.90
   1   4   4  195.38    9.80
   1   4   4  207.68   10.50
   1   4   4  196.48   10.20
   4  -5   4  188.68    9.30
  -5   1   4  186.08    9.20
   4  -5   4  201.78   10.20
   1   4   4  191.18    9.30
   4  -5   4  202.58    8.50
   4  -5   4  208.08   10.10
   1   4   4  195.18   10.00
   4  -5   4  219.48    9.60
  -5   1   4  196.38    9.80
   4  -5   4  182.68   10.10
  -2  -4  -4 2573.44   94.79
   6  -2  -4 2685.43   93.99
   6  -2  -4 2610.74   95.09
  -2  -4  -4 2562.04   94.19
   6  -2  -4 2754.12   93.59
  -4   6  -4 2663.23   94.89
  -2  -4  -4 2723.03   93.09
  -2  -4  -4 2759.82   93.39
  -4   6  -4 2548.34   95.19
  -2  -4  -4 2609.84   92.99
   6  -2  -4 2486.35   94.09
   6  -2  -4 2586.94   93.59
  -4   6  -4 2590.84   94.89
  -4   6  -4 2620.94   92.19
   6  -2  -4 2628.74   92.59
   6  -2  -4 2612.04   94.09
   4  -6   4 2569.84   94.79
  -6   2   4 2605.24   94.59
   4  -6   4 2628.14   94.19
   2   4   4 2733.43   93.79
   2   4   4 2555.94   94.59
   2   4   4 2600.34   95.09
  -6   2   4 2654.83   94.29
   2   4   4 2566.24   93.49
   4  -6   4 2416.16   95.09
   4  -6   4 2622.04   91.79
   7  -3  -4  164.88    8.10
  -3  -4  -4  158.68    9.10
   7  -3  -4  159.68    9.90
  -3  -4  -4  152.28    7.10
  -3  -4  -4  162.18    8.20
   7  -3  -4  172.68    8.80
  -3  -4  -4  166.28    7.50
  -4   7  -4  158.88   10.10
  -3  -4  -4  153.18    9.70
  -4   7  -4  148.99    7.60
  -4   7  -4  165.08   10.10
   7  -3  -4  170.28    9.20
   4  -7   4  168.18   10.40
   3   4   4  170.98    9.50
   3   4   4  150.68    9.90
   4  -7   4  174.28    9.90
   4  -7   4  171.88    7.10
   3   4   4  151.88   10.10
   3   4   4  154.98    8.50
  -7   3   4  157.88    9.20
  -4   8  -4 1648.54   63.79
  -4  -4  -4 1647.94   63.59
  -4  -4  -4 1743.93   60.69
  -4   8  -4 1690.33   63.69
  -4  -4  -4 1635.54   62.09
   4  -8   4 1710.53   60.09
   4  -8   4 1678.13   62.59
   4   4   4 1689.03   62.89
   4   4   4 1659.63   63.89
   4  -8   4 1644.04   63.79
  -5  -4  -4  127.29   10.50
  -4   9  -4  146.69   11.10
  -4   9  -4  135.49    9.20
  -5  -4  -4  123.19    8.40
  -4   9  -4  137.59   11.40
   9  -5  -4  152.78    8.60
  -5  -4  -4  143.29    9.50
   5   4   4  135.09    9.10
   4  -9   4  147.09   10.10
   4  -9   4  152.78   11.40
   5   4   4  132.29   10.00
   5   4   4  120.89   10.70
   4  -9   4  134.09    9.20
  -5  -3  -4  182.08   11.70
  -3   8  -4  187.98   10.00
   8  -5  -4  173.58    9.40
  -5  -3  -4  186.58   10.50
  -5  -3  -4  209.38    8.70
  -3   8  -4  186.18   11.40
  -3   8  -4  180.28   11.90
   5   3   4  176.08   11.90
   5   3   4  179.88   10.70
   3  -8   4  186.08   11.00
   5   3   4  188.08    8.80
   3  -8   4  193.78   10.20
   3  -8   4  191.88   12.00
   3  -8   4  188.28    9.30
  -2   7  -4  217.98    9.10
  -5  -2  -4  207.58   10.90
   7  -5  -4  225.58   10.60
  -2   7  -4  221.18   10.60
   7  -5  -4  222.68   10.50
  -2   7  -4  212.68   12.20
  -2   7  -4  217.38   11.60
   7  -5  -4  216.18   10.30
   7  -5  -4  201.58   11.80
  -5  -2  -4  199.68   12.00
   7  -5  -4  207.18   10.80
   2  -7   4  213.78   10.40
   2  -7   4  210.18    9.70
   5   2   4  202.88   12.30
   2  -7   4  219.48   11.40
   2  -7   4  224.38   12.40
   5   2   4  211.68    8.80
   5   2   4  214.78   11.00
  -7   5   4  218.88   10.80
  -7   5   4  236.48   10.90
  -1   6  -4  281.37   12.30
   6  -5  -4  269.07   12.00
  -1   6  -4  284.47   11.80
  -5  -1  -4  273.47   12.50
   6  -5  -4  288.17   13.00
  -5  -1  -4  281.07   13.60
  -5  -1  -4  262.17   12.20
  -5  -1  -4  263.07   10.90
  -1   6  -4  254.27   13.40
  -1   6  -4  281.07   12.90
   6  -5  -4  268.77   12.20
   6  -5  -4  264.37   12.60
   6  -5  -4  266.37   11.40
  -6   5   4  276.17   12.20
   1  -6   4  287.37   12.60
  -6   5   4  263.77   12.40
   1  -6   4  270.47   11.80
   5   1   4  278.77   11.20
   1  -6   4  268.27   13.00
   5   1   4  263.77   13.90
   5   1   4  271.07   12.40
   1  -6   4  272.37   13.70
   1  -6   4  270.97   11.80
   0   5  -4  159.58   10.00
   0   5  -4  154.08    9.10
   0   5  -4  176.08    8.60
   0   5  -4  180.88    8.40
   5  -5  -4  169.68    7.00
   5  -5  -4  159.98    8.00
  -5   0  -4  159.28    7.80
   5  -5  -4  161.28    9.60
  -5   0  -4  180.18    8.80
   0   5  -4  174.48    8.40
   5  -5  -4  164.68    8.20
   0   5  -4  154.98    9.70
  -5   0  -4  175.68    7.70
   5  -5  -4  161.28    8.70
  -5   0  -4  171.18    9.60
  -5   5   4  167.58    8.80
   0  -5   4  160.88    7.50
  -5   5   4  161.38    9.50
   0  -5   4  159.88    9.30
   5   0   4  162.08    7.70
   0  -5   4  160.78    9.00
   0  -5   4  173.48    7.50
   5   0   4  170.18    9.10
  -5   5   4  159.98    8.10
   0  -5   4  180.38    8.40
   5   0   4  172.88    8.20
   5   0   4  162.68    9.60
   4  -5  -4  189.78    8.90
   4  -5  -4  199.28   10.20
   4  -5  -4  184.68   10.70
   1   4  -4  199.08    8.90
  -5   1  -4  187.38    9.40
   1   4  -4  194.18   10.10
  -5   1  -4  186.98   10.20
   1   4  -4  203.28   10.60
  -5   1  -4  191.88    9.00
   4  -5  -4  179.98    9.10
   1   4  -4  203.38    9.20
   1   4  -4  202.78    9.50
   1   4  -4  200.58   10.30
   4  -5  -4  212.98    9.80
   4  -5  -4  194.18   10.70
  -1  -4   4  187.78    9.70
  -1  -4   4  200.38   10.10
   5  -1   4  199.38   10.80
   5  -1   4  201.38    8.90
  -4   5   4  198.28   10.40
   5  -1   4  203.28    8.60
  -1  -4   4  199.88    8.20
  -4   5   4  196.58    9.80
  -4   5   4  196.58    9.00
   5  -1   4  180.98   10.10
  -1  -4   4  205.88    8.10
  -1  -4   4  224.28   10.30
   5  -1   4  203.58    9.80
   5  -1   4  195.88   10.40
  -1  -4   4  190.48    9.90
  -1  -4   4  206.28    8.90
   2   3  -4  298.67   12.90
   3  -5  -4  304.87   13.20
   3  -5  -4  295.57   13.60
   3  -5  -4  273.87   12.40
   2   3  -4  277.97   12.90
   2   3  -4  294.17   12.30
   3  -5  -4  284.87   12.20
   2   3  -4  298.57   12.70
  -5   2  -4  288.47   12.70
   2   3  -4  292.47   13.50
   2   3  -4  312.17   12.90
   3  -5  -4  281.77   13.40
   3  -5  -4  290.97   12.40
   5  -2   4  290.37   12.30
  -2  -3   4  265.57   12.90
  -2  -3   4  293.17   12.60
   5  -2   4  273.57   12.40
   5  -2   4  268.67   13.40
  -2  -3   4  298.07   12.00
  -3   5   4  279.77   13.30
  -2  -3   4  292.07   13.20
   5  -2   4  294.87   11.30
  -2  -3   4  294.17   10.60
  -2  -3   4  286.57   10.70
  -2  -3   4  298.97   12.90
   5  -2   4  289.27   13.20
  -3   5   4  324.67   12.70
  -3   5   4  287.47   13.00
   5  -2   4  277.77   13.30
  -3   5   4  270.37   12.10
   2  -5  -4  281.87   12.40
   2  -5  -4  280.37   12.60
   3   2  -4  288.37   12.90
   2  -5  -4  282.37   13.20
   2  -5  -4  296.47   13.30
   3   2  -4  308.77   13.20
   2  -5  -4  293.57   12.40
   3   2  -4  284.97   12.30
  -5   3  -4  276.27   12.60
   3   2  -4  292.77   11.50
   3   2  -4  306.47   12.80
   3   2  -4  276.07   13.20
   2  -5  -4  316.77   13.60
  -5   3  -4  290.27   11.60
  -5   3  -4  283.67   12.90
  -3  -2   4  302.57   11.80
   5  -3   4  271.67   13.10
  -2   5   4  283.07   13.00
  -2   5   4  293.57   13.30
   5  -3   4  277.77   10.70
  -3  -2   4  278.57   12.80
  -2   5   4  303.17   12.90
  -2   5   4  283.47   12.60
   5  -3   4  284.07   13.50
  -2   5   4  296.37   12.80
  -3  -2   4  294.17   13.30
   5  -3   4  297.07   10.80
   5  -3   4  309.27   12.70
  -3  -2   4  294.67   12.90
  -3  -2   4  258.87   13.70
   5  -3   4  300.67   12.60
   1  -5  -4  213.68    9.50
   1  -5  -4  202.68   10.10
   1  -5  -4  193.58    9.40
   1  -5  -4  189.38    9.50
  -5   4  -4  185.88    9.50
  -5   4  -4  193.98    9.00
   4   1  -4  204.48   10.20
   1  -5  -4  197.18    9.60
   4   1  -4  203.28   10.30
   1  -5  -4  202.88    9.90
   1  -5  -4  190.48   10.00
   4   1  -4  194.48    9.20
   4   1  -4  208.98    9.50
   4   1  -4  194.58    8.40
  -5   4  -4  194.48   10.00
   4   1  -4  182.88    9.40
  -1   5   4  191.38    9.60
  -1   5   4  201.68    7.70
   5  -4   4  174.78    9.80
   5  -4   4  203.58    9.50
  -1   5   4  203.58   10.10
   5  -4   4  188.58    9.20
  -4  -1   4  183.18    9.70
   5  -4   4  210.48    9.90
  -1   5   4  198.18    9.90
  -1   5   4  197.58    9.90
  -4  -1   4  189.68    9.90
   5  -4   4  199.18    8.70
  -1   5   4  188.18    9.80
   5  -4   4  183.58   10.40
   0  -5  -4  181.08    9.10
   0  -5  -4  173.48    8.80
   5   0  -4  173.08   10.70
   0  -5  -4  174.78    8.90
   0  -5  -4  174.68    8.40
   0  -5  -4  170.78    9.00
   5   0  -4  176.38    8.70
   5   0  -4  163.28    8.70
  -5   5  -4  161.88    8.90
   0  -5  -4  182.98    8.90
  -5   5  -4  166.78    9.00
   5   0  -4  174.58    6.70
  -5   5  -4  162.08    9.40
   5   0  -4  169.78    7.80
   5  -5   4  184.48    8.60
  -5   0   4  141.89    8.70
   5  -5   4  151.38    9.40
  -5   0   4  163.88    9.10
   0   5   4  174.78    7.70
   0   5   4  168.08    9.20
  -5   0   4  167.38    9.10
   5  -5   4  161.48    9.30
   0   5   4  170.58    9.70
   0   5   4  163.08    9.20
   5  -5   4  176.88    8.80
   0   5   4  155.18    8.70
  -5   6  -4  285.57   13.30
  -5   6  -4  259.87   13.50
   6  -1  -4  276.47   12.10
  -1  -5  -4  261.57   12.60
   6  -1  -4  268.37   12.40
   6  -1  -4  285.07   10.80
  -1  -5  -4  280.07   12.70
   6  -1  -4  269.57   11.70
  -1  -5  -4  275.87   12.10
  -1  -5  -4  262.97   11.70
  -1  -5  -4  261.57   13.00
   6  -1  -4  264.27   12.60
   5  -6   4  254.37   13.60
   1   5   4  276.37   13.30
   1   5   4  279.47   13.20
   5  -6   4  269.87   13.40
   1   5   4  286.37   12.00
   5  -6   4  268.17   10.90
   1   5   4  276.27   12.60
   5  -6   4  256.17   12.70
  -6   1   4  260.27   13.00
  -6   1   4  275.37   12.70
   7  -2  -4  222.48   11.20
   7  -2  -4  238.28   11.50
   7  -2  -4  230.78    9.80
  -2  -5  -4  216.78   12.00
  -2  -5  -4  228.28   10.20
  -5   7  -4  221.28    8.90
   7  -2  -4  209.08   11.10
  -2  -5  -4  213.88   11.00
  -5   7  -4  194.38   12.20
   7  -2  -4  224.78   10.60
  -2  -5  -4  227.48   11.40
  -5   7  -4  208.08   12.10
  -2  -5  -4  218.48    9.90
   2   5   4  233.88   11.10
   5  -7   4  222.88    8.60
   5  -7   4  227.48   12.20
  -7   2   4  220.28   11.50
   2   5   4  232.68   11.60
   5  -7   4  208.38   12.30
   2   5   4  221.38   12.00
  -7   2   4  216.58   11.60
   2   5   4  217.18   12.10
  -5   8  -4  195.08   12.50
  -3  -5  -4  185.28    8.20
  -3  -5  -4  198.08    8.80
   8  -3  -4  187.48    9.90
  -3  -5  -4  178.28   11.50
  -3  -5  -4  191.38   10.50
   8  -3  -4  200.08   10.80
  -5   8  -4  201.18    8.90
   8  -3  -4  187.98   10.10
  -3  -5  -4  186.58   10.70
  -5   8  -4  188.28   12.10
   5  -8   4  197.28    8.30
   3   5   4  203.38   12.00
   5  -8   4  201.08   11.60
   3   5   4  192.18   11.50
   5  -8   4  188.38   12.20
   3   5   4  189.58   10.30
  -5   9  -4  148.09    8.70
  -5   9  -4  130.39   11.10
  -5   9  -4  154.18   11.90
   9  -4  -4  134.39    9.40
   9  -4  -4  137.59    9.10
  -4  -5  -4  133.79    9.40
  -4  -5  -4  123.69   10.00
  -4  -5  -4  152.18   11.10
   5  -9   4  136.49   11.20
   4   5   4  142.09   11.00
   5  -9   4  135.69   10.10
   5  -9   4  128.49    9.20
   4   5   4  132.89    8.90
   4   5   4  140.09   10.30
  -5  -5  -4  103.79    9.30
  -5  10  -4  117.39   12.70
  -5  -5  -4  119.99   11.40
  -5  10  -4  115.69   12.00
  10  -5  -4   99.79    9.40
  -5  10  -4  109.89    9.10
  10  -5  -4  117.09    8.40
   5 -10   4  115.09    9.60
   5   5   4  105.09   10.30
   5 -10   4  114.49   11.60
   5   5   4  115.99    8.90
   5 -10   4  122.19   10.50
   5   5   4  119.89   11.50
  -6  -4  -4 1054.59   42.70
  10  -6  -4 1097.09   42.10
  -4  10  -4 1110.59   45.30
  -4  10  -4 1057.19   46.00
  -6  -4  -4 1111.39   45.60
  -4  10  -4 1084.79   42.50
  10  -6  -4 1133.29   43.20
   6   4   4 1067.19   45.60
   6   4   4 1069.99   44.00
   4 -10   4 1144.19   45.90
   4 -10   4 1151.28   43.50
   4 -10   4 1080.19   43.00
   9  -6  -4  131.49    8.40
  -3   9  -4  113.69   10.80
  -6  -3  -4  127.19    8.90
   9  -6  -4  127.49    9.00
  -6  -3  -4  123.09   10.50
  -3   9  -4  113.29    9.30
  -3   9  -4  119.69   10.40
   6   3   4  126.19    8.80
   3  -9   4  129.19   10.80
   3  -9   4  132.99    9.70
   3  -9   4  129.49    8.90
   6   3   4  103.39   10.20
   6   3   4  130.19    9.50
  -2   8  -4 1679.13   61.89
   8  -6  -4 1589.14   60.89
   8  -6  -4 1642.14   61.59
  -6  -2  -4 1681.23   61.99
   8  -6  -4 1637.24   61.49
  -2   8  -4 1631.84   63.89
  -2   8  -4 1748.53   63.19
  -6  -2  -4 1698.23   63.99
   2  -8   4 1670.43   63.99
   2  -8   4 1660.23   62.39
   2  -8   4 1785.42   61.79
   6   2   4 1666.73   64.39
   6   2   4 1620.94   62.19
  -1   7  -4  188.88    9.30
  -1   7  -4  176.18   10.20
  -6  -1  -4  176.08    9.80
   7  -6  -4  181.08    8.80
  -6  -1  -4  185.68    7.70
  -1   7  -4  177.08    9.90
  -1   7  -4  182.78   11.30
   7  -6  -4  187.18   10.60
  -6  -1  -4  177.98   11.20
   7  -6  -4  172.08    9.50
   7  -6  -4  178.18   11.00
   7  -6  -4  170.18    9.40
  -7   6   4  188.28    9.80
   1  -7   4  196.48    9.40
   6   1   4  190.58    7.90
   6   1   4  182.48   11.60
   6   1   4  172.68    9.70
   1  -7   4  178.08   11.20
  -7   6   4  189.38    9.50
   1  -7   4  183.98    9.80
   1  -7   4  184.88   10.60
   0   6  -4 2049.79   70.79
   0   6  -4 1870.41   72.49
  -6   0  -4 1935.01   71.39
   6  -6  -4 1946.11   69.39
   6  -6  -4 2009.90   70.99
   6  -6  -4 1981.30   71.19
  -6   0  -4 1909.21   72.69
   6  -6  -4 1962.20   71.19
   6  -6  -4 1901.81   69.59
   0   6  -4 1967.10   71.19
   0   6  -4 1936.91   71.19
  -6   0  -4 1900.01   69.89
   6  -6  -4 1927.21   71.09
  -6   6   4 1965.70   70.59
   0  -6   4 2021.60   70.09
   0  -6   4 1961.30   70.29
   0  -6   4 1948.11   71.99
   6   0   4 2021.80   69.99
   6   0   4 1953.20   70.79
  -6   6   4 1898.41   71.39
  -6   6   4 1931.51   72.79
   0  -6   4 1931.71   72.59
   0  -6   4 2088.49   70.89
   6   0   4 1871.01   72.89
   5  -6  -4  260.17   12.20
  -6   1  -4  271.17   11.80
   5  -6  -4  281.57   12.70
   1   5  -4  270.87   12.50
  -6   1  -4  277.37   13.80
  -6   1  -4  263.07   12.50
   1   5  -4  292.37   12.70
   5  -6  -4  262.77   12.40
   1   5  -4  257.57   13.40
   1   5  -4  271.47   12.00
  -1  -5   4  270.37   13.20
   6  -1   4  279.97   11.80
  -5   6   4  261.47   11.60
  -1  -5   4  270.87   11.10
  -5   6   4  260.37   12.80
  -1  -5   4  290.37   11.20
  -5   6   4  276.97   13.80
  -1  -5   4  249.88   13.20
  -1  -5   4  285.67   11.80
   6  -1   4  274.87   13.80
   6  -1   4  287.87   11.80
   2   4  -4 2645.94   91.99
   4  -6  -4 2489.85   92.89
  -6   2  -4 2648.83   92.99
   2   4  -4 2507.35   93.69
  -6   2  -4 2597.54   93.19
   2   4  -4 2513.05   92.89
   4  -6  -4 2608.14   92.79
  -6   2  -4 2592.94   94.59
   2   4  -4 2634.44   93.89
   2   4  -4 2667.43   93.29
   4  -6  -4 2670.23   92.49
   6  -2   4 2437.96   93.89
  -4   6   4 2502.95   93.49
  -2  -4   4 2565.84   93.79
  -4   6   4 2589.94   92.19
  -2  -4   4 2560.34   93.79
   6  -2   4 2659.33   92.49
  -4   6   4 2539.15   94.29
   6  -2   4 2556.94   91.69
  -2  -4   4 2688.93   91.99
  -2  -4   4 2550.34   91.09
  -2  -4   4 2646.94   91.09
  -6   3  -4  189.98    9.80
   3  -6  -4  191.88    9.60
   3   3  -4  193.88    8.30
   3   3  -4  174.58    9.40
   3  -6  -4  197.38    9.70
   3   3  -4  195.58   10.50
   3   3  -4  184.48   10.00
   3  -6  -4  198.98    9.20
  -6   3  -4  197.98    9.80
   3   3  -4  200.48   10.40
  -3  -3   4  203.18    8.50
   6  -3   4  194.98   10.20
  -3  -3   4  197.88   10.40
   6  -3   4  209.08    8.20
   6  -3   4  201.98    8.00
  -3   6   4  182.38   10.50
  -3   6   4  199.88   10.30
   6  -3   4  191.98   10.40
   6  -3   4  194.78    8.00
  -3   6   4  190.68    9.10
   6  -3   4  203.48    9.80
  -3   6   4  177.68   10.00
  -3  -3   4  188.78   10.30
   2  -6  -4 2574.74   93.69
   2  -6  -4 2735.93   92.99
   4   2  -4 2555.94   93.89
  -6   4  -4 2649.33   94.39
   4   2  -4 2702.43   93.89
   4   2  -4 2590.74   91.89
   4   2  -4 2531.25   93.39
  -6   4  -4 2605.54   93.79
   2  -6  -4 2648.33   93.79
   2  -6  -4 2539.25   93.99
  -6   4  -4 2626.54   92.79
   6  -4   4 2714.13   92.49
   6  -4   4 2493.65   94.29
  -2   6   4 2537.35   94.49
  -4  -2   4 2589.64   94.19
   6  -4   4 2542.05   93.59
  -2   6   4 2682.43   94.19
  -2   6   4 2569.04   93.39
  -4  -2   4 2560.64   94.39
  -2   6   4 2548.34   94.19
   6  -4   4 2533.15   91.19
   6  -4   4 2676.73   93.99
   1  -6  -4  268.47   12.20
  -6   5  -4  270.27   12.70
   1  -6  -4  257.87   12.30
   1  -6  -4  272.57   13.00
   1  -6  -4  270.97   12.70
   5   1  -4  277.67   10.80
   5   1  -4  250.57   12.70
  -6   5  -4  265.67   12.30
   5   1  -4  263.37   12.10
  -6   5  -4  267.57   13.30
   1  -6  -4  282.97   12.10
   5   1  -4  256.97   12.40
  -5  -1   4  242.58   12.60
  -1   6   4  277.27   10.60
   6  -5   4  263.67   12.00
  -5  -1   4  262.67   13.10
   6  -5   4  254.37   13.00
   6  -5   4  277.27   11.90
  -1   6   4  253.87   12.80
  -1   6   4  255.57   13.60
  -1   6   4  254.97   12.90
   6   0  -4 1891.61   70.59
  -6   6  -4 1969.00   71.99
   6   0  -4 2030.30   69.19
   0  -6  -4 1861.51   70.99
   0  -6  -4 1961.60   70.69
   0  -6  -4 1932.21   69.99
   6   0  -4 1958.50   69.09
  -6   6  -4 1891.01   70.79
   6   0  -4 1875.71   70.39
   6   0  -4 1931.71   68.09
   0  -6  -4 1972.70   70.39
   6   0  -4 1859.11   70.19
   0   6   4 1866.11   71.19
  -6   0   4 1926.11   71.39
   0   6   4 1920.81   70.99
   0   6   4 2040.50   69.29
   6  -6   4 1896.01   71.99
   6  -6   4 1939.21   69.29
   6  -6   4 1931.31   71.29
  -6   0   4 1894.91   70.89
   6  -6   4 1931.01   70.29
   0   6   4 1931.61   71.09
  -1  -6  -4  185.88   10.10
  -1  -6  -4  180.88    9.60
   7  -1  -4  184.98    9.30
  -6   7  -4  174.68   11.30
   7  -1  -4  180.68    8.10
  -1  -6  -4  182.78    9.10
  -6   7  -4  168.38   10.80
   7  -1  -4  166.58    8.80
  -1  -6  -4  179.28   10.60
   7  -1  -4  170.18    9.80
   6  -7   4  170.68   11.20
   6  -7   4  174.98   10.80
   1   6   4  194.98   10.10
   1   6   4  180.28   10.80
  -7   1   4  167.38   10.50
  -7   1   4  188.68   10.60
   1   6   4  182.68   10.70
   1   6   4  175.88   10.20
   8  -2  -4 1687.13   63.49
   8  -2  -4 1712.23   61.59
  -2  -6  -4 1763.12   61.79
  -2  -6  -4 1697.53   64.79
  -2  -6  -4 1717.73   63.69
   8  -2  -4 1646.14   62.59
  -6   8  -4 1699.93   64.99
   8  -2  -4 1715.83   62.39
  -2  -6  -4 1703.53   61.79
  -6   8  -4 1671.13   65.39
  -8   2   4 1762.62   64.19
   2   6   4 1668.83   64.39
   6  -8   4 1693.73   64.39
  -8   2   4 1765.82   64.49
   2   6   4 1741.03   64.99
   2   6   4 1729.43   63.59
   6  -8   4 1667.73   65.29
  -6   9  -4  124.09   11.40
   9  -3  -4  122.69    9.00
  -3  -6  -4  119.79   10.00
  -6   9  -4  127.19    6.70
  -6   9  -4  109.59   11.10
  -3  -6  -4  131.89    9.30
   9  -3  -4  125.59    8.80
   3   6   4  139.09    9.30
   6  -9   4  114.49   11.30
   6  -9   4  140.09   10.40
   3   6   4  122.59   10.60
   3   6   4  133.49   10.60
  -4  -6  -4 1068.99   43.00
  -6  10  -4 1123.59   46.20
  -6  10  -4 1071.59   45.80
  -4  -6  -4 1137.09   45.50
  -6  10  -4 1171.98   40.90
  10  -4  -4 1068.19   43.10
  10  -4  -4 1063.09   42.50
   6 -10   4 1019.50   43.00
   6 -10   4 1132.09   46.10
   6 -10   4 1122.69   43.70
   4   6   4 1094.49   42.60
   4   6   4 1117.39   45.50
   4   6   4 1079.89   44.70
  -2   9  -4  124.59   11.10
  -2   9  -4  120.39   10.60
  -2   9  -4  136.09   10.40
   9  -7  -4  130.19    9.30
  -7  -2  -4  141.79    9.40
   9  -7  -4  133.69    9.50
   9  -7  -4  120.49    8.80
  -7  -2  -4  125.79   10.80
   7   2   4  112.69    9.50
   7   2   4  133.09   11.50
   2  -9   4  140.79   10.20
   2  -9   4  142.89   11.50
   2  -9   4  137.69    9.20
  -1   8  -4  125.89   10.50
   8  -7  -4  132.39    8.80
  -7  -1  -4  135.59   10.70
   8  -7  -4  121.39    8.40
  -1   8  -4  145.69    9.80
   8  -7  -4  145.89    8.80
   8  -7  -4  140.39   12.90
  -1   8  -4  126.39    9.50
   8  -7  -4  136.49    8.40
  -7  -1  -4  123.99    8.70
  -1   8  -4  132.59    7.50
  -1   8  -4  138.89    8.50
  -8   7   4  129.09    8.70
   1  -8   4  121.39    9.50
   1  -8   4  135.69   10.50
   7   1   4  122.09   10.80
   1  -8   4  142.59    8.50
   7   1   4  139.59    9.10
   7  -7  -4  144.59   10.10
   7  -7  -4  142.59    8.60
   7  -7  -4  138.39    7.50
   7  -7  -4  154.48    8.90
  -7   0  -4  136.49   10.40
   0   7  -4  152.68    9.60
   0   7  -4  152.38    9.00
   0   7  -4  164.38    9.30
   7  -7  -4  144.09    7.20
  -7   0  -4  141.39    7.30
  -7   0  -4  142.09    8.80
   0   7  -4  141.19   10.40
   0  -7   4  141.89    8.60
  -7   7   4  147.19   10.30
   0  -7   4  166.18    8.20
   7   0   4  139.09   10.50
   0  -7   4  147.79    9.70
   7   0   4  145.79    7.40
   0  -7   4  157.08   10.40
   7   0   4  138.09    8.50
  -7   7   4  138.49    9.00
   0  -7   4  122.59    9.20
  -7   1  -4  159.88    9.00
   6  -7  -4  184.88   10.00
   6  -7  -4  181.48    9.70
  -7   1  -4  179.58    9.90
   1   6  -4  183.68    9.40
   6  -7  -4  165.38    9.60
   1   6  -4  172.88   11.00
   1   6  -4  179.28   10.10
   1   6  -4  171.38   10.30
   7  -1   4  189.68    9.00
  -1  -6   4  195.68    9.20
  -1  -6   4  180.38    8.60
  -6   7   4  182.08   11.40
  -6   7   4  179.68   10.10
  -1  -6   4  176.78   10.60
   7  -1   4  166.18   11.10
  -1  -6   4  180.98   11.20
  -6   7   4  181.58    8.60
   7  -1   4  184.38    9.20
   5  -7  -4  218.48   11.10
   2   5  -4  217.28    9.90
   5  -7  -4  223.18   10.50
   5  -7  -4  215.28   11.00
  -7   2  -4  227.18   10.80
  -7   2  -4  218.88   12.80
   2   5  -4  221.38   12.10
   2   5  -4  227.58   11.30
   2   5  -4  248.98   13.20
  -7   2  -4  210.98   11.10
  -2  -5   4  217.28   11.80
  -2  -5   4  219.38    9.30
   7  -2   4  218.48   10.60
  -5   7   4  204.88    9.60
  -2  -5   4  211.38   12.10
   7  -2   4  215.78   12.30
  -5   7   4  207.48   12.30
  -2  -5   4  224.58   10.00
   7  -2   4  233.38   10.00
  -5   7   4  215.78   11.50
  -7   3  -4  151.68    9.00
  -7   3  -4  152.48    9.20
   4  -7  -4  173.08    9.20
   4  -7  -4  165.98    8.20
   3   4  -4  165.58    7.40
   3   4  -4  149.88    9.00
   4  -7  -4  171.88    9.20
   3   4  -4  151.78    9.60
  -4   7   4  158.78    9.40
  -3  -4   4  168.88   10.00
   7  -3   4  164.98    6.90
  -4   7   4  168.88   10.40
   7  -3   4  168.78    9.20
  -3  -4   4  164.08    7.40
  -3  -4   4  161.88    9.70
  -4   7   4  165.58    7.80
  -3  -4   4  156.18    6.60
  -4   7   4  162.98   10.30
   7  -3   4  160.48   10.00
   7  -3   4  158.28    7.50
   7  -3   4  164.88    7.50
   7  -3   4  158.98    9.70
  -7   4  -4  153.48    9.20
   3  -7  -4  163.38    9.00
  -7   4  -4  155.68    9.00
   4   3  -4  147.99    9.10
   3  -7  -4  161.58    7.90
   3  -7  -4  160.88    9.00
   4   3  -4  152.38    8.80
   4   3  -4  159.38    6.70
  -4  -3   4  156.58    9.70
   7  -4   4  160.68    7.10
   7  -4   4  151.08    9.20
  -3   7   4  141.99    9.20
  -3   7   4  160.28    8.10
  -4  -3   4  161.48    9.80
  -3   7   4  144.39    9.60
   7  -4   4  147.49    9.60
   7  -4   4  153.18    6.70
   7  -4   4  166.38    7.60
   5   2  -4  201.88   10.70
   2  -7  -4  215.58   11.00
  -7   5  -4  231.68   12.20
  -7   5  -4  213.58   10.60
  -7   5  -4  216.98   11.20
   5   2  -4  215.08   11.10
   2  -7  -4  224.88   11.30
  -2   7   4  200.78   11.50
   7  -5   4  214.38   10.70
   7  -5   4  210.08   11.80
  -5  -2   4  218.08   11.90
  -2   7   4  217.58   12.00
   7  -5   4  190.78   10.00
  -5  -2   4  196.28   11.40
  -2   7   4  220.98   10.70
   1  -7  -4  184.38   10.50
  -7   6  -4  196.48   10.40
  -7   6  -4  179.08   11.10
   6   1  -4  179.68    7.70
   1  -7  -4  181.38   10.00
   6   1  -4  180.68   10.00
   1  -7  -4  176.88    9.50
   6   1  -4  160.78    9.60
   6   1  -4  183.38    7.50
  -1   7   4  173.58   10.60
   7  -6   4  170.78   10.70
  -1   7   4  190.78   10.30
  -6  -1   4  182.78   10.90
   7  -6   4  146.29   10.80
  -6  -1   4  163.28   10.60
   7  -6   4  168.78   10.10
   7  -6   4  161.08   10.70
  -1   7   4  173.58   10.70
   7  -6   4  192.38    9.00
   7   0  -4  156.58    7.50
   0  -7  -4  153.78    8.60
  -7   7  -4  152.98   10.10
   0  -7  -4  144.09    9.20
   0  -7  -4  156.78    9.90
  -7   7  -4  144.79   10.60
   0  -7  -4  144.79   10.10
   7   0  -4  147.59    7.50
   7   0  -4  136.99    8.70
   7   0  -4  146.59    9.10
   7   0  -4  135.79    7.50
   0   7   4  139.79    9.80
   7  -7   4  150.18   10.50
   7  -7   4  139.29    7.10
   0   7   4  147.99   10.10
  -7   0   4  149.09   10.10
   0   7   4  148.39    9.90
  -7   0   4  147.99   10.00
   0   7   4  158.38    8.80
   7  -7   4  129.29    9.80
   8  -1  -4  127.99    8.20
  -7   8  -4  118.99   10.40
   8  -1  -4  135.69    8.30
  -7   8  -4  120.99   10.60
   8  -1  -4  125.29    8.60
  -1  -7  -4  117.89    9.20
  -1  -7  -4  143.09    7.90
   8  -1  -4  136.79    7.40
   8  -1  -4  135.99    9.00
  -1  -7  -4  141.29   10.00
  -1  -7  -4  122.69    9.20
   1   7   4  130.59    9.60
   1   7   4  127.29   10.80
  -8   1   4  139.89   10.20
   1   7   4  130.59    9.80
   1   7   4  155.38   10.40
   7  -8   4  138.69   10.40
  -8   1   4  127.19   10.00
   7  -8   4  138.09   10.20
  -2  -7  -4  127.09   10.90
  -7   9  -4  139.79   12.20
  -2  -7  -4  155.98   10.30
   9  -2  -4  107.89    9.20
   9  -2  -4  135.39    9.00
   9  -2  -4  135.59    8.50
  -7   9  -4  115.99   11.40
  -9   2   4  146.29   11.30
   7  -9   4  134.19   12.00
   2   7   4  134.49   11.10
   2   7   4  142.99   11.20
   7  -9   4  126.89   10.90
  -9   2   4  130.09   11.10
   2   7   4  145.49   10.40
  -8  -1  -4  108.79   11.20
  -8  -1  -4  128.59    9.40
  -1   9  -4  114.19   10.20
   9  -8  -4  128.49    9.00
  -1   9  -4  136.59    9.70
  -1   9  -4  105.69   11.40
   9  -8  -4  117.69    9.20
  -1   9  -4  108.59   10.80
   9  -8  -4  115.59    9.50
   1  -9   4  108.79   10.30
   1  -9   4  121.89    9.00
  -9   8   4  120.29    9.10
   1  -9   4  112.29   11.30
   8   1   4  120.29   12.00
   8   1   4  105.09    9.50
   0   8  -4 1277.07   48.10
   8  -8  -4 1231.28   48.10
   0   8  -4 1283.87   48.90
  -8   0  -4 1241.48   50.59
   8  -8  -4 1239.98   48.10
   8  -8  -4 1225.88   45.90
   0   8  -4 1229.18   50.29
  -8   0  -4 1270.87   48.20
   0   8  -4 1262.87   47.20
   0  -8   4 1277.27   47.10
   0  -8   4 1233.28   50.19
   8   0   4 1299.77   47.90
  -8   8   4 1251.07   50.39
  -8   8   4 1310.77   48.20
   8   0   4 1225.58   50.69
   0  -8   4 1275.37   48.90
   7  -8  -4  137.29    9.00
   1   7  -4  136.69    8.40
  -8   1  -4  134.69   10.90
   1   7  -4  132.29    9.60
   1   7  -4  132.29   10.50
  -8   1  -4  136.29    9.10
   7  -8  -4  137.09    9.10
   7  -8  -4  137.99    9.40
  -8   1  -4  122.79    8.50
  -1  -7   4  135.99    9.90
  -7   8   4  132.19    9.10
  -1  -7   4  116.79    8.50
   8  -1   4  139.19    8.50
   8  -1   4  137.69    8.00
  -1  -7   4  129.09   10.50
  -1  -7   4  130.69    7.60
  -1  -7   4  119.29    8.50
  -7   8   4  137.79   10.60
   8  -1   4  117.09   10.40
   6  -8  -4 1695.03   62.99
  -8   2  -4 1705.73   65.19
  -8   2  -4 1676.83   62.09
   2   6  -4 1710.53   64.29
   2   6  -4 1691.23   63.19
   2   6  -4 1725.73   61.29
   6  -8  -4 1701.13   61.09
   6  -8  -4 1681.73   62.69
  -8   2  -4 1713.23   62.99
   8  -2   4 1633.04   64.49
  -2  -6   4 1660.63   64.29
   8  -2   4 1664.83   61.69
  -2  -6   4 1650.13   60.79
  -6   8   4 1626.74   63.19
  -2  -6   4 1707.73   61.09
   8  -2   4 1634.24   61.39
  -6   8   4 1709.93   64.79
  -2  -6   4 1762.62   60.69
  -2  -6   4 1703.73   63.69
  -6   8   4 1704.53   60.49
   3   5  -4  184.88    8.30
   3   5  -4  195.48   10.90
   5  -8  -4  187.18    9.00
   3   5  -4  187.48   11.60
   5  -8  -4  180.48   10.70
  -8   3  -4  179.48   10.50
  -8   3  -4  187.78   10.50
   5  -8  -4  177.58   10.50
   8  -3   4  196.88    9.10
  -3  -5   4  190.88   11.50
  -5   8   4  198.28   11.30
   8  -3   4  161.58   11.20
  -3  -5   4  188.48    8.50
   8  -3   4  199.28    9.50
  -3  -5   4  180.18   11.50
  -5   8   4  182.68   12.10
   4  -8  -4 1765.22   60.39
  -8   4  -4 1732.23   62.99
   4  -8  -4 1619.84   62.39
  -8   4  -4 1698.13   62.69
   4   4  -4 1663.73   62.49
   4  -8  -4 1650.03   62.49
   4   4  -4 1670.63   62.99
   8  -4   4 1650.83   60.09
   8  -4   4 1700.23   60.29
   8  -4   4 1652.13   63.59
   8  -4   4 1683.93   63.19
  -4  -4   4 1652.03   63.29
  -4  -4   4 1676.43   63.59
  -4   8   4 1673.03   64.09
  -4   8   4 1624.84   62.99
   8  -4   4 1734.23   60.19
   5   3  -4  204.68   10.90
   3  -8  -4  191.78   10.80
  -8   5  -4  195.88   11.10
  -8   5  -4  193.08   11.60
   3  -8  -4  190.78   11.00
   5   3  -4  192.68   11.10
   8  -5   4  190.38   11.80
  -5  -3   4  172.28   11.50
   8  -5   4  208.78    9.90
   8  -5   4  182.18   10.70
  -3   8   4  211.28   12.50
   8  -5   4  193.58    8.70
   8  -5   4  196.28    8.10
  -3   8   4  183.48    9.40
  -5  -3   4  185.18   11.80
  -3   8   4  182.28   11.40
  -8   6  -4 1747.73   62.39
   2  -8  -4 1706.03   63.39
   6   2  -4 1673.03   62.89
  -8   6  -4 1691.83   64.19
   6   2  -4 1694.33   62.79
   2  -8  -4 1728.03   63.09
  -2   8   4 1647.84   63.69
   8  -6   4 1672.53   62.29
  -6  -2   4 1709.33   64.09
   8  -6   4 1669.83   61.69
   8  -6   4 1635.64   63.69
   8  -6   4 1703.53   61.79
  -6  -2   4 1652.63   63.79
  -2   8   4 1631.84   64.09
  -8   7  -4  132.59    9.80
   1  -8  -4  134.69    8.60
   1  -8  -4  139.79    9.80
   1  -8  -4  132.79    9.20
  -8   7  -4  146.99   11.00
   7   1  -4  134.69    9.00
   7   1  -4  136.99    9.00
  -1   8   4  144.29    9.60
   8  -7   4  125.79    8.30
  -7  -1   4  123.89   10.10
  -1   8   4  135.49   10.10
   8  -7   4  126.79   10.10
  -1   8   4  125.89    7.70
  -1   8   4  135.29   10.30
  -7  -1   4  133.89   10.50
   8  -7   4  120.79   10.20
   0  -8  -4 1250.97   49.10
   8   0  -4 1205.18   47.70
  -8   8  -4 1248.78   49.00
   0  -8  -4 1244.88   47.10
  -8   8  -4 1273.47   50.59
   8   0  -4 1214.38   47.80
   0  -8  -4 1237.98   48.20
   0   8   4 1252.67   49.10
   0   8   4 1221.18   49.30
   8  -8   4 1228.68   49.10
   8  -8   4 1227.28   49.99
   0   8   4 1267.97   48.30
  -8   0   4 1298.77   49.30
  -8   0   4 1288.17   49.60
   9  -1  -4  110.79    9.20
  -1  -8  -4  115.09   10.60
  -1  -8  -4  116.99    8.10
  -8   9  -4  134.09   11.70
  -8   9  -4  110.39   12.00
  -1  -8  -4  117.49    9.70
   9  -1  -4  112.29    8.90
   9  -1  -4  107.69    7.10
  -9   1   4  121.59   11.20
   1   8   4  116.39   10.60
   1   8   4  113.89   10.90
   8  -9   4  108.19   11.00
  -9   1   4  101.89   10.90
   8  -9   4  120.79   11.10
   1   8   4  131.69   10.90
   1   8  -4  118.39   10.40
   1   8  -4  111.19   11.00
  -9   1  -4  109.19    9.20
   8  -9  -4  129.99    9.70
   1   8  -4  108.39    9.40
   1   8  -4  120.09    9.10
   8  -9  -4  109.89    9.10
  -9   1  -4  120.39   11.80
  -1  -8   4  109.79    8.10
   9  -1   4  103.99    9.00
  -1  -8   4   93.49   11.20
  -8   9   4  113.29    9.50
  -8   9   4  131.29   11.50
   9  -1   4  112.39   11.50
  -1  -8   4  117.59   10.60
   7  -9  -4  129.39    9.50
  -9   2  -4  125.19    8.90
  -9   2  -4  137.09    9.80
   2   7  -4  125.29   11.00
  -9   2  -4  133.19   11.90
   7  -9  -4  123.69    9.70
   2   7  -4  129.19   10.50
  -2  -7   4  141.19   11.40
  -7   9   4  144.59   10.30
   9  -2   4  126.69   11.30
  -7   9   4  126.29   11.40
   9  -2   4  127.79    8.70
  -2  -7   4  149.19    8.10
  -2  -7   4  140.89   10.80
   3   6  -4  123.99   10.30
   6  -9  -4  139.49    9.70
  -9   3  -4  116.69    9.30
   6  -9  -4  122.79    9.40
   3   6  -4  117.89    9.50
  -9   3  -4  119.89    9.40
   9  -3   4  126.79   11.00
  -6   9   4  143.19   10.10
  -6   9   4  134.79   11.30
  -3  -6   4  128.99    6.80
  -3  -6   4  115.89   10.10
   9  -3   4  133.79    8.00
  -3  -6   4  131.29   10.80
   4   5  -4  129.39   10.20
   5  -9  -4  123.69    9.50
  -9   4  -4  140.69    9.90
  -9   4  -4  132.99    9.70
   4   5  -4  118.29    9.50
   5  -9  -4  143.49    9.70
   9  -4   4  128.49   11.00
  -4  -5   4  126.89   10.50
   9  -4   4  131.19    7.60
   9  -4   4  132.59   10.60
  -5   9   4  135.39   11.20
   9  -4   4  149.29    7.20
  -5   9   4  129.49   10.10
  -4  -5   4  127.39   10.90
   9  -4   4  154.88    7.80
   4  -9  -4  143.09    9.60
   5   4  -4  123.39    9.80
   4  -9  -4  145.39    9.90
  -9   5  -4  124.49   10.40
   5   4  -4  125.79    9.70
  -9   5  -4  135.49    9.90
  -5  -4   4  128.29   10.70
   9  -5   4  137.89    8.70
   9  -5   4  132.69   10.80
   9  -5   4  126.89    6.90
  -4   9   4  160.18   10.70
  -5  -4   4  144.09   10.80
   9  -5   4  117.99    9.90
  -4   9   4  136.59   11.20
   9  -5   4  112.69   11.10
   6   3  -4  123.29    9.40
  -9   6  -4  123.19   10.60
   3  -9  -4  138.09   10.00
   3  -9  -4  113.99    9.10
   6   3  -4  124.19    9.50
  -3   9   4  146.19   10.80
   9  -6   4  112.49   10.60
  -3   9   4  125.19    7.40
  -3   9   4  122.89   10.80
  -6  -3   4  116.99   10.40
  -6  -3   4  125.59   11.10
   9  -6   4  116.49    9.30
   2  -9  -4  134.29   10.60
   2  -9  -4  120.59    9.60
  -9   7  -4  126.99   11.40
   2  -9  -4  139.09    9.50
   7   2  -4  127.29    9.70
   7   2  -4  133.29    9.70
  -9   7  -4  137.09   10.00
  -2   9   4  124.09   11.20
   9  -7   4  120.79   11.00
  -2   9   4  132.79    9.50
   9  -7   4  129.89   11.20
  -7  -2   4  150.68   11.60
  -7  -2   4  133.59   11.10
  -2   9   4  127.49   10.80
   9  -7   4  131.89    9.40
  -9   8  -4  108.49   11.70
  -9   8  -4  103.89   10.50
   1  -9  -4  118.69    8.80
   8   1  -4  103.19    9.30
   1  -9  -4  119.09    9.70
   8   1  -4  101.69    9.10
   1  -9  -4  114.29   10.50
   9  -8   4   89.69   10.90
  -1   9   4  106.19   11.10
  -8  -1   4  111.39   10.70
   9  -8   4  114.99   11.00
  -1   9   4  109.49   10.20
  -1   9   4  125.59   11.20
  -8  -1   4  135.79   11.40
 -10   4  -4 1083.99   43.60
   6 -10  -4 1125.39   44.00
   4   6  -4 1044.80   44.10
 -10   4  -4 1117.29   43.90
   6 -10  -4 1098.79   43.90
   4   6  -4 1077.09   44.80
  -6  10   4 1126.89   44.30
  -4  -6   4 1181.58   45.30
  10  -4   4 1079.59   45.40
  -4  -6   4 1106.49   45.60
  10  -4   4 1093.19   41.30
  -6  10   4 1092.99   46.30
  10  -4   4 1049.30   45.10
  -4  -6   4 1165.28   40.20
   5 -10  -4   96.49    9.70
 -10   5  -4  110.09   10.90
 -10   5  -4   92.79   10.00
   5   5  -4  116.69   10.90
   5   5  -4  118.79   10.00
   5 -10  -4  107.99    9.90
  -5  10   4  103.59   10.70
  10  -5   4  131.49   12.40
  -5  -5   4  128.69   11.90
  10  -5   4  101.79   10.80
  -5  10   4  118.89   12.10
  10  -5   4  111.19    7.50
  10  -5   4  112.99    6.90
  -5  -5   4  117.49   11.60
   6   4  -4 1083.99   43.70
 -10   6  -4 1085.09   44.60
   4 -10  -4 1072.59   43.80
   4 -10  -4 1131.79   43.70
   6   4  -4 1084.09   43.80
  -4  10   4 1117.09   45.70
  -6  -4   4 1096.39   45.00
  10  -6   4 1013.40   43.30
  10  -6   4 1081.79   45.00
  -6  -4   4 1159.58   45.30
  10  -6   4 1095.69   39.60
  -4  10   4 1092.89   44.30
   0   0  -5 9999.00  345.97
   0   0   5 9718.63  344.77
   0   1  -5  595.44   23.40
  -1   0  -5  612.54   23.40
   0   1  -5  556.84   22.90
   1  -1  -5  651.73   24.00
  -1   0  -5  634.04   23.30
   0   1  -5  580.24   23.30
   1  -1  -5  608.84   22.60
  -1   0  -5  599.84   22.40
   0   1  -5  590.24   22.30
   0   1  -5  678.43   24.00
   1  -1  -5  655.13   23.20
   1  -1  -5  585.24   23.30
  -1   0  -5  632.74   22.80
  -1   0  -5  640.84   23.90
   0   1  -5  585.24   23.00
  -1   0  -5  608.34   22.90
  -1   1   5  572.24   22.70
   0  -1   5  655.13   23.00
   0  -1   5  612.24   22.40
   1   0   5  618.14   23.40
   1   0   5  598.04   23.80
   0  -1   5  598.94   22.60
   1   0   5  584.74   22.60
   0  -1   5  575.54   23.50
   1   0   5  703.83   23.00
  -1   1   5  605.74   22.70
   1   0   5  600.44   23.20
  -1   1   5  658.63   23.70
   0  -1   5  599.54   22.40
  -1   1   5  571.94   23.70
  -1   1   5  591.54   23.00
   0  -1   5  567.54   23.40
   0  -1   5  652.73   23.50
   1   0   5  667.83   23.10
  -1   1  -5  636.34   22.60
   1   0  -5  591.74   23.50
  -1   1  -5  638.44   24.10
   0  -1  -5  626.04   23.20
   1   0  -5  652.33   23.50
   0  -1  -5  633.34   23.30
   1   0  -5  628.44   23.40
  -1   1  -5  643.84   23.80
   0  -1  -5  595.84   23.10
   1   0  -5  630.94   23.10
  -1   1  -5  606.84   22.90
   0  -1  -5  640.74   22.50
   0  -1  -5  564.44   23.50
  -1   1  -5  612.74   23.60
   1   0  -5  624.14   22.50
   1   0  -5  629.14   24.00
   1  -1   5  605.94   22.40
   1  -1   5  636.04   22.90
   1  -1   5  598.34   23.70
   0   1   5  559.34   23.00
  -1   0   5  629.24   23.60
  -1   0   5  596.84   23.50
   0   1   5  644.44   23.80
   1  -1   5  648.94   23.00
  -1   0   5  592.04   22.10
  -1   0   5  579.74   22.90
   0   1   5  629.94   23.10
  -1   0   5  626.34   24.00
   1  -1   5  607.84   23.90
   0   1   5  619.74   23.20
   1  -1   5  646.24   23.60
  -1   0   5  647.04   22.50
   0   1   5  600.64   24.10
  -1   2  -5  542.45   21.40
  -1   2  -5  564.54   22.20
  -1  -1  -5  597.24   22.80
  -1   2  -5  553.94   21.80
  -1   2  -5  591.24   21.00
   2  -1  -5  612.14   22.10
  -1   2  -5  588.64   22.50
  -1   2  -5  597.04   22.50
  -1  -1  -5  558.94   22.10
  -1  -1  -5  539.35   21.80
   2  -1  -5  613.84   21.80
  -1  -1  -5  557.04   21.60
   2  -1  -5  533.05   22.10
   2  -1  -5  574.94   21.10
  -1  -1  -5  597.84   21.40
  -1  -1  -5  616.64   21.80
   2  -1  -5  620.44   22.80
  -2   1   5  541.25   21.80
  -2   1   5  592.54   22.30
   1   1   5  545.75   22.70
   1   1   5  588.64   22.00
  -2   1   5  563.14   21.70
   1   1   5  545.35   21.70
   1  -2   5  549.25   22.50
   1   1   5  588.04   22.20
  -2   1   5  555.84   22.50
   1  -2   5  591.24   21.30
   1  -2   5  604.24   21.70
   1  -2   5  614.74   22.20
   1  -2   5  536.75   22.20
   1   1   5  571.64   21.80
   1  -2   5  597.94   22.80
  -2   1   5  579.84   21.10
   3  -2  -5  126.79    6.90
  -1   3  -5  123.99    7.20
   3  -2  -5  109.49    6.50
   3  -2  -5  133.09    6.70
  -1   3  -5  133.79    6.80
  -1   3  -5  126.89    5.80
  -2  -1  -5  114.09    6.50
  -1   3  -5  133.49    5.30
  -2  -1  -5  125.39    6.00
  -1   3  -5  113.39    6.40
  -2  -1  -5  122.79    5.10
  -1   3  -5  123.49    5.30
  -2  -1  -5  115.99    6.10
  -2  -1  -5  116.09    6.30
   3  -2  -5  122.89    5.80
   3  -2  -5  134.19    7.10
  -1   3  -5  111.69    6.40
   1  -3   5  124.59    6.20
   1  -3   5  116.69    6.30
   1  -3   5  132.59    5.60
   2   1   5  126.69    7.30
   2   1   5  123.69    6.10
  -3   2   5  115.59    6.40
  -3   2   5  114.19    6.50
  -3   2   5  119.79    5.70
   1  -3   5  124.29    6.20
   1  -3   5  100.79    7.50
   2   1   5  133.89    6.40
   2   1   5  123.49    6.60
   2   1   5  129.99    6.70
   2   1   5  122.49    6.30
   1  -3   5  114.99    6.40
  -2   0  -5 4110.59  151.98
  -2   0  -5 4147.58  151.88
   2  -2  -5 4473.35  151.28
  -2   0  -5 4373.16  151.38
  -2   0  -5 4341.67  150.68
   0   2  -5 4271.67  152.18
   2  -2  -5 4422.46  152.48
  -2   0  -5 4351.26  150.78
   0   2  -5 4250.57  151.68
   0   2  -5 4573.34  152.48
   0   2  -5 4132.69  150.88
   2  -2  -5 4197.28  152.28
   0   2  -5 4265.77  152.18
   0   2  -5 4334.57  151.08
  -2   0  -5 4183.28  151.98
   0   2  -5 4516.55  152.68
   2  -2  -5 4232.08  151.38
  -2   0  -5 4690.33  152.98
   2  -2  -5 4585.64  152.88
   2   0   5 4256.57  151.38
   2   0   5 4459.05  152.18
   2   0   5 4442.16  152.08
   0  -2   5 3747.12  152.28
  -2   2   5 4012.80  152.48
  -2   2   5 4168.38  152.08
   0  -2   5 4536.35  151.98
   0  -2   5 4402.36  150.88
   2   0   5 4170.28  152.18
   2   0   5 4429.36  152.08
   0  -2   5 4233.48  152.58
  -2   2   5 4166.78  151.18
   0  -2   5 4180.38  152.18
   0  -2   5 4471.45  152.08
   2   0   5 4053.39  152.68
  -2   2   5 4529.85  151.58
  -2   1  -5  575.84   22.20
   1   1  -5  557.34   21.20
   1   1  -5  619.64   22.60
   1   1  -5  565.24   22.10
  -2   1  -5  547.35   21.00
   1  -2  -5  589.54   22.70
   1   1  -5  599.74   21.50
   1  -2  -5  546.45   22.10
   1   1  -5  538.25   22.00
  -2   1  -5  546.45   21.70
   1  -2  -5  605.24   20.80
   1   1  -5  565.94   20.60
   1  -2  -5  553.04   21.60
   1   1  -5  565.14   22.20
   1  -2  -5  580.84   21.10
   1  -2  -5  584.54   22.10
  -2   1  -5  591.74   21.00
   1  -2  -5  593.54   22.20
  -2   1  -5  612.94   22.60
  -2   1  -5  606.14   22.40
  -1  -1   5  590.54   22.00
   2  -1   5  611.74   21.80
   2  -1   5  610.84   22.20
   2  -1   5  573.44   21.00
  -1   2   5  565.54   20.90
  -1   2   5  586.54   21.80
  -1  -1   5  590.34   20.80
  -1  -1   5  565.34   22.30
   2  -1   5  578.74   22.30
  -1  -1   5  583.54   21.30
   2  -1   5  582.74   22.60
  -1   2   5  534.45   22.00
   2  -1   5  565.84   20.90
  -1  -1   5  623.54   22.30
  -1   2   5  522.75   22.50
   2  -1   5  599.04   22.00
  -1   2   5  530.35   21.10
  -1  -1   5  537.45   22.10
  -2   2  -5 4144.69  151.88
   2   0  -5 4189.48  150.78
   0  -2  -5 4743.33  152.48
   2   0  -5 4558.44  152.88
   0  -2  -5 4145.69  152.28
  -2   2  -5 4289.37  150.78
   0  -2  -5 4137.39  152.08
  -2   2  -5 4626.54  152.68
  -2   2  -5 4101.59  151.58
   2   0  -5 4068.29  152.18
   0  -2  -5 4345.87  151.98
  -2   2  -5 4441.96  152.88
   0  -2  -5 3978.70  151.48
   0  -2  -5 4521.85  152.98
   2   0  -5 4457.45  152.28
   2   0  -5 4201.18  150.98
   2   0  -5 4399.96  151.88
  -2   2  -5 4211.48  152.48
   0   2   5 4119.39  152.88
  -2   0   5 4233.38  152.68
   0   2   5 4126.69  152.18
  -2   0   5 4351.86  151.08
   2  -2   5 4127.79  152.48
   2  -2   5 4399.66  151.78
  -2   0   5 4566.64  152.48
  -2   0   5 4277.27  150.78
   2  -2   5 4409.56  151.48
   0   2   5 4549.65  152.58
   2  -2   5 4146.39  152.68
   0   2   5 4199.48  151.48
   0   2   5 4475.95  152.28
  -2   0   5 4242.48  152.28
   2  -2   5 4511.35  152.38
   3  -1  -5  125.19    6.40
  -1  -2  -5  118.49    6.30
  -2   3  -5  120.89    4.70
  -1  -2  -5  111.19    6.10
  -2   3  -5  128.29    6.50
  -2   3  -5  123.79    6.00
   3  -1  -5  109.49    6.10
  -2   3  -5  129.69    7.20
  -1  -2  -5  128.39    7.10
  -1  -2  -5  112.39    6.30
   3  -1  -5  122.19    6.10
  -2   3  -5  102.19    6.70
   3  -1  -5  125.09    7.00
  -1  -2  -5  128.69    6.20
   3  -1  -5  125.69    5.10
  -2   3  -5  123.99    4.80
   3  -1  -5  121.39    4.90
  -2   3  -5  135.39    6.40
  -1  -2  -5  111.89    6.40
   1   2   5  126.59    5.70
   1   2   5  130.79    6.40
   1   2   5  114.49    6.30
   1   2   5  131.19    6.40
   2  -3   5  129.49    5.80
   2  -3   5  124.39    6.00
   2  -3   5  118.79    6.30
  -3   1   5  124.69    5.00
   2  -3   5  116.29    6.40
   1   2   5  122.99    6.50
   1   2   5  100.59    7.90
   2  -3   5  116.89    6.50
  -3   1   5  121.79    6.20
  -3   1   5  113.09    6.20
  -3   1   5  103.39    7.20
   2  -3   5  117.39    8.00
   4  -2  -5 2851.61  102.39
   4  -2  -5 2754.82  101.69
  -2   4  -5 2762.72  101.89
  -2  -2  -5 2772.12  100.39
  -2  -2  -5 2944.21  101.49
  -2   4  -5 2768.02  100.09
   4  -2  -5 2929.21  101.19
   4  -2  -5 2864.61  102.29
   4  -2  -5 2821.22  100.19
  -2   4  -5 2896.41  101.49
  -2  -2  -5 2631.84  101.59
   4  -2  -5 2827.62  101.69
  -2  -2  -5 3058.99  102.69
  -2  -2  -5 2766.62  101.19
  -2   4  -5 2852.11  102.19
  -2   4  -5 3000.90  102.59
   2  -4   5 2696.33  102.39
  -4   2   5 2717.73  101.19
   2   2   5 2983.30  101.79
   2   2   5 2733.33  102.59
   2  -4   5 2967.70  101.89
   2   2   5 3031.80  101.39
   2   2   5 2925.71  101.89
  -4   2   5 2729.93  101.99
  -4   2   5 2729.63  101.49
   2  -4   5 2858.21  100.89
   2   2   5 2987.90  102.19
   2  -4   5 2971.10  101.59
   2  -4   5 2818.92  102.29
   2   2   5 2772.32  100.39
   2   2   5 2860.41  101.29
   5  -3  -5  252.97   12.70
  -3  -2  -5  231.28   11.40
   5  -3  -5  257.37   12.20
   5  -3  -5  232.18   11.80
   5  -3  -5  248.18   10.60
  -2   5  -5  279.57   11.10
  -3  -2  -5  254.57   12.60
   5  -3  -5  275.47   10.30
  -3  -2  -5  279.77   11.40
  -3  -2  -5  245.38    9.60
   5  -3  -5  246.28   10.30
  -2   5  -5  243.78   11.90
  -3  -2  -5  252.57   11.90
   5  -3  -5  253.37   10.70
   5  -3  -5  235.48   11.30
  -2   5  -5  242.78   11.80
  -3  -2  -5  228.28   10.50
  -2   5  -5  254.67   12.80
  -5   3   5  248.08   11.60
   3   2   5  253.37   11.50
   2  -5   5  250.27   11.60
   3   2   5  242.98   12.40
   2  -5   5  224.28   11.90
   3   2   5  255.37   11.50
   3   2   5  244.68   11.80
   2  -5   5  239.98   11.50
   3   2   5  243.58    9.70
   3   2   5  265.87   10.80
   2  -5   5  237.18   10.30
   3   2   5  240.78   12.40
   2  -5   5  249.97   10.70
   2  -5   5  246.98   12.10
  -5   3   5  248.28   10.90
  -5   3   5  234.28   11.20
   4  -3  -5  339.47   13.40
  -3  -1  -5  351.66   15.20
  -1   4  -5  339.07   15.20
   4  -3  -5  368.46   15.40
  -1   4  -5  374.46   14.90
   4  -3  -5  355.16   15.80
   4  -3  -5  366.56   13.90
  -3  -1  -5  346.97   14.90
  -1   4  -5  352.36   15.80
   4  -3  -5  326.07   13.30
  -1   4  -5  354.36   13.80
   4  -3  -5  344.57   15.00
  -1   4  -5  351.36   15.10
   4  -3  -5  359.36   15.40
  -3  -1  -5  384.26   14.40
  -3  -1  -5  343.07   14.20
   4  -3  -5  342.07   14.00
  -1   4  -5  354.86   15.10
   3   1   5  371.66   14.60
   1  -4   5  359.16   14.20
   1  -4   5  345.57   15.20
   3   1   5  381.26   15.60
  -4   3   5  314.67   14.70
   3   1   5  366.96   14.90
   1  -4   5  324.07   15.40
   3   1   5  375.96   15.40
   3   1   5  371.26   14.60
  -4   3   5  335.87   15.00
   1  -4   5  359.06   14.90
   1  -4   5  373.56   13.90
  -4   3   5  341.77   14.10
   1  -4   5  385.96   15.00
   3   1   5  359.86   15.90
   3  -3  -5  310.27   11.80
  -3   0  -5  327.77   12.50
   3  -3  -5  307.37   12.70
   0   3  -5  309.07   13.20
   3  -3  -5  339.57   12.20
   3  -3  -5  332.77   13.80
   0   3  -5  339.67   13.50
   3  -3  -5  309.77   13.50
   3  -3  -5  320.67   14.00
   0   3  -5  315.47   13.70
   0   3  -5  337.87   14.20
  -3   0  -5  275.27   14.20
  -3   0  -5  306.67   13.30
   0   3  -5  340.57   13.40
   0   3  -5  321.17   12.50
   3  -3  -5  332.27   13.90
  -3   0  -5  307.27   13.90
  -3   0  -5  300.57   12.90
  -3   3   5  299.27   13.40
  -3   3   5  311.07   12.00
  -3   3   5  310.47   13.50
   0  -3   5  331.37   13.20
   3   0   5  334.77   13.30
   3   0   5  322.97   13.40
   0  -3   5  338.07   13.50
   3   0   5  297.87   14.00
   0  -3   5  303.27   13.80
   3   0   5  320.97   13.70
   0  -3   5  305.67   12.30
   0  -3   5  301.87   13.00
   3   0   5  314.07   12.60
   0  -3   5  316.37   13.40
  -3   1  -5  114.09    6.20
   2  -3  -5  123.59    6.80
   1   2  -5  130.29    7.00
   2  -3  -5  124.19    5.20
   1   2  -5  119.49    6.20
   2  -3  -5  111.29    7.20
   1   2  -5  127.29    5.80
  -3   1  -5  120.99    4.80
   2  -3  -5  124.99    6.10
  -3   1  -5  123.39    5.20
   1   2  -5  119.29    6.10
   2  -3  -5  123.29    6.90
   2  -3  -5  131.89    7.00
  -3   1  -5  117.89    6.70
   2  -3  -5  116.89    4.90
  -3   1  -5  108.79    6.80
  -3   1  -5  123.39    6.80
   1   2  -5  105.49    7.10
   1   2  -5  125.29    6.70
   3  -1   5  122.99    6.30
  -1  -2   5  120.39    7.50
  -2   3   5  116.49    6.70
  -1  -2   5  131.59    4.80
  -2   3   5  128.39    5.40
   3  -1   5  126.89    6.70
  -2   3   5  120.19    6.70
   3  -1   5  127.79    5.40
   3  -1   5  129.19    6.40
  -1  -2   5  126.09    6.40
  -1  -2   5  116.99    6.10
  -1  -2   5  120.59    6.40
  -2   3   5  117.99    4.90
  -2   3   5  113.89    6.60
   3  -1   5  116.49    6.80
  -1  -2   5  141.89    6.60
  -2   3   5  122.59    6.20
   1  -3  -5  120.69    5.60
   1  -3  -5  111.09    7.70
   2   1  -5  127.89    5.80
   1  -3  -5  130.29    6.70
   2   1  -5  129.69    6.90
   2   1  -5  121.49    6.70
   1  -3  -5  116.39    6.40
   1  -3  -5  131.59    7.10
  -3   2  -5  122.09    5.50
   2   1  -5  119.29    6.10
   2   1  -5  114.39    6.60
   1  -3  -5  130.69    6.80
  -3   2  -5  115.99    6.60
  -3   2  -5  130.89    6.80
   2   1  -5  124.49    5.90
  -2  -1   5  131.49    6.40
   3  -2   5  124.59    6.10
  -1   3   5  122.19    6.40
  -1   3   5  122.29    6.40
  -2  -1   5  115.39    5.80
   3  -2   5   97.59    6.50
   3  -2   5  136.29    5.40
  -1   3   5  108.49    7.10
   3  -2   5  116.49    6.90
  -1   3   5  121.09    5.10
   3  -2   5  134.59    6.50
   3  -2   5  119.79    6.60
  -1   3   5  105.19    6.70
   3   0  -5  299.07   13.40
   3   0  -5  295.77   13.00
   0  -3  -5  309.67   13.20
  -3   3  -5  325.87   13.30
  -3   3  -5  313.47   13.60
   0  -3  -5  331.57   13.80
   0  -3  -5  336.37   13.50
   3   0  -5  340.27   13.10
   0  -3  -5  337.37   13.20
   0  -3  -5  312.47   12.80
  -3   3  -5  275.27   12.60
  -3   3  -5  323.47   14.00
   3   0  -5  328.37   12.20
   3   0  -5  330.97   13.40
  -3   3  -5  275.77   13.60
   0  -3  -5  312.27   13.10
   0   3   5  294.67   13.30
   0   3   5  305.87   13.00
   0   3   5  320.77   13.40
   3  -3   5  351.16   12.60
   3  -3   5  297.07   13.70
   3  -3   5  318.37   12.80
   0   3   5  302.37   13.80
   0   3   5  305.07   12.90
   3  -3   5  302.57   13.20
   0   3   5  320.77   12.10
   3  -3   5  309.07   13.30
  -3   0   5  289.27   12.30
  -3   0   5  350.06   13.30
  -3   0   5  306.37   13.60
   0   3   5  317.47   12.20
  -3   4  -5  351.36   14.60
   4  -1  -5  347.67   15.00
  -1  -3  -5  335.37   15.70
  -3   4  -5  362.96   14.50
   4  -1  -5  346.97   14.60
   4  -1  -5  361.26   15.50
  -1  -3  -5  365.86   15.50
  -3   4  -5  328.77   14.70
  -1  -3  -5  380.66   14.40
   4  -1  -5  369.96   14.80
   4  -1  -5  306.27   13.90
  -1  -3  -5  355.46   14.60
  -3   4  -5  356.96   15.80
  -3   4  -5  336.17   15.20
   4  -1  -5  360.66   13.20
  -1  -3  -5  386.86   15.00
   4  -1  -5  343.87   14.70
   4  -1  -5  353.76   13.20
  -1  -3  -5  353.16   14.90
  -4   1   5  354.36   15.20
   3  -4   5  340.77   15.50
   1   3   5  352.06   15.00
  -4   1   5  359.56   13.80
   3  -4   5  332.57   15.30
  -4   1   5  329.77   15.70
   1   3   5  369.06   14.10
   1   3   5  362.46   15.10
   3  -4   5  376.66   14.40
   3  -4   5  371.56   15.10
   3  -4   5  377.56   14.50
   1   3   5  346.57   15.60
   1   3   5  347.37   14.20
   1   3   5  381.06   15.30
  -2  -3  -5  238.18   11.50
  -2  -3  -5  256.87   12.30
   5  -2  -5  248.58   11.20
   5  -2  -5  258.27   10.20
  -2  -3  -5  234.88   10.60
  -3   5  -5  232.58   11.60
   5  -2  -5  254.27   10.20
  -2  -3  -5  237.98   11.50
  -3   5  -5  247.58    9.50
   5  -2  -5  240.48   11.00
   5  -2  -5  255.27   10.00
   5  -2  -5  236.28   12.30
  -2  -3  -5  277.67   10.50
   5  -2  -5  233.78   12.10
   5  -2  -5  236.58   11.60
  -3   5  -5  249.88   10.50
  -3   5  -5  238.48   11.90
  -3   5  -5  254.77   12.70
  -2  -3  -5  245.18   11.50
   3  -5   5  237.48   10.80
   3  -5   5  229.08   12.00
   2   3   5  236.08   11.50
   3  -5   5  256.07   12.20
   2   3   5  243.28   10.40
   3  -5   5  241.88   10.20
   2   3   5  251.07   10.90
   3  -5   5  228.58   11.50
   2   3   5  263.67   12.40
  -5   2   5  241.08   11.30
   2   3   5  248.68   11.90
  -5   2   5  240.78   11.70
   2   3   5  256.57   12.40
   3  -5   5  245.88   11.30
   6  -3  -5  248.88   10.60
  -3   6  -5  257.47   12.60
  -3  -3  -5  221.78   10.30
   6  -3  -5  241.28   12.70
  -3  -3  -5  261.27   10.20
   6  -3  -5  244.38   11.60
   6  -3  -5  246.88   11.50
  -3  -3  -5  230.08   11.80
   6  -3  -5  249.97   10.70
  -3   6  -5  245.58   10.20
   6  -3  -5  241.18   10.40
  -3  -3  -5  248.58   12.30
  -3   6  -5  237.28   12.40
  -3   6  -5  258.57   10.30
   3  -6   5  244.88    9.80
   3   3   5  247.78   11.80
   3   3   5  252.07   13.00
   3  -6   5  252.27   11.30
   3  -6   5  237.88   12.50
   3  -6   5  233.28   12.60
   3   3   5  242.68   12.00
  -6   3   5  244.48   11.50
  -6   3   5  254.47   12.00
  -4  -3  -5  143.89    9.40
   7  -4  -5  137.09    8.00
  -4  -3  -5  139.39    8.40
   7  -4  -5  147.19    8.90
   7  -4  -5  136.59    8.50
  -4  -3  -5  144.69    6.60
  -3   7  -5  137.79    9.40
  -3   7  -5  135.39    9.50
   7  -4  -5  142.99    8.10
   7  -4  -5  138.89    7.30
  -3   7  -5  124.59    7.30
   4   3   5  142.99    9.70
   3  -7   5  145.19    9.40
   3  -7   5  125.29    9.20
   4   3   5  137.29    6.70
  -7   4   5  147.89    8.80
   4   3   5  140.49    8.70
  -4  -2  -5 2101.79   73.79
   6  -4  -5 1891.01   71.29
   6  -4  -5 1923.51   72.89
   6  -4  -5 1918.01   71.39
  -2   6  -5 2002.70   73.79
   6  -4  -5 2070.39   71.79
   6  -4  -5 2025.70   71.79
   6  -4  -5 1931.81   73.09
  -4  -2  -5 1871.51   71.09
  -2   6  -5 1877.31   71.39
  -2   6  -5 2072.39   73.49
  -4  -2  -5 1966.40   72.79
  -2   6  -5 2051.79   71.59
   6  -4  -5 1991.50   71.69
   4   2   5 1964.10   72.59
  -6   4   5 2096.19   72.89
   4   2   5 2010.60   74.19
   2  -6   5 2081.59   71.79
   4   2   5 2059.89   71.39
   2  -6   5 2026.70   70.89
   2  -6   5 1951.40   73.39
  -6   4   5 1995.40   72.59
   2  -6   5 1984.70   73.69
  -1   5  -5  118.09    6.70
   5  -4  -5  105.79    8.20
   5  -4  -5  110.89    5.60
  -4  -1  -5  106.29    6.30
  -1   5  -5  103.79    5.80
  -1   5  -5  104.59    8.60
  -4  -1  -5  106.89    5.70
  -4  -1  -5  110.89    7.10
  -1   5  -5  106.99    7.70
   5  -4  -5  103.49    6.00
   5  -4  -5  118.29    5.70
  -4  -1  -5  109.09    6.70
   5  -4  -5  117.89    7.60
  -1   5  -5  108.09    6.80
   5  -4  -5  102.39    6.80
   5  -4  -5  100.79    5.70
   5  -4  -5  111.79    9.00
  -1   5  -5  104.49    7.30
   1  -5   5  107.79    7.20
   1  -5   5  113.59    5.70
   1  -5   5  113.39    5.70
   4   1   5  120.29    8.50
  -5   4   5  107.39    5.60
   4   1   5  111.29    6.40
   1  -5   5   98.59    6.70
  -5   4   5  111.89    6.70
   4   1   5  106.29    7.50
   1  -5   5  112.99    7.30
   4   1   5  114.09    6.10
   4   1   5  139.09    9.70
   4   1   5  113.29    7.50
  -5   4   5  107.39    6.70
  -4   0  -5 2329.67   85.39
   4  -4  -5 2410.56   86.49
   0   4  -5 2505.45   85.99
   0   4  -5 2341.17   86.59
   4  -4  -5 2385.76   86.49
   0   4  -5 2333.37   85.19
  -4   0  -5 2439.66   84.99
   0   4  -5 2423.16   86.99
  -4   0  -5 2333.77   86.59
   4  -4  -5 2329.07   86.79
  -4   0  -5 2503.75   87.09
   4  -4  -5 2478.65   84.39
  -4   0  -5 2326.57   86.09
   0   4  -5 2548.34   86.49
   4  -4  -5 2301.67   85.39
   0   4  -5 2232.28   86.09
   4  -4  -5 2489.75   84.79
   4  -4  -5 2465.45   86.49
   4   0   5 2405.06   85.59
   4   0   5 2240.88   86.89
   4   0   5 2434.86   86.29
   0  -4   5 2414.26   86.19
  -4   4   5 2035.20   86.79
   0  -4   5 2318.07   86.59
   0  -4   5 2373.66   85.39
   0  -4   5 2484.65   85.79
   4   0   5 2464.05   85.29
   4   0   5 2452.85   86.79
   0  -4   5 2488.85   86.59
   4   0   5 2435.56   86.19
  -4   4   5 2379.66   86.19
   0  -4   5 2452.05   84.59
  -4   1  -5  368.76   13.60
   3  -4  -5  386.06   15.50
  -4   1  -5  348.47   14.70
   3  -4  -5  348.87   14.60
  -4   1  -5  348.57   15.50
   1   3  -5  344.27   14.50
   1   3  -5  372.26   14.90
  -4   1  -5  374.16   15.70
   3  -4  -5  369.56   15.50
   3  -4  -5  349.07   15.20
   1   3  -5  370.46   15.80
   1   3  -5  367.76   15.10
   1   3  -5  340.17   15.20
  -4   1  -5  356.36   15.00
   3  -4  -5  367.66   15.80
   3  -4  -5  358.96   13.80
  -1  -3   5  333.47   15.40
   4  -1   5  331.57   15.50
  -1  -3   5  342.87   15.40
  -3   4   5  341.17   15.00
   4  -1   5  365.66   15.60
  -3   4   5  346.27   15.10
   4  -1   5  349.87   15.40
  -3   4   5  337.67   15.40
  -1  -3   5  346.37   15.00
  -1  -3   5  368.86   15.10
   4  -1   5  375.16   14.70
   4  -1   5  375.36   15.10
  -1  -3   5  359.86   14.60
   4  -1   5  346.97   13.80
  -1  -3   5  369.46   13.10
  -1  -3   5  363.86   13.20
   2  -4  -5 2964.00  101.39
  -4   2  -5 2668.13  100.79
   2   2  -5 2739.53  101.19
   2  -4  -5 2969.90  101.19
   2   2  -5 2981.30  100.49
   2   2  -5 2861.61  101.09
  -4   2  -5 2756.02   99.09
   2   2  -5 3044.00  101.49
   2  -4  -5 2623.04  100.79
   2  -4  -5 2709.03  100.39
   2  -4  -5 2459.05  100.29
   2   2  -5 2750.42  100.19
  -4   2  -5 3015.50  101.39
  -4   2  -5 2704.83  100.69
   2  -4  -5 2996.70  101.19
  -2  -2   5 2953.10  100.49
   4  -2   5 2928.31  101.39
  -2   4   5 2660.33  100.99
  -2   4   5 2677.23  100.99
  -2   4   5 2995.50  100.19
   4  -2   5 2939.51   98.99
  -2  -2   5 2728.33  100.79
   4  -2   5 2638.44  101.49
   4  -2   5 2925.11  100.59
  -2  -2   5 2748.93  100.49
  -2   4   5 2738.43  101.09
  -2   4   5 2926.11  100.69
   4  -2   5 2792.12  101.39
   4  -2   5 2952.00  100.69
   4  -2   5 2798.62   98.99
  -2  -2   5 2791.32  101.29
   3   1  -5  374.46   15.60
   3   1  -5  345.77   14.40
   1  -4  -5  361.36   15.20
  -4   3  -5  375.96   15.10
  -4   3  -5  337.37   14.00
  -4   3  -5  347.17   15.30
  -4   3  -5  353.66   14.90
   3   1  -5  366.96   14.60
   1  -4  -5  352.26   14.90
   1  -4  -5  387.66   15.40
   1  -4  -5  369.76   15.50
   3   1  -5  349.27   15.30
   1  -4  -5  348.97   15.00
   1  -4  -5  329.77   14.30
   3   1  -5  349.07   15.10
   3   1  -5  377.06   14.40
  -1   4   5  375.76   15.30
  -3  -1   5  362.66   14.60
  -3  -1   5  314.07   14.30
   4  -3   5  360.36   15.60
   4  -3   5  364.36   15.60
  -1   4   5  340.77   15.10
   4  -3   5  374.76   15.10
  -3  -1   5  363.56   15.30
   4  -3   5  376.26   13.80
  -1   4   5  341.77   15.20
  -1   4   5  380.96   14.80
  -3  -1   5  333.77   15.20
   4  -3   5  353.36   15.10
   4  -3   5  376.36   14.70
  -1   4   5  334.37   15.40
  -4   4  -5 2610.84   86.89
  -4   4  -5 2298.37   86.39
   4   0  -5 2307.47   85.99
   0  -4  -5 2476.75   86.29
  -4   4  -5 2284.27   85.59
  -4   4  -5 2545.05   85.49
   4   0  -5 2386.16   84.89
   4   0  -5 2401.26   85.49
   0  -4  -5 2484.25   86.09
   0  -4  -5 2399.86   85.89
   4   0  -5 2410.16   86.49
   0  -4  -5 2485.95   85.69
  -4   4  -5 2375.56   85.49
   4   0  -5 2441.96   85.99
   4   0  -5 2248.88   85.29
   0  -4  -5 2332.97   85.79
   0   4   5 2251.47   85.99
   0   4   5 2445.66   86.59
   0   4   5 2197.88   86.89
   4  -4   5 2339.77   86.49
   0   4   5 2438.06   85.99
   4  -4   5 2299.67   86.49
   4  -4   5 2555.64   85.09
   4  -4   5 2446.06   85.49
  -4   0   5 2320.07   86.29
   0   4   5 2416.96   84.39
  -4   0   5 2343.07   86.09
   4  -4   5 2353.16   85.49
   4  -4   5 2355.16   85.89
  -4   0   5 2322.97   85.09
   0   4   5 2406.96   85.99
   0   4   5 2370.26   84.39
   5  -1  -5  103.39    6.70
  -1  -4  -5  122.29    7.60
  -1  -4  -5  114.09    6.50
  -4   5  -5   95.19    8.20
  -1  -4  -5  115.19    6.90
   5  -1  -5  121.49    6.00
  -4   5  -5   98.99    6.70
  -4   5  -5  106.69    7.10
   5  -1  -5  106.49    7.00
  -1  -4  -5  108.19    6.70
  -1  -4  -5  101.69    6.40
  -4   5  -5  112.39    6.00
   5  -1  -5  109.79    4.80
   5  -1  -5  105.39    4.70
  -5   1   5  106.49    6.90
   1   4   5  101.99    6.90
   4  -5   5  107.89    6.70
   4  -5   5  113.19    7.50
  -5   1   5  106.79    6.00
   4  -5   5  102.69    7.20
   1   4   5  110.79    6.40
   1   4   5  120.49    7.90
  -5   1   5  104.69    6.90
   1   4   5  106.49    7.30
   1   4   5  115.39    5.90
   4  -5   5  105.29    6.70
   6  -2  -5 1978.20   72.29
  -2  -4  -5 1976.60   73.89
   6  -2  -5 2019.60   72.99
   6  -2  -5 2096.09   73.49
  -2  -4  -5 2019.80   72.49
  -4   6  -5 2223.08   71.69
  -4   6  -5 1929.91   74.39
   6  -2  -5 2024.00   73.69
  -4   6  -5 1961.00   73.99
   6  -2  -5 2032.70   71.59
  -2  -4  -5 1951.40   73.49
   6  -2  -5 2046.90   71.59
  -2  -4  -5 2101.29   72.39
   6  -2  -5 1956.20   73.29
   2   4   5 2089.29   72.89
   2   4   5 2024.80   74.69
   4  -6   5 2043.40   71.49
   4  -6   5 1987.50   74.39
   2   4   5 1982.30   72.59
   2   4   5 2004.70   73.89
   4  -6   5 1910.01   74.49
  -6   2   5 1908.41   73.79
  -6   2   5 2023.60   73.59
  -6   2   5 2030.40   72.79
   7  -3  -5  150.38    7.30
  -4   7  -5  127.69    9.20
  -3  -4  -5  154.28    7.50
  -3  -4  -5  122.19    8.80
  -4   7  -5  127.89    9.20
  -3  -4  -5  134.39    6.80
   7  -3  -5  140.09    8.20
  -4   7  -5  130.19    6.50
   7  -3  -5  132.19    8.10
  -3  -4  -5  127.09    8.30
   7  -3  -5  139.19    7.00
  -7   3   5  141.39    8.70
   3   4   5  133.89    7.50
   3   4   5  134.29    9.50
   4  -7   5  140.29    9.40
   3   4   5  139.09    9.00
   3   4   5  139.39   10.10
  -7   3   5  132.29    8.50
   4  -7   5  138.39    9.70
  -4   8  -5 1520.75   55.29
   8  -4  -5 1523.35   56.99
  -4  -4  -5 1508.65   57.19
   8  -4  -5 1526.25   56.49
  -4   8  -5 1500.85   58.79
  -4  -4  -5 1529.55   54.29
   8  -4  -5 1538.25   55.59
   8  -4  -5 1495.35   56.29
  -4  -4  -5 1543.25   55.09
  -4   8  -5 1557.44   58.69
  -4  -4  -5 1509.25   58.49
   4   4   5 1546.75   59.09
   4  -8   5 1526.25   57.99
   4   4   5 1509.85   55.39
   4   4   5 1525.75   57.79
   4  -8   5 1510.85   58.79
  -4   9  -5  116.99   10.60
  -4   9  -5   96.49   10.90
   9  -5  -5  113.29    7.70
  -4   9  -5  117.89    8.40
  -5  -4  -5  103.99    8.80
  -5  -4  -5  116.19   10.30
   9  -5  -5  110.99    8.80
   4  -9   5   93.79   10.20
   4  -9   5  123.69    9.60
   5   4   5   99.39   10.30
   5   4   5  116.39    7.30
   4  -9   5  121.59    8.80
   5   4   5  107.59    9.40
  -5  -3  -5  164.28   11.10
   8  -5  -5  157.78    8.70
  -3   8  -5  169.68    9.10
   8  -5  -5  157.28   10.00
  -5  -3  -5  152.38    9.90
   8  -5  -5  168.18    9.20
  -3   8  -5  167.08   11.40
  -3   8  -5  151.08   10.70
   8  -5  -5  160.88   10.30
   5   3   5  147.39    9.80
   3  -8   5  149.39   10.30
   3  -8   5  167.18   11.40
   3  -8   5  160.58    9.30
   5   3   5  161.28    7.40
   5   3   5  159.88   11.40
  -2   7  -5  213.28   12.10
   7  -5  -5  244.28   11.10
  -2   7  -5  237.48   10.70
  -5  -2  -5  220.78   11.50
  -2   7  -5  239.18   10.90
   7  -5  -5  216.78   10.60
  -5  -2  -5  193.58   10.30
   7  -5  -5  223.88   10.60
  -5  -2  -5  216.58   12.50
  -2   7  -5  202.18   12.40
   7  -5  -5  215.98   10.80
   5   2   5  224.68   11.50
  -7   5   5  217.78   11.20
  -7   5   5  242.88   11.60
   2  -7   5  220.48   12.20
   2  -7   5  243.78   10.90
   2  -7   5  227.08   12.80
   5   2   5  217.08   12.90
  -1   6  -5  214.78   10.30
  -5  -1  -5  212.98   10.80
  -5  -1  -5  208.98    9.20
   6  -5  -5  200.48    9.90
   6  -5  -5  211.08    9.30
   6  -5  -5  215.38   11.50
  -1   6  -5  207.88   11.70
   6  -5  -5  211.88    9.80
  -5  -1  -5  201.98   11.30
  -1   6  -5  209.08   10.90
  -1   6  -5  206.18   10.00
  -5  -1  -5  196.78   10.20
   6  -5  -5  213.88    9.70
   5   1   5  211.18   12.00
   1  -6   5  204.78    9.50
   5   1   5  225.58    9.60
   1  -6   5  208.08   10.90
   1  -6   5  221.38   11.90
  -6   5   5  202.98   10.50
   1  -6   5  220.78    9.70
   1  -6   5  194.88   11.10
  -6   5   5  206.38   10.40
   5   1   5  201.48   10.30
  -5   0  -5  182.08    9.30
   5  -5  -5  190.88    7.40
   5  -5  -5  179.38    9.90
   0   5  -5  197.38    9.30
   5  -5  -5  176.78    8.40
   0   5  -5  157.98    9.80
  -5   0  -5  164.28    8.30
  -5   0  -5  178.08   10.00
   5  -5  -5  172.58    8.70
   5  -5  -5  184.48    8.30
  -5   0  -5  165.28    8.30
   0   5  -5  174.58    9.10
   0   5  -5  185.78    8.80
   0  -5   5  188.68    9.10
   0  -5   5  172.18    9.90
  -5   5   5  170.58    9.30
   5   0   5  179.48    8.70
   0  -5   5  186.58    7.80
  -5   5   5  177.78    9.00
   5   0   5  167.68   10.20
   5   0   5  184.08    8.70
   0  -5   5  176.58    9.90
   0  -5   5  177.68    7.90
   0  -5   5  171.88    8.50
   1   4  -5  103.09    6.20
  -5   1  -5  111.99    7.50
   4  -5  -5  119.49    7.30
   1   4  -5  118.39    7.10
   4  -5  -5  108.39    9.00
   1   4  -5  101.39    7.10
   1   4  -5  114.89    7.40
   4  -5  -5  115.29    5.80
  -5   1  -5  104.19    6.60
   4  -5  -5  112.59    6.30
   1   4  -5  107.79    6.20
  -4   5   5  103.19    7.30
  -4   5   5   96.39    6.70
  -1  -4   5  112.79    4.90
   5  -1   5  108.49    6.30
  -1  -4   5  102.79    7.20
  -1  -4   5  100.69    6.20
  -4   5   5   93.49    7.20
  -1  -4   5  114.09    4.90
  -1  -4   5  104.09    6.90
   5  -1   5  101.49    7.20
   5  -1   5   98.79    5.60
  -1  -4   5  108.09    6.20
   2   3  -5  259.47   11.60
   3  -5  -5  252.87   12.70
   2   3  -5  235.38   10.90
   2   3  -5  254.97   12.60
   2   3  -5  264.57   11.90
   2   3  -5  243.68   11.80
   2   3  -5  244.68   10.60
   3  -5  -5  240.48   11.60
   3  -5  -5  257.57   11.70
   3  -5  -5  251.97   10.60
  -5   2  -5  236.78   11.30
  -5   2  -5  246.68   11.50
   3  -5  -5  242.48   11.10
   3  -5  -5  249.38   12.60
   3  -5  -5  260.87   12.30
  -2  -3   5  244.68   12.00
  -2  -3   5  256.37   10.90
   5  -2   5  241.98   11.90
   5  -2   5  241.18   12.00
  -2  -3   5  227.28   11.50
  -2  -3   5  238.18   11.70
   5  -2   5  237.48   11.40
   5  -2   5  236.48    9.80
   5  -2   5  239.28   12.40
  -3   5   5  237.48   11.30
  -3   5   5  262.37   11.00
  -3   5   5  243.28   12.10
   5  -2   5  254.17   11.20
  -2  -3   5  251.77   11.30
  -3   5   5  236.78   11.70
   2  -5  -5  249.78   10.70
   2  -5  -5  233.48   12.00
   2  -5  -5  249.08   12.20
   2  -5  -5  230.78   11.00
   3   2  -5  221.48   11.40
  -5   3  -5  244.58   11.50
   3   2  -5  234.18   12.10
   3   2  -5  245.88   10.90
   3   2  -5  257.27   12.10
  -5   3  -5  237.88   11.20
   3   2  -5  245.08   10.30
   2  -5  -5  245.38   11.40
   3   2  -5  252.87   11.10
   2  -5  -5  255.17   11.40
  -5   3  -5  235.38    9.90
   5  -3   5  223.68   12.00
  -2   5   5  252.97   11.20
  -3  -2   5  224.58   12.10
  -3  -2   5  241.68   11.80
   5  -3   5  230.68    9.80
   5  -3   5  244.18   11.30
  -3  -2   5  239.38   11.40
  -3  -2   5  256.57   10.60
  -2   5   5  241.28   11.50
  -3  -2   5  248.08   11.60
   5  -3   5  254.57   11.30
  -2   5   5  228.18   11.40
   5  -3   5  247.18   12.00
  -2   5   5  240.98   11.70
  -2   5   5  227.68   11.50
   5  -3   5  231.48   11.50
   1  -5  -5  115.19    6.60
  -5   4  -5   98.69    7.00
  -5   4  -5  106.79    6.70
   1  -5  -5  107.19    6.60
   4   1  -5  118.79    6.60
   4   1  -5  109.59    5.80
   1  -5  -5  105.69    6.70
   4   1  -5  107.99    6.80
   1  -5  -5  100.49    7.50
  -5   4  -5  104.39    6.10
   1  -5  -5  115.19    7.00
   5  -4   5  103.29    6.60
   5  -4   5  105.99    7.00
  -4  -1   5  103.89    7.10
  -4  -1   5  103.59    6.80
  -1   5   5  115.69    7.30
   5  -4   5  126.69    6.00
  -1   5   5  116.89    7.40
  -1   5   5   97.99    7.00
   5  -4   5  104.39    7.40
  -1   5   5  108.39    6.90
  -5   5  -5  164.58    9.70
   0  -5  -5  166.08    9.10
   0  -5  -5  170.58    9.20
   0  -5  -5  168.58    9.50
   0  -5  -5  184.28    8.90
  -5   5  -5  170.38    9.20
   5   0  -5  157.88    9.00
  -5   5  -5  170.38    9.20
   5   0  -5  173.68    8.40
   0  -5  -5  191.68    9.80
   5   0  -5  175.08    8.80
  -5   0   5  130.19   11.60
   0   5   5  178.48    7.80
   0   5   5  168.88    9.50
   5  -5   5  187.58    8.80
   0   5   5  168.48    9.10
   5  -5   5  181.18    8.70
  -5   0   5  186.18    9.80
   5  -5   5  161.98    9.90
   5  -5   5  169.18    9.80
  -5   0   5  169.78    9.50
   0   5   5  175.08   10.00
   0   5   5  180.78    9.80
   6  -1  -5  204.48   10.20
   6  -1  -5  211.48   10.10
   6  -1  -5  204.58    8.50
   6  -1  -5  212.58    8.20
  -1  -5  -5  207.68   10.60
  -1  -5  -5  202.98   10.60
  -5   6  -5  218.48   11.20
  -1  -5  -5  225.08   10.70
  -5   6  -5  206.98   11.50
   6  -1  -5  207.18   10.60
  -1  -5  -5  209.28   10.10
   6  -1  -5  208.28   10.80
  -1  -5  -5  205.08   10.90
  -6   1   5  211.78   11.20
   5  -6   5  214.88   11.60
   1   5   5  209.78   10.40
  -6   1   5  197.68   11.00
   1   5   5  206.18    9.70
   1   5   5  201.08   11.30
   5  -6   5  203.48   11.70
   5  -6   5  195.68    9.20
   1   5   5  201.28   11.10
   5  -6   5  194.28   10.80
  -6   1   5  209.28   10.50
   7  -2  -5  210.28   11.20
  -5   7  -5  223.48   12.80
  -5   7  -5  200.38   12.30
  -2  -5  -5  223.68   11.60
  -2  -5  -5  228.48   11.20
  -2  -5  -5  225.98   10.80
   7  -2  -5  223.38   11.60
  -2  -5  -5  211.98   12.00
   7  -2  -5  229.08    9.70
   7  -2  -5  225.08    9.40
   7  -2  -5  220.58   10.80
   7  -2  -5  238.48   12.10
   2   5   5  207.48   12.00
  -7   2   5  235.78   11.40
   2   5   5  225.88   11.10
   2   5   5  231.78   12.80
   2   5   5  223.38   11.50
  -7   2   5  219.78   11.90
   5  -7   5  212.48   12.50
   5  -7   5  216.38   12.80
   8  -3  -5  173.08    9.60
  -3  -5  -5  169.48   10.90
  -3  -5  -5  166.28   10.20
   8  -3  -5  157.38   10.50
   8  -3  -5  160.18   10.00
  -3  -5  -5  161.28    9.50
  -5   8  -5  166.58   11.60
  -5   8  -5  168.58    7.30
  -3  -5  -5  150.38    7.80
  -5   8  -5  166.78   11.70
  -3  -5  -5  165.38    8.50
   8  -3  -5  156.68    8.90
   8  -3  -5  161.08    8.10
   3   5   5  153.18   10.50
   3   5   5  155.08   11.30
   3   5   5  170.58    9.30
   5  -8   5  168.58   11.10
   5  -8   5  166.48   11.60
  -8   3   5  168.08   10.50
   9  -4  -5  107.09    8.50
  -4  -5  -5  112.69   10.00
  -5   9  -5  104.39    7.10
   9  -4  -5  113.19    9.00
   9  -4  -5  109.59    7.20
  -5   9  -5  116.19   11.40
  -5   9  -5  114.69   10.60
  -4  -5  -5  123.39    9.00
   5  -9   5  106.79   10.90
   4   5   5   97.49   10.00
   4   5   5  112.19    9.80
   5  -9   5  117.69    9.80
   4   5   5  118.99    8.20
   9  -6  -5  104.39    7.60
   9  -6  -5   86.19    7.80
   9  -6  -5   84.69    8.40
  -3   9  -5   79.89    8.50
  -3   9  -5   85.19   10.00
  -6  -3  -5   99.09    8.20
  -6  -3  -5  101.39    9.80
  -3   9  -5   92.19    9.90
   3  -9   5   77.49    9.20
   6   3   5   88.79    8.80
   3  -9   5  103.99   10.50
   6   3   5   84.99    9.90
   3  -9   5   97.29    7.90
   8  -6  -5 1498.55   55.29
   8  -6  -5 1501.75   55.19
  -2   8  -5 1481.85   55.59
   8  -6  -5 1474.95   54.69
  -6  -2  -5 1468.65   57.59
  -2   8  -5 1394.76   57.69
  -6  -2  -5 1515.75   56.19
   8  -6  -5 1426.06   55.29
  -2   8  -5 1514.25   56.89
   6   2   5 1466.05   58.19
   6   2   5 1526.25   56.29
   2  -8   5 1516.85   55.29
  -8   6   5 1480.05   55.79
   2  -8   5 1514.55   57.99
   2  -8   5 1560.04   56.99
  -1   7  -5  121.99    7.90
   7  -6  -5  110.39    6.80
  -1   7  -5  120.19    7.90
   7  -6  -5  112.49    8.00
  -1   7  -5  101.09    8.10
  -1   7  -5   91.59    8.90
  -6  -1  -5  115.49    9.00
  -6  -1  -5  114.29    7.80
   7  -6  -5  114.59    7.30
   7  -6  -5  115.99    7.30
  -6  -1  -5  108.59    5.90
   1  -7   5  104.09    9.00
   1  -7   5  121.69    7.60
   1  -7   5  107.09    8.50
   6   1   5  122.99    6.50
  -7   6   5  107.19    7.60
   1  -7   5  112.89    7.00
   6   1   5  115.79    9.40
   6   1   5  107.19    7.60
  -7   6   5  103.89    7.40
  -6   0  -5 1601.34   58.79
   6  -6  -5 1583.84   57.79
   6  -6  -5 1638.54   59.29
   0   6  -5 1712.13   59.69
   6  -6  -5 1599.34   59.59
   6  -6  -5 1642.44   59.09
   6  -6  -5 1657.73   60.29
   0   6  -5 1639.54   59.79
  -6   0  -5 1598.94   60.09
   6  -6  -5 1669.73   57.89
   0   6  -5 1629.74   61.49
   0   6  -5 1671.73   59.99
  -6   0  -5 1576.04   61.39
   6   0   5 1613.64   59.39
  -6   6   5 1627.44   59.49
   6   0   5 1568.24   61.69
   0  -6   5 1621.74   59.59
   6   0   5 1692.43   58.99
   0  -6   5 1659.93   58.39
  -6   6   5 1607.64   60.19
   0  -6   5 1551.24   59.29
   0  -6   5 1594.84   61.19
   0  -6   5 1559.94   60.69
   1   5  -5  222.38   11.00
   5  -6  -5  201.08   10.30
  -6   1  -5  205.98   11.70
  -6   1  -5  199.38   10.60
  -6   1  -5  210.38   10.10
   1   5  -5  199.28   11.50
   5  -6  -5  221.38   11.30
   1   5  -5  202.38   10.20
   1   5  -5  219.18   10.50
   6  -1   5  214.38   11.80
   6  -1   5  216.88   10.20
   6  -1   5  210.68    9.80
  -5   6   5  215.88   11.80
  -5   6   5  202.38   10.10
  -1  -5   5  196.48   11.20
  -1  -5   5  212.28    8.70
  -1  -5   5  215.98   10.20
  -1  -5   5  210.38   11.40
  -5   6   5  199.98   11.00
  -1  -5   5  210.58    8.90
   4  -6  -5 1980.70   72.79
   4  -6  -5 2045.90   72.79
   2   4  -5 1954.60   73.69
  -6   2  -5 2033.40   73.29
   2   4  -5 2032.70   71.99
   2   4  -5 2011.20   72.79
  -6   2  -5 1986.00   72.79
   2   4  -5 2004.20   73.19
  -4   6   5 1937.41   72.49
   6  -2   5 1860.51   73.69
   6  -2   5 1991.90   71.39
  -2  -4   5 2034.10   73.69
  -2  -4   5 2013.80   73.89
  -2  -4   5 1951.10   72.79
  -4   6   5 1978.70   73.49
   6  -2   5 1940.11   73.89
  -2  -4   5 2150.48   72.19
  -4   6   5 1986.50   74.09
   6  -2   5 2154.58   72.69
   3   3  -5  240.98   11.50
   3  -6  -5  249.28   11.70
  -6   3  -5  244.48   12.00
   3  -6  -5  244.98   11.40
   3   3  -5  251.57   12.30
   3   3  -5  239.78   12.20
  -6   3  -5  257.77   12.00
   3  -6  -5  239.88   11.70
   3   3  -5  254.67   10.60
  -3  -3   5  239.28   11.80
   6  -3   5  245.88   12.70
  -3  -3   5  241.28   12.50
  -3   6   5  254.67   12.40
  -3   6   5  253.57   12.10
   6  -3   5  254.77   12.40
  -3   6   5  230.48   11.50
  -3  -3   5  245.18   12.20
   6  -3   5  245.38    9.70
   6  -3   5  242.08   11.80
  -3  -3   5  251.47   10.80
   6  -3   5  248.68    9.60
  -3   6   5  261.87   12.80
   6  -3   5  262.77    9.60
   2  -6  -5 1983.30   73.29
   2  -6  -5 2110.29   72.89
   2  -6  -5 2116.29   72.99
  -6   4  -5 2020.50   71.99
   4   2  -5 1943.51   72.79
   4   2  -5 1891.91   73.39
  -6   4  -5 1984.00   73.29
   2  -6  -5 1965.90   73.09
   4   2  -5 2028.90   71.69
   4   2  -5 2141.59   73.19
  -6   4  -5 1981.60   73.79
   6  -4   5 1951.90   74.09
  -2   6   5 2043.20   73.39
  -2   6   5 1870.71   73.19
  -2   6   5 1983.80   73.79
  -4  -2   5 2017.00   73.99
   6  -4   5 2012.20   73.29
  -2   6   5 1974.90   73.89
  -4  -2   5 1970.10   73.49
   6  -4   5 2128.69   71.59
  -4  -2   5 1987.60   73.39
   5   1  -5  203.78   10.70
   1  -6  -5  200.18   11.50
   1  -6  -5  202.48   10.20
  -6   5  -5  203.08   10.30
   5   1  -5  209.68   10.70
   1  -6  -5  218.68   10.80
  -6   5  -5  203.28   10.70
   5   1  -5  189.48   10.10
  -6   5  -5  198.58   11.10
   1  -6  -5  204.58   10.50
   5   1  -5  207.28    9.10
   1  -6  -5  213.08   10.60
  -5  -1   5  204.68   11.00
  -1   6   5  194.98   11.00
   6  -5   5  208.18    9.70
   6  -5   5  207.08   10.60
  -1   6   5  208.08   11.80
  -5  -1   5  205.68   11.20
  -1   6   5  201.58   11.00
   6  -5   5  206.28   11.30
  -5  -1   5  190.78   10.50
  -1   6   5  199.58   10.90
  -6   6  -5 1575.54   60.79
   6   0  -5 1494.75   59.39
  -6   6  -5 1601.44   59.59
   6   0  -5 1632.74   58.39
   0  -6  -5 1591.94   59.29
   0  -6  -5 1527.85   59.69
   0  -6  -5 1651.03   59.69
   6   0  -5 1634.44   58.19
   6   0  -5 1610.24   59.09
   0  -6  -5 1610.44   58.99
   6  -6   5 1495.25   60.69
  -6   0   5 1626.64   60.39
   0   6   5 1689.53   57.79
   0   6   5 1539.25   60.19
   0   6   5 1532.45   59.89
   6  -6   5 1593.24   58.39
  -6   0   5 1722.83   59.69
   6  -6   5 1650.93   60.59
   6  -6   5 1647.24   58.89
   0   6   5 1631.34   59.89
  -6   7  -5  124.69    9.10
   7  -1  -5  120.99    5.80
   7  -1  -5  104.49    8.10
  -1  -6  -5  110.79    8.30
   7  -1  -5  110.39    7.90
  -1  -6  -5  114.39    8.30
   7  -1  -5  118.79    5.30
   7  -1  -5  112.19    9.00
   7  -1  -5  108.79    7.10
  -1  -6  -5  122.39    8.10
  -1  -6  -5  124.89    7.30
  -6   7  -5  108.49    9.30
   1   6   5  119.69    7.90
   6  -7   5  114.59    9.30
   1   6   5  105.39    8.80
   1   6   5  111.19    8.10
   6  -7   5  110.89    9.00
   1   6   5  110.89    8.70
   6  -7   5  115.99    6.00
  -7   1   5  119.89    8.30
  -7   1   5  107.59    8.70
   8  -2  -5 1439.56   53.79
   8  -2  -5 1479.75   56.59
  -2  -6  -5 1509.45   57.49
   8  -2  -5 1495.45   55.39
  -6   8  -5 1527.05   58.59
  -2  -6  -5 1500.35   56.69
   8  -2  -5 1371.56   55.69
  -2  -6  -5 1496.75   54.99
  -2  -6  -5 1537.65   54.89
   8  -2  -5 1531.45   54.09
  -6   8  -5 1472.35   57.69
  -8   2   5 1532.75   57.29
   2   6   5 1497.35   56.19
   6  -8   5 1533.95   57.69
   2   6   5 1524.95   56.99
   2   6   5 1520.85   57.89
   2   6   5 1522.85   57.59
  -8   2   5 1559.44   56.69
   6  -8   5 1426.26   58.19
   9  -3  -5   91.99    8.20
  -6   9  -5   98.19   11.00
  -3  -6  -5   87.59    5.80
  -6   9  -5   82.99   10.30
  -3  -6  -5  106.49    9.50
   9  -3  -5  107.89    8.20
   9  -3  -5   91.69    6.40
  -3  -6  -5   93.89    8.60
   3   6   5   81.69    9.80
   6  -9   5   99.29   10.80
   6  -9   5   80.59    9.40
   3   6   5   98.49    9.40
   3   6   5   95.79    8.50
  -7  -2  -5  106.29   10.50
  -2   9  -5  105.39   10.40
   9  -7  -5   98.29    8.20
   9  -7  -5  111.29    8.60
  -2   9  -5  110.29    9.90
  -7  -2  -5   90.19    8.40
   9  -7  -5   96.09    8.50
  -2   9  -5  117.49   11.40
   2  -9   5   99.09   10.70
   7   2   5  116.69    9.60
   2  -9   5   99.29    8.40
   2  -9   5   94.49    9.90
   7   2   5  106.49   11.10
   8  -7  -5  112.29    7.80
  -7  -1  -5  108.79    8.30
  -1   8  -5   85.29    9.40
   8  -7  -5   94.89    7.20
  -1   8  -5  110.29    8.90
  -1   8  -5  101.19    8.50
  -7  -1  -5   82.49    9.20
   8  -7  -5  102.79    7.80
  -1   8  -5   99.19    8.70
   8  -7  -5   90.79    8.70
   1  -8   5   92.59    9.50
   7   1   5   84.39    9.50
  -8   7   5  100.09    8.10
   1  -8   5  109.69    7.50
   7   1   5  107.59    8.30
   1  -8   5   98.29    9.30
  -7   0  -5  122.39    9.90
   0   7  -5  139.89   10.40
   0   7  -5  121.69    9.30
   0   7  -5  117.49    8.70
   7  -7  -5  113.29    8.10
  -7   0  -5  131.29    8.80
   7  -7  -5  129.49   10.00
  -7   0  -5  131.59    7.20
   0   7  -5  136.49    8.80
   7  -7  -5  126.89    8.10
   7  -7  -5  121.59   10.80
   7  -7  -5  133.59    6.50
   0  -7   5  125.09    9.50
   7   0   5  133.59   10.30
   7   0   5  125.19    8.20
  -7   7   5  148.59    8.20
   7   0   5  127.99    7.80
   0  -7   5  131.79   10.00
  -7   7   5  120.49    8.90
   0  -7   5  136.09    7.60
   0  -7   5  122.49    7.90
   6  -7  -5  114.59    7.50
  -7   1  -5  122.09    8.10
   6  -7  -5  117.59    7.40
   1   6  -5  113.39    7.40
   6  -7  -5  119.99    9.00
  -7   1  -5  102.69    9.00
   1   6  -5  110.69    8.90
   1   6  -5  113.09    8.00
   1   6  -5  125.39    9.40
  -7   1  -5  123.89    7.50
  -6   7   5  115.29    7.20
  -1  -6   5  107.69    6.20
  -1  -6   5  103.99    6.20
  -1  -6   5  112.89    8.90
   7  -1   5  100.99    8.90
   7  -1   5  124.09    7.60
  -1  -6   5  115.19    7.70
   7  -1   5  109.79    7.20
  -6   7   5  116.29    8.30
  -1  -6   5  120.79    8.80
  -6   7   5  107.99    9.10
   5  -7  -5  212.68   11.30
  -7   2  -5  227.78   11.30
   5  -7  -5  240.08   11.20
   5  -7  -5  237.88   11.60
   2   5  -5  229.08   12.60
  -7   2  -5  236.48   11.90
   2   5  -5  194.18   12.90
   2   5  -5  226.18   11.60
  -7   2  -5  219.38   13.10
  -2  -5   5  230.78    9.20
   7  -2   5  222.48   10.30
  -2  -5   5  235.38   12.70
  -5   7   5  225.28   12.80
  -2  -5   5  228.08   12.40
  -2  -5   5  222.28   10.70
   7  -2   5  223.88   12.80
  -5   7   5  214.18   11.90
   7  -2   5  215.08   11.20
   7  -2   5  217.58   12.60
   3   4  -5  145.09    7.20
   3   4  -5  127.59    8.40
   3   4  -5  146.49    9.20
   4  -7  -5  151.68    8.60
  -7   3  -5  134.79    8.70
  -7   3  -5  159.18    9.00
   4  -7  -5  141.29    8.10
   4  -7  -5  146.79    8.40
  -4   7   5  130.09    9.50
   7  -3   5  129.19    9.10
   7  -3   5  142.39    6.80
  -3  -4   5  124.59    9.00
  -3  -4   5  133.59    9.20
  -4   7   5  130.99    8.90
   7  -3   5  147.29    9.70
  -3  -4   5  145.49    7.30
   7  -3   5  135.59    6.60
  -4   7   5  141.89    7.90
   3  -7  -5  133.69    8.30
   3  -7  -5  144.69    8.50
   4   3  -5  122.09    8.60
  -7   4  -5  143.39    8.80
   4   3  -5  139.69    8.40
   3  -7  -5  128.49    8.20
  -7   4  -5  128.39    8.90
  -3   7   5  141.89   10.90
   7  -4   5  141.59    9.50
   7  -4   5  143.59    6.60
   7  -4   5  133.19    8.90
  -4  -3   5  133.79    9.30
  -3   7   5  128.29    8.90
  -4  -3   5  142.39    9.20
  -3   7   5  152.88    9.80
  -7   5  -5  227.28   11.80
  -7   5  -5  228.38   12.40
   2  -7  -5  217.28   11.30
   5   2  -5  218.08   11.20
   2  -7  -5  207.18   11.30
   5   2  -5  228.08   11.70
   2  -7  -5  220.68   11.40
   2  -7  -5  227.08   11.30
   5   2  -5  200.08   10.00
   7  -5   5  221.38   12.40
  -5  -2   5  207.68   11.80
  -2   7   5  208.68   11.40
  -5  -2   5  217.68   12.20
   7  -5   5  210.88   11.20
  -2   7   5  217.78   12.20
  -2   7   5  220.38   12.20
   7  -5   5  229.88   10.20
   6   1  -5  120.39    6.70
  -7   6  -5  116.59    8.10
   6   1  -5  113.89    7.90
  -7   6  -5   93.39    8.60
   1  -7  -5  113.89    8.10
   6   1  -5  107.39    5.90
   6   1  -5  104.29    7.50
   1  -7  -5  105.19    7.90
   1  -7  -5  107.29    7.30
   7  -6   5  102.99    9.00
   7  -6   5  100.49    8.70
   7  -6   5  117.29    8.40
  -1   7   5  119.29    8.70
  -1   7   5  116.49    8.70
  -6  -1   5   97.99    8.70
   7  -6   5  116.09    7.90
  -1   7   5  100.29    8.40
  -6  -1   5  124.99    8.80
   7   0  -5  123.49    8.40
   0  -7  -5  137.49    9.00
  -7   7  -5  137.59    9.50
   0  -7  -5  129.79    9.30
   0  -7  -5  135.99    8.20
   7   0  -5  113.49    8.70
   7   0  -5  121.29    7.10
   7   0  -5  137.89    8.00
  -7   7  -5  127.59   10.30
  -7   0   5  125.29    9.70
   0   7   5  144.49   10.00
   7  -7   5  123.99    7.60
   7  -7   5  125.69    7.10
   7  -7   5  126.99   10.10
  -7   0   5  136.89    9.30
   0   7   5  111.69    9.10
   7  -7   5  125.59    9.90
   0   7   5  141.39    9.90
   0   7   5  129.39    8.00
   8  -1  -5  106.39    7.30
   8  -1  -5   87.69    8.20
   8  -1  -5   94.69    5.70
   8  -1  -5  103.49   11.50
   8  -1  -5  104.79    8.00
  -7   8  -5  106.49    9.90
  -1  -7  -5  104.29    9.10
  -1  -7  -5   99.19    8.40
  -1  -7  -5  104.19    9.70
  -1  -7  -5  104.99    7.50
   8  -1  -5   97.49    5.10
  -7   8  -5  105.49   10.10
   1   7   5   97.59    9.70
   1   7   5  112.69    9.20
  -8   1   5  108.19    9.50
   1   7   5   91.79    9.10
   1   7   5  118.19    9.80
   7  -8   5  107.99    9.60
  -8   1   5   94.59    8.90
   7  -8   5   91.49    9.80
  -7   9  -5  104.09   11.40
   9  -2  -5   96.69    8.30
  -2  -7  -5   97.69    9.90
  -2  -7  -5  108.59    9.30
  -2  -7  -5  104.69    7.40
  -7   9  -5  117.79   11.50
   9  -2  -5   97.79    9.00
   9  -2  -5  105.29    8.30
   7  -9   5   87.79   10.00
   2   7   5  119.59    9.70
   7  -9   5  111.59   11.90
   2   7   5  108.39   10.30
  -9   2   5  105.39   10.40
  -9   2   5   91.29   10.00
   2   7   5  100.19   10.50
   9  -8  -5  112.69    9.40
  -8  -1  -5  120.79   11.60
   1  -9   5  121.19   11.80
   0   8  -5  984.00   40.40
  -8   0  -5  988.40   42.40
   8  -8  -5 1027.80   39.60
   8  -8  -5 1034.20   40.10
  -8   0  -5 1011.10   37.50
   0   8  -5 1015.40   42.50
   0   8  -5 1061.99   40.30
  -8   0  -5 1048.70   40.50
   8   0   5 1023.60   39.80
   0  -8   5 1035.80   38.70
  -8   8   5 1017.00   40.20
   0  -8   5 1056.09   41.30
   8   0   5  998.90   42.80
   0  -8   5 1005.10   42.20
   7  -8  -5  101.89    8.00
   1   7  -5   92.29    9.50
  -8   1  -5   96.99    8.40
   1   7  -5   97.79    8.80
   7  -8  -5   89.89    7.90
   1   7  -5  101.39    8.00
  -8   1  -5   96.69    9.80
  -8   1  -5  108.09    7.40
  -1  -7   5  103.09    6.70
  -7   8   5  108.79    8.60
   8  -1   5  105.49    7.80
  -1  -7   5   94.39    9.60
  -1  -7   5  106.69    7.10
   8  -1   5  100.69   10.00
  -7   8   5  112.39    7.10
  -1  -7   5   90.59    9.30
  -1  -7   5   97.09    8.60
  -7   8   5   95.09    9.80
  -8   2  -5 1535.15   58.99
   6  -8  -5 1506.35   55.39
   6  -8  -5 1487.45   56.49
   2   6  -5 1540.85   55.09
  -8   2  -5 1499.35   56.69
   2   6  -5 1501.25   56.69
   6  -8  -5 1510.55   55.99
  -8   2  -5 1527.95   55.79
   2   6  -5 1466.45   57.79
   8  -2   5 1401.56   55.29
   8  -2   5 1511.05   58.39
  -2  -6   5 1515.45   53.69
  -2  -6   5 1495.85   53.79
   8  -2   5 1468.05   54.89
  -6   8   5 1511.05   58.39
  -6   8   5 1486.45   56.99
  -2  -6   5 1489.55   57.89
  -2  -6   5 1511.05   54.99
  -2  -6   5 1533.85   57.59
   3   5  -5  151.58   10.10
   3   5  -5  156.78    8.00
   5  -8  -5  155.38    9.60
   3   5  -5  141.49   10.50
  -8   3  -5  172.68   10.10
  -8   3  -5  161.38   10.10
   5  -8  -5  151.98    9.40
   5  -8  -5  160.68    9.70
   8  -3   5  161.88    8.90
  -5   8   5  162.88   10.60
  -5   8   5  159.78    8.30
  -3  -5   5  167.58   11.00
  -3  -5   5  158.18    8.10
   8  -3   5  156.98    8.40
  -5   8   5  165.48   11.40
   8  -3   5  159.58   10.90
  -3  -5   5  168.28   11.10
   8  -3   5  148.19   11.00
   4   4  -5 1522.55   57.49
   4   4  -5 1574.64   54.79
  -8   4  -5 1532.55   57.89
   4   4  -5 1521.15   58.29
   4  -8  -5 1528.95   57.59
   4  -8  -5 1540.75   57.29
   4  -8  -5 1579.04   55.99
  -8   4  -5 1536.25   57.99
   8  -4   5 1505.35   55.19
   8  -4   5 1497.85   58.19
  -4   8   5 1493.65   58.19
  -4  -4   5 1562.84   58.69
  -4   8   5 1533.45   59.19
  -4  -4   5 1452.05   58.29
  -4   8   5 1504.15   55.89
   8  -4   5 1643.74   55.49
   8  -4   5 1505.75   58.89
   5   3  -5  154.68   10.10
  -8   5  -5  170.78   11.00
   3  -8  -5  148.69    9.20
  -8   5  -5  152.88   10.20
   5   3  -5  147.39    9.60
   3  -8  -5  166.98   10.00
   3  -8  -5  164.98   10.10
   8  -5   5  155.28   10.10
  -3   8   5  168.58   11.30
   8  -5   5  156.38   11.00
  -3   8   5  146.59    9.60
   8  -5   5  157.08    8.40
  -3   8   5  151.08   10.60
  -5  -3   5  161.48   11.00
  -5  -3   5  164.38   10.70
  -8   6  -5 1536.35   57.39
  -8   6  -5 1518.65   58.09
  -8   6  -5 1600.24   55.99
   6   2  -5 1453.25   56.39
   2  -8  -5 1480.05   56.69
   6   2  -5 1461.95   56.79
   2  -8  -5 1523.85   56.99
   2  -8  -5 1511.75   56.59
  -6  -2   5 1520.65   57.89
   8  -6   5 1482.05   55.19
   8  -6   5 1473.65   56.19
  -6  -2   5 1500.75   57.39
  -2   8   5 1468.95   57.59
   8  -6   5 1512.45   57.89
  -2   8   5 1484.55   57.89
  -2   8   5 1482.65   56.09
  -8   7  -5  125.69    9.40
   1  -8  -5   97.39    8.30
   7   1  -5  103.19    8.60
   1  -8  -5   98.29    9.00
  -8   7  -5  110.69   10.10
   1  -8  -5  104.89    7.90
   7   1  -5  110.49    8.30
  -1   8   5  105.79    9.50
   8  -7   5   99.59    9.50
   8  -7   5   93.29   10.00
  -7  -1   5   89.39    9.30
  -1   8   5  108.79    9.80
   8  -7   5  102.09    8.20
   8  -7   5  131.79   11.10
  -7  -1   5   99.29    9.50
  -1   8   5   98.49    9.70
   8   0  -5  980.80   40.00
   0  -8  -5 1012.60   39.10
   0  -8  -5 1019.70   40.20
  -8   8  -5 1031.60   42.40
   0  -8  -5  994.60   40.70
  -8   8  -5 1030.70   40.80
   8   0  -5 1008.80   37.00
   8   0  -5  970.70   39.70
  -8   0   5  968.60   41.10
  -8   0   5 1018.40   40.70
   8  -8   5  971.80   41.90
   8  -8   5 1042.10   41.50
   0   8   5 1036.40   41.00
   0   8   5  996.90   41.20
   0   8   5 1056.69   40.70
  -1  -8  -5   83.79   10.20
   8  -9   5  104.29   11.20
  -9   1   5  115.69   11.20
   8  -9  -5  115.99    9.90
  -9   1  -5  114.39   11.80
  -1  -8   5  110.49   11.70
   2   7  -5  110.69    7.90
  -9   2  -5   93.69    8.50
   7  -9  -5  106.39    9.20
   2   7  -5  118.39   10.80
   2   7  -5  118.39   10.00
   7  -9  -5   93.99    8.80
  -9   2  -5   94.89    9.10
   9  -2   5   94.39    8.20
  -2  -7   5   92.69   10.60
  -2  -7   5  106.29   10.50
  -7   9   5  122.59    9.80
   9  -2   5  108.49   10.60
  -7   9   5   98.99   10.80
   6  -9  -5   98.39    8.60
  -9   3  -5   91.79    8.90
   3   6  -5   87.79    9.20
  -9   3  -5   95.99    8.70
   6  -9  -5   93.39    8.40
   3   6  -5   86.19    6.20
   3   6  -5   82.39    8.80
   9  -3   5   92.39    7.10
  -6   9   5   99.69    9.40
   9  -3   5  102.49   10.70
  -3  -6   5   87.09    9.90
  -6   9   5   89.99    5.90
  -3  -6   5   74.49    9.60
   9  -3   5   97.69   10.10
  -6   9   5   78.29    9.90
   5  -9  -5  122.59    9.10
   4   5  -5  111.99    9.30
   5  -9  -5  111.09    9.10
  -9   4  -5  111.99    9.50
  -9   4  -5   99.59    9.10
   4   5  -5  118.99   10.00
  -5   9   5  112.49    6.60
  -4  -5   5  106.99   10.40
  -5   9   5  108.49    9.90
  -4  -5   5  110.39   10.40
   9  -4   5  123.79   11.40
   9  -4   5  119.49   10.40
  -5   9   5  114.39   10.70
   5   4  -5   99.39    9.50
   4  -9  -5  114.69    9.00
  -9   5  -5  109.29    9.30
   5   4  -5  108.69    9.10
  -9   5  -5  109.19   10.20
   4  -9  -5  108.59    9.00
  -5  -4   5  114.09   10.90
  -4   9   5  104.99    7.10
  -4   9   5  110.59    9.70
   9  -5   5  114.89    9.70
  -5  -4   5   80.69    9.50
   9  -5   5  126.29   11.20
  -4   9   5  107.19   10.50
   6   3  -5   94.59    8.80
  -9   6  -5   96.69    9.20
   3  -9  -5   81.19    8.10
   3  -9  -5  110.89    8.90
  -9   6  -5   89.59    9.70
   6   3  -5   85.29    8.60
   3  -9  -5  100.19    9.10
  -3   9   5   67.59    8.10
  -3   9   5   98.39    8.60
  -3   9   5  104.29   10.10
   9  -6   5  107.99   10.30
  -6  -3   5  108.19   10.60
  -6  -3   5   91.19    9.90
   9  -6   5   96.79    9.00
   2  -9  -5   97.79    9.20
   2  -9  -5  115.49    9.80
   7   2  -5  106.09    9.40
   2  -9  -5  106.49    8.60
  -9   7  -5  106.59    9.30
   7   2  -5   97.09    9.10
  -9   7  -5  114.69   11.10
  -2   9   5  113.39   11.10
  -2   9   5  101.99    9.30
  -2   9   5  105.89   10.70
  -7  -2   5  108.09   10.30
   9  -7   5  112.09   11.20
  -7  -2   5  103.39   10.60
   9  -7   5   82.79   10.00
   9  -7   5   98.29    9.00
   1  -9  -5   92.19   10.00
   9  -8   5   99.79   10.90
  -8  -1   5  108.69   10.90
   0   0  -6 4068.99  140.59
   0   0  -6 3707.93  139.89
   0   0  -6 3847.91  139.29
   0   0  -6 4111.89  139.79
   0   0  -6 3770.92  138.99
   0   0  -6 4188.38  139.39
   0   0   6 4188.78  140.29
   0   0   6 3951.50  138.59
   0   0   6 3756.42  139.69
   0   0   6 4104.79  139.19
   0   0   6 3868.21  140.59
   0   0   6 3822.42  139.09
   0   1  -6  315.27   12.30
  -1   0  -6  319.57   14.00
  -1   0  -6  313.37   12.90
   1  -1  -6  320.97   13.20
   0   1  -6  338.07   14.10
   1  -1  -6  313.67   12.60
  -1   0  -6  314.87   12.70
  -1   0  -6  314.37   13.50
   1  -1  -6  342.47   13.00
   1  -1  -6  343.47   14.40
   0   1  -6  330.77   12.60
  -1   0  -6  319.67   12.50
  -1   0  -6  334.57   13.40
   1  -1  -6  276.17   13.30
   0   1  -6  320.57   13.60
   0   1  -6  313.57   13.50
   0   1  -6  303.07   13.00
   0  -1   6  328.57   12.50
   0  -1   6  293.57   13.40
  -1   1   6  314.67   13.00
   0  -1   6  326.17   13.60
   0  -1   6  300.87   13.70
   1   0   6  327.77   13.10
   0  -1   6  327.17   12.40
  -1   1   6  315.57   12.60
   0  -1   6  331.57   13.00
  -1   1   6  340.47   13.90
   1   0   6  310.77   13.30
   1   0   6  277.67   13.80
   1   0   6  309.27   12.60
   1   0   6  330.17   13.60
  -1   1   6  316.77   14.10
  -1   1  -6  317.17   14.00
   0  -1  -6  337.17   14.30
   1   0  -6  321.07   14.10
  -1   1  -6  337.87   13.70
   1   0  -6  337.27   13.40
   0  -1  -6  320.17   13.00
   0  -1  -6  334.37   13.20
  -1   1  -6  293.87   13.50
   0  -1  -6  304.17   12.80
   0  -1  -6  340.17   13.00
   1   0  -6  345.17   12.30
  -1   1  -6  314.67   12.90
   1   0  -6  307.47   13.40
   0  -1  -6  298.87   13.40
   1   0  -6  305.37   13.10
   1   0  -6  341.67   13.10
  -1   1  -6  310.47   12.70
   0  -1  -6  326.37   12.20
   0   1   6  330.37   13.70
   1  -1   6  312.87   13.60
  -1   0   6  287.77   11.70
   1  -1   6  329.97   12.80
   1  -1   6  326.57   12.30
   0   1   6  303.27   12.90
   0   1   6  337.87   12.40
   1  -1   6  341.57   12.80
  -1   0   6  300.87   13.90
   1  -1   6  328.17   13.60
  -1   0   6  296.87   12.70
   0   1   6  327.67   13.00
   1  -1   6  299.97   13.80
  -1   0   6  325.97   13.60
  -1   0   6  299.17   13.20
  -1  -1  -6  303.87   12.50
  -1  -1  -6  316.17   14.00
   2  -1  -6  301.37   13.00
  -1   2  -6  308.57   13.60
  -1  -1  -6  280.67   13.00
   2  -1  -6  293.87   12.00
  -1   2  -6  321.27   12.00
   2  -1  -6  325.97   12.90
  -1   2  -6  314.77   13.70
  -1   2  -6  311.67   12.30
  -1  -1  -6  348.97   13.00
   2  -1  -6  321.07   13.90
  -1   2  -6  300.47   12.80
  -1   2  -6  291.07   13.40
   1   1   6  311.67   13.10
   1  -2   6  299.37   13.80
   1  -2   6  311.17   13.50
   1   1   6  303.37   12.70
   1   1   6  300.67   12.80
  -2   1   6  331.27   13.70
   1  -2   6  328.27   12.30
   1  -2   6  313.67   13.20
   1   1   6  287.97   13.80
  -2   1   6  302.37   12.70
   1   1   6  323.87   12.80
   1  -2   6  309.27   12.80
  -2   1   6  301.47   13.70
  -2   1   6  314.37   12.10
   1   1   6  312.77   13.30
   1  -2   6  319.17   12.60
  -2  -1  -6  139.69    8.00
  -1   3  -6  143.09    7.60
   3  -2  -6  126.79    6.00
  -1   3  -6  129.99    6.10
  -2  -1  -6  133.59    5.80
  -2  -1  -6  121.99    6.80
   3  -2  -6  141.19    6.60
  -1   3  -6  138.39    8.00
   3  -2  -6  131.89    7.90
   3  -2  -6  129.69    7.60
  -1   3  -6  135.99    5.80
  -1   3  -6  129.89    5.70
   3  -2  -6  122.39    7.00
  -1   3  -6  128.79    7.20
  -1   3  -6  131.99    7.20
   3  -2  -6  133.29    7.40
  -2  -1  -6  148.99    6.90
  -2  -1  -6  128.19    6.90
  -2  -1  -6  134.29    6.90
   2   1   6  130.39    6.90
   2   1   6  129.19    7.10
   2   1   6  131.29    6.70
   2   1   6  132.99    7.30
   1  -3   6  139.99    6.10
  -3   2   6  123.39    6.80
   1  -3   6  124.69    6.90
   1  -3   6  147.09    7.00
   1  -3   6  122.79    6.80
   1  -3   6  138.69    7.20
  -3   2   6  120.49    6.30
   2   1   6  131.39    7.10
  -3   2   6  130.89    7.50
   2   1   6  127.29    7.80
   1  -3   6  123.79    7.50
  -2   0  -6 2337.17   87.19
   2  -2  -6 2521.95   87.39
   0   2  -6 2558.94   87.89
   2  -2  -6 2472.95   86.39
   0   2  -6 2381.06   85.89
  -2   0  -6 2408.76   85.79
  -2   0  -6 2716.33   86.49
  -2   0  -6 2426.96   87.09
   2  -2  -6 2343.27   86.39
   2  -2  -6 2329.87   87.29
   0   2  -6 2661.63   87.99
   2  -2  -6 2678.03   88.29
   2  -2  -6 2387.06   87.49
   0   2  -6 2503.55   86.19
  -2   0  -6 2602.34   88.19
  -2   0  -6 2486.45   85.89
  -2   0  -6 2401.66   86.99
   0  -2   6 2371.56   86.69
  -2   2   6 2274.07   88.39
  -2   2   6 2357.56   87.09
   0  -2   6 2301.67   87.59
   2   0   6 2428.66   88.09
  -2   2   6 2294.57   86.19
   2   0   6 2328.67   86.49
   2   0   6 2284.87   86.89
   2   0   6 2304.77   87.19
  -2   2   6 2549.54   86.59
   0  -2   6 2103.59   86.29
   2   0   6 2492.35   87.39
   2   0   6 2561.24   87.19
   0  -2   6 2559.84   86.99
   0  -2   6 2402.16   87.49
   0  -2   6 2509.35   87.29
   1   1  -6  297.77   13.30
   1   1  -6  317.77   12.40
   1  -2  -6  305.47   12.50
   1  -2  -6  294.87   12.50
  -2   1  -6  284.07   12.60
   1   1  -6  303.27   11.50
   1  -2  -6  283.87   13.30
   1   1  -6  284.07   13.00
   1  -2  -6  291.57   11.40
   1   1  -6  306.17   13.60
  -2   1  -6  307.47   12.00
  -2   1  -6  330.27   12.00
   1  -2  -6  322.37   13.20
  -2   1  -6  311.77   13.70
  -2   1  -6  310.67   13.40
   1  -2  -6  320.17   13.90
   1  -2  -6  307.77   13.10
  -1   2   6  308.17   12.70
  -1  -1   6  309.47   12.00
  -1  -1   6  316.57   11.70
   2  -1   6  308.37   13.10
  -1   2   6  334.27   13.60
  -1  -1   6  280.67   13.20
  -1   2   6  312.87   11.60
   2  -1   6  320.57   12.90
  -1  -1   6  310.37   13.30
   2  -1   6  309.87   11.80
  -1   2   6  308.67   12.20
   2  -1   6  285.67   13.60
   2  -1   6  338.07   12.80
   0  -2  -6 2291.27   86.09
  -2   2  -6 2383.96   87.49
   2   0  -6 2327.67   87.19
   2   0  -6 2366.86   85.59
   2   0  -6 2283.97   87.09
   2   0  -6 2439.36   86.79
   0  -2  -6 2567.34   88.09
  -2   2  -6 2446.46   87.69
   0  -2  -6 2610.14   87.29
  -2   2  -6 2355.66   86.59
   2   0  -6 2508.55   87.19
  -2   2  -6 2575.34   87.79
   0  -2  -6 2297.87   88.39
  -2   2  -6 2339.97   86.39
  -2   2  -6 2496.65   85.69
   0  -2  -6 2569.74   86.99
   2   0  -6 2279.57   85.39
   2   0  -6 2564.04   87.99
  -2   0   6 2509.15   85.59
   0   2   6 2483.95   87.09
   2  -2   6 2544.45   87.39
   2  -2   6 2305.87   87.59
   2  -2   6 2542.25   86.59
   2  -2   6 2484.05   87.09
  -2   0   6 2494.75   85.59
   0   2   6 2052.99   87.69
   2  -2   6 2579.54   86.39
   2  -2   6 2352.76   87.59
  -2   0   6 2400.06   87.19
  -2   0   6 2626.54   87.59
   0   2   6 2312.07   86.39
  -2   0   6 2369.56   87.69
   0   2   6 2613.44   87.69
   0   2   6 2357.26   88.09
  -2   3  -6  153.48    8.20
  -1  -2  -6  145.79    8.20
  -1  -2  -6  123.69    6.90
  -2   3  -6  132.69    6.60
  -1  -2  -6  123.29    7.10
  -1  -2  -6  139.69    6.50
  -2   3  -6  140.49    5.50
  -2   3  -6  137.59    7.50
   3  -1  -6  128.49    5.70
  -2   3  -6  132.89    6.80
   3  -1  -6  127.49    7.10
  -1  -2  -6  114.99    6.50
   3  -1  -6  129.69    7.10
   3  -1  -6  141.99    7.00
   3  -1  -6  142.39    8.00
  -2   3  -6  127.39    7.30
  -2   3  -6  129.59    5.30
  -1  -2  -6  119.19    7.10
   3  -1  -6  137.19    7.20
   2  -3   6  128.49    6.40
   1   2   6  144.19    7.40
   2  -3   6  152.88    6.80
   1   2   6  128.79    7.10
   1   2   6  131.69    6.60
   1   2   6  126.19    7.90
  -3   1   6  124.69    6.80
   2  -3   6  146.59    7.40
  -3   1   6  131.09    7.40
   1   2   6  144.69    7.10
   2  -3   6  132.99    8.10
   1   2   6  147.29    7.40
   2  -3   6  127.69    7.20
   2  -3   6  126.79    7.60
  -3   1   6  121.19    6.70
  -2   4  -6 2263.37   84.39
  -2   4  -6 2455.55   82.09
   4  -2  -6 2244.68   83.99
   4  -2  -6 2353.36   83.39
  -2  -2  -6 2412.06   83.69
  -2   4  -6 2370.56   82.19
  -2   4  -6 2392.16   83.99
  -2   4  -6 2336.67   84.89
  -2  -2  -6 2312.57   82.59
  -2  -2  -6 2242.48   83.89
   4  -2  -6 2186.18   84.59
  -2  -2  -6 2254.37   83.69
  -2   4  -6 2166.28   83.99
  -2  -2  -6 2338.17   83.99
   4  -2  -6 2525.35   84.99
  -2  -2  -6 2408.86   84.99
   4  -2  -6 2371.26   82.59
  -4   2   6 2322.97   83.49
   2   2   6 2277.37   84.09
   2   2   6 2269.77   85.09
   2  -4   6 2481.45   83.69
   2  -4   6 2348.27   82.99
   2  -4   6 2286.77   84.79
  -4   2   6 2299.47   83.79
   2   2   6 2262.57   83.79
   2   2   6 2372.86   83.49
   2  -4   6 2427.16   84.59
   2   2   6 2387.96   84.29
   2  -4   6 2420.06   84.19
   2   2   6 2225.88   83.69
  -4   2   6 2196.98   84.29
   2  -4   6 2220.98   83.49
   2   2   6 2473.45   83.89
  -2   5  -6  200.28   10.50
   5  -3  -6  192.18    8.00
  -3  -2  -6  186.78    7.80
   5  -3  -6  204.58    8.10
   5  -3  -6  185.28   10.00
  -3  -2  -6  197.28   10.00
   5  -3  -6  192.28    8.70
   5  -3  -6  186.58   10.90
  -3  -2  -6  191.98    9.20
  -2   5  -6  194.48   10.30
   5  -3  -6  207.28    9.30
  -3  -2  -6  202.68   10.30
  -3  -2  -6  203.88    9.90
  -2   5  -6  209.68    9.90
  -5   3   6  189.28    9.70
   3   2   6  198.48   11.10
   3   2   6  208.68    9.60
   2  -5   6  199.08   11.10
   2  -5   6  205.68    9.10
  -5   3   6  196.28    9.30
   3   2   6  203.28    9.80
   2  -5   6  192.48   10.50
   2  -5   6  197.78   10.80
   3   2   6  182.78   11.00
   2  -5   6  192.98    8.90
  -5   3   6  197.78   10.20
   3   2   6  191.98    9.90
  -3  -1  -6  235.78   11.20
  -1   4  -6  259.57   11.60
   4  -3  -6  231.98   11.40
  -1   4  -6  231.58   12.50
   4  -3  -6  220.38   12.20
  -3  -1  -6  229.38   10.80
   4  -3  -6  248.58   10.30
  -1   4  -6  239.68    9.90
  -1   4  -6  255.47    9.80
  -3  -1  -6  245.78   10.70
  -3  -1  -6  232.58   12.20
   4  -3  -6  239.78   11.90
   4  -3  -6  250.77   10.30
  -1   4  -6  255.07   11.70
   4  -3  -6  262.97   12.20
  -1   4  -6  232.68   11.40
  -3  -1  -6  229.38   11.30
   3   1   6  248.98   11.40
   3   1   6  232.08   11.70
  -4   3   6  233.88   10.10
   1  -4   6  243.78   11.50
   3   1   6  244.68   11.30
  -4   3   6  236.48   11.30
   3   1   6  252.27   11.10
   3   1   6  241.98   11.00
   3   1   6  245.88   12.30
   3   1   6  246.58   11.80
  -4   3   6  231.18   11.40
   1  -4   6  241.88   12.10
   1  -4   6  248.88   11.30
   1  -4   6  235.18   10.70
   1  -4   6  249.58   11.40
   1  -4   6  249.97   10.00
   0   3  -6  292.47   12.90
  -3   0  -6  291.57   11.60
   3  -3  -6  284.87   11.20
   0   3  -6  299.07   12.40
   0   3  -6  284.67   11.50
   3  -3  -6  288.37   13.00
   3  -3  -6  286.67   13.30
   0   3  -6  292.87   11.40
   0   3  -6  267.77   12.70
   0   3  -6  285.47   13.40
  -3   0  -6  278.37   12.60
   3  -3  -6  290.67   12.80
   3  -3  -6  284.77   13.30
   0   3  -6  283.77   12.60
   3  -3  -6  267.87   11.70
  -3   0  -6  272.77   12.40
   3   0   6  276.47   12.80
   3   0   6  268.97   11.60
   0  -3   6  264.37   12.30
   3   0   6  286.17   12.70
   0  -3   6  274.47   13.00
   0  -3   6  296.87   12.50
   0  -3   6  291.17   11.00
   3   0   6  286.07   12.80
   3   0   6  289.17   12.50
  -3   3   6  299.17   12.00
   0  -3   6  281.37   12.40
  -3   3   6  293.07   12.60
   0  -3   6  300.17   12.60
  -3   3   6  275.67   11.10
   3   0   6  282.67   13.30
  -3   3   6  269.67   12.90
   1   2  -6  139.29    7.90
   2  -3  -6  121.59    7.40
  -3   1  -6  123.49    6.10
   2  -3  -6  136.29    5.50
   2  -3  -6  136.29    7.60
  -3   1  -6  137.09    7.00
   1   2  -6  119.79    7.00
   1   2  -6  149.79    6.50
   1   2  -6  139.49    6.60
   2  -3  -6  133.79    7.70
  -3   1  -6  144.59    7.30
   2  -3  -6  136.89    5.70
  -3   1  -6  128.39    5.50
   2  -3  -6  131.09    7.80
   2  -3  -6  132.49    7.30
   1   2  -6  138.29    7.70
  -3   1  -6  139.59    8.00
   3  -1   6  120.99    7.30
  -1  -2   6  145.89    7.30
  -2   3   6  129.99    7.10
   3  -1   6  148.89    7.40
  -1  -2   6  120.09    6.50
  -2   3   6  123.59    5.50
   3  -1   6  128.79    7.00
  -2   3   6  135.09    6.90
  -1  -2   6  130.19    5.40
   3  -1   6  130.39    5.90
  -1  -2   6  126.29    7.20
  -1  -2   6  144.79    7.20
   3  -1   6  142.59    7.20
   3  -1   6  125.69    7.70
  -1  -2   6  133.29    7.50
  -2   3   6  131.69    5.70
  -2   3   6  115.59    7.40
   2   1  -6  134.59    7.00
   1  -3  -6  129.49    6.90
   2   1  -6  147.29    7.70
   2   1  -6  136.69    7.70
   2   1  -6  135.99    6.80
  -3   2  -6  123.29    7.20
   1  -3  -6  126.59    7.10
   1  -3  -6  127.19    7.50
  -3   2  -6  138.99    5.30
  -3   2  -6  132.19    6.00
  -3   2  -6  133.79    7.70
   1  -3  -6  133.39    7.40
   1  -3  -6  144.89    8.00
  -3   2  -6  131.39    6.90
   2   1  -6  128.69    6.20
   1  -3  -6  136.39    6.00
   3  -2   6  131.89    7.50
  -1   3   6  129.49    5.80
  -1   3   6  128.09    7.70
   3  -2   6  136.69    7.40
  -2  -1   6  150.58    7.60
   3  -2   6  138.59    6.80
  -1   3   6  133.39    7.10
   3  -2   6  145.39    7.30
  -2  -1   6  125.39    6.20
   3  -2   6  125.59    6.30
  -2  -1   6  126.39    7.20
  -2  -1   6  132.69    7.10
   3  -2   6  126.49    5.20
   3   0  -6  268.97   12.60
   3   0  -6  244.78   13.30
   0  -3  -6  262.47   11.70
   0  -3  -6  275.57   12.30
   0  -3  -6  294.97   13.30
   3   0  -6  311.47   12.80
   0  -3  -6  291.57   12.40
  -3   3  -6  302.87   12.80
  -3   3  -6  289.67   12.20
  -3   3  -6  248.18   11.70
   3   0  -6  303.47   11.10
  -3   3  -6  284.67   13.40
  -3   3  -6  264.97   12.70
   3   0  -6  289.07   12.20
   0  -3  -6  293.17   12.70
   0  -3  -6  278.57   12.50
   3  -3   6  290.57   12.70
   3  -3   6  281.17   12.80
   0   3   6  280.27   12.60
   0   3   6  292.47   12.20
   3  -3   6  282.57   11.90
  -3   0   6  273.97   12.60
   0   3   6  284.77   12.20
  -3   0   6  309.67   12.80
   3  -3   6  309.47   11.70
   0   3   6  272.87   11.30
   3  -3   6  274.07   12.70
   3  -3   6  274.87   13.10
   0   3   6  297.07   13.50
   0   3   6  301.57   12.80
  -3   0   6  271.37   11.20
  -3   4  -6  235.18   11.70
   4  -1  -6  257.17    9.60
   4  -1  -6  240.08   11.10
   4  -1  -6  243.48   11.40
  -1  -3  -6  242.78   11.50
  -1  -3  -6  256.07   12.20
  -1  -3  -6  255.87   10.60
   4  -1  -6  231.68   11.00
  -1  -3  -6  241.88   11.10
  -3   4  -6  248.38   11.10
   4  -1  -6  241.98    9.30
  -3   4  -6  241.78   12.50
   4  -1  -6  223.68   11.20
  -3   4  -6  241.58   11.20
   4  -1  -6  237.98    9.30
  -1  -3  -6  228.88   11.20
   4  -1  -6  257.37   12.40
  -3   4  -6  229.88   10.70
   1   3   6  233.48   11.40
  -4   1   6  226.88    9.60
   3  -4   6  229.68   11.00
  -4   1   6  237.18   11.20
   3  -4   6  255.87   10.70
   1   3   6  241.58   10.40
   1   3   6  228.98   11.20
   1   3   6  248.08   11.50
  -4   1   6  230.68   11.60
   3  -4   6  253.57   11.80
   1   3   6  245.88   10.30
   3  -4   6  238.68   11.40
   1   3   6  247.18   12.20
   1   3   6  234.28   10.40
   3  -4   6  254.97   10.80
   3  -4   6  226.88   11.90
  -2  -3  -6  215.48   10.90
   5  -2  -6  189.08    9.60
   5  -2  -6  192.88    8.30
   5  -2  -6  199.78    8.30
  -2  -3  -6  178.78   12.20
  -2  -3  -6  194.98    9.90
  -3   5  -6  203.98   10.50
  -3   5  -6  183.38   10.30
  -2  -3  -6  200.88   10.10
  -2  -3  -6  206.08    8.80
  -3   5  -6  206.08    9.50
   5  -2  -6  186.58    9.70
   3  -5   6  181.48   10.40
  -5   2   6  179.08   10.10
   3  -5   6  194.38   10.70
  -5   2   6  195.98    9.80
   3  -5   6  187.28    9.00
   2   3   6  192.28   10.80
   2   3   6  212.98   11.10
   2   3   6  194.68    8.70
   2   3   6  191.58    9.40
   2   3   6  186.68    9.90
   3  -5   6  214.68    9.60
   3  -5   6  218.28   10.10
  -3  -3  -6  100.49    5.60
  -3   6  -6  102.89    7.70
   6  -3  -6  114.09    5.90
  -3   6  -6   99.19    5.30
   6  -3  -6  104.09    7.00
  -3   6  -6  104.79    7.70
  -3  -3  -6  107.99    7.60
  -3  -3  -6  104.69    7.30
   6  -3  -6  118.79    7.40
   6  -3  -6  115.29    6.10
   6  -3  -6  105.69    5.70
  -3   6  -6  103.59    6.50
  -3  -3  -6   91.19    6.00
   3   3   6  112.69    5.60
   3   3   6  102.79    8.20
   3  -6   6  103.89    8.00
   3  -6   6  100.89    5.70
   3   3   6   94.89    7.10
   3  -6   6  109.19    8.10
  -6   3   6  112.39    7.10
   3  -6   6  106.79    7.60
  -6   3   6  115.99    7.70
   3   3   6   89.69    7.60
  -3   7  -6   90.89    6.20
  -4  -3  -6  102.59    7.60
   7  -4  -6  107.19    8.30
   7  -4  -6  109.69    6.40
   7  -4  -6  102.59    7.30
  -3   7  -6  109.59    8.30
  -4  -3  -6  108.99    8.30
  -4  -3  -6  107.99    5.10
  -4  -3  -6   98.59    6.00
   7  -4  -6   84.49    7.00
   7  -4  -6   99.39    6.70
  -3   7  -6  107.49    8.60
   4   3   6   99.19    7.70
  -7   4   6  100.99    7.80
   3  -7   6  102.09    5.10
   4   3   6  101.19    8.90
  -7   4   6  102.29    7.30
   4   3   6  106.99    5.20
   3  -7   6  103.79    8.60
   3  -7   6  103.29    8.50
  -4  -2  -6 1738.93   63.89
   6  -4  -6 1716.53   62.59
   6  -4  -6 1732.53   62.49
   6  -4  -6 1941.71   62.09
  -2   6  -6 1720.33   62.29
   6  -4  -6 1750.42   62.79
  -4  -2  -6 1672.53   62.39
  -4  -2  -6 1742.93   64.49
   6  -4  -6 1680.63   63.89
  -2   6  -6 1718.83   64.39
  -2   6  -6 1687.53   64.69
  -2   6  -6 1852.71   62.99
   2  -6   6 1699.33   61.99
   4   2   6 1787.22   62.79
   2  -6   6 1666.73   64.59
   4   2   6 1669.53   63.49
  -6   4   6 1633.04   63.49
  -6   4   6 1809.32   64.19
   2  -6   6 1716.13   64.69
   2  -6   6 1741.83   62.59
   4   2   6 1618.64   65.19
   5  -4  -6  132.79    6.50
  -1   5  -6  116.39    8.30
   5  -4  -6  129.69    5.90
   5  -4  -6  131.99    9.10
  -4  -1  -6  127.79    7.70
  -1   5  -6  128.99    6.70
  -4  -1  -6  112.89    7.70
  -1   5  -6  126.99    7.90
  -1   5  -6  125.29    7.80
   5  -4  -6  130.69    6.80
   5  -4  -6  121.79    7.60
  -4  -1  -6  135.99    7.30
  -4  -1  -6  128.39    7.10
   1  -5   6  121.79    6.70
   4   1   6  140.29    7.30
  -5   4   6  133.29    7.70
   4   1   6  129.39    9.60
   4   1   6  132.79    8.80
  -5   4   6  125.89    6.30
   4   1   6  135.99    7.20
   1  -5   6  120.59    8.30
   1  -5   6  115.49    7.90
   1  -5   6  116.59    7.90
  -5   4   6  123.89    7.70
   1  -5   6  129.49    6.30
   0   4  -6 2074.79   74.19
   4  -4  -6 1981.80   74.39
   4  -4  -6 2132.69   74.79
  -4   0  -6 2053.49   72.89
   4  -4  -6 2030.80   72.19
  -4   0  -6 2012.80   74.59
   4  -4  -6 2092.89   72.19
   4  -4  -6 2044.70   73.39
   0   4  -6 1995.00   74.59
  -4   0  -6 1939.31   73.99
   0   4  -6 2067.19   74.09
  -4   0  -6 2005.90   73.89
   4  -4  -6 2167.08   72.29
   0   4  -6 2210.28   74.39
   0  -4   6 1938.61   74.79
   0  -4   6 1866.11   73.69
   4   0   6 2202.08   74.99
  -4   4   6 2083.19   74.39
   4   0   6 2023.60   73.79
   4   0   6 1968.10   73.09
   4   0   6 1947.41   74.39
   0  -4   6 2084.79   72.29
   0  -4   6 2167.38   73.99
   4   0   6 1978.40   75.29
  -4   4   6 2042.30   72.19
   0  -4   6 1983.30   74.29
  -4   4   6 2003.10   74.19
   3  -4  -6  229.58   10.50
   1   3  -6  248.88   10.30
   3  -4  -6  221.48   11.30
   1   3  -6  263.07   11.70
   1   3  -6  247.58   11.00
   3  -4  -6  223.38    9.50
   1   3  -6  230.68   12.10
   1   3  -6  235.88   10.40
  -4   1  -6  253.17    9.70
  -4   1  -6  255.57   12.20
   1   3  -6  235.88   10.90
  -4   1  -6  227.08   10.90
   3  -4  -6  241.48   12.00
   1   3  -6  241.88   11.60
  -4   1  -6  232.68   11.60
   3  -4  -6  233.48   11.90
  -4   1  -6  216.38   10.90
   3  -4  -6  241.58   12.20
  -1  -3   6  242.88   11.00
   4  -1   6  243.38   11.30
  -1  -3   6  233.88   11.70
  -3   4   6  254.67   11.10
  -1  -3   6  242.18   11.40
  -1  -3   6  253.47    9.10
   4  -1   6  240.88   12.00
   4  -1   6  234.98   11.60
  -1  -3   6  229.58   11.00
   4  -1   6  247.08   11.80
  -3   4   6  234.58   11.40
   4  -1   6  251.17   11.10
  -3   4   6  236.18   11.60
   2   2  -6 2494.65   84.89
   2  -4  -6 2378.86   84.59
  -4   2  -6 2230.38   83.99
   2   2  -6 2417.96   83.39
   2   2  -6 2264.87   84.59
   2   2  -6 2324.37   84.69
   2   2  -6 2258.47   83.79
   2  -4  -6 2322.87   84.69
   2  -4  -6 2194.58   84.29
   2  -4  -6 2212.38   83.69
  -4   2  -6 2576.54   84.99
   2  -4  -6 2264.27   82.79
   2   2  -6 2453.15   83.49
  -4   2  -6 2326.57   81.99
  -4   2  -6 2387.36   82.39
   2  -4  -6 2390.96   84.69
  -4   2  -6 2274.87   84.29
  -2   4   6 2347.77   84.09
  -2  -2   6 2299.87   84.29
  -2  -2   6 2239.68   83.59
  -2  -2   6 2328.07   84.29
  -2   4   6 2280.67   84.39
  -2   4   6 2368.66   84.79
  -2   4   6 2507.75   83.19
   4  -2   6 2254.07   84.69
  -2   4   6 2295.37   84.49
  -2  -2   6 2249.87   84.59
   4  -2   6 2389.86   83.89
   4  -2   6 2525.75   84.19
   4  -2   6 2273.97   82.19
   4  -2   6 2326.57   82.09
   4  -2   6 2184.88   84.69
   4  -2   6 2331.77   84.59
  -2  -2   6 2413.26   83.99
   1  -4  -6  240.18   11.30
   3   1  -6  241.48   10.90
   3   1  -6  213.98   11.30
   1  -4  -6  233.18   12.00
  -4   3  -6  243.88   11.60
   1  -4  -6  263.97   11.80
   3   1  -6  248.48   12.20
   3   1  -6  273.47   10.50
   3   1  -6  250.17   11.90
   1  -4  -6  259.97   12.10
   1  -4  -6  224.18   10.30
   1  -4  -6  260.27   11.20
  -4   3  -6  241.58   11.10
  -4   3  -6  259.77   11.70
   3   1  -6  234.38   10.80
  -3  -1   6  247.68   11.20
  -1   4   6  234.88   11.60
   4  -3   6  240.78   11.70
   4  -3   6  255.47    9.90
  -1   4   6  239.28   11.30
   4  -3   6  236.48   10.90
  -1   4   6  235.88   12.10
  -3  -1   6  241.98   11.60
  -1   4   6  237.68   11.50
   4  -3   6  238.08   11.90
  -3  -1   6  235.58   11.60
  -1   4   6  241.68   10.80
  -3  -1   6  246.08   10.60
   4  -3   6  240.58   11.90
   4  -3   6  238.78   11.40
   0  -4  -6 2041.30   73.89
  -4   4  -6 1971.40   73.79
   0  -4  -6 1982.50   73.89
  -4   4  -6 2229.28   73.99
  -4   4  -6 2006.90   74.69
   4   0  -6 1932.51   73.79
   4   0  -6 2094.29   72.69
   0  -4  -6 2133.09   73.89
   0  -4  -6 2115.99   74.79
  -4   4  -6 2019.50   73.49
   0  -4  -6 1796.92   74.39
   4   0  -6 2046.90   74.29
   4   0  -6 1978.00   74.09
   4  -4   6 1983.00   74.89
   0   4   6 2013.30   74.39
   0   4   6 2040.50   74.99
   0   4   6 2090.29   73.99
   4  -4   6 1980.20   74.59
   0   4   6 2058.79   73.79
  -4   0   6 2249.77   73.69
  -4   0   6 2016.60   74.29
   4  -4   6 2031.20   74.79
   4  -4   6 2002.10   73.89
   4  -4   6 2036.30   73.49
   4  -4   6 2141.49   73.09
  -4   0   6 1973.10   74.39
   0   4   6 2060.99   72.49
   5  -1  -6  127.69    5.30
   5  -1  -6  142.29    6.60
  -1  -4  -6  135.39    7.80
  -4   5  -6  133.29    7.80
   5  -1  -6  132.69    5.40
  -4   5  -6  129.19    7.60
  -1  -4  -6  133.79    7.40
  -1  -4  -6  124.79    7.30
   5  -1  -6  125.19    8.40
   5  -1  -6  119.89    7.30
  -1  -4  -6  120.79    9.00
  -1  -4  -6  128.99    7.50
  -4   5  -6  122.39    8.20
   5  -1  -6  121.99    7.70
  -4   5  -6  135.99    7.30
   1   4   6  129.59    8.00
   4  -5   6  124.69    7.20
   4  -5   6  144.29    7.50
   4  -5   6  124.59    8.40
   4  -5   6  120.19    8.10
  -5   1   6  125.19    6.50
   1   4   6  122.09    6.60
  -5   1   6  129.69    8.00
   1   4   6  113.39    8.50
   1   4   6  124.19    6.70
   1   4   6  125.69    8.60
  -5   1   6  122.99    8.00
  -4   6  -6 1776.62   61.49
   6  -2  -6 1649.13   63.09
  -2  -4  -6 1729.33   61.79
   6  -2  -6 1713.73   60.79
   6  -2  -6 1649.04   62.49
  -4   6  -6 1754.72   64.19
   6  -2  -6 1688.93   61.29
  -2  -4  -6 1719.73   62.19
   6  -2  -6 1722.33   60.79
  -4   6  -6 1710.23   63.49
  -2  -4  -6 1660.43   63.09
  -2  -4  -6 1666.43   63.19
   2   4   6 1739.53   62.19
  -6   2   6 1678.33   63.49
   2   4   6 1709.83   64.29
   2   4   6 1744.83   61.89
   4  -6   6 1628.44   63.99
  -6   2   6 1755.92   63.09
   4  -6   6 1799.12   61.79
   2   4   6 1662.73   63.19
   4  -6   6 1643.24   63.89
   7  -3  -6   85.69    7.00
   7  -3  -6   90.19    6.70
  -4   7  -6   99.79    8.50
  -4   7  -6  100.09    5.50
  -4   7  -6  105.89    8.50
  -3  -4  -6  122.79    8.40
  -3  -4  -6  106.99    6.40
  -3  -4  -6  112.49    7.80
   7  -3  -6  105.39    6.30
   7  -3  -6  102.69    7.40
   4  -7   6   98.79    8.50
   3   4   6  104.69    7.90
   4  -7   6  113.69    9.00
  -7   3   6   96.29    7.70
   4  -7   6  106.49    5.00
   3   4   6   99.09    6.40
   3   4   6  100.39    8.80
  -7   3   6  106.49    8.00
  -4  -4  -6 1071.19   39.60
  -4   8  -6 1094.69   39.60
  -4  -4  -6 1062.69   39.60
  -4   8  -6 1111.29   43.70
  -4   8  -6 1055.69   43.60
  -4  -4  -6 1114.89   43.30
   8  -4  -6 1078.29   42.00
   8  -4  -6 1050.49   40.80
   8  -4  -6 1021.20   40.50
   8  -4  -6 1100.29   40.30
  -4  -4  -6 1088.49   42.20
   4   4   6 1096.19   39.90
   4  -8   6 1093.89   43.20
   4  -8   6 1062.49   43.70
   4   4   6 1098.99   42.60
   4   4   6 1135.29   44.50
  -8   4   6 1086.59   42.60
   9  -5  -6   76.09    7.40
  -4   9  -6   93.59   10.50
  -4   9  -6   93.59   10.30
  -5  -4  -6   81.59    8.40
  -4   9  -6   88.29    7.70
   9  -5  -6   76.29    6.90
  -5  -4  -6   92.99    9.60
   9  -5  -6   73.39    8.00
   5   4   6   98.59    9.50
   5   4   6   76.29    9.80
   4  -9   6   83.19   10.10
   4  -9   6   84.99    9.40
   4  -9   6   99.49    8.20
   8  -5  -6  122.99    8.70
  -5  -3  -6  127.39    9.10
   8  -5  -6  129.49    7.70
  -5  -3  -6  109.79    9.60
  -3   8  -6  123.59    9.90
  -5  -3  -6  120.89    6.40
  -3   8  -6  127.29    8.10
   8  -5  -6  124.59    7.60
  -3   8  -6  108.89   10.10
   8  -5  -6  114.69    8.60
   3  -8   6  113.99   10.10
   3  -8   6  132.79    8.30
   5   3   6  130.09    9.50
   3  -8   6  117.89    9.60
  -8   5   6  110.99    8.90
   5   3   6  127.99   10.40
  -2   7  -6  118.79    9.00
  -5  -2  -6  134.49    9.50
   7  -5  -6  121.19    7.20
  -2   7  -6  137.29    8.20
  -5  -2  -6  113.49    6.70
   7  -5  -6  140.99    8.20
  -2   7  -6  133.99    7.90
  -2   7  -6  127.49    9.90
  -5  -2  -6  118.69    8.50
   7  -5  -6  138.49    7.80
   7  -5  -6  127.39    8.70
   7  -5  -6  129.29    7.50
  -7   5   6  137.59    8.60
   2  -7   6  136.89    7.70
   5   2   6  122.29    9.90
   2  -7   6  133.19    9.70
  -7   5   6  132.39    8.60
   2  -7   6  136.59    9.40
   5   2   6  130.39    8.60
   6  -5  -6  156.68    7.80
  -5  -1  -6  148.59    9.10
   6  -5  -6  162.28    8.40
  -1   6  -6  166.98    9.50
  -1   6  -6  157.08    9.40
  -1   6  -6  148.59   10.10
   6  -5  -6  165.88    7.80
   6  -5  -6  158.98    9.40
  -5  -1  -6  145.79    8.40
  -5  -1  -6  166.58   10.00
   6  -5  -6  166.38    7.80
  -1   6  -6  163.28    8.50
   5   1   6  168.58    9.10
   1  -6   6  164.78    8.20
   5   1   6  159.68    8.50
   1  -6   6  158.18   10.00
  -6   5   6  169.68    9.40
   1  -6   6  146.99   10.00
   1  -6   6  165.78    8.00
  -6   5   6  151.08    8.90
   5   1   6  156.58   10.40
   1  -6   6  149.49    7.90
   0   5  -6  121.19    7.80
  -5   0  -6  105.49    6.20
   0   5  -6  104.29    6.40
  -5   0  -6   95.29    7.50
   5  -5  -6  112.49    5.10
   5  -5  -6   98.49    8.50
   0   5  -6   99.59    6.80
  -5   0  -6  102.59    6.40
   5  -5  -6  133.49    7.60
   5  -5  -6  108.99    5.70
  -5   0  -6   97.49    6.90
   5  -5  -6  108.99    6.40
   0   5  -6  102.09    7.70
   5  -5  -6  102.09    7.20
  -5   5   6  101.09    7.00
   0  -5   6   88.59    7.40
   5   0   6   96.99    6.30
   5   0   6   93.49    7.80
   0  -5   6  100.49    6.30
   5   0   6   91.49    7.60
   0  -5   6   99.69    5.40
  -5   5   6  107.49    6.90
   0  -5   6   99.99    7.50
   5   0   6  107.39    6.90
   0  -5   6  101.49    7.20
   0  -5   6  106.59    5.40
   1   4  -6  137.99    7.20
   1   4  -6  117.99    8.10
  -5   1  -6  144.39    6.40
   1   4  -6  132.39    7.40
   4  -5  -6  136.29    8.70
   4  -5  -6  119.69    7.00
   4  -5  -6  128.39    7.90
  -5   1  -6  123.39    8.20
  -5   1  -6  122.09    7.60
   4  -5  -6  158.58    8.10
  -5   1  -6  129.59    7.40
   1   4  -6  123.69    8.30
   1   4  -6  130.09    8.40
  -4   5   6  126.19    7.80
  -1  -4   6  130.39    7.60
  -4   5   6  129.39    7.80
  -1  -4   6  133.79    5.50
  -1  -4   6  122.99    7.30
   5  -1   6  124.09    8.50
  -1  -4   6  130.09    5.60
  -4   5   6  128.39    8.50
   5  -1   6  122.59    6.40
   5  -1   6  126.09    7.50
  -1  -4   6  132.89    8.00
  -1  -4   6  123.09    8.30
   5  -1   6  120.29    8.00
   2   3  -6  196.08    9.90
  -5   2  -6  189.58   10.80
   3  -5  -6  200.28    8.70
   2   3  -6  185.48    9.30
   3  -5  -6  187.38   10.00
   3  -5  -6  189.08    9.50
  -5   2  -6  198.38    9.90
   2   3  -6  209.98   10.90
  -5   2  -6  186.28    9.80
   3  -5  -6  199.08   10.50
   2   3  -6  198.98   10.40
  -3   5   6  195.98   10.50
  -2  -3   6  189.88    9.80
  -2  -3   6  198.98    9.80
  -3   5   6  178.88   10.00
   5  -2   6  192.98   10.50
  -2  -3   6  193.48   10.00
  -2  -3   6  191.28   10.50
   5  -2   6  209.28    9.90
  -3   5   6  203.08    9.10
   5  -2   6  199.68    8.10
  -3   5   6  187.88   10.20
   5  -2   6  193.58   10.60
  -5   3  -6  186.08   10.00
   3   2  -6  194.18    9.30
   3   2  -6  206.68    9.50
   3   2  -6  172.38    9.90
  -5   3  -6  187.18    9.70
  -5   3  -6  193.28    8.20
   2  -5  -6  197.78   10.40
   2  -5  -6  197.28   10.90
  -5   3  -6  205.38   10.50
   2  -5  -6  200.18    9.90
   2  -5  -6  181.18    9.40
   2  -5  -6  193.88    8.90
   3   2  -6  184.08    9.00
  -2   5   6  182.38   10.20
   5  -3   6  175.68   10.20
  -3  -2   6  186.18    9.30
  -2   5   6  193.08   10.20
  -2   5   6  201.68    9.40
   5  -3   6  186.18    9.90
   5  -3   6  192.68    8.20
  -3  -2   6  182.98   10.30
   5  -3   6  195.68   10.10
  -2   5   6  172.98    9.90
  -3  -2   6  183.78    9.90
   4   1  -6  132.69    7.20
  -5   4  -6  121.89    7.60
   1  -5  -6  139.69    8.70
  -5   4  -6  129.39    6.90
   1  -5  -6  123.59    7.30
  -5   4  -6  141.39    8.10
   4   1  -6  128.49    7.10
   1  -5  -6  136.39    8.80
   4   1  -6  126.69    7.80
   1  -5  -6  124.19    7.60
   1  -5  -6  123.59    7.50
  -5   4  -6  125.39    8.10
   5  -4   6  133.59    8.10
   5  -4   6  129.49    8.50
  -4  -1   6  118.29    7.10
  -1   5   6  129.59    7.90
   5  -4   6  135.29    6.50
  -1   5   6  123.89    8.30
  -4  -1   6  126.19    7.90
  -1   5   6  126.19    7.80
  -1   5   6  131.99    8.20
  -4  -1   6  118.99    8.00
   5   0  -6  107.29    6.40
  -5   5  -6   97.69    7.60
   0  -5  -6   92.19    7.80
   5   0  -6   94.39    7.00
   0  -5  -6   94.59    6.90
  -5   5  -6  105.59    7.10
   0  -5  -6  103.09    6.80
   0  -5  -6  107.49    6.70
  -5   5  -6  117.69    6.90
  -5   5  -6   90.29    6.80
   5   0  -6  106.79    6.60
   0  -5  -6   96.89    7.90
   0   5   6  103.79    5.30
   0   5   6  108.29    7.00
   5  -5   6  101.29    6.50
   5  -5   6  100.09    8.00
   0   5   6  105.69    7.90
   0   5   6  102.79    8.10
   5  -5   6  104.79    7.70
  -5   0   6  101.69    7.40
   0   5   6  105.59    5.50
   5  -5   6   99.59    6.80
  -5   0   6  100.49    7.30
   0   5   6  106.69    7.50
  -5   0   6  101.29    6.40
   6  -1  -6  158.48    8.50
  -5   6  -6  155.58   10.10
  -1  -5  -6  152.18    9.30
  -1  -5  -6  165.28    9.50
  -5   6  -6  155.58    9.70
  -1  -5  -6  140.69    9.20
   6  -1  -6  167.58    9.60
   6  -1  -6  166.88    8.70
  -1  -5  -6  160.48    8.80
  -6   1   6  163.58    9.80
   5  -6   6  166.58   10.40
   1   5   6  168.18    9.00
   1   5   6  174.68    8.50
  -6   1   6  161.98    9.70
   5  -6   6  146.79    8.20
   1   5   6  156.68   10.30
   5  -6   6  154.78   10.00
   1   5   6  167.08    9.90
  -5   7  -6  119.19    9.70
  -2  -5  -6  130.89    7.70
  -2  -5  -6  121.69    8.70
   7  -2  -6  130.39    8.70
   7  -2  -6  133.69    8.30
  -2  -5  -6  128.89    8.80
   7  -2  -6  132.09    6.20
  -2  -5  -6  120.59    8.60
  -5   7  -6  139.79    9.80
   7  -2  -6  131.49    8.00
  -2  -5  -6  142.29    8.70
   7  -2  -6  130.59    6.50
   5  -7   6  141.59   10.20
   2   5   6  118.49    9.00
  -7   2   6  129.59    9.10
   5  -7   6  131.59    9.80
   2   5   6  121.79    9.10
  -7   2   6  110.19    8.80
   5  -7   6  130.29    6.20
   2   5   6  113.19    9.40
   2   5   6  132.29    8.10
   8  -3  -6  123.79    8.50
   8  -3  -6  130.29    9.50
  -3  -5  -6  129.89    8.40
   8  -3  -6  118.29    8.80
  -5   8  -6  118.09   10.40
  -3  -5  -6  117.99    9.70
  -3  -5  -6  130.59    8.50
  -3  -5  -6  107.59    8.90
  -5   8  -6  119.49   10.70
   8  -3  -6  126.89    7.60
   8  -3  -6  115.69    7.00
   3   5   6  124.99   10.20
   5  -8   6  137.29   10.50
   5  -8   6  117.49   10.50
   3   5   6  122.19    9.70
   3   5   6  122.79    8.00
  -8   3   6  121.99    9.50
  -4  -5  -6   87.79    9.50
   9  -4  -6   85.89    6.70
  -5   9  -6   83.09   10.70
   9  -4  -6   86.99    8.30
  -5   9  -6   89.19   10.60
  -4  -5  -6   85.89    8.30
   9  -4  -6   78.09    8.40
   5  -9   6   82.29   10.50
   4   5   6   89.59   10.10
   5  -9   6   96.69   10.20
   4   5   6   92.19    7.50
   4   5   6   82.89    9.20
  -3   9  -6   80.39    9.80
   9  -6  -6   88.29    7.60
  -3   9  -6   95.49   11.10
  -6  -3  -6   85.09    9.70
  -3   9  -6   76.39    8.40
  -6  -3  -6   72.29    8.40
   9  -6  -6   74.09    8.00
   9  -6  -6   77.39    7.30
   3  -9   6   97.59   10.00
   6   3   6   85.69   10.30
   3  -9   6   98.89    8.40
   6   3   6   84.79    9.10
   3  -9   6   78.69    9.40
  -6  -2  -6 1121.39   45.50
   8  -6  -6 1147.49   43.40
   8  -6  -6 1021.10   42.90
  -2   8  -6 1159.38   42.10
   8  -6  -6 1126.99   43.00
  -2   8  -6 1138.79   45.00
  -6  -2  -6 1087.99   44.00
  -2   8  -6 1066.19   45.70
  -6  -2  -6 1240.78   42.40
   8  -6  -6 1151.68   42.50
   8  -6  -6 1103.49   44.50
  -2   8  -6 1116.29   43.10
   6   2   6 1157.38   46.40
   2  -8   6 1124.29   45.80
   2  -8   6 1201.88   43.10
   2  -8   6 1154.68   45.10
   6   2   6 1160.18   44.10
  -8   6   6 1150.58   44.00
  -8   6   6 1147.09   44.00
  -1   7  -6  115.39    8.20
   7  -6  -6  113.99    7.00
  -6  -1  -6  107.59    9.20
  -1   7  -6  117.29    8.90
   7  -6  -6  128.19    8.00
  -1   7  -6  106.59    9.60
   7  -6  -6  116.09    7.60
  -1   7  -6  110.49    9.00
   7  -6  -6  107.89    8.60
   7  -6  -6  110.59    7.30
  -6  -1  -6  117.89    8.50
  -6  -1  -6  119.29    6.80
   6   1   6  118.59    7.40
   1  -7   6  111.19    9.30
  -7   6   6  115.59    8.20
  -7   6   6  115.99    8.10
   1  -7   6  123.99    7.30
   6   1   6  128.09    8.30
   6   1   6  125.59    9.90
   1  -7   6  111.09    9.50
   1  -7   6  116.19    7.90
  -6   0  -6 1255.57   48.20
  -6   0  -6 1319.07   50.89
   6  -6  -6 1160.28   47.80
   6  -6  -6 1309.17   48.90
   0   6  -6 1341.67   49.40
   6  -6  -6 1268.87   50.09
  -6   0  -6 1262.47   49.60
   6  -6  -6 1287.97   50.19
   0   6  -6 1377.76   49.60
   0   6  -6 1278.07   50.79
   0   6  -6 1366.86   49.10
  -6   0  -6 1339.47   48.40
   6  -6  -6 1325.47   48.10
   6   0   6 1309.97   51.29
   6   0   6 1358.16   48.70
   0  -6   6 1287.17   50.49
   0  -6   6 1351.16   50.59
   0  -6   6 1388.16   47.60
  -6   6   6 1312.27   49.20
  -6   6   6 1302.67   49.70
   6   0   6 1346.57   48.70
   1   5  -6  159.48   10.10
   1   5  -6  166.98    9.00
   5  -6  -6  157.48    9.60
   1   5  -6  160.48   10.30
   5  -6  -6  155.38    8.70
  -6   1  -6  162.48    8.60
   1   5  -6  160.88    8.70
  -6   1  -6  156.28    9.20
   5  -6  -6  156.68    8.10
  -6   1  -6  173.78   10.50
   5  -6  -6  165.18   10.60
  -1  -5   6  163.58    6.90
   6  -1   6  151.68    9.80
   6  -1   6  160.88    9.10
  -5   6   6  155.48   10.00
   6  -1   6  141.89   10.00
  -1  -5   6  135.09    7.60
  -5   6   6  162.28    8.90
   6  -1   6  158.48    8.20
  -1  -5   6  152.88    9.80
  -5   6   6  173.98    9.60
  -1  -5   6  172.68    9.30
  -1  -5   6  162.28   10.20
  -1  -5   6  166.48    8.90
   2   4  -6 1743.93   61.29
   2   4  -6 1708.53   61.59
   4  -6  -6 1680.23   62.19
   4  -6  -6 1568.74   60.69
  -6   2  -6 1657.93   62.29
   4  -6  -6 1737.13   61.89
  -6   2  -6 1654.43   61.89
   4  -6  -6 1617.44   62.49
   2   4  -6 1634.54   62.79
   6  -2   6 1734.13   60.19
  -2  -4   6 1702.63   63.09
   6  -2   6 1671.33   63.19
  -2  -4   6 1789.42   61.39
   6  -2   6 1626.74   62.99
  -4   6   6 1723.63   61.89
   6  -2   6 1700.63   61.69
  -4   6   6 1579.14   62.29
  -2  -4   6 1682.33   61.89
  -4   6   6 1711.93   63.19
  -2  -4   6 1665.73   62.39
   3   3  -6   97.49    6.10
   3  -6  -6  115.29    8.10
  -6   3  -6  103.49    7.30
   3   3  -6   97.39    7.40
  -6   3  -6   93.59    7.20
   3   3  -6   97.69    6.60
   3   3  -6  114.99    8.20
   3  -6  -6  108.39    6.90
   3  -6  -6  106.39    7.10
   3  -6  -6  105.99    6.60
  -3   6   6  105.99    7.70
   6  -3   6  111.29    7.80
  -3   6   6   95.49    7.30
  -3  -3   6  106.49    8.00
  -3   6   6   87.29    7.10
  -3  -3   6   99.39    6.60
  -3  -3   6  100.69    7.40
  -3   6   6   99.49    7.30
  -3  -3   6  111.19    7.30
   6  -3   6  110.09    8.10
   6  -3   6  115.59    4.80
   6  -3   6  107.89    4.60
   4   2  -6 1683.53   62.49
   2  -6  -6 1738.73   62.99
   4   2  -6 1904.21   62.79
   4   2  -6 1634.64   63.39
  -6   4  -6 1723.53   61.39
  -6   4  -6 1707.43   63.59
   2  -6  -6 1703.83   62.19
   2  -6  -6 1684.03   62.99
   4   2  -6 1713.53   61.59
   2  -6  -6 1681.03   62.79
  -6   4  -6 1739.63   63.19
  -4  -2   6 1708.63   61.79
  -2   6   6 1637.04   63.49
   6  -4   6 1698.03   63.99
  -4  -2   6 1712.03   62.89
  -2   6   6 1620.24   63.39
  -2   6   6 1725.33   62.79
  -4  -2   6 1662.13   63.19
  -4  -2   6 1673.43   63.69
   6  -4   6 1698.13   60.89
  -2   6   6 1719.83   63.29
   6  -4   6 1703.63   63.19
   5   1  -6  171.98    9.00
  -6   5  -6  161.28    8.90
   5   1  -6  161.08    9.40
   5   1  -6  148.99    9.20
   1  -6  -6  142.29    9.90
   1  -6  -6  162.98    9.20
  -6   5  -6  156.88    9.50
   1  -6  -6  164.88    9.00
  -6   5  -6  144.59    9.70
   5   1  -6  169.88    8.40
   1  -6  -6  159.78    9.00
  -1   6   6  151.28   10.70
  -5  -1   6  172.88    9.30
  -1   6   6  161.08   10.00
  -5  -1   6  166.18    9.90
  -1   6   6  156.78    9.60
   6  -5   6  167.98    8.30
  -5  -1   6  151.98    9.80
   6  -5   6  151.88   10.10
  -1   6   6  145.59    9.90
   6  -5   6  154.08    9.10
   0  -6  -6 1293.47   49.50
   6   0  -6 1291.47   48.50
   0  -6  -6 1316.67   48.90
   6   0  -6 1313.07   48.20
   6   0  -6 1282.47   49.60
  -6   6  -6 1319.47   49.40
  -6   6  -6 1317.57   49.80
  -6   6  -6 1253.37   50.49
   0  -6  -6 1268.67   49.40
   0   6   6 1317.27   50.19
   0   6   6 1336.67   47.30
  -6   0   6 1306.97   50.19
   6  -6   6 1294.87   50.59
   6  -6   6 1318.97   48.50
   6  -6   6 1269.17   50.79
  -6   0   6 1356.26   49.00
   6  -6   6 1267.07   49.00
   0   6   6 1353.66   49.70
   0   6   6 1335.17   50.39
  -6   0   6 1309.97   50.19
  -6   7  -6  123.69   10.00
  -1  -6  -6  112.39    8.50
  -1  -6  -6  130.69    9.00
   7  -1  -6  118.99    8.50
  -6   7  -6  120.29    9.40
   7  -1  -6  114.09    9.70
  -1  -6  -6  120.99    9.70
   7  -1  -6  116.69    9.30
  -1  -6  -6  116.49    7.80
   7  -1  -6  118.99    7.60
   1   6   6  131.39    8.30
   6  -7   6  128.49    9.80
  -7   1   6  125.49    8.50
   1   6   6  110.59    8.40
  -7   1   6  100.19    9.10
   1   6   6  119.59    9.30
   1   6   6  119.19    9.70
   6  -7   6  131.69    7.00
   6  -7   6  102.19    9.50
  -2  -6  -6 1130.99   44.40
  -2  -6  -6 1091.69   43.00
  -2  -6  -6 1186.08   42.80
   8  -2  -6 1110.09   44.40
  -6   8  -6 1165.68   46.30
   8  -2  -6 1131.19   41.10
  -2  -6  -6 1192.68   45.20
  -6   8  -6 1108.89   45.30
   8  -2  -6 1152.58   43.30
   8  -2  -6 1151.38   41.20
   2   6   6 1123.89   45.10
   2   6   6 1167.48   45.80
  -8   2   6 1169.68   45.10
   6  -8   6 1149.48   46.20
   2   6   6 1150.38   43.70
   6  -8   6 1104.59   45.30
   2   6   6 1068.69   43.70
   9  -3  -6   80.49    8.20
  -6   9  -6   91.99   10.30
  -6   9  -6   61.49    8.60
  -3  -6  -6   96.09    8.70
   9  -3  -6   84.39    6.30
  -3  -6  -6   67.69    8.90
   9  -3  -6   86.19    8.10
   3   6   6   84.19    9.60
   3   6   6   81.49   10.10
  -9   3   6   92.19   10.00
   6  -9   6   82.69   10.00
   6  -9   6   71.09    8.60
   3   6   6   82.19    8.30
   9  -7  -6   78.69    8.90
  -7  -2  -6   82.09   10.20
  -2   9  -6   85.39   10.00
   9  -7  -6   70.59    7.90
  -2   9  -6  100.49   11.50
   9  -7  -6   76.19    7.90
  -7  -2  -6   88.99    8.90
   9  -7  -6   95.39    8.20
  -2   9  -6   91.19    9.80
   2  -9   6   75.99    9.00
   7   2   6   84.69   10.70
   2  -9   6   94.89   10.80
   7   2   6   64.19    7.90
   2  -9   6  100.29    8.40
   8  -7  -6   70.59    6.70
  -1   8  -6   84.59    8.80
  -7  -1  -6   84.39    6.00
   8  -7  -6   92.49    7.70
  -1   8  -6   96.39   10.10
  -1   8  -6  100.59    9.10
   8  -7  -6   92.49    8.80
  -7  -1  -6   94.29    9.60
   8  -7  -6   89.49    7.40
  -7  -1  -6   92.19    8.50
   1  -8   6  104.09    7.40
  -8   7   6   92.19    8.20
   1  -8   6   91.59    9.90
  -8   7   6  102.89    8.20
   7   1   6   85.49    8.20
   1  -8   6  118.59   10.30
   7   1   6   83.49    9.70
   0   7  -6   85.59    8.10
   0   7  -6   89.09    7.80
  -7   0  -6   78.19    8.60
   7  -7  -6   73.99    8.60
  -7   0  -6   76.79    6.50
   7  -7  -6   75.09    6.60
  -7   0  -6   78.09    7.50
   0   7  -6   77.99    7.50
   7  -7  -6   79.09    7.00
   0   7  -6   73.99    8.80
   7   0   6   77.79    8.80
  -7   7   6   80.39    7.70
   0  -7   6   84.09    9.10
   0  -7   6   74.39    6.60
   0  -7   6   86.99    5.90
   7   0   6   87.79    7.40
  -7   7   6   88.59    7.20
   0  -7   6   80.79    8.70
   7   0   6   84.19    7.60
   1   6  -6  124.09    8.10
  -7   1  -6  116.69    8.50
   1   6  -6  114.29    9.50
   6  -7  -6  129.89   10.70
   6  -7  -6  133.19    7.60
   1   6  -6  106.49    8.30
  -7   1  -6  136.59   10.10
  -7   1  -6  116.89    7.70
   6  -7  -6  130.59    8.20
  -6   7   6  103.89    9.40
  -1  -6   6  116.79    8.80
  -6   7   6  115.89    8.70
  -1  -6   6  117.69    6.30
   7  -1   6  107.29    9.50
   7  -1   6  115.19    7.50
   7  -1   6  112.79    9.90
  -1  -6   6  125.69    9.70
  -1  -6   6  126.09    6.40
  -1  -6   6  109.69    9.40
  -6   7   6  115.99    7.90
   7  -1   6  120.39    8.70
   5  -7  -6  117.59    8.00
   2   5  -6  116.89    7.60
   5  -7  -6  114.29    8.70
   5  -7  -6  129.69    7.70
  -7   2  -6  135.29    8.90
   2   5  -6  117.49    8.30
   5  -7  -6  108.79    9.80
   2   5  -6  116.89    9.20
  -7   2  -6  124.09    8.30
  -2  -5   6  134.39    8.50
   7  -2   6  133.59    9.60
   7  -2   6  121.89    9.50
  -2  -5   6  143.29    9.70
  -5   7   6  143.89    9.80
  -5   7   6  132.39    7.90
  -2  -5   6  128.39    9.30
  -5   7   6  124.59    8.90
   3   4  -6  101.59    7.40
  -7   3  -6   98.39    7.70
   4  -7  -6   97.69    6.90
   4  -7  -6  102.59    7.40
  -7   3  -6  110.59    8.10
   3   4  -6  106.09    8.40
   4  -7  -6  101.49    7.70
   4  -7  -6   99.99    8.50
   7  -3   6  110.39    5.30
  -3  -4   6   89.49    8.50
  -3  -4   6  111.09    6.90
  -4   7   6  105.79    7.30
  -3  -4   6   96.69    8.10
  -4   7   6  101.89    8.50
  -4   7   6  103.29    8.20
   7  -3   6   91.39    8.10
   7  -3   6  102.19    8.70
   3  -7  -6   92.19    7.30
  -7   4  -6  103.69    5.60
   4   3  -6   98.79    7.40
   4   3  -6  101.89    6.10
  -7   4  -6   97.69    7.90
   3  -7  -6  105.39    8.60
   3  -7  -6  104.59    7.20
   3  -7  -6  101.19    7.60
  -7   4  -6  101.89    8.00
   4   3  -6  104.39    8.10
  -3   7   6  115.19    7.80
  -3   7   6  110.79    8.50
   7  -4   6  107.39    8.30
  -4  -3   6  117.69    6.60
   7  -4   6   98.19    8.50
  -4  -3   6   96.99    8.50
  -3   7   6  114.39    8.40
  -4  -3   6   95.49    7.90
   7  -4   6   96.49    6.40
  -3   7   6   95.79    9.10
   5   2  -6  127.99    6.90
   2  -7  -6  127.79    8.20
   2  -7  -6  125.09    9.40
  -7   5  -6  125.69    8.80
   2  -7  -6  125.39    8.30
   2  -7  -6  129.79    8.60
  -7   5  -6  114.79    9.10
   5   2  -6  130.89    8.30
  -7   5  -6  123.59    7.60
   5   2  -6  124.49    8.80
  -5  -2   6  112.39    8.60
   7  -5   6  125.99    9.70
  -2   7   6  137.79    9.20
   7  -5   6  134.79    7.40
   7  -5   6  139.39    8.90
  -2   7   6  136.59    9.30
  -5  -2   6  136.69    9.70
  -2   7   6  124.19    9.20
   6   1  -6  116.69    8.60
   1  -7  -6  115.29    8.10
  -7   6  -6  115.89    9.20
   1  -7  -6  104.69    8.30
   6   1  -6  121.89    6.80
  -7   6  -6  119.49    8.60
   6   1  -6  110.89    8.00
  -7   6  -6  115.39    9.70
   1  -7  -6  114.59    8.50
  -1   7   6  126.19    9.30
   7  -6   6  116.29    9.60
  -6  -1   6  129.89    9.00
   7  -6   6  120.99    8.70
   7  -6   6  125.09   10.00
  -1   7   6  136.59    9.60
  -1   7   6  116.09    9.40
   7  -6   6  117.19    8.20
  -6  -1   6  124.39    9.50
   7   0  -6   86.29    6.60
  -7   7  -6   87.59    8.50
   7   0  -6   88.69    8.20
   0  -7  -6   76.19    7.90
   7   0  -6   83.39    7.80
   0  -7  -6   84.39    7.70
  -7   7  -6   98.89    9.60
   0  -7  -6   94.39    7.20
   7   0  -6   77.09    7.00
   7  -7   6   73.99    8.90
   0   7   6   81.39    8.90
  -7   0   6  101.19    8.40
  -7   0   6   80.59    8.90
   0   7   6   98.79    6.30
   0   7   6   94.49    8.80
   7  -7   6   89.29    7.00
   0   7   6   83.69    6.50
   7  -7   6   82.69    8.70
   0   7   6   72.59    7.90
  -1  -7  -6   94.19    7.60
   8  -1  -6   81.69    7.60
   8  -1  -6   91.89    7.30
  -7   8  -6   89.89   10.20
  -7   8  -6  100.99   10.00
  -1  -7  -6   97.29    9.30
   8  -1  -6   78.39    8.20
  -1  -7  -6   88.29    8.50
   7  -8   6   88.19   10.20
   1   7   6   95.59   10.00
  -8   1   6   88.39    9.70
  -8   1   6   95.89    9.00
   7  -8   6   86.59    9.60
   1   7   6   88.49    9.40
   1   7   6  104.39    9.20
   9  -2  -6   88.69    8.20
  -2  -7  -6   85.39    9.70
   9  -2  -6   78.69    6.10
  -2  -7  -6   87.29    9.20
  -2  -7  -6   90.79    7.50
  -7   9  -6   76.69    9.50
  -7   9  -6   82.79   11.30
   9  -2  -6   70.79    8.90
   7  -9   6   86.69   11.00
  -9   2   6   87.29   10.30
   2   7   6   82.09    9.20
   2   7   6   87.39   10.60
   2   7   6   94.39   10.50
   7  -9   6   90.69   10.90
   8  -8  -6  868.71   35.20
   0   8  -6  890.51   35.90
  -8   0  -6  841.92   35.60
  -8   0  -6  871.41   37.70
   8  -8  -6  911.81   34.50
   0   8  -6  916.61   35.70
   0   8  -6  819.72   37.70
  -8   8   6  874.11   35.70
   0  -8   6  892.71   36.90
   8   0   6  851.41   38.00
   0  -8   6  890.51   37.70
   0  -8   6  898.61   33.60
  -8   8   6  896.41   34.50
   8   0   6  877.71   35.00
   7  -8  -6   86.99    8.10
   1   7  -6  100.69    9.10
  -8   1  -6   91.09   10.20
  -8   1  -6   95.59    7.80
   1   7  -6   80.39    9.70
   7  -8  -6  106.09    8.00
  -8   1  -6   95.59    9.00
   1   7  -6   97.69    8.20
  -1  -7   6   96.69   10.50
   8  -1   6   98.99   10.10
  -7   8   6  105.89    8.90
  -7   8   6   89.09    7.50
  -1  -7   6  100.29    7.30
   8  -1   6   89.09    7.80
  -1  -7   6  109.19   10.40
   6  -8  -6 1106.09   43.70
   6  -8  -6 1117.59   42.80
  -8   2  -6 1125.79   43.20
   6  -8  -6 1092.09   44.60
   2   6  -6 1113.19   45.50
   2   6  -6 1146.39   42.60
   2   6  -6 1170.18   44.20
  -8   2  -6 1134.89   44.20
  -2  -6   6 1122.09   40.50
  -2  -6   6 1079.49   42.70
  -2  -6   6 1149.08   45.20
   8  -2   6 1152.38   42.20
   8  -2   6 1110.99   45.30
  -2  -6   6 1185.48   45.50
   8  -2   6 1146.59   45.80
  -6   8   6 1120.99   44.40
  -6   8   6 1091.09   45.60
  -6   8   6 1186.18   42.50
   5  -8  -6  112.59    8.30
  -8   3  -6  135.69    9.40
   5  -8  -6  121.69    8.70
  -8   3  -6  139.89    9.30
   3   5  -6  131.39    9.30
   5  -8  -6  112.99    8.90
   3   5  -6  108.39    9.60
   5  -8  -6   89.59    9.60
   8  -3   6  125.79    7.00
  -5   8   6  129.49    8.00
  -5   8   6  141.09   10.40
  -3  -5   6  115.09    9.80
  -3  -5   6  122.19    8.00
   8  -3   6  119.79   10.10
   8  -3   6  125.79    7.20
  -3  -5   6  138.29   10.50
  -5   8   6  121.89    9.60
   8  -3   6  130.29   10.40
   4  -8  -6 1048.70   42.90
  -8   4  -6 1124.99   43.20
  -8   4  -6 1121.49   43.20
   4   4  -6 1045.00   43.20
   4  -8  -6 1093.49   42.50
   4   4  -6 1077.79   42.50
   4  -8  -6 1153.88   42.10
   4  -8  -6 1109.29   41.70
   4   4  -6 1121.09   40.30
  -4  -4   6 1125.19   40.30
  -4  -4   6 1137.29   44.00
   8  -4   6 1077.39   43.90
  -4  -4   6 1093.69   43.40
   8  -4   6 1059.59   43.40
  -4   8   6 1078.29   43.40
  -4   8   6 1068.29   41.40
  -4   8   6 1077.19   44.00
   3  -8  -6  117.09    8.50
  -8   5  -6  120.89    9.90
   5   3  -6  116.39    9.00
  -8   5  -6  114.69    9.20
   5   3  -6  119.99    6.60
   5   3  -6  130.79    8.90
   3  -8  -6  133.09   10.00
   3  -8  -6  116.09    8.50
   3  -8  -6  128.89    8.90
  -3   8   6  112.39    8.70
  -5  -3   6  105.89    9.40
   8  -5   6  123.29    7.00
  -3   8   6  116.49    9.50
  -5  -3   6  124.19   10.40
   8  -5   6  132.69    9.60
  -3   8   6  108.19    9.70
   8  -5   6  142.19   10.80
   6   2  -6 1159.18   41.60
  -8   6  -6 1224.78   43.40
  -8   6  -6 1127.19   44.80
   6   2  -6 1095.29   44.00
   6   2  -6 1111.39   44.60
   2  -8  -6 1091.29   44.00
   2  -8  -6 1136.09   44.30
   2  -8  -6 1102.99   44.00
   6   2  -6 1216.98   42.00
  -8   6  -6 1141.99   45.70
  -6  -2   6 1148.49   44.70
  -2   8   6 1095.29   45.10
   8  -6   6 1139.29   42.90
   8  -6   6 1109.59   44.00
  -2   8   6 1147.89   45.50
  -6  -2   6 1189.28   45.80
   8  -6   6 1112.49   45.50
  -2   8   6 1115.29   44.10
   7   1  -6   92.59    6.10
   7   1  -6   79.99    7.70
   7   1  -6   92.89    8.50
   1  -8  -6   96.99    8.00
   1  -8  -6   99.89    8.80
  -8   7  -6  102.99   10.50
  -8   7  -6   92.99    9.10
   1  -8  -6   87.69    8.70
   8  -7   6   78.39   10.10
   8  -7   6   92.19    8.20
  -1   8   6   92.09    9.40
  -1   8   6   83.49    9.80
  -7  -1   6   89.19   10.40
   8  -7   6   80.39    9.60
  -1   8   6   82.39    9.30
  -7  -1   6   91.69    9.40
  -8   8  -6  928.91   38.50
   8   0  -6  837.42   35.40
   8   0  -6  869.11   35.90
  -8   8  -6  931.51   36.70
   0  -8  -6  899.41   36.20
   0  -8  -6  888.11   36.50
   0  -8  -6  884.81   34.90
   8  -8   6  830.12   37.60
   8  -8   6  906.11   37.70
   8  -8   6  843.12   33.30
   0   8   6  914.41   33.00
   0   8   6  874.81   36.50
   0   8   6  838.82   36.90
  -8   0   6  878.11   36.00
  -8   0   6  895.81   37.30
   0   8   6  890.41   36.80
   2   7  -6   70.09    9.40
  -9   2  -6   83.39    9.40
   2   7  -6   75.39    8.30
   7  -9  -6   92.19    8.90
   2   7  -6   86.19    8.20
  -9   2  -6   82.29    8.60
   7  -9  -6   72.09    8.40
   9  -2   6   84.59    8.20
   9  -2   6   87.79   10.70
  -7   9   6   96.39    7.20
  -2  -7   6  102.39   10.90
  -2  -7   6   83.59    5.60
  -7   9   6   86.79    9.30
  -7   9   6   77.09    9.70
  -2  -7   6   82.99   10.60
  -9   3  -6   78.89    8.90
   6  -9  -6   77.89    8.50
   3   6  -6   83.49    9.10
  -9   3  -6   81.19    8.90
   3   6  -6   81.09    9.80
   6  -9  -6   83.69    8.10
   9  -3   6   90.19    7.00
  -3  -6   6   85.59    9.50
   9  -3   6   82.69   10.10
  -6   9   6   82.09   10.10
  -3  -6   6   81.49    9.70
  -6   9   6   96.39    9.50
  -6   9   6   77.89    7.10
   9  -3   6   58.99    8.30
  -9   4  -6   84.29    9.30
   5  -9  -6   79.59    8.30
   5  -9  -6   90.59    8.60
   4   5  -6   78.99    9.20
   5  -9  -6   67.99    8.30
   4   5  -6   80.79    9.00
  -9   4  -6  102.39    9.00
  -4  -5   6   87.29    9.70
   9  -4   6   83.29    6.10
   9  -4   6   97.69   10.10
  -5   9   6   90.29    9.50
  -5   9   6   82.19   10.00
  -5   9   6   88.09    7.20
   9  -4   6  104.39   11.00
  -4  -5   6   80.19   10.30
   4  -9  -6   71.89    8.00
   4  -9  -6   86.19    8.60
   5   4  -6   70.09    9.00
   4  -9  -6   82.59    8.10
   5   4  -6   86.89    8.50
  -9   5  -6   90.99   10.00
  -9   5  -6   87.89    9.00
   9  -5   6   67.69    8.60
  -4   9   6  109.89    9.70
  -4   9   6   91.99   10.20
  -5  -4   6   95.99   10.60
  -4   9   6   84.19    7.70
  -5  -4   6   84.49    9.80
   9  -5   6   92.29    9.70
   6   3  -6   63.99    7.90
  -9   6  -6   81.79    9.80
   3  -9  -6   75.49    7.80
   6   3  -6   89.99    8.70
   3  -9  -6   77.29    8.20
   3  -9  -6   70.49    8.70
  -9   6  -6   79.09    9.30
  -3   9   6   54.69    7.40
  -3   9   6   75.09    9.70
  -3   9   6   94.89    8.70
   9  -6   6   97.59   10.60
  -6  -3   6   65.69    8.10
  -6  -3   6   89.99   11.00
   9  -6   6   84.49    9.40
   7   2  -6   74.19    9.00
   2  -9  -6   88.29    9.50
  -9   7  -6  100.69    9.00
  -9   7  -6   92.49   11.20
   2  -9  -6   80.69    8.40
   2  -9  -6   78.19    8.70
   7   2  -6   77.19    9.00
   9  -7   6   79.99    9.40
   9  -7   6   86.29   10.60
  -7  -2   6   92.19   11.60
  -2   9   6   95.49   10.50
   9  -7   6   80.89    9.50
  -7  -2   6   83.49   10.60
  -2   9   6   86.49    9.60
  -2   9   6   87.59    9.90
   0   0  -7 1886.21   67.19
   0   0  -7 1920.71   66.19
   0   0  -7 1765.92   65.29
   0   0  -7 1882.81   65.59
   0   0  -7 1597.44   66.19
   0   0  -7 1781.02   65.59
   0   0   7 1876.71   65.49
   0   0   7 1759.42   65.29
   0   0   7 1861.41   64.79
   0   0   7 1991.10   66.89
   0   0   7 1851.71   66.29
   0   0   7 1737.73   66.99
   1  -1  -7  167.68    8.90
   0   1  -7  173.48    7.70
   0   1  -7  180.68    9.80
   0   1  -7  179.98    9.10
  -1   0  -7  168.58    8.90
   0   1  -7  177.28    8.10
   1  -1  -7  188.38    8.80
   0   1  -7  189.88    9.20
  -1   0  -7  179.38    8.30
  -1   0  -7  187.08    9.00
   1  -1  -7  189.88   10.00
  -1   0  -7  185.38    7.90
   1  -1  -7  193.48    8.60
   0   1  -7  160.28    8.60
   1  -1  -7  165.38    7.90
  -1   0  -7  189.88    9.90
   0  -1   7  164.48    7.70
   1   0   7  180.88    8.10
   0  -1   7  205.08    9.40
   1   0   7  199.38    8.70
   1   0   7  170.38    8.00
   1   0   7  186.88    9.40
   0  -1   7  196.48    8.00
   1   0   7  176.38    8.90
   1   0   7  162.38    9.40
   0  -1   7  171.68    9.30
  -1   1   7  203.28    9.70
   0  -1   7  159.98    8.90
  -1   1   7  180.88    9.60
  -1   1   7  180.58    8.20
   0  -1   7  189.08    7.90
  -1   1   7  175.18    8.40
   0  -1  -7  170.98    8.90
   1   0  -7  188.18   10.00
  -1   1  -7  184.88    9.30
   1   0  -7  160.18    8.70
   1   0  -7  190.58    8.50
  -1   1  -7  195.08    9.90
   0  -1  -7  185.78    8.60
   0  -1  -7  186.38    8.50
  -1   1  -7  167.28    9.00
  -1   1  -7  186.28    8.00
   1   0  -7  180.18    8.60
   0  -1  -7  166.38    8.30
  -1   1  -7  168.88    8.10
   0  -1  -7  180.58    8.60
   0  -1  -7  188.88   10.00
   1   0  -7  181.78    8.90
  -1   1  -7  165.28    8.00
   0   1   7  180.88    8.50
   0   1   7  155.28    9.30
   1  -1   7  192.38    8.30
   0   1   7  155.88    7.40
  -1   0   7  183.98    7.80
   1  -1   7  179.08    9.10
   0   1   7  183.28    8.50
  -1   0   7  179.48    7.00
   1  -1   7  170.48    9.40
  -1   0   7  167.88    8.00
  -1   0   7  170.28    8.80
   0   1   7  201.88    9.60
   0   1   7  175.18    8.30
   1  -1   7  170.08    9.10
   1  -1   7  189.68    8.20
  -1   0   7  189.68    9.20
  -1   0   7  184.28    7.00
  -1   2  -7  169.68    7.40
  -1   2  -7  147.19    9.00
  -1  -1  -7  174.88    7.90
  -1  -1  -7  169.98    7.70
  -1  -1  -7  162.58    8.50
   2  -1  -7  152.88    8.40
   2  -1  -7  164.68    8.50
   2  -1  -7  171.98    9.80
  -1   2  -7  156.78    7.50
  -1   2  -7  155.08    8.00
  -1   2  -7  169.58    8.80
  -1  -1  -7  171.18    8.20
   2  -1  -7  160.88    7.20
   2  -1  -7  164.48    8.30
  -1   2  -7  174.38    9.30
  -1  -1  -7  164.48    8.10
   2  -1  -7  172.58    8.20
   1  -2   7  183.18    8.00
   1   1   7  168.18    8.40
   1   1   7  153.48    9.20
  -2   1   7  173.38    9.10
   1   1   7  180.18    7.90
  -2   1   7  173.78    7.40
   1  -2   7  159.88    8.90
   1  -2   7  164.98    8.00
   1   1   7  177.18    8.90
  -2   1   7  161.68    9.00
   1   1   7  157.48    7.90
   1  -2   7  168.48    7.50
   1  -2   7  152.98    8.80
   1  -2   7  180.88    8.90
  -2   1   7  162.08    8.00
  -2   1   7  162.58    8.00
   1   1   7  156.58    8.00
  -1   3  -7  171.08    9.10
  -2  -1  -7  152.48    8.00
  -1   3  -7  154.78    8.40
  -2  -1  -7  149.79    6.80
  -2  -1  -7  156.78    8.00
  -2  -1  -7  163.98    7.90
   3  -2  -7  142.59    9.30
  -1   3  -7  161.08    6.80
   3  -2  -7  147.69    7.00
  -2  -1  -7  157.58    9.70
  -1   3  -7  146.69    8.20
   3  -2  -7  134.19    8.00
   3  -2  -7  158.08    7.70
  -2  -1  -7  143.29    8.00
  -1   3  -7  152.98    7.10
  -2  -1  -7  158.58    6.60
  -1   3  -7  154.18    9.40
   3  -2  -7  143.99    8.60
  -3   2   7  142.29    7.40
   1  -3   7  158.38    8.00
   2   1   7  153.58    8.20
   2   1   7  164.48    8.50
   2   1   7  161.38    8.40
   1  -3   7  156.48    8.90
  -3   2   7  156.28    7.20
   2   1   7  146.19    9.10
  -3   2   7  138.69    8.60
   1  -3   7  157.38    8.50
   2   1   7  147.59    8.10
   1  -3   7  158.18    7.00
  -3   2   7  146.49    7.90
   1  -3   7  141.89    8.20
   0   2  -7 1910.21   66.19
   0   2  -7 1922.91   66.39
  -2   0  -7 1730.13   65.49
   2  -2  -7 1828.22   65.79
  -2   0  -7 1878.21   64.59
  -2   0  -7 1851.81   66.49
   2  -2  -7 1716.13   65.59
  -2   0  -7 1788.12   64.69
   2  -2  -7 1739.73   64.49
  -2   0  -7 1685.63   63.89
  -2   0  -7 1781.12   65.09
   0   2  -7 1851.31   64.39
   0   2  -7 1714.53   65.39
  -2   0  -7 1772.92   65.19
   2  -2  -7 1832.82   66.49
   2  -2  -7 1813.82   64.49
   0   2  -7 1722.63   65.59
   2   0   7 1806.62   66.49
  -2   2   7 1700.83   64.49
   2   0   7 1844.82   65.09
   0  -2   7 1837.42   63.99
   2   0   7 1949.60   65.39
   0  -2   7 1743.03   65.99
   2   0   7 1785.92   65.49
  -2   2   7 1719.93   65.19
   0  -2   7 1720.73   64.59
  -2   2   7 1716.83   66.19
   0  -2   7 1864.91   65.19
  -2   2   7 1823.32   64.69
   0  -2   7 1774.52   65.89
   0  -2   7 1940.51   65.79
   2   0   7 1742.73   64.49
   2   0   7 1869.21   65.79
  -2   1  -7  176.38    9.50
  -2   1  -7  174.38    7.30
   1  -2  -7  176.68    7.70
   1   1  -7  169.68    8.60
   1   1  -7  178.28    7.90
  -2   1  -7  167.98    8.10
   1   1  -7  166.18    6.80
   1  -2  -7  154.98    8.40
   1  -2  -7  146.29    8.40
   1  -2  -7  171.98    6.60
  -2   1  -7  173.58    9.00
   1  -2  -7  170.48    9.60
   1   1  -7  160.38    8.30
  -2   1  -7  136.79    7.70
   1   1  -7  163.98    8.80
   1   1  -7  176.18    9.50
   1  -2  -7  176.88    8.80
   1  -2  -7  172.88    8.70
  -2   1  -7  149.99    8.40
  -1  -1   7  164.08    8.70
  -1  -1   7  157.18    7.10
  -1  -1   7  159.68    7.20
  -1   2   7  151.98    6.60
  -1   2   7  166.58    8.30
   2  -1   7  171.18    8.80
   2  -1   7  168.18    8.10
  -1   2   7  160.28    8.00
   2  -1   7  163.28    9.10
   2  -1   7  163.68    7.10
  -1  -1   7  160.48    8.60
  -1  -1   7  157.38    8.70
   2  -1   7  167.98    8.00
   2  -1   7  172.08    8.90
  -1   2   7  151.08    9.10
  -1   2   7  173.08    9.20
   0  -2  -7 1839.42   65.49
  -2   2  -7 1623.74   64.59
   0  -2  -7 1668.53   64.49
   2   0  -7 1758.32   62.59
   2   0  -7 1736.63   64.39
   2   0  -7 1714.43   64.39
  -2   2  -7 1634.44   63.49
   2   0  -7 1783.22   63.89
   2   0  -7 1863.01   64.49
   2   0  -7 1832.72   65.39
  -2   2  -7 1813.42   65.09
  -2   2  -7 1706.23   63.69
  -2   2  -7 1772.02   64.99
   0  -2  -7 1690.63   63.99
   0  -2  -7 1757.32   63.09
   0  -2  -7 1813.12   64.29
  -2   2  -7 1812.52   62.79
   0  -2  -7 1895.01   64.19
   0   2   7 1913.01   64.99
   2  -2   7 1818.12   64.09
   0   2   7 1707.43   65.39
   2  -2   7 1680.03   62.39
   2  -2   7 1811.52   63.59
  -2   0   7 1718.83   64.99
   0   2   7 1753.12   63.59
   2  -2   7 1836.52   64.59
   2  -2   7 1836.42   63.39
   2  -2   7 1758.32   64.99
   2  -2   7 1733.23   64.89
  -2   0   7 1857.61   64.89
  -2   0   7 1714.83   64.29
  -2   0   7 1781.32   62.69
   0   2   7 1710.03   63.19
   0   2   7 1826.82   64.19
   0   2   7 1710.33   64.09
  -1  -2  -7  148.59    8.10
   3  -1  -7  140.59    8.20
  -2   3  -7  140.09    8.40
   3  -1  -7  149.29    9.30
  -1  -2  -7  153.48    8.30
  -2   3  -7  153.38    9.50
  -2   3  -7  158.08    6.50
  -1  -2  -7  151.88    9.50
   3  -1  -7  154.58    6.60
  -1  -2  -7  161.98    7.60
  -2   3  -7  156.38    7.60
   3  -1  -7  148.89    8.20
   3  -1  -7  150.38    8.20
  -1  -2  -7  147.99    7.90
  -2   3  -7  134.49    8.50
  -2   3  -7  166.28    8.90
  -1  -2  -7  152.08    7.50
   3  -1  -7  162.78    8.10
   2  -3   7  146.29    8.20
   2  -3   7  163.58    8.70
   1   2   7  158.28    7.70
   1   2   7  148.19    8.50
   2  -3   7  151.58    9.00
   1   2   7  160.48    9.30
   2  -3   7  156.58    7.60
  -3   1   7  159.58    9.00
  -3   1   7  154.68    7.80
   2  -3   7  157.48    7.40
   1   2   7  165.18    8.70
   2  -3   7  143.79    8.50
   1   2   7  145.19    7.90
  -3   1   7  155.38    8.70
   1   2   7  157.88    7.90
  -2  -2  -7 2212.88   80.19
  -2  -2  -7 2241.68   78.89
  -2   4  -7 2193.28   78.29
   4  -2  -7 2336.97   79.99
  -2   4  -7 2133.79   80.89
  -2  -2  -7 2449.95   80.29
  -2   4  -7 2271.17   78.39
  -2  -2  -7 2219.58   80.29
   4  -2  -7 2155.58   80.49
  -2   4  -7 2289.77   80.79
   4  -2  -7 2108.49   78.79
  -2   4  -7 2168.68   80.59
  -2  -2  -7 2201.68   80.49
  -2   4  -7 2182.88   79.59
   2   2   7 2154.78   81.89
   2  -4   7 2237.58   79.29
   2  -4   7 2342.37   80.09
  -4   2   7 2128.79   80.19
  -4   2   7 2147.19   80.99
   2   2   7 2277.17   79.99
   2  -4   7 2293.37   81.89
   2   2   7 2122.69   80.09
   2   2   7 2181.58   80.09
   2  -4   7 2070.09   81.19
   2   2   7 2293.37   80.59
   2   2   7 2305.87   80.59
  -3  -2  -7  236.78   11.00
   5  -3  -7  232.88   10.80
  -3  -2  -7  225.68   11.40
  -2   5  -7  245.18    9.50
  -3  -2  -7  230.98   11.50
  -2   5  -7  220.98   11.90
  -2   5  -7  251.37   11.60
  -3  -2  -7  229.98   11.50
  -3  -2  -7  237.78    9.10
   5  -3  -7  234.38   11.60
  -2   5  -7  230.48   11.80
  -2   5  -7  234.88   12.00
   5  -3  -7  228.58   10.80
   3   2   7  216.78   11.10
   2  -5   7  213.88   11.70
   2  -5   7  235.48   12.10
   3   2   7  218.28   12.50
   2  -5   7  231.38   12.50
   3   2   7  219.58   11.20
  -5   3   7  225.08   11.30
  -5   3   7  234.28   12.00
   2  -5   7  237.48   10.50
   3   2   7  239.68   11.50
   3   2   7  255.27   11.90
  -5   3   7  212.28   11.40
  -1   4  -7  179.78   10.00
   4  -3  -7  192.78   11.20
   4  -3  -7  196.18    8.80
  -3  -1  -7  176.58    9.50
  -1   4  -7  191.78   10.40
  -1   4  -7  191.98   10.00
   4  -3  -7  192.48   10.00
  -1   4  -7  198.58    8.20
  -1   4  -7  176.98    8.20
  -3  -1  -7  183.98    9.80
  -3  -1  -7  204.28    9.30
  -3  -1  -7  189.08    9.70
   3   1   7  197.08   10.50
  -4   3   7  173.28    9.50
   3   1   7  200.58   10.50
   3   1   7  200.48   11.00
   1  -4   7  176.08   10.50
   3   1   7  180.18    9.70
   1  -4   7  202.48   10.00
   1  -4   7  180.68    9.70
   1  -4   7  190.68   10.10
   1  -4   7  185.58    9.50
  -4   3   7  180.98    8.60
  -4   3   7  174.48   10.00
   1  -4   7  200.98    8.40
   3   1   7  199.88    9.30
   0   3  -7  275.87   13.80
   0   3  -7  264.97   11.20
   3  -3  -7  278.37   11.30
   0   3  -7  287.37   13.50
   3  -3  -7  290.97   13.40
   3  -3  -7  267.17   12.70
  -3   0  -7  283.37   11.50
   0   3  -7  237.38   12.30
   3  -3  -7  279.17   13.90
  -3   0  -7  265.07   12.30
   0   3  -7  277.47   12.60
  -3   0  -7  269.17   12.40
  -3   0  -7  276.97   12.50
   3  -3  -7  285.17   13.50
   0   3  -7  246.38   12.50
  -3   0  -7  265.67   13.70
   3  -3  -7  271.57   11.70
   0   3  -7  289.77   11.40
  -3   3   7  258.77   11.00
   3   0   7  279.47   12.70
   3   0   7  285.77   12.70
   0  -3   7  277.67   12.50
   3   0   7  284.77   12.90
   0  -3   7  256.77   13.00
   0  -3   7  267.77   13.00
   3   0   7  278.67   12.80
  -3   3   7  259.87   12.40
  -3   3   7  286.97   12.00
   3   0   7  279.37   11.60
   3   0   7  250.57   13.40
   0  -3   7  280.97   12.50
   0  -3   7  285.57   10.90
   0  -3   7  277.57   12.70
  -3   3   7  265.47   13.00
   2  -3  -7  162.18    6.90
   1   2  -7  147.19    6.30
   1   2  -7  136.19    8.10
   2  -3  -7  144.69    8.30
   1   2  -7  146.19    7.30
   2  -3  -7  161.38    9.40
  -3   1  -7  161.48    6.90
  -3   1  -7  158.38    8.10
   1   2  -7  156.28    9.20
   1   2  -7  154.88    8.20
  -3   1  -7  151.48    8.30
   1   2  -7  164.28    9.30
   1   2  -7  166.18    7.60
   2  -3  -7  143.09    8.80
   2  -3  -7  163.18    7.70
  -3   1  -7  161.48    6.60
   2  -3  -7  162.28    9.00
  -3   1  -7  173.18    9.70
  -1  -2   7  169.98    8.60
   3  -1   7  152.08    8.50
  -1  -2   7  142.79    8.60
  -1  -2   7  151.08    8.20
   3  -1   7  151.48    8.50
  -1  -2   7  142.79    8.20
   3  -1   7  148.39    8.00
   3  -1   7  143.59    8.20
  -2   3   7  151.48    8.20
   3  -1   7  159.28    6.90
   3  -1   7  153.58    9.00
  -1  -2   7  161.28    6.40
  -2   3   7  150.08    6.80
  -1  -2   7  141.19    7.30
  -2   3   7  160.68    8.10
  -2   3   7  154.18    8.80
  -3   2  -7  152.58    9.10
  -3   2  -7  141.99    8.20
  -3   2  -7  147.89    7.80
   1  -3  -7  169.68    8.70
   2   1  -7  155.38    6.90
   2   1  -7  153.28    9.20
   2   1  -7  143.09    8.00
   1  -3  -7  150.58    8.80
  -3   2  -7  153.88    6.30
   1  -3  -7  160.68    7.90
   1  -3  -7  165.28    9.40
  -3   2  -7  152.48    9.40
   2   1  -7  158.08    8.90
   2   1  -7  147.49    8.20
   1  -3  -7  149.29    8.30
   2   1  -7  141.89    7.60
   1  -3  -7  165.68    6.80
  -1   3   7  148.89    8.10
  -2  -1   7  143.39    8.30
   3  -2   7  150.68    8.70
   3  -2   7  152.58    6.10
  -2  -1   7  147.79    8.40
   3  -2   7  151.38    8.30
   3  -2   7  153.28    8.50
  -2  -1   7  161.28    8.50
  -1   3   7  160.18    9.00
  -2  -1   7  145.49    6.90
  -1   3   7  147.29    6.90
   3  -2   7  144.99    8.50
  -1   3   7  166.78    8.40
   3  -2   7  155.58    7.90
   3  -2   7  158.18    6.80
  -3   3  -7  296.97   13.40
   3   0  -7  281.07   12.90
   3   0  -7  279.97   10.30
   0  -3  -7  284.07   12.60
  -3   3  -7  279.77   12.30
   0  -3  -7  278.87   13.80
  -3   3  -7  253.57   11.90
   3   0  -7  294.57   10.80
   0  -3  -7  273.07   12.80
  -3   3  -7  283.17   13.20
   0  -3  -7  292.27   13.30
   3   0  -7  274.67   12.90
   3   0  -7  283.47   12.60
   0  -3  -7  290.27   11.80
   3   0  -7  271.37   13.80
   3   0  -7  282.47   12.60
   0  -3  -7  275.97   12.50
  -3   3  -7  261.97   13.80
   3  -3   7  305.97   11.70
   0   3   7  266.27   12.80
  -3   0   7  285.57   10.90
   3  -3   7  287.67   12.20
   3  -3   7  285.27   13.00
   3  -3   7  266.07   13.10
   3  -3   7  284.47   12.90
  -3   0   7  279.87   13.00
  -3   0   7  262.77   12.70
  -3   0   7  267.87   13.10
   0   3   7  285.67   12.10
   0   3   7  272.67   13.60
   0   3   7  277.57   12.80
   3  -3   7  263.97   13.40
   3  -3   7  272.47   12.90
  -1  -3  -7  189.08    9.50
  -3   4  -7  193.28   10.00
  -1  -3  -7  179.78    9.60
  -3   4  -7  187.18   10.10
   4  -1  -7  205.18   10.00
   4  -1  -7  188.28    7.50
  -3   4  -7  176.18    9.00
   4  -1  -7  187.68    9.50
  -1  -3  -7  180.18   10.10
  -1  -3  -7  189.58    9.20
   4  -1  -7  177.98    9.70
  -3   4  -7  174.18    9.50
  -1  -3  -7  197.28    9.00
   1   3   7  181.28   10.60
   3  -4   7  209.48    9.20
   3  -4   7  165.78   10.50
   1   3   7  192.98    9.90
   1   3   7  184.08    9.70
   3  -4   7  182.28   10.50
   1   3   7  186.18    8.90
   3  -4   7  184.98    9.00
  -4   1   7  193.48    9.60
   3  -4   7  174.48    9.80
  -4   1   7  179.58   10.00
   1   3   7  194.48    8.70
   5  -2  -7  232.78   11.60
   5  -2  -7  232.68    9.70
  -2  -3  -7  244.88   11.80
  -2  -3  -7  240.88   11.70
  -3   5  -7  231.58   12.30
   5  -2  -7  239.38   11.60
   5  -2  -7  228.08   11.80
   5  -2  -7  235.38    9.90
  -3   5  -7  251.07   11.80
  -3   5  -7  230.08   12.00
  -2  -3  -7  237.68   10.40
  -2  -3  -7  231.58   11.20
  -5   2   7  238.58   11.50
   2   3   7  244.38   11.20
   2   3   7  234.18   13.00
   2   3   7  237.08   11.20
   2   3   7  247.48   11.80
   3  -5   7  258.17   13.00
   3  -5   7  245.88   12.50
   3  -5   7  229.98   11.10
   2   3   7  233.98   12.80
   3  -5   7  249.58   11.80
   3  -5   7  232.48   11.00
  -5   2   7  228.48   12.10
   6  -3  -7   76.39    6.40
   6  -3  -7   69.19    5.50
  -3   6  -7   88.79    4.30
  -3  -3  -7   66.89    6.40
  -3   6  -7   64.99    6.90
  -3  -3  -7   74.99    5.80
   6  -3  -7   76.39    5.60
  -3   6  -7   74.59    4.50
  -3  -3  -7   81.09    7.00
  -3   6  -7   70.39    6.90
  -3   6  -7   84.39    7.50
   6  -3  -7   97.59    7.30
  -3  -3  -7   79.49    4.70
   3   3   7   65.89    7.40
   3   3   7   84.99    7.90
  -6   3   7   93.69    7.20
   3  -6   7   73.89    5.50
   3  -6   7   78.09    7.70
  -6   3   7   85.39    6.50
   3   3   7   82.49    6.60
   3  -6   7   83.39    7.40
   3   3   7   81.99    6.50
  -4  -3  -7  118.99    8.70
   7  -4  -7  102.59    9.40
   7  -4  -7  130.19    6.50
  -3   7  -7  121.99    9.80
   7  -4  -7  130.69    6.80
  -4  -3  -7  119.09    9.20
  -3   7  -7  124.49    9.50
   7  -4  -7  132.49    8.60
  -3   7  -7  113.39    6.70
  -4  -3  -7  127.19    7.40
  -3   7  -7  128.59    6.30
   7  -4  -7  114.29    7.10
   7  -4  -7  115.29    8.30
  -3   7  -7  132.79    8.10
   4   3   7  115.29    9.80
  -7   4   7  126.39    8.30
   4   3   7   98.29    8.20
   3  -7   7  114.49    9.70
  -7   4   7  119.49    9.00
   3  -7   7  134.69    9.80
   3  -7   7  116.69    6.40
  -2   6  -7 1444.76   53.39
  -4  -2  -7 1500.15   55.39
   6  -4  -7 1500.95   53.99
  -4  -2  -7 1478.95   54.19
   6  -4  -7 1432.56   52.59
  -2   6  -7 1567.64   52.99
   6  -4  -7 1504.15   53.79
  -2   6  -7 1439.26   56.19
  -2   6  -7 1435.56   55.89
   6  -4  -7 1457.55   55.49
  -2   6  -7 1583.54   54.89
  -4  -2  -7 1476.95   55.69
   4   2   7 1424.66   54.79
   4   2   7 1523.65   55.59
   2  -6   7 1397.56   54.09
  -6   4   7 1487.45   54.09
   2  -6   7 1482.45   53.79
  -6   4   7 1449.76   55.09
   4   2   7 1512.45   54.49
  -6   4   7 1539.25   55.79
   4   2   7 1434.46   56.89
   2  -6   7 1437.26   56.29
   2  -6   7 1424.36   55.99
  -1   5  -7  202.78   11.70
  -4  -1  -7  217.78   11.10
  -1   5  -7  228.08    9.40
  -1   5  -7  199.18   11.10
  -4  -1  -7  207.58   10.30
  -4  -1  -7  231.28   11.50
  -4  -1  -7  212.98   10.40
   5  -4  -7  220.78    9.90
   5  -4  -7  210.38   11.20
  -1   5  -7  198.18   10.50
   5  -4  -7  224.38    9.80
  -1   5  -7  222.18   11.70
  -5   4   7  208.68    9.40
   4   1   7  211.48   10.70
   4   1   7  230.68   10.50
   1  -5   7  207.18   11.40
   1  -5   7  214.78   11.90
  -5   4   7  206.08   11.20
   4   1   7  201.68   11.10
   1  -5   7  221.78   10.40
   1  -5   7  226.28    9.50
   4   1   7  199.78   12.00
  -5   4   7  216.88   11.00
   0   4  -7 2150.48   75.09
   4  -4  -7 2054.89   75.29
   4  -4  -7 2078.79   76.69
   0   4  -7 2092.79   76.39
  -4   0  -7 2061.29   76.49
   0   4  -7 2047.90   76.79
   4  -4  -7 1885.31   74.89
  -4   0  -7 2147.29   75.99
  -4   0  -7 2026.50   76.19
   0   4  -7 2223.28   74.89
   0   4  -7 2171.78   76.69
   4  -4  -7 2040.90   76.99
  -4   0  -7 2185.58   74.89
   0   4  -7 2158.08   76.09
   0  -4   7 2106.39   77.19
  -4   4   7 1990.20   76.19
   4   0   7 2084.69   76.69
   4   0   7 2167.88   76.09
   0  -4   7 2048.20   75.79
   0  -4   7 2029.20   76.19
   4   0   7 2185.98   78.09
   0  -4   7 2178.88   74.19
   4   0   7 2001.00   77.39
  -4   4   7 2059.69   76.69
  -4   4   7 2101.69   74.19
   0  -4   7 2120.39   76.09
   3  -4  -7  194.38    7.60
   1   3  -7  181.98    8.70
  -4   1  -7  201.18    8.20
   1   3  -7  189.48    8.90
  -4   1  -7  178.98   10.50
   1   3  -7  179.18    9.30
   3  -4  -7  198.68    9.20
   1   3  -7  196.08   10.70
   3  -4  -7  185.28    9.90
  -4   1  -7  191.28    9.70
   1   3  -7  181.98    9.60
   3  -4  -7  192.38   11.00
   1   3  -7  190.68   10.20
  -1  -3   7  189.58    9.70
   4  -1   7  190.08   10.60
   4  -1   7  178.98    8.20
  -3   4   7  182.28   10.30
  -1  -3   7  176.38   10.20
   4  -1   7  175.38   10.40
  -1  -3   7  199.88   10.00
  -3   4   7  191.88    9.70
   4  -1   7  193.58    9.90
  -1  -3   7  195.98    7.50
  -1  -3   7  184.98    9.50
   4  -1   7  183.88   10.10
  -4   2  -7 2236.78   77.09
   2  -4  -7 2098.19   79.69
  -4   2  -7 2211.08   79.39
   2   2  -7 2149.48   78.39
  -4   2  -7 2252.37   80.29
  -4   2  -7 2137.79   79.69
   2  -4  -7 2234.68   77.69
   2   2  -7 2156.88   79.19
   2   2  -7 2242.08   80.19
   2   2  -7 2101.59   79.79
   2   2  -7 2276.97   78.69
  -4   2  -7 2084.69   77.39
   2  -4  -7 2241.28   79.99
   2  -4  -7 2183.78   78.99
   2  -4  -7 2281.77   80.39
   4  -2   7 2283.17   79.59
  -2   4   7 2100.99   79.59
  -2   4   7 2108.89   77.89
  -2  -2   7 2204.98   80.09
   4  -2   7 2173.78   80.29
  -2  -2   7 2131.39   79.69
  -2   4   7 2033.50   80.09
  -2   4   7 2262.77   79.39
   4  -2   7 2227.08   77.19
   4  -2   7 2189.98   80.19
  -2  -2   7 2196.78   78.69
   4  -2   7 2185.58   79.69
  -2  -2   7 2338.87   79.49
   3   1  -7  186.78    9.30
   3   1  -7  181.88    9.80
  -4   3  -7  186.28    8.40
  -4   3  -7  164.58    9.70
   1  -4  -7  179.58   10.90
   3   1  -7  197.08    8.40
  -4   3  -7  180.48    9.40
   1  -4  -7  177.68    9.50
   3   1  -7  200.08   10.00
   1  -4  -7  199.28   10.30
   1  -4  -7  189.48    8.50
   1  -4  -7  179.88    9.30
  -4   3  -7  197.78   10.50
  -1   4   7  178.68    9.80
  -3  -1   7  184.68    9.90
  -1   4   7  177.28    7.60
  -3  -1   7  171.58    8.40
  -1   4   7  190.08    9.60
  -3  -1   7  175.18    9.90
  -1   4   7  191.08    7.50
   4  -3   7  177.08   10.30
   4  -3   7  191.88   10.10
   4  -3   7  194.98    8.10
   4  -3   7  172.68   10.20
  -3  -1   7  181.98    9.90
  -1   4   7  194.48   10.70
  -1   4   7  192.78    8.90
   0  -4  -7 1951.60   76.09
   4   0  -7 1952.80   76.39
   0  -4  -7 2159.48   76.09
   0  -4  -7 2051.09   75.69
   4   0  -7 2015.60   75.99
  -4   4  -7 2144.09   76.49
   0  -4  -7 2375.56   79.49
   4   0  -7 2263.67   74.69
  -4   4  -7 2013.50   76.99
   0  -4  -7 2120.59   76.49
  -4   4  -7 2105.69   76.19
   0   4   7 2136.09   76.09
   4  -4   7 2033.70   75.09
   4  -4   7 2029.30   76.89
   0   4   7 2085.89   75.99
   0   4   7 2074.89   77.59
   0   4   7 2116.09   74.59
   4  -4   7 2105.89   76.59
   4  -4   7 2047.70   77.29
   0   4   7 2056.59   76.69
   0   4   7 2087.29   74.79
  -4   0   7 2080.99   76.69
  -4   0   7 1979.60   76.79
  -4   0   7 2345.27   74.99
  -1  -4  -7  210.78   10.70
  -4   5  -7  235.68   11.20
   5  -1  -7  226.48    9.30
   5  -1  -7  220.18   10.80
   5  -1  -7  212.88   11.20
  -4   5  -7  205.18   10.80
  -1  -4  -7  196.78   10.90
  -4   5  -7  215.38   11.00
  -4   5  -7  203.48   11.60
  -1  -4  -7  229.48   10.70
  -1  -4  -7  231.38   10.90
  -5   1   7  221.48   11.40
   4  -5   7  211.78   11.70
   1   4   7  217.38   10.40
  -5   1   7  210.08    9.20
  -5   1   7  207.18   11.50
   1   4   7  219.78   11.30
   1   4   7  210.88   11.90
   4  -5   7  206.48   10.50
   1   4   7  213.48    9.90
   1   4   7  222.18   10.00
   1   4   7  219.08   12.20
   4  -5   7  220.28   12.20
  -2  -4  -7 1419.26   53.79
   6  -2  -7 1439.66   52.39
  -2  -4  -7 1577.94   53.29
   6  -2  -7 1431.96   54.89
  -2  -4  -7 1425.56   54.69
  -4   6  -7 1428.36   55.79
  -4   6  -7 1523.55   53.69
   6  -2  -7 1419.66   54.29
   6  -2  -7 1447.66   52.09
  -4   6  -7 1416.26   54.99
  -2  -4  -7 1406.66   54.69
  -6   2   7 1424.56   55.29
   2   4   7 1401.76   54.89
   2   4   7 1508.95   53.79
  -6   2   7 1518.35   54.79
   4  -6   7 1468.65   55.89
   2   4   7 1437.76   56.19
   4  -6   7 1467.25   53.29
   2   4   7 1497.75   53.79
   2   4   7 1472.35   53.49
   4  -6   7 1475.65   55.79
  -4   7  -7  123.99    9.60
  -4   7  -7  122.79    7.40
   7  -3  -7  120.89    7.10
   7  -3  -7  120.39    8.60
  -3  -4  -7  131.39    8.80
  -3  -4  -7  124.49    7.50
   7  -3  -7  132.59    7.10
   7  -3  -7  113.89    8.10
  -3  -4  -7  133.59    7.50
  -3  -4  -7  123.49    9.00
  -4   7  -7  117.99    9.60
   3   4   7  121.69    7.10
   3   4   7  109.99    9.80
   4  -7   7  122.19    9.80
   3   4   7  106.09    8.70
  -7   3   7  132.09    9.30
   4  -7   7  120.49    9.70
  -7   3   7  131.29    9.00
   4  -7   7  127.39    6.50
   8  -4  -7  833.92   31.00
  -4  -4  -7  801.82   33.10
  -4   8  -7  793.92   34.60
  -4  -4  -7  822.62   30.00
  -4   8  -7  828.52   34.90
   8  -4  -7  794.62   33.00
  -4   8  -7  811.52   29.90
  -4  -4  -7  786.92   31.00
  -4  -4  -7  844.42   34.20
  -8   4   7  858.31   33.00
   4  -8   7  803.42   34.60
  -8   4   7  816.62   33.80
   4   4   7  815.82   33.50
   4   4   7  803.82   35.10
   4  -8   7  822.12   34.40
  -4   9  -7   53.59    9.00
   9  -5  -7   50.59    5.40
  -4   9  -7   57.19    8.30
   9  -5  -7   51.79    5.50
   9  -5  -7   55.09    7.00
  -4   9  -7   51.79    5.20
  -5  -4  -7   44.30    5.00
  -5  -4  -7   41.10    6.20
  -5  -4  -7   45.60    7.50
   4  -9   7   45.70    6.10
   4  -9   7   60.09    8.50
   5   4   7   47.50    8.00
   4  -9   7   55.29    7.90
   5   4   7   65.29    7.90
  -3   8  -7   90.69    9.30
  -3   8  -7   77.49    9.60
  -3   8  -7   83.49    7.60
   8  -5  -7   68.19    6.40
   8  -5  -7   88.49    8.00
  -5  -3  -7   85.99    8.20
   8  -5  -7   73.69    6.50
  -3   8  -7   84.99    7.30
  -5  -3  -7   68.89    8.50
   3  -8   7   68.09    9.00
  -8   5   7   89.49    8.50
   5   3   7   77.99    7.90
   3  -8   7   81.29    8.90
   5   3   7   84.19    9.40
  -2   7  -7   96.99    8.60
   7  -5  -7   97.49    6.60
   7  -5  -7   82.49    5.90
  -5  -2  -7  100.49    7.90
  -2   7  -7   83.99    6.80
   7  -5  -7  100.09    8.00
  -2   7  -7  101.69    8.40
  -5  -2  -7   91.69    6.40
   7  -5  -7   94.99    5.70
  -2   7  -7   96.49    9.10
   7  -5  -7   87.49    7.60
  -5  -2  -7   90.99    8.30
   5   2   7   86.89    9.10
  -7   5   7   74.89    7.60
   5   2   7   88.99    7.60
  -7   5   7   84.19    7.40
   5   2   7   94.19    7.40
   2  -7   7   90.89    5.90
   2  -7   7   95.99    8.90
   2  -7   7   91.29    8.90
  -5  -1  -7  134.49    9.20
  -1   6  -7  153.38    9.60
  -5  -1  -7  148.59    9.80
  -1   6  -7  152.58    8.30
   6  -5  -7  152.78    7.00
   6  -5  -7  146.09    7.10
   6  -5  -7  154.28    8.30
  -1   6  -7  148.19   10.20
  -5  -1  -7  142.59    8.20
   6  -5  -7  151.58    9.40
   6  -5  -7  155.08    7.80
  -1   6  -7  151.68   10.30
   5   1   7  148.29    9.00
   1  -6   7  139.89    8.00
   1  -6   7  145.29   10.30
   5   1   7  160.78   10.00
   5   1   7  145.89    8.70
   1  -6   7  151.98   10.30
  -6   5   7  159.78    9.60
  -6   5   7  155.18    9.20
   5   1   7  137.79   10.30
   1  -6   7  157.08    7.90
   0   5  -7   70.29    8.00
  -5   0  -7   80.39    6.80
   5  -5  -7   69.49    5.50
  -5   0  -7   65.69    6.30
   0   5  -7   75.39    6.20
   5  -5  -7   73.99    4.20
  -5   0  -7   65.79    5.70
  -5   0  -7   73.79    5.80
   5  -5  -7   74.09    4.20
   5  -5  -7   63.79    6.10
   0   5  -7   71.39    5.60
   0   5  -7   60.09    6.60
   0  -5   7   75.49    4.50
   0  -5   7   66.89    7.10
   5   0   7   66.69    7.40
   0  -5   7   83.19    6.90
   5   0   7   81.19    7.00
  -5   5   7   69.19    6.20
   5   0   7   74.59    5.50
   0  -5   7   74.39    4.50
   0  -5   7   74.19    5.60
  -5   5   7   82.19    6.60
   5   0   7   66.39    6.60
  -5   1  -7  210.98   10.80
  -5   1  -7  237.78    9.50
   1   4  -7  217.88   11.60
   4  -5  -7  206.28   10.30
   1   4  -7  214.08   12.20
   4  -5  -7  214.38   11.40
  -5   1  -7  195.38   10.90
   4  -5  -7  192.08   12.30
  -5   1  -7  215.18   11.70
   1   4  -7  227.28   10.90
   1   4  -7  207.48   11.60
   1   4  -7  222.78   10.40
   4  -5  -7  228.58    9.10
   1   4  -7  219.08   10.40
  -4   5   7  216.18   11.40
   5  -1   7  219.58   12.20
  -1  -4   7  224.28    8.50
  -1  -4   7  211.58   10.80
  -1  -4   7  203.78   11.80
  -1  -4   7  222.98    8.50
   5  -1   7  200.38   11.50
  -1  -4   7  212.88   11.20
   5  -1   7  216.18    9.70
   5  -1   7  223.38   11.30
  -4   5   7  216.28   11.40
  -1  -4   7  218.68   11.40
   3  -5  -7  265.07   13.10
  -5   2  -7  229.98   11.70
   2   3  -7  243.78   11.30
  -5   2  -7  236.88   11.80
   3  -5  -7  246.38   10.30
   3  -5  -7  216.08   11.10
   3  -5  -7  231.78   11.90
   2   3  -7  249.48   11.60
   2   3  -7  235.08   12.30
   2   3  -7  241.18   11.10
  -2  -3   7  242.28   11.60
  -3   5   7  227.98   12.10
  -3   5   7  247.98   10.40
   5  -2   7  215.78   12.20
   5  -2   7  218.98   12.20
  -3   5   7  212.18   11.80
  -2  -3   7  249.58   12.80
  -2  -3   7  231.38   11.60
  -2  -3   7  256.27   12.00
   5  -2   7  246.28    9.70
   2  -5  -7  234.68   10.30
   2  -5  -7  235.88   12.80
   2  -5  -7  232.48   11.70
  -5   3  -7  228.08    9.70
   3   2  -7  255.97   11.10
  -5   3  -7  232.48   11.60
   3   2  -7  238.68   12.10
  -5   3  -7  227.98   11.90
   3   2  -7  242.98   11.10
   2  -5  -7  230.48   11.30
  -5   3  -7  229.68   12.60
  -2   5   7  236.88   11.90
   5  -3   7  212.88   12.20
  -2   5   7  224.08   11.80
  -2   5   7  236.28   10.80
  -3  -2   7  224.98   11.40
  -2   5   7  230.98   12.30
   5  -3   7  239.28   12.30
  -3  -2   7  231.08   11.80
  -3  -2   7  226.88   12.20
  -5   4  -7  215.08   11.80
   4   1  -7  214.58   10.40
   1  -5  -7  204.08   10.80
   1  -5  -7  228.68   12.90
   4   1  -7  199.18   11.10
   4   1  -7  236.78   10.10
  -5   4  -7  202.78   11.40
   1  -5  -7  208.98   12.00
  -5   4  -7  212.98   10.00
  -5   4  -7  226.98   11.10
   1  -5  -7  216.68   10.40
   1  -5  -7  217.98   11.00
  -1   5   7  211.18   11.00
  -4  -1   7  221.78   11.00
  -1   5   7  217.88   12.00
  -4  -1   7  220.78   11.50
  -1   5   7  203.28   10.80
   5  -4   7  208.48   11.30
  -4  -1   7  222.78   11.70
  -4  -1   7  207.78   10.10
   5  -4   7  216.78   12.10
   5  -4   7  207.88    9.40
  -1   5   7  214.98   11.50
   0  -5  -7   73.39    6.10
  -5   5  -7   61.09    6.20
  -5   5  -7   78.99    7.00
   0  -5  -7   78.79    6.20
   5   0  -7   71.39    5.40
   5   0  -7   68.89    6.30
   0  -5  -7   84.19    6.50
  -5   5  -7   78.19    6.40
  -5   5  -7   64.49    6.70
   0  -5  -7   78.69    7.80
   5   0  -7   78.69    5.80
   0   5   7   76.19    6.20
   0   5   7   70.79    6.80
   5  -5   7   71.29    6.90
   5  -5   7   79.29    7.30
   5  -5   7   70.29    6.40
   5  -5   7   62.09    5.90
  -5   0   7   72.09    6.90
  -5   0   7   72.79    6.60
   0   5   7   77.69    8.10
  -5   0   7   59.39    5.30
   0   5   7   68.89    4.70
   0   5   7   76.79    4.50
   0   5   7   74.59    7.20
  -5   6  -7  142.69   10.00
  -1  -5  -7  152.98    9.00
   6  -1  -7  152.98    8.00
  -1  -5  -7  149.79    9.20
  -5   6  -7  172.78    9.10
   6  -1  -7  139.89    9.40
  -5   6  -7  156.18    9.70
  -1  -5  -7  131.89    9.10
  -1  -5  -7  143.39    9.50
   6  -1  -7  145.99    8.60
   1   5   7  147.79    8.70
   1   5   7  159.38   10.60
   1   5   7  156.98    9.80
   5  -6   7  151.38   10.30
  -6   1   7  140.19    9.70
  -6   1   7  141.89    7.90
   5  -6   7  151.38   10.60
   1   5   7  152.08    8.30
   5  -6   7  150.38    9.40
   1   5   7  151.98    8.00
  -6   1   7  157.28    9.80
   7  -2  -7   89.09    7.10
   7  -2  -7   86.49    7.50
   7  -2  -7   94.59    5.40
  -5   7  -7   92.79    8.80
  -2  -5  -7   90.29    6.80
   7  -2  -7   88.79    5.00
   7  -2  -7   91.99    7.30
  -5   7  -7   83.99    8.60
  -2  -5  -7   97.69    7.90
  -2  -5  -7   90.29    7.80
  -2  -5  -7   80.99    7.60
   2   5   7   89.09    6.90
   5  -7   7   88.29    5.80
   2   5   7   90.69    8.30
  -7   2   7   82.69    7.90
   2   5   7  109.99    8.70
   2   5   7   92.99    7.30
   5  -7   7   90.89    8.80
   2   5   7   89.19    9.20
   5  -7   7  102.59    9.40
  -7   2   7   89.79    8.40
  -3  -5  -7   77.99    8.10
  -5   8  -7   85.69    9.70
  -5   8  -7   83.79    9.80
   8  -3  -7   68.99    7.60
  -3  -5  -7   97.09    6.70
  -3  -5  -7   86.99    8.90
   8  -3  -7   79.79    7.70
   3   5   7   79.99    8.50
  -8   3   7   88.19    8.90
   5  -8   7   82.09    9.60
   5  -8   7   77.19   10.00
  -8   3   7  107.99    9.00
   3   5   7   81.59    9.40
   3   5   7   88.59    7.10
   9  -4  -7   52.69    6.70
   9  -4  -7   54.79    6.10
  -5   9  -7   40.00    7.60
   9  -4  -7   39.40    6.10
  -5   9  -7   38.80    8.00
  -4  -5  -7   42.70    7.20
  -4  -5  -7   58.19    7.10
   5  -9   7   44.10    7.10
   4   5   7   49.40    8.40
   5  -9   7   40.50    7.30
   4   5   7   57.29    7.70
  -3   9  -7   61.29    8.60
   9  -6  -7   62.19    7.20
   9  -6  -7   63.69    8.30
   9  -6  -7   52.39    6.80
  -6  -3  -7   62.29    7.40
  -3   9  -7   63.39    6.60
  -3   9  -7   38.70    7.80
  -6  -3  -7   37.70    6.70
   3  -9   7   55.89    7.80
   6   3   7   51.09    7.90
   3  -9   7   59.99    6.60
   6   3   7   56.59    7.40
   3  -9   7   57.99    8.70
  -6  -2  -7 1005.10   39.70
  -2   8  -7  988.40   39.10
  -2   8  -7  946.81   36.70
  -6  -2  -7  951.80   38.20
   8  -6  -7  949.90   38.40
   8  -6  -7  896.21   38.10
   8  -6  -7  954.00   36.70
  -2   8  -7  946.01   40.00
   2  -8   7  970.50   39.30
   2  -8   7  964.30   36.60
   6   2   7  911.31   40.30
   6   2   7  979.40   37.90
  -8   6   7  928.61   37.90
  -8   6   7  924.21   37.80
   2  -8   7  964.00   39.80
   7  -6  -7  115.49    7.80
  -1   7  -7  131.49    8.70
  -6  -1  -7  131.49    7.70
   7  -6  -7  127.19    7.40
  -1   7  -7  136.39    9.50
  -1   7  -7  108.09   10.30
  -1   7  -7  140.39   10.70
  -6  -1  -7  135.39   10.20
   7  -6  -7  121.29    8.20
   7  -6  -7  123.29    9.20
   7  -6  -7  118.79    7.20
  -6  -1  -7  130.99    9.30
   1  -7   7  135.89    7.80
   1  -7   7  122.49   10.50
  -7   6   7  127.79    9.20
   6   1   7  115.39   10.30
   1  -7   7  132.89   10.50
   1  -7   7  126.09    8.20
   6   1   7  134.69    8.70
   6   1   7  114.49   10.20
   6   1   7  123.69    8.80
  -7   6   7  132.79    9.10
   6  -6  -7 1228.58   47.60
  -6   0  -7 1234.18   46.60
   0   6  -7 1261.97   47.00
   0   6  -7 1218.78   46.10
  -6   0  -7 1193.78   47.00
   0   6  -7 1221.78   47.10
   6  -6  -7 1220.48   44.70
   6  -6  -7 1238.78   46.20
  -6   0  -7 1216.48   45.90
  -6   0  -7 1186.48   47.90
   0   6  -7 1274.37   48.50
   6  -6  -7 1190.58   44.60
   0  -6   7 1278.57   44.50
   6   0   7 1236.28   46.20
  -6   6   7 1217.68   47.10
  -6   6   7 1244.78   46.90
   0  -6   7 1264.97   47.90
   0  -6   7 1192.58   44.90
   0  -6   7 1198.58   47.90
   6   0   7 1226.48   45.80
   0  -6   7 1257.17   45.80
   6   0   7 1217.88   47.70
   6   0   7 1202.78   48.80
  -6   1  -7  155.88    8.90
  -6   1  -7  148.49   10.20
   5  -6  -7  140.19    8.60
   1   5  -7  151.38    8.70
   5  -6  -7  140.29    9.30
   5  -6  -7  134.19    7.20
   1   5  -7  140.79   10.20
  -6   1  -7  143.69    9.10
   1   5  -7  144.49    8.80
   6  -1   7  147.19   10.00
  -5   6   7  152.98    9.30
   6  -1   7  155.48   10.80
  -1  -5   7  157.78    9.90
   6  -1   7  152.38    8.10
  -1  -5   7  148.09    8.60
   6  -1   7  148.89   10.40
  -1  -5   7  153.78    6.50
  -1  -5   7  154.48   10.40
  -5   6   7  150.08    9.50
  -6   2  -7 1504.45   55.39
   4  -6  -7 1432.46   55.39
   2   4  -7 1492.75   54.29
   2   4  -7 1518.55   54.49
  -6   2  -7 1486.65   54.99
   4  -6  -7 1431.66   55.39
   4  -6  -7 1601.94   53.39
   4  -6  -7 1483.15   54.59
   2   4  -7 1455.55   55.99
  -4   6   7 1407.76   54.99
   6  -2   7 1479.55   52.79
  -4   6   7 1402.26   55.39
   6  -2   7 1450.05   55.99
   6  -2   7 1422.06   55.99
  -2  -4   7 1503.35   54.49
  -2  -4   7 1462.45   54.89
  -2  -4   7 1496.55   56.19
  -4   6   7 1418.86   55.99
  -2  -4   7 1440.06   55.09
  -6   3  -7   64.59    6.30
   3  -6  -7   68.69    6.30
   3   3  -7   72.59    5.90
  -6   3  -7   77.39    6.70
   3   3  -7   76.19    5.70
   3   3  -7   74.39    7.00
   3  -6  -7   79.39    6.20
   3  -6  -7   66.39    8.70
   3   3  -7   72.39    7.60
  -3   6   7   70.19    6.70
  -3  -3   7   78.79    6.70
  -3  -3   7   79.29    6.80
  -3   6   7   69.79    6.90
  -3  -3   7   75.49    6.60
  -3  -3   7   80.79    7.40
   6  -3   7   70.79    6.90
  -3   6   7   83.19    6.60
  -3   6   7   68.79    6.90
   6  -3   7   71.29    7.30
  -6   4  -7 1412.26   55.39
   4   2  -7 1437.66   53.99
  -6   4  -7 1465.35   52.99
   2  -6  -7 1573.54   57.19
   2  -6  -7 1407.46   54.59
   4   2  -7 1379.56   55.29
   2  -6  -7 1445.46   53.79
   2  -6  -7 1499.05   55.19
  -6   4  -7 1448.46   54.99
   4   2  -7 1477.95   53.79
   4   2  -7 1445.66   54.29
  -4  -2   7 1510.55   54.49
   6  -4   7 1393.06   55.79
  -4  -2   7 1463.15   55.39
  -4  -2   7 1494.75   54.09
  -2   6   7 1397.16   55.39
  -4  -2   7 1472.95   55.79
  -2   6   7 1428.86   55.39
  -2   6   7 1493.35   55.39
  -2   6   7 1501.95   54.49
   6  -4   7 1565.64   52.49
   6  -4   7 1470.95   55.49
   5   1  -7  149.39    8.90
   1  -6  -7  160.18    9.20
   1  -6  -7  147.49    9.20
  -6   5  -7  146.49    9.40
   5   1  -7  149.19    8.30
   5   1  -7  144.89    9.40
  -6   5  -7  138.69    9.80
   1  -6  -7  149.09    8.80
  -6   5  -7  148.89    8.80
  -1   6   7  144.99    9.80
  -1   6   7  144.39    9.40
  -1   6   7  143.79   11.90
  -5  -1   7  151.38   10.30
   6  -5   7  151.28    8.10
   6  -5   7  157.98    9.50
   6  -5   7  155.98   10.50
  -5  -1   7  145.39    8.80
  -5  -1   7  142.39    9.60
  -1   6   7  142.09   10.10
   0  -6  -7 1249.47   47.30
  -6   6  -7 1279.47   48.10
   0  -6  -7 1193.98   47.60
  -6   6  -7 1279.97   49.20
   6   0  -7 1216.28   46.30
   6   0  -7 1241.78   46.60
   6   0  -7 1191.18   47.80
   0  -6  -7 1252.67   47.40
  -6   6  -7 1211.38   47.30
   0   6   7 1249.07   48.50
  -6   0   7 1283.47   46.70
   0   6   7 1271.47   45.10
   6  -6   7 1197.88   48.80
   6  -6   7 1340.87   47.80
   0   6   7 1223.18   48.70
   0   6   7 1254.57   45.10
   6  -6   7 1209.98   48.90
   0   6   7 1281.37   47.60
  -6   0   7 1291.07   48.60
  -6   0   7 1239.08   48.50
   6  -6   7 1211.18   46.90
  -1  -6  -7  135.89    8.70
  -6   7  -7  135.69   10.60
   7  -1  -7  133.29    9.30
  -1  -6  -7  126.79    9.40
   7  -1  -7  126.99    9.30
   7  -1  -7  129.09    8.50
  -6   7  -7  131.69   10.00
  -1  -6  -7  124.99    9.30
  -7   1   7  144.39    8.70
  -7   1   7  131.89   10.00
  -7   1   7  119.49   10.10
   1   6   7  133.59    8.90
   6  -7   7  128.19   10.80
   6  -7   7  129.39   10.40
   6  -7   7  133.99    8.00
   1   6   7  142.59    9.30
   1   6   7  136.79   10.70
   1   6   7  122.39    9.70
  -2  -6  -7  951.80   38.40
   8  -2  -7  969.10   38.60
  -6   8  -7  971.50   40.40
   8  -2  -7  961.40   37.40
  -2  -6  -7  930.31   38.70
  -2  -6  -7  972.50   36.80
  -6   8  -7  922.91   39.30
   2   6   7  939.71   37.30
   6  -8   7  962.50   40.30
   2   6   7  952.80   40.20
  -8   2   7  992.40   39.00
   6  -8   7  947.21   39.60
   2   6   7  965.40   39.30
  -6   9  -7   61.79    9.30
  -3  -6  -7   65.39    7.90
  -3  -6  -7   77.49    9.50
  -6   9  -7   67.89    9.70
  -3  -6  -7   61.19    6.50
   9  -3  -7   56.09    7.60
   9  -3  -7   62.59    7.30
   3   6   7   63.99    6.90
   6  -9   7   71.59   10.00
   3   6   7   39.10    6.70
  -9   3   7   67.29    8.30
   6  -9   7   64.39    8.60
   3   6   7   54.39    8.60
  -7  -1  -7   57.69    7.20
   8  -7  -7   80.49    9.00
  -7  -1  -7   78.29    6.90
   8  -7  -7   65.29    7.90
  -1   8  -7   77.39    7.80
   8  -7  -7   75.39    7.00
  -7  -1  -7   75.29    9.50
  -1   8  -7   93.19    9.40
  -1   8  -7   93.59   10.60
   8  -7  -7   76.49    7.60
   7   1   7   78.29   10.00
  -8   7   7   65.89    7.50
   1  -8   7   79.29    7.10
  -8   7   7   77.29    8.40
   1  -8   7   78.19    9.30
   1  -8   7   98.99   10.70
   7   1   7   71.49    7.50
  -7   0  -7   62.09    7.50
  -7   0  -7   53.79    6.30
   0   7  -7   62.69    6.80
   0   7  -7   61.09    8.20
   7  -7  -7   54.79    6.90
   7  -7  -7   57.59    6.30
   7  -7  -7   56.19    6.60
   0   7  -7   56.09    7.40
  -7   0  -7   41.30    6.10
  -7   7   7   65.19    7.00
   0  -7   7   59.39    8.00
  -7   7   7   64.19    7.20
   0  -7   7   60.59    5.50
   0  -7   7   57.69    7.50
   7   0   7   60.09    7.90
   7   0   7   63.09    8.50
   7   0   7   54.39    6.00
  -7   1  -7  128.99    8.70
   6  -7  -7  125.09    8.90
   6  -7  -7  129.89    9.20
   1   6  -7  123.59    8.70
  -7   1  -7  125.89    9.30
   1   6  -7  126.99   10.30
  -7   1  -7  125.29   10.40
   6  -7  -7  137.89    8.70
   6  -7  -7  128.49    7.70
   1   6  -7  119.79    9.00
   7  -1   7  127.09   10.50
  -1  -6   7  125.39    6.40
  -1  -6   7  134.99   10.90
  -1  -6   7  117.09   10.10
  -6   7   7  136.49    9.00
  -1  -6   7  132.49    6.40
  -6   7   7  134.39    9.40
   7  -1   7  135.19    8.20
   7  -1   7  117.69   10.00
   2   5  -7   90.29    8.60
   5  -7  -7   79.79    6.40
  -7   2  -7   88.19    8.00
   5  -7  -7   84.29    7.30
  -7   2  -7   90.19    7.40
   2   5  -7   96.89    7.00
   2   5  -7   84.19    7.30
   5  -7  -7   76.09    7.20
  -2  -5   7   90.99    9.10
   7  -2   7   87.59    8.70
  -5   7   7   81.99    7.90
  -2  -5   7   93.49    7.30
   7  -2   7   77.69    8.60
  -5   7   7   83.19    8.30
  -5   7   7   82.89    7.30
   7  -2   7   98.49    7.00
  -2  -5   7   97.69    8.40
  -2  -5   7   75.29    9.00
   3   4  -7  117.29    8.40
  -7   3  -7  124.79    8.90
   4  -7  -7  135.59   11.10
   3   4  -7  125.79    9.40
   4  -7  -7  127.19    7.60
   3   4  -7  134.69    7.70
   4  -7  -7  121.09    8.40
   4  -7  -7  108.19    8.40
  -7   3  -7  130.19    9.10
  -4   7   7  106.79    9.40
  -3  -4   7  131.39   10.10
  -4   7   7  127.69    9.40
   7  -3   7  124.59   10.10
  -3  -4   7  123.09    8.70
   7  -3   7  129.79    9.70
  -3  -4   7  119.09    9.20
  -4   7   7  125.99    8.80
  -3  -4   7  118.29    8.40
   7  -3   7  127.49    6.00
  -7   4  -7  118.89    9.00
   3  -7  -7  126.89    8.70
   4   3  -7  122.79    8.30
   3  -7  -7  128.79    8.50
   4   3  -7  112.29    7.30
   3  -7  -7  132.39    8.00
  -7   4  -7  117.79    9.00
   4   3  -7  128.49    9.30
  -4  -3   7  123.19    8.90
   7  -4   7  114.49    9.90
  -4  -3   7  116.29    8.80
  -3   7   7  125.79    9.10
  -3   7   7  104.59    9.90
  -4  -3   7  122.69    9.70
   7  -4   7  122.89    5.60
   7  -4   7  113.69    9.40
  -3   7   7  129.79    9.30
  -4  -3   7  129.69    8.20
  -3   7   7  137.39    9.70
  -7   5  -7   81.19    8.40
   5   2  -7   87.79    7.90
  -7   5  -7   88.69    7.90
   2  -7  -7   84.99    7.40
  -7   5  -7   85.59    6.60
   2  -7  -7   88.79    7.40
   5   2  -7   95.69    7.30
   2  -7  -7  100.19    7.40
   5   2  -7   93.09    6.50
  -2   7   7   91.09    8.30
  -2   7   7   76.69    8.20
   7  -5   7   95.79    9.20
   7  -5   7   82.59    6.20
  -2   7   7   89.99    8.20
  -5  -2   7   87.59    9.10
  -5  -2   7  100.99    7.80
   7  -5   7   92.99    8.30
  -5  -2   7   88.99    8.20
  -7   6  -7  126.09    9.50
   1  -7  -7  125.89    8.90
  -7   6  -7  139.79    9.20
   1  -7  -7  136.09    9.40
   1  -7  -7  132.09    9.10
   6   1  -7  126.99    9.30
   6   1  -7  125.99    8.80
   6   1  -7  133.49    7.80
  -7   6  -7  129.29   10.30
  -6  -1   7  127.89    9.90
  -1   7   7  128.59   10.30
  -1   7   7  136.89   10.30
   7  -6   7  141.59   10.70
  -6  -1   7  148.39   10.80
   7  -6   7  115.49    9.30
  -1   7   7  133.09    9.70
  -6  -1   7  120.99    9.20
   7  -6   7  145.49    9.30
   7  -6   7  129.89   10.70
  -7   7  -7   62.59    7.20
   0  -7  -7   48.40    6.70
   7   0  -7   53.69    6.30
   0  -7  -7   58.99    7.60
   0  -7  -7   59.19    7.20
  -7   7  -7   43.70    7.20
   7   0  -7   47.00    6.40
   7   0  -7   63.99    6.20
   7  -7   7   49.10    7.40
   0   7   7   51.29    6.80
   0   7   7   55.59    7.10
  -7   0   7   62.79    8.00
   0   7   7   62.99    8.00
   7  -7   7   57.89    7.90
  -7   0   7   61.49    6.60
   7  -7   7   53.89    7.10
  -7   8  -7   66.39    9.10
  -1  -7  -7   79.59    7.70
  -1  -7  -7   78.69    8.90
  -7   8  -7   75.49    9.00
   8  -1  -7   71.79    8.50
  -1  -7  -7   83.69    8.80
   8  -1  -7   66.99    7.30
   7  -8   7   82.79    8.90
   1   7   7   82.19    8.90
   7  -8   7   92.09   11.20
   7  -8   7   89.39    9.90
  -8   1   7   84.49   10.00
   1   7   7   89.79    9.70
   1   7   7   82.09    7.40
   1   7   7   86.39    9.90
  -8   1   7   84.79    8.60
   1   7  -7   88.89    8.40
   1   7  -7   58.89    8.30
   7  -8  -7   72.79    7.60
   1   7  -7   87.59    9.00
   7  -8  -7   71.69    8.20
  -8   1  -7   81.49    8.70
  -8   1  -7   75.99    7.80
  -8   1  -7   89.49   10.30
   7  -8  -7   79.29    7.50
   8  -1   7   72.49    9.70
   8  -1   7   89.39   10.70
   8  -1   7   87.99    8.10
  -7   8   7   85.19    8.80
  -1  -7   7   83.99   10.70
  -1  -7   7   91.29   10.70
  -1  -7   7   73.69    5.70
  -7   8   7   72.69    8.00
   2   6  -7  907.91   40.10
   6  -8  -7  959.70   39.50
  -8   2  -7  961.00   39.10
   6  -8  -7  955.30   38.30
  -8   2  -7 1000.90   38.20
   6  -8  -7  996.50   37.10
   2   6  -7  981.00   37.60
   2   6  -7  987.30   38.60
  -2  -6   7  995.50   40.20
  -6   8   7 1031.70   39.50
   8  -2   7  941.91   40.20
  -2  -6   7  993.40   39.90
  -6   8   7  930.81   40.30
   8  -2   7  952.10   36.40
  -6   8   7  999.80   37.70
   8  -2   7  922.81   40.40
   3   5  -7   91.59    9.20
  -8   3  -7  103.09    8.60
  -8   3  -7   74.99    8.20
   5  -8  -7   81.99    7.40
   3   5  -7   83.09    6.90
   3   5  -7   80.29    8.10
   5  -8  -7   84.99    7.80
   5  -8  -7   82.09    7.90
   8  -3   7   98.19   10.30
  -3  -5   7   81.89    9.10
  -5   8   7   78.09    8.60
  -5   8   7   91.59    7.80
  -5   8   7   75.79    9.00
   8  -3   7   85.29    9.30
   8  -3   7   85.39    5.90
  -3  -5   7   94.69   10.20
   4   4  -7  810.02   33.10
   4   4  -7  791.72   34.10
   4  -8  -7  822.52   32.20
  -8   4  -7  831.62   33.90
  -8   4  -7  865.01   34.20
   4  -8  -7  774.82   33.00
   4  -8  -7  787.92   33.60
   4   4  -7  829.22   31.40
  -4   8   7  818.12   34.60
  -4   8   7  846.52   32.80
  -4   8   7  810.32   34.10
   8  -4   7  833.52   34.40
  -4  -4   7  830.72   34.80
   8  -4   7  850.91   35.10
  -4  -4   7  804.62   31.60
  -4  -4   7  803.52   33.70
   5   3  -7   69.49    7.50
  -8   5  -7   84.89    9.10
   3  -8  -7   84.79    7.50
   3  -8  -7   77.99    7.80
  -8   5  -7   87.09    8.70
   3  -8  -7   84.09    7.70
   5   3  -7   75.09    8.20
  -3   8   7   82.39    8.90
  -3   8   7   80.29    8.50
  -5  -3   7   76.89    9.70
   8  -5   7   85.49    9.70
   8  -5   7   78.59    5.60
   8  -5   7   70.89    8.70
  -3   8   7   78.99    8.80
  -5  -3   7   83.29    8.70
  -8   6  -7  977.00   37.10
   6   2  -7  907.11   38.00
  -8   6  -7  950.10   39.10
   6   2  -7  947.91   39.00
   2  -8  -7  968.80   38.60
   2  -8  -7  930.91   38.40
   2  -8  -7  963.20   38.10
  -8   6  -7  986.40   40.10
  -2   8   7  952.80   39.50
   8  -6   7  947.31   38.40
  -6  -2   7 1068.39   38.90
   8  -6   7  964.10   40.10
  -2   8   7  969.30   39.50
  -2   8   7  931.41   38.70
  -6  -2   7 1002.20   40.20
  -8   7  -7   85.89    9.00
   1  -8  -7   84.69    8.90
  -8   7  -7   73.39    9.30
   7   1  -7   84.79    8.30
   7   1  -7   74.49    6.90
   7   1  -7   71.99    8.50
   1  -8  -7   74.89    8.40
   1  -8  -7   74.59    8.00
   8  -7   7   91.69    9.90
  -1   8   7   92.79   10.40
  -1   8   7   86.49    9.70
  -7  -1   7   86.69   10.00
   8  -7   7   94.29   10.50
   8  -7   7   80.99    8.70
  -7  -1   7   69.99    9.10
  -1   8   7   70.89    8.80
   3   6  -7   69.29    7.10
   6  -9  -7   76.69    8.10
   3   6  -7   61.89    7.80
  -9   3  -7   66.39    7.90
   6  -9  -7   43.90    6.70
  -9   3  -7   66.99    8.00
   6  -9  -7   49.90    6.70
   3   6  -7   73.69    9.50
   9  -3   7   65.39    9.40
  -3  -6   7   51.29    7.70
  -6   9   7   50.09    8.00
  -3  -6   7   60.79    8.90
   9  -3   7   60.99    5.80
  -6   9   7   66.69    7.60
  -6   9   7   49.00    7.40
   9  -3   7   54.29    8.00
  -9   4  -7   49.10    7.30
   5  -9  -7   51.09    6.50
   4   5  -7   53.79    7.10
   4   5  -7   43.20    7.10
   5  -9  -7   40.50    5.90
   5  -9  -7   35.30    5.90
  -9   4  -7   55.89    7.70
   9  -4   7   42.80    7.70
  -5   9   7   50.79    7.50
  -5   9   7   59.99    6.40
  -5   9   7   53.59    7.70
  -4  -5   7   49.50    7.40
   9  -4   7   36.70    7.80
  -4  -5   7   44.00    7.60
   4  -9  -7   56.89    7.50
   5   4  -7   51.99    7.70
  -9   5  -7   43.20    7.10
   4  -9  -7   48.60    7.00
   5   4  -7   50.09    6.90
   5   4  -7   48.50    5.70
   4  -9  -7   53.09    6.50
  -9   5  -7   44.40    7.40
  -4   9   7   49.30    7.70
   9  -5   7   53.59    8.20
  -5  -4   7   52.89    8.20
  -4   9   7   55.79    8.10
   9  -5   7   61.89    8.40
  -5  -4   7   67.69    8.20
  -4   9   7   63.59    6.90
  -9   6  -7   46.20    8.30
  -9   6  -7   55.69    8.20
   3  -9  -7   55.19    7.20
   3  -9  -7   68.79    7.60
   3  -9  -7   51.59    6.80
   6   3  -7   56.99    7.30
   6   3  -7   51.99    7.10
  -6  -3   7   70.09    8.40
   9  -6   7   67.39    8.90
  -3   9   7   42.30    7.20
  -3   9   7   63.39    7.50
   9  -6   7   58.69    8.20
  -3   9   7   70.79    9.30
  -6  -3   7   61.29    9.30
   0   0  -8 2585.54   97.99
   0   0  -8 2704.03   96.79
   0   0  -8 2522.45   98.09
   0   0  -8 2825.62   99.09
   0   0  -8 2808.72   97.29
   0   0  -8 2808.22   97.89
   0   0   8 2497.25   96.89
   0   0   8 3065.39   96.29
   0   0   8 2585.74   96.19
   0   0   8 2591.64   97.69
   0   0   8 2823.52   98.39
   0   0   8 2810.22   96.99
   0   0   8 2762.32   98.89
   0   1  -8  247.28   12.70
  -1   0  -8  224.48   10.30
   0   1  -8  255.97   10.80
   1  -1  -8  246.28   11.00
   1  -1  -8  231.98   11.60
   0   1  -8  240.18   10.20
   1  -1  -8  248.28   11.10
   0   1  -8  252.17   11.20
  -1   0  -8  245.28   10.90
  -1   0  -8  245.78   10.80
  -1   0  -8  244.38   11.60
   1  -1  -8  255.47   11.40
   0   1  -8  251.97   11.80
   1  -1  -8  255.67   11.70
   1  -1  -8  221.88   10.30
  -1   0  -8  222.38   11.40
   0   1  -8  257.47   12.00
  -1   0  -8  245.68   12.80
   1  -1  -8  233.28   12.70
   0  -1   8  233.08   10.10
  -1   1   8  241.78   10.80
   0  -1   8  256.37   10.40
  -1   1   8  224.98   12.10
  -1   1   8  217.28   10.90
  -1   1   8  261.77   12.50
   1   0   8  272.17   11.30
  -1   1   8  231.98   10.60
   0  -1   8  223.48   10.10
   0  -1   8  233.38   12.00
   0  -1   8  260.77   10.20
   1   0   8  254.67   12.10
   1   0   8  235.78   10.40
   1   0   8  256.07   10.60
   0  -1   8  247.18   12.20
   0  -1   8  237.38   11.70
   1   0   8  241.78   11.60
   1   0   8  224.98   12.20
   0  -1  -8  225.98   10.70
   1   0  -8  237.28   13.20
   0  -1  -8  249.28   11.30
   1   0  -8  244.08   11.10
   1   0  -8  246.88   11.20
   0  -1  -8  231.88   11.50
  -1   1  -8  238.58   12.00
  -1   1  -8  228.08   11.80
  -1   1  -8  245.68   10.80
   0  -1  -8  249.48   12.80
   0  -1  -8  244.88   11.10
   0  -1  -8  247.48   11.20
   1   0  -8  238.18   11.60
   1   0  -8  234.28   11.60
   1   0  -8  238.68   10.10
  -1   1  -8  234.58   10.80
   0  -1  -8  238.78   10.80
  -1   1  -8  249.78   12.70
  -1   1  -8  248.08   10.50
   1  -1   8  249.68   10.90
   1  -1   8  257.87   10.60
  -1   0   8  230.78   12.20
   1  -1   8  252.57   12.20
   0   1   8  235.78   10.90
   0   1   8  263.47   10.00
   1  -1   8  241.98   10.50
   0   1   8  235.08   11.10
  -1   0   8  229.08   11.50
   1  -1   8  240.18   10.00
  -1   0   8  248.28   10.30
  -1   0   8  257.27   12.20
  -1   0   8  228.28   10.60
   0   1   8  250.17   11.10
   0   1   8  241.48   12.50
   1  -1   8  240.48   12.30
   1  -1   8  235.58   11.70
   0   1   8  253.77   12.20
  -1  -1  -8  226.58    9.90
  -1  -1  -8  221.58    9.60
   2  -1  -8  234.28   11.10
   2  -1  -8  220.48    9.50
  -1   2  -8  204.58   11.20
  -1   2  -8  215.38   11.90
   2  -1  -8  233.88   10.80
  -1  -1  -8  208.98   10.90
  -1   2  -8  233.48    9.70
  -1   2  -8  233.48   12.20
  -1  -1  -8  211.58   10.30
  -1  -1  -8  230.28   10.30
   2  -1  -8  211.88   10.50
  -1   2  -8  215.78    9.80
   2  -1  -8  223.88   11.10
   2  -1  -8  212.28   12.50
  -1   2  -8  213.28   10.50
  -1  -1  -8  224.68   10.60
   1  -2   8  235.18   10.30
  -2   1   8  230.88   11.80
   1  -2   8  243.58   10.40
   1  -2   8  220.98   11.60
  -2   1   8  227.08    9.70
   1   1   8  228.98   10.10
   1   1   8  214.18   11.40
   1   1   8  239.78   10.90
  -2   1   8  221.48   11.70
   1  -2   8  233.98    9.90
   1  -2   8  220.98   11.40
   1  -2   8  224.68   11.50
  -2   1   8  203.78   10.10
   1   1   8  212.38   10.30
   1   1   8  222.18   12.00
   1  -2   8  244.08   10.40
   1   1   8  215.18   10.80
  -2  -1  -8  197.48    9.50
  -2  -1  -8  179.48    7.90
   3  -2  -8  180.88    8.40
   3  -2  -8  177.18    9.80
  -2  -1  -8  177.08    9.40
  -1   3  -8  199.78    8.40
  -2  -1  -8  189.78    9.30
   3  -2  -8  194.28    9.30
  -1   3  -8  198.48   11.00
  -2  -1  -8  171.08    9.60
  -2  -1  -8  194.08    8.50
  -1   3  -8  177.78    8.60
  -1   3  -8  188.78    9.90
  -1   3  -8  173.98    9.90
  -3   2   8  182.88    9.40
   1  -3   8  196.08    9.60
   1  -3   8  195.48    9.60
   2   1   8  191.48   10.20
   2   1   8  185.78    9.20
  -3   2   8  193.98    8.70
   2   1   8  180.38    9.50
   1  -3   8  179.18    9.90
  -3   2   8  174.38    9.00
   1  -3   8  194.68    8.50
   1  -3   8  195.48   10.70
   2   1   8  195.18    9.70
  -3   2   8  175.48   10.30
   2   1   8  179.68   10.80
   0   2  -8 2160.48   77.89
   0   2  -8 2122.79   79.79
   2  -2  -8 2278.37   78.59
  -2   0  -8 2333.57   78.49
   2  -2  -8 2165.58   80.59
   0   2  -8 2253.47   78.39
   2  -2  -8 2097.89   79.69
   2  -2  -8 2194.28   79.49
   0   2  -8 2364.06   80.79
  -2   0  -8 2214.38   78.19
  -2   0  -8 2220.28   80.79
   0   2  -8 2169.78   80.09
  -2   0  -8 2224.08   79.19
   2  -2  -8 2052.89   78.59
  -2   0  -8 2149.39   79.69
   0   2  -8 2128.19   79.39
   2  -2  -8 2145.49   79.69
   0  -2   8 2125.39   79.89
   2   0   8 2315.07   79.99
  -2   2   8 2096.89   79.09
   2   0   8 2166.18   79.49
   0  -2   8 2366.96   79.99
   2   0   8 2208.38   78.39
   2   0   8 2184.48   80.79
  -2   2   8 2152.28   80.59
   0  -2   8 2199.88   79.09
   0  -2   8 1989.30   78.29
  -2   2   8 2260.67   81.49
  -2   2   8 2031.70   78.39
   2   0   8 2292.67   79.29
   0  -2   8 2285.97   77.99
   0  -2   8 2127.29   80.09
  -2   2   8 2217.48   78.59
   1   1  -8  211.88   11.50
   1  -2  -8  226.88   10.10
   1   1  -8  204.28    9.20
  -2   1  -8  196.38    9.50
  -2   1  -8  227.18   11.20
   1  -2  -8  232.58   11.20
   1  -2  -8  217.68   11.00
   1   1  -8  232.88   12.40
  -2   1  -8  241.68   11.60
   1   1  -8  226.88   10.30
   1  -2  -8  221.68   10.00
  -2   1  -8  233.48   12.30
   1  -2  -8  229.08   11.10
   1  -2  -8  230.88   12.60
  -2   1  -8  215.68   10.20
   1   1  -8  217.98   10.60
   1   1  -8  209.18   10.90
  -2   1  -8  233.88    9.60
   2  -1   8  236.98   10.60
  -1  -1   8  224.78    9.20
  -1  -1   8  216.18   11.30
  -1   2   8  232.88   11.90
  -1   2   8  203.38   11.60
   2  -1   8  220.58   11.30
  -1   2   8  229.48   10.40
   2  -1   8  226.68   11.20
  -1  -1   8  218.88   11.40
  -1   2   8  205.18    9.90
  -1  -1   8  213.78    9.10
  -1   2   8  210.08   10.40
   2  -1   8  223.18   10.30
   2  -1   8  206.28   11.60
   2  -1   8  219.68    9.20
  -1  -1   8  204.18   10.90
  -2   2  -8 2151.38   78.69
   2   0  -8 2251.27   81.69
   0  -2  -8 2184.88   80.69
   2   0  -8 2267.27   79.59
   2   0  -8 2176.38   77.59
  -2   2  -8 2290.37   77.89
   0  -2  -8 2229.08   77.89
   2   0  -8 2214.48   79.09
   2   0  -8 2040.40   79.49
   2   0  -8 2183.48   79.49
   0  -2  -8 2065.09   79.59
  -2   2  -8 2217.98   80.19
   0  -2  -8 2274.07   79.19
   0  -2  -8 2253.07   79.39
  -2   2  -8 2230.58   80.39
  -2   2  -8 2111.99   78.59
  -2   2  -8 2111.49   79.89
   0  -2  -8 2120.29   78.99
   0   2   8 2230.08   79.29
   2  -2   8 2050.09   77.39
  -2   0   8 2118.19   80.29
   2  -2   8 2466.85   81.39
  -2   0   8 2105.69   79.39
  -2   0   8 2273.17   80.09
  -2   0   8 2228.28   77.69
   0   2   8 2117.49   78.59
   0   2   8 2063.69   80.59
   2  -2   8 2104.09   79.99
   0   2   8 2177.38   80.09
   2  -2   8 2268.77   79.09
   0   2   8 2188.28   79.19
   2  -2   8 2148.58   80.19
   0   2   8 2316.17   78.19
   2  -2   8 2276.37   78.69
   3  -1  -8  192.28   10.00
  -2   3  -8  189.98   10.20
   3  -1  -8  178.58    9.60
  -2   3  -8  193.08    9.60
  -2   3  -8  194.98    8.20
  -1  -2  -8  166.18   10.00
  -2   3  -8  185.48    9.00
   3  -1  -8  194.08    9.60
  -2   3  -8  206.08   11.00
  -1  -2  -8  199.18    9.90
  -1  -2  -8  184.88    9.10
  -1  -2  -8  175.98    8.80
  -1  -2  -8  184.08    9.40
   3  -1  -8  176.28    9.80
   1   2   8  192.68   10.60
  -3   1   8  183.88   10.80
  -3   1   8  190.88    8.10
   1   2   8  164.88   10.70
  -3   1   8  191.28    9.40
   1   2   8  180.18    9.50
   2  -3   8  177.08   10.40
   2  -3   8  191.68   10.20
  -3   1   8  185.88   10.50
   2  -3   8  191.48    9.70
   1   2   8  201.18    9.40
   2  -3   8  202.28    9.20
  -3   1   8  188.88    9.60
   2  -3   8  190.98    9.00
   4  -2  -8 2067.79   77.89
  -2  -2  -8 2069.79   77.59
  -2   4  -8 2096.79   75.99
  -2   4  -8 2103.39   77.89
   4  -2  -8 2110.59   77.89
  -2  -2  -8 2174.18   76.19
  -2   4  -8 2134.99   78.59
  -2  -2  -8 2198.68   77.39
  -2  -2  -8 2093.49   77.69
   4  -2  -8 2110.19   75.99
  -2  -2  -8 2124.79   77.29
  -2   4  -8 2136.39   76.79
  -2   4  -8 2322.17   78.49
  -2   4  -8 2209.58   75.49
   4  -2  -8 2152.08   77.19
   2   2   8 2231.78   77.79
   2   2   8 2147.29   77.49
   2  -4   8 2023.50   78.59
   2  -4   8 2162.88   77.89
   2   2   8 2010.10   79.09
   2   2   8 2143.29   77.99
   2   2   8 2145.89   77.39
   2  -4   8 2176.68   76.59
  -4   2   8 2155.38   77.29
   2  -4   8 2185.88   77.99
  -4   2   8 2076.79   78.59
   2  -4   8 2121.19   77.09
  -4   2   8 2044.20   77.39
  -3  -2  -8  219.18   11.30
  -3  -2  -8  212.88    8.70
  -3  -2  -8  213.18   10.90
  -2   5  -8  204.28   11.70
  -2   5  -8  206.18   11.80
   5  -3  -8  221.88    9.80
   5  -3  -8  216.28   11.50
  -3  -2  -8  218.78    8.50
  -3  -2  -8  206.48   11.10
  -2   5  -8  224.78   12.60
  -2   5  -8  229.38    9.30
   5  -3  -8  220.48   10.90
  -2   5  -8  216.38    9.30
   2  -5   8  203.58   12.20
   2  -5   8  236.28   12.00
   3   2   8  229.18   11.40
   2  -5   8  203.68   10.20
   3   2   8  233.28   13.80
   2  -5   8  210.98   10.70
  -5   3   8  226.38   10.70
  -5   3   8  209.58   11.00
  -5   3   8  203.58   11.70
   3   2   8  226.48   11.10
   3   2   8  204.68   11.70
   3   2   8  206.68   12.80
  -3  -1  -8  201.58   10.10
   4  -3  -8  197.38    9.60
  -1   4  -8  209.98    8.90
  -1   4  -8  204.58    8.90
   4  -3  -8  204.28    9.30
   4  -3  -8  183.48   10.40
  -1   4  -8  199.78   11.70
  -1   4  -8  198.78   10.80
  -3  -1  -8  200.08   10.40
  -1   4  -8  187.38   10.70
  -3  -1  -8  192.28   10.40
  -3  -1  -8  192.28   10.50
  -4   3   8  180.88   10.80
  -4   3   8  195.98   10.30
   3   1   8  209.88   11.00
   1  -4   8  191.78   10.30
   1  -4   8  188.58   10.20
   3   1   8  226.28   11.60
   1  -4   8  190.78   11.40
   3   1   8  203.18   10.60
   1  -4   8  212.98    9.00
   3   1   8  204.88    9.80
   3   1   8  186.48   11.70
  -4   3   8  200.38    9.30
   3  -3  -8  284.97   12.20
   3  -3  -8  280.17   11.80
   0   3  -8  273.17   13.30
   0   3  -8  273.17   11.40
   0   3  -8  292.97   12.00
  -3   0  -8  275.57   12.90
  -3   0  -8  277.87   13.20
  -3   0  -8  282.17   10.80
   0   3  -8  270.87   13.30
  -3   0  -8  276.07   12.90
  -3   0  -8  291.97   12.10
   3  -3  -8  271.77   13.40
   0   3  -8  291.97   14.70
  -3   0  -8  293.57   11.00
   3   0   8  306.37   13.80
   0  -3   8  274.87   12.60
  -3   3   8  281.27   11.70
  -3   3   8  271.77   12.90
  -3   3   8  276.77   13.90
   3   0   8  256.67   13.10
   3   0   8  278.77   13.40
   0  -3   8  303.57   11.40
   3   0   8  275.07   12.10
  -3   3   8  278.17   12.40
   3   0   8  267.57   14.20
   0  -3   8  282.07   13.30
   0  -3   8  280.07   13.90
  -3   1  -8  169.08    9.70
   2  -3  -8  203.28   11.00
  -3   1  -8  179.28    7.90
  -3   1  -8  177.48    9.40
   2  -3  -8  190.68   10.00
   2  -3  -8  191.28    9.00
   1   2  -8  174.78   11.20
   2  -3  -8  196.28    8.40
   2  -3  -8  187.68   11.80
  -3   1  -8  194.98    8.30
   1   2  -8  193.08    9.90
   1   2  -8  190.08    7.60
   1   2  -8  186.08    9.00
   1   2  -8  178.18    9.70
  -2   3   8  179.88   10.40
  -1  -2   8  178.38    7.90
  -2   3   8  182.58    9.60
  -2   3   8  179.18    8.40
  -1  -2   8  178.88    8.70
  -1  -2   8  178.38   10.20
  -1  -2   8  188.68   10.40
   3  -1   8  192.58   10.50
   3  -1   8  175.48    9.70
  -2   3   8  203.38    9.80
   3  -1   8  195.88   10.20
   3  -1   8  184.88   10.60
   3  -1   8  179.08    8.10
  -1  -2   8  181.48   10.10
  -3   2  -8  189.88   10.00
  -3   2  -8  186.98    8.40
  -3   2  -8  180.58    9.20
   1  -3  -8  181.48   10.10
  -3   2  -8  175.68   11.10
   1  -3  -8  184.18    7.80
   2   1  -8  188.28    7.20
  -3   2  -8  184.38    7.60
   1  -3  -8  179.18    9.20
   2   1  -8  184.98    9.60
   2   1  -8  178.18    9.60
   2   1  -8  175.48   10.60
   1  -3  -8  168.18    9.70
   1  -3  -8  185.18   12.50
   2   1  -8  179.38    9.30
  -2  -1   8  180.28   10.30
  -1   3   8  169.08    9.50
   3  -2   8  183.98    7.40
  -2  -1   8  187.18    8.00
   3  -2   8  195.48    9.90
  -1   3   8  184.08    8.70
   3  -2   8  180.78   10.40
   3  -2   8  187.48    9.50
  -2  -1   8  172.38    9.90
   3  -2   8  186.18   10.40
  -2  -1   8  191.68    7.30
  -2  -1   8  185.98   10.10
  -1   3   8  184.08   10.60
  -1   3   8  176.48    9.60
   0  -3  -8  300.57   13.60
   3   0  -8  281.07   13.70
  -3   3  -8  235.78   13.40
  -3   3  -8  294.87   13.90
   0  -3  -8  292.47   13.20
  -3   3  -8  273.47   14.20
   3   0  -8  294.17   10.70
   0  -3  -8  280.07   11.90
   0  -3  -8  289.17   13.00
  -3   3  -8  279.17   12.70
   3   0  -8  287.57   13.30
   3   0  -8  268.37   13.10
   3  -3   8  288.47   13.30
   0   3   8  278.97   12.10
  -3   0   8  297.17   13.70
   0   3   8  283.67   14.40
   0   3   8  292.37   12.40
   0   3   8  304.27   13.40
   3  -3   8  279.67   13.70
   3  -3   8  286.37   12.70
   3  -3   8  270.07   13.40
   3  -3   8  277.77   14.00
   3  -3   8  303.27   12.20
  -3   0   8  288.07   14.10
  -3   0   8  269.47   13.70
   4  -1  -8  197.48    7.90
  -3   4  -8  193.38    9.70
   4  -1  -8  194.88   10.80
   4  -1  -8  190.68   10.40
  -1  -3  -8  182.98   10.10
  -1  -3  -8  204.48   10.40
  -1  -3  -8  192.98    9.70
  -1  -3  -8  191.58    9.70
   4  -1  -8  182.58   10.10
  -3   4  -8  200.88   11.40
  -3   4  -8  209.88   10.30
  -3   4  -8  201.88   11.00
   1   3   8  180.48    9.40
   3  -4   8  199.18    9.80
   3  -4   8  191.48   11.40
   1   3   8  201.38   10.40
   1   3   8  207.68   10.40
  -4   1   8  190.48   10.80
   3  -4   8  190.38   10.60
  -4   1   8  197.68   10.40
   3  -4   8  195.18   10.40
   1   3   8  195.98    9.40
   1   3   8  176.78   11.20
   3  -4   8  194.28    9.70
  -3   5  -8  218.68   10.90
  -2  -3  -8  211.38   11.00
  -2  -3  -8  215.88   10.90
  -3   5  -8  203.68   11.90
   5  -2  -8  215.18   11.20
   5  -2  -8  205.88    9.10
  -3   5  -8  224.18   12.10
  -2  -3  -8  216.88   11.20
   5  -2  -8  209.58   11.60
   5  -2  -8  205.08   11.30
  -3   5  -8  222.38   11.80
  -2  -3  -8  227.58   10.00
  -5   2   8  220.58   11.10
   3  -5   8  221.08   12.00
   2   3   8  209.38   10.70
   2   3   8  215.08   10.90
   3  -5   8  206.48   12.30
   2   3   8  208.58   12.50
   2   3   8  227.48   12.80
   3  -5   8  219.68   11.00
   2   3   8  222.88   11.40
  -5   2   8  211.88   11.90
  -3   6  -8   59.29    8.00
  -3   6  -8   65.49    7.10
   6  -3  -8   66.49    8.10
   6  -3  -8   62.59    5.60
  -3  -3  -8   65.99    4.50
  -3  -3  -8   60.29    6.70
  -3   6  -8   65.19    7.40
  -3  -3  -8   56.39    5.80
  -3  -3  -8   59.89    6.50
   6  -3  -8   65.69    6.20
   3   3   8   69.29    6.50
   3  -6   8   60.39    7.70
  -6   3   8   67.69    6.40
   3  -6   8   59.79    6.00
   3   3   8   66.89    6.50
  -6   3   8   60.39    6.90
   3   3   8   67.69    7.70
   3  -6   8   57.09    7.30
  -3   7  -8  114.39    9.30
  -4  -3  -8  120.99    8.70
   7  -4  -8  107.79    8.50
  -4  -3  -8  108.09    7.50
  -4  -3  -8  111.49    9.00
   7  -4  -8  100.29    6.80
  -3   7  -8  113.89   10.40
  -3   7  -8  102.69    9.40
   7  -4  -8   94.79    8.50
  -3   7  -8   99.29    6.30
  -3   7  -8  112.89    6.10
   3  -7   8  115.29   10.00
  -7   4   8  106.19    9.40
   4   3   8  105.69    8.70
   3  -7   8   97.79    9.90
   3  -7   8  103.29    9.70
  -7   4   8  115.69    8.30
   4   3   8   96.29    9.50
   4   3   8   99.19    8.70
   6  -4  -8 1330.77   48.80
   6  -4  -8 1336.77   49.20
  -2   6  -8 1326.07   51.19
  -4  -2  -8 1322.67   50.59
  -4  -2  -8 1316.87   50.79
  -2   6  -8 1268.17   51.39
  -4  -2  -8 1253.57   49.50
  -2   6  -8 1378.16   50.59
  -2   6  -8 1343.77   48.40
  -2   6  -8 1390.66   48.00
   6  -4  -8 1296.97   50.69
   4   2   8 1317.47   50.59
   2  -6   8 1328.07   48.80
   2  -6   8 1357.76   49.30
  -6   4   8 1313.17   49.10
   4   2   8 1253.77   49.80
  -6   4   8 1365.26   51.19
   4   2   8 1363.16   50.19
   4   2   8 1303.37   52.29
   2  -6   8 1354.26   51.29
  -6   4   8 1375.66   50.49
   2  -6   8 1345.77   51.89
  -1   5  -8  173.58   11.60
  -1   5  -8  200.18    8.90
   5  -4  -8  189.48    9.30
  -4  -1  -8  185.68   10.20
  -1   5  -8  180.08   10.70
   5  -4  -8  188.18   10.70
  -4  -1  -8  191.18   10.50
  -1   5  -8  188.38   11.20
  -4  -1  -8  189.88   10.10
   5  -4  -8  182.88    9.30
  -4  -1  -8  183.28   10.60
  -1   5  -8  189.68    9.10
   4   1   8  164.98   11.30
   1  -5   8  203.08   11.70
   4   1   8  198.48    9.90
  -5   4   8  177.48   10.70
   4   1   8  185.38   10.70
   1  -5   8  186.18    8.80
   1  -5   8  200.38   10.00
   1  -5   8  188.48   10.80
   4   1   8  177.18   10.60
  -5   4   8  180.78   10.20
  -5   4   8  191.98    9.00
  -4   0  -8 1963.40   69.49
  -4   0  -8 1886.61   69.69
   0   4  -8 1984.60   67.99
   4  -4  -8 1847.12   69.79
   4  -4  -8 1852.61   67.29
   0   4  -8 1922.21   70.19
   0   4  -8 1849.42   69.59
  -4   0  -8 1901.11   69.49
   0   4  -8 1860.11   69.99
   4  -4  -8 1875.01   68.29
  -4   0  -8 1965.30   67.99
   0   4  -8 1927.41   67.99
   0  -4   8 1916.01   67.19
   0  -4   8 1837.22   69.19
   4   0   8 1921.41   68.29
   0  -4   8 1867.61   69.29
   0  -4   8 1835.02   70.39
  -4   4   8 1860.11   70.19
  -4   4   8 1804.92   69.29
   4   0   8 1895.11   69.59
  -4   4   8 1893.91   67.29
   4   0   8 1832.62   70.89
   4   0   8 1900.51   69.89
  -4   1  -8  189.58   10.40
   3  -4  -8  190.18    8.10
   3  -4  -8  204.38    9.70
   1   3  -8  197.88    9.30
   3  -4  -8  180.88   10.30
   1   3  -8  201.98    9.90
   1   3  -8  203.58   10.50
  -4   1  -8  177.58   10.10
  -4   1  -8  197.28    8.60
   1   3  -8  197.58    9.80
   1   3  -8  189.18   10.80
   4  -1   8  196.78    8.80
  -3   4   8  183.88    8.00
   4  -1   8  192.78   10.90
  -1  -3   8  196.38   11.70
  -3   4   8  190.48   10.50
  -3   4   8  233.28   12.00
  -1  -3   8  198.08   10.00
  -1  -3   8  188.38   11.10
   4  -1   8  205.38   11.60
  -1  -3   8  196.58   10.40
  -1  -3   8  208.68    7.90
  -3   4   8  186.58   11.00
   2   2  -8 2149.88   76.89
  -4   2  -8 2080.99   74.79
   2   2  -8 2121.59   76.09
  -4   2  -8 2101.09   74.39
   2   2  -8 2333.67   75.79
  -4   2  -8 2008.70   76.69
   2   2  -8 2009.80   77.29
  -4   2  -8 2080.39   77.29
   2  -4  -8 2112.89   77.29
   2  -4  -8 2087.69   76.39
   2  -4  -8 2224.08   74.69
  -2  -2   8 2092.59   77.39
  -2   4   8 2053.39   77.89
  -2   4   8 2250.97   75.09
  -2  -2   8 2120.99   77.59
   4  -2   8 2023.70   77.49
   4  -2   8 2072.69   77.89
  -2   4   8 2078.79   77.09
  -2  -2   8 2011.40   75.69
   4  -2   8 2109.19   77.99
   4  -2   8 2120.79   74.49
  -2  -2   8 2102.89   76.89
   1  -4  -8  203.08   10.60
   1  -4  -8  210.28   11.40
  -4   3  -8  198.38   10.30
   3   1  -8  204.88   10.90
  -4   3  -8  181.88    9.10
   1  -4  -8  202.38    9.00
   3   1  -8  204.58    8.90
   1  -4  -8  196.58   10.20
  -4   3  -8  199.18   11.90
   3   1  -8  190.28   10.20
  -4   3  -8  206.78   11.00
  -1   4   8  203.58    9.40
  -1   4   8  187.18   10.50
   4  -3   8  178.08   10.90
  -1   4   8  202.08    8.30
  -1   4   8  181.88   11.40
  -3  -1   8  185.28   10.80
  -3  -1   8  213.28    9.70
   4  -3   8  202.68    8.80
  -1   4   8  200.18    8.40
  -3  -1   8  210.08   11.10
  -3  -1   8  200.18   11.20
   4  -3   8  188.98   11.20
  -4   4  -8 1824.92   69.99
   4   0  -8 1839.92   68.99
   4   0  -8 1846.62   69.39
   0  -4  -8 1835.22   69.29
   0  -4  -8 1900.11   68.19
  -4   4  -8 1898.31   69.59
  -4   4  -8 1930.61   68.99
  -4   4  -8 1949.41   68.69
   0  -4  -8 1883.01   69.19
   0  -4  -8 1903.51   68.99
   4  -4   8 1959.70   67.89
  -4   0   8 1897.21   69.99
   4  -4   8 1853.31   69.69
   4  -4   8 1752.22   70.09
   0   4   8 1912.61   68.59
  -4   0   8 1894.81   66.99
   0   4   8 1832.52   70.59
  -4   0   8 1864.71   69.49
   4  -4   8 1924.31   69.59
   0   4   8 1881.71   67.49
   0   4   8 1890.81   69.49
   0   4   8 1922.71   67.29
  -1  -4  -8  182.98    9.80
  -1  -4  -8  186.38   10.10
  -4   5  -8  188.08   11.10
   5  -1  -8  182.18   10.10
   5  -1  -8  188.98   10.60
  -4   5  -8  184.78   10.30
  -4   5  -8  190.98   10.20
  -1  -4  -8  189.88   10.00
  -1  -4  -8  179.08   10.20
  -4   5  -8  180.08   11.00
   4  -5   8  171.68   10.00
   1   4   8  179.38   11.30
   4  -5   8  187.18   11.00
   1   4   8  163.08   10.30
  -5   1   8  184.98   10.60
  -5   1   8  190.78   10.90
   1   4   8  198.38    9.30
   4  -5   8  176.58   11.60
   1   4   8  173.58   11.50
   1   4   8  169.78    9.20
   4  -5   8  188.88   10.10
   6  -2  -8 1284.67   50.49
   6  -2  -8 1295.97   50.09
   6  -2  -8 1278.17   47.30
  -2  -4  -8 1297.97   50.29
  -2  -4  -8 1323.37   48.60
  -4   6  -8 1257.27   51.39
  -2  -4  -8 1351.06   49.80
  -4   6  -8 1395.76   49.80
  -2  -4  -8 1359.36   50.29
  -4   6  -8 1328.87   50.69
   4  -6   8 1319.47   49.30
   2   4   8 1358.76   49.40
   4  -6   8 1342.47   51.79
  -6   2   8 1381.26   50.39
   2   4   8 1313.67   50.49
   2   4   8 1277.67   49.20
   4  -6   8 1311.47   51.29
  -6   2   8 1342.17   51.29
   2   4   8 1332.07   52.19
   7  -3  -8  109.39    8.40
  -3  -4  -8  109.09    8.50
  -4   7  -8  119.99    8.80
  -3  -4  -8  110.29    6.90
   7  -3  -8  107.69    8.50
   7  -3  -8  120.09    7.00
  -4   7  -8   95.99    9.50
  -3  -4  -8  112.79    9.10
  -4   7  -8  107.09    9.80
   7  -3  -8  113.79    7.00
  -3  -4  -8  110.49    7.70
   4  -7   8  118.39   10.20
   4  -7   8  107.69    7.10
  -7   3   8  110.89    9.00
   4  -7   8  119.19   10.00
   3   4   8   97.49    8.60
   3   4   8  117.39    8.40
   3   4   8   88.09    9.80
  -7   3   8  109.89    9.20
  -4   8  -8  750.02   32.40
   8  -4  -8  713.43   30.80
   8  -4  -8  760.82   28.20
  -4  -4  -8  713.53   28.70
   8  -4  -8  702.43   30.30
  -4  -4  -8  736.33   30.80
  -4   8  -8  750.92   32.40
  -4  -4  -8  749.42   31.40
   4  -8   8  721.33   27.60
   4   4   8  716.13   32.70
   4   4   8  745.03   30.60
  -8   4   8  767.42   31.60
  -8   4   8  760.22   30.40
   4  -8   8  720.03   32.30
   4   4   8  702.03   30.80
   4  -8   8  748.23   32.30
   8  -5  -8   79.89    6.90
  -5  -3  -8   81.59    9.00
   8  -5  -8   63.29    8.00
  -3   8  -8   78.49    9.70
  -3   8  -8   82.99   10.30
  -5  -3  -8   81.39    6.60
  -5  -3  -8   57.69    7.10
   3  -8   8   63.79    5.80
   5   3   8   67.29    9.10
   3  -8   8   72.89    8.80
   5   3   8   69.29    8.80
   3  -8   8   67.39    8.50
   5   3   8   67.79    7.60
  -8   5   8   72.59    8.70
  -2   7  -8   85.39    7.10
  -2   7  -8   84.19   10.60
   7  -5  -8   95.19    7.00
  -2   7  -8   92.19    7.20
   7  -5  -8  101.59    8.50
  -5  -2  -8   95.99    8.80
   7  -5  -8   81.69    8.00
  -2   7  -8  101.19    9.10
  -2   7  -8  103.49    9.80
  -5  -2  -8  105.89    7.30
  -5  -2  -8   98.29    8.20
   5   2   8   90.69    8.80
   2  -7   8   82.39    9.40
   5   2   8   82.99    7.90
  -7   5   8   95.89    8.00
   5   2   8   84.09    8.60
   2  -7   8  102.19    6.70
   5   2   8   89.69    9.80
   2  -7   8   96.69    9.70
  -7   5   8   96.39    8.70
  -1   6  -8  135.79    9.30
  -1   6  -8  131.39    7.90
  -5  -1  -8  127.89    8.30
   6  -5  -8  128.99    9.10
  -5  -1  -8  134.39    9.20
   6  -5  -8  123.49    7.70
  -1   6  -8  124.79    8.00
  -1   6  -8  148.59   11.40
  -1   6  -8  123.59   10.00
  -5  -1  -8  129.49    9.50
   6  -5  -8  125.79    7.80
   5   1   8  123.99    9.70
   1  -6   8  134.69    8.10
   5   1   8  134.89   10.40
   5   1   8  124.09    8.30
   1  -6   8  133.09    7.50
   1  -6   8  144.69   10.10
   1  -6   8  125.99   10.40
   5   1   8  139.09    9.60
  -6   5   8  128.29    8.80
  -6   5   8  131.39    9.40
   5  -5  -8  102.29    5.10
   0   5  -8   89.59    8.10
  -5   0  -8   88.79    6.80
   5  -5  -8   78.59    7.30
  -5   0  -8   88.59    7.00
  -5   0  -8   96.19    8.00
  -5   0  -8   81.19    7.30
   0   5  -8   99.59    7.30
   5  -5  -8   94.19    6.50
   0   5  -8   85.39    6.40
   0   5  -8   93.39    7.50
   5   0   8   92.79    8.50
   5   0   8   92.89    6.40
   0  -5   8   93.19    5.30
  -5   5   8   92.99    7.30
  -5   5   8   88.39    7.50
   0  -5   8   94.59    6.90
   0  -5   8   90.99    8.60
   5   0   8   87.69    7.80
   0  -5   8   88.59    7.70
  -5   1  -8  171.98   10.10
   1   4  -8  201.48   10.40
  -5   1  -8  166.28   10.00
   1   4  -8  182.18   11.00
  -5   1  -8  190.98    8.50
   4  -5  -8  194.18    9.70
   1   4  -8  173.78   10.90
   1   4  -8  193.48    9.50
   4  -5  -8  179.18   10.50
  -1  -4   8  169.98   11.20
  -1  -4   8  181.08    7.40
  -4   5   8  177.08   10.70
  -4   5   8  189.48   10.60
  -1  -4   8  173.98   10.20
   5  -1   8  175.78   11.30
  -1  -4   8  185.78   10.20
  -1  -4   8  190.28    7.40
   5  -1   8  182.78    8.80
   5  -1   8  191.18   11.10
   3  -5  -8  215.88    9.10
   3  -5  -8  209.78   10.70
   3  -5  -8  216.38   11.60
  -5   2  -8  204.78   11.20
   2   3  -8  222.38   11.10
   2   3  -8  220.88   10.50
   2   3  -8  210.88   11.70
   2   3  -8  222.18   11.00
  -5   2  -8  220.48   11.50
   5  -2   8  208.68   12.30
  -2  -3   8  215.88   11.90
  -3   5   8  212.68   12.00
  -2  -3   8  226.28   11.00
  -3   5   8  191.18   11.30
  -2  -3   8  200.38   11.20
   5  -2   8  214.78   12.10
   5  -2   8  217.98    8.90
  -2  -3   8  206.08   12.10
   2  -5  -8  214.98    9.70
  -5   3  -8  207.78   11.60
   2  -5  -8  201.58   10.80
  -5   3  -8  232.98    9.40
  -5   3  -8  200.38   11.10
   3   2  -8  220.68   10.90
   3   2  -8  225.68   10.50
   2  -5  -8  210.18   11.30
   3   2  -8  193.88   11.40
  -3  -2   8  214.58   11.80
  -2   5   8  221.08   12.20
   5  -3   8  213.98   12.00
  -2   5   8  231.78   10.30
  -3  -2   8  209.88   11.50
  -2   5   8  199.18   11.50
  -3  -2   8  205.78   11.90
   5  -3   8  213.78   12.10
  -5   4  -8  190.88   10.40
   1  -5  -8  184.88   10.20
  -5   4  -8  182.08   11.00
   1  -5  -8  177.88   10.40
   4   1  -8  195.38    9.10
   4   1  -8  169.18   10.50
   4   1  -8  192.48   10.00
   1  -5  -8  196.98    9.50
  -5   4  -8  180.18    9.30
  -4  -1   8  191.18   11.00
  -4  -1   8  189.98   11.10
  -4  -1   8  182.88   11.00
  -1   5   8  183.28   11.30
  -1   5   8  182.08   10.70
  -1   5   8  174.98   10.10
  -4  -1   8  198.88    9.20
   5  -4   8  192.78    8.80
  -1   5   8  191.88   10.40
   5  -4   8  173.08   10.90
   5  -4   8  193.28   11.60
   0  -5  -8   86.19    7.30
  -5   5  -8  103.39    7.40
   5   0  -8   97.79    6.90
  -5   5  -8   97.79    8.20
   5   0  -8   75.19    7.30
   0  -5  -8  102.49    6.80
   0  -5  -8   84.49   10.10
   5   0  -8   90.39    6.00
  -5   5  -8   86.89    8.80
   0  -5  -8   90.59    7.20
  -5   5  -8  102.49    7.30
   0   5   8  108.39    9.20
  -5   0   8   88.39    7.80
   5  -5   8   75.19    7.70
  -5   0   8   91.89    8.10
   0   5   8   89.79    8.60
   5  -5   8   91.39    7.50
   0   5   8  102.99    7.30
   0   5   8   88.69    5.60
  -5   0   8   85.89    5.80
   0   5   8   91.99    7.90
   5  -5   8   89.09    8.90
   5  -5   8   84.79    6.90
  -5   6  -8  137.99   10.20
  -5   6  -8  136.39    9.50
  -1  -5  -8  134.39    8.90
  -5   6  -8  136.59    9.60
   6  -1  -8  126.49    9.20
  -5   6  -8  126.99    9.20
   6  -1  -8  132.99    7.20
  -1  -5  -8  138.59   10.00
  -1  -5  -8  121.09    9.00
  -1  -5  -8  117.29    8.70
   6  -1  -8  125.09    8.40
   1   5   8  137.79    8.20
  -6   1   8  133.49    9.70
  -6   1   8  128.19    7.20
   1   5   8  157.28   10.90
   1   5   8  140.79    9.90
   5  -6   8  120.19    9.60
  -6   1   8  144.09    9.80
   5  -6   8  124.69   10.50
   1   5   8  139.59    8.60
   5  -6   8  128.99    8.70
  -2  -5  -8  100.69    8.90
  -5   7  -8   90.49    8.10
   7  -2  -8   92.19    7.60
  -5   7  -8   88.39    9.30
  -5   7  -8   93.69    9.40
   7  -2  -8   83.99    8.00
  -2  -5  -8  100.49    7.60
  -2  -5  -8   80.69    8.10
  -2  -5  -8   87.79    8.10
   7  -2  -8   98.19    6.80
   2   5   8   83.39    8.40
   2   5   8   90.09    9.70
   2   5   8  105.19    7.50
  -7   2   8   76.39    8.70
   5  -7   8   76.29    9.30
   2   5   8   97.59    7.80
   5  -7   8   85.19    9.60
  -7   2   8  101.89    9.10
   2   5   8   93.19    9.50
   8  -3  -8   64.89    8.00
  -3  -5  -8   73.79    8.30
  -3  -5  -8   81.39    7.10
  -5   8  -8   84.69   10.10
  -5   8  -8   81.79   10.30
   8  -3  -8   73.39    5.70
   8  -3  -8   66.09    7.90
  -3  -5  -8   79.09    8.40
   5  -8   8   81.19   10.70
  -8   3   8   86.29    9.40
   3   5   8   57.29    8.40
   3   5   8   84.89    8.80
   3   5   8   82.09    8.30
   5  -8   8   56.09    8.10
  -8   3   8   72.39    9.00
  -2   8  -8  805.12   32.10
   8  -6  -8  837.92   32.20
  -6  -2  -8  787.92   31.40
   8  -6  -8  788.22   34.10
  -2   8  -8  820.42   35.90
  -6  -2  -8  781.92   33.60
  -6  -2  -8  843.02   35.00
  -2   8  -8  844.62   34.90
   2  -8   8  844.32   32.00
   6   2   8  816.22   33.30
  -8   6   8  822.52   33.90
  -8   6   8  843.52   33.70
   2  -8   8  817.32   35.30
   2  -8   8  807.52   35.30
   6   2   8  757.52   35.60
   6   2   8  837.92   34.60
  -6  -1  -8  116.99    9.30
  -1   7  -8  109.19    8.70
  -1   7  -8  105.69    9.70
   7  -6  -8  115.69    9.30
   7  -6  -8  107.09    8.10
  -6  -1  -8  130.59   10.20
   7  -6  -8  120.09    8.80
  -1   7  -8  104.49   10.60
  -6  -1  -8  117.59    8.00
   1  -7   8  117.99   10.90
  -7   6   8  108.49    9.30
  -7   6   8  107.89    8.60
   6   1   8  105.39    9.80
   6   1   8  106.19    8.70
   1  -7   8  124.89    7.70
   1  -7   8  128.09    8.00
   1  -7   8  124.19   10.70
   6   1   8  121.69   11.00
  -6   0  -8 1095.79   42.80
   6  -6  -8 1060.59   40.50
   0   6  -8 1081.89   41.70
   0   6  -8 1085.19   40.60
   6  -6  -8 1099.39   39.80
   0   6  -8 1024.10   43.00
   6  -6  -8 1029.30   42.10
  -6   0  -8 1062.09   40.70
  -6   0  -8 1066.39   41.80
   0  -6   8 1069.99   39.00
   6   0   8 1026.60   43.30
   0  -6   8 1064.09   38.80
   0  -6   8 1054.09   40.50
  -6   6   8 1038.70   41.60
   6   0   8 1116.29   40.40
   6   0   8 1037.00   42.50
  -6   6   8 1017.70   41.60
   0  -6   8 1078.79   43.10
   0  -6   8 1089.29   42.40
   1   5  -8  138.69    8.90
   1   5  -8  127.49    8.40
  -6   1  -8  139.79    8.90
   5  -6  -8  113.59    9.00
  -6   1  -8  128.59    9.90
   5  -6  -8  119.99    6.40
   1   5  -8  130.49    9.90
  -6   1  -8  124.59    8.90
   5  -6  -8  122.39    8.10
   5  -6  -8  131.49    6.90
  -5   6   8  129.49    9.30
  -5   6   8  131.89    9.20
   6  -1   8  126.29    7.60
  -1  -5   8  134.59    8.60
  -1  -5   8  123.99    9.20
  -1  -5   8  131.39   10.70
   6  -1   8  125.19    9.80
  -1  -5   8  136.19    5.70
   6  -1   8  127.39   10.20
   2   4  -8 1376.76   49.90
  -6   2  -8 1302.77   50.79
   4  -6  -8 1306.27   49.90
   4  -6  -8 1327.47   51.19
   4  -6  -8 1359.06   48.20
   2   4  -8 1261.07   51.49
  -6   2  -8 1383.36   50.79
   2   4  -8 1347.47   50.09
   6  -2   8 1284.97   51.69
  -2  -4   8 1315.77   50.49
  -2  -4   8 1366.76   50.59
  -4   6   8 1295.27   50.89
   6  -2   8 1363.46   48.10
   6  -2   8 1341.87   51.79
  -4   6   8 1315.57   50.89
  -2  -4   8 1346.57   51.79
  -6   3  -8   62.69    6.80
   3   3  -8   56.59    5.80
   3  -6  -8   63.99    5.20
   3   3  -8   67.39    6.00
   3   3  -8   60.89    7.80
   3  -6  -8   58.99    6.00
   3  -6  -8   60.49    6.30
  -6   3  -8   70.09    6.80
   3   3  -8   60.29    6.90
  -3   6   8   57.89    7.10
  -3  -3   8   57.59    7.10
  -3  -3   8   63.99    6.50
  -3  -3   8   65.79    7.90
  -3   6   8   65.09    6.10
  -3  -3   8   61.89    6.50
   6  -3   8   70.99    7.70
   6  -3   8   55.99    7.20
  -3   6   8   69.59    7.10
   2  -6  -8 1285.77   49.70
   4   2  -8 1277.57   50.69
   2  -6  -8 1375.56   48.70
  -6   4  -8 1317.07   50.19
   4   2  -8 1308.17   49.40
   4   2  -8 1346.77   48.90
  -6   4  -8 1301.57   50.69
   2  -6  -8 1300.67   50.19
  -6   4  -8 1327.17   47.80
   4   2  -8 1336.67   49.20
  -4  -2   8 1301.37   50.49
   6  -4   8 1316.07   50.69
  -2   6   8 1226.88   49.00
  -4  -2   8 1370.06   49.20
  -2   6   8 1349.96   50.59
  -4  -2   8 1342.27   51.09
  -4  -2   8 1267.97   49.40
   6  -4   8 1385.76   47.40
   6  -4   8 1269.57   51.09
  -2   6   8 1295.37   50.59
  -2   6   8 1288.47   50.79
   1  -6  -8  128.99    8.90
   5   1  -8  128.89    9.20
   5   1  -8  121.89    8.60
   5   1  -8  132.89    8.30
   1  -6  -8  127.39    8.90
  -6   5  -8  126.29    9.10
  -6   5  -8  130.29   10.10
  -6   5  -8  136.39    8.60
   1  -6  -8  140.89    8.40
  -1   6   8  110.29   11.80
  -5  -1   8  128.09    9.50
  -1   6   8  135.69    9.90
   6  -5   8  142.09   10.80
   6  -5   8  129.79    9.40
  -1   6   8  131.19   10.20
  -5  -1   8  134.49    8.40
  -1   6   8  138.79    9.30
  -5  -1   8  137.49   10.10
   6  -5   8  143.89    8.10
   6  -5   8  128.99   10.00
   0  -6  -8 1055.09   41.40
  -6   6  -8 1063.19   41.20
  -6   6  -8 1055.39   43.10
   0  -6  -8 1120.29   41.20
   6   0  -8 1040.70   39.80
   6   0  -8 1007.90   41.90
  -6   6  -8 1070.79   41.90
   6   0  -8 1071.09   40.70
   0  -6  -8 1045.00   41.70
   6  -6   8 1073.89   41.20
   0   6   8 1063.69   41.30
   0   6   8 1071.09   42.50
   0   6   8 1070.69   38.60
   0   6   8 1052.89   43.10
  -6   0   8 1080.29   42.60
  -6   0   8 1080.49   40.10
  -6   0   8 1066.79   42.50
   6  -6   8 1078.99   43.30
   6  -6   8 1051.09   42.80
  -1  -6  -8  119.39    9.10
  -6   7  -8  108.19   10.50
  -1  -6  -8  119.99    8.60
   7  -1  -8  108.49    8.40
   7  -1  -8  124.49    9.30
  -1  -6  -8  114.99    9.00
  -6   7  -8  125.79   10.40
  -7   1   8  108.49    9.90
  -7   1   8  105.89   10.40
   1   6   8   94.89   11.40
   6  -7   8  113.99    8.40
  -7   1   8  105.19    8.30
   6  -7   8  110.39   11.00
   6  -7   8  109.49   10.30
   1   6   8  111.49    8.80
   1   6   8  106.59   10.70
   1   6   8  106.19   10.00
  -2  -6  -8  821.72   34.20
  -6   8  -8  809.32   36.00
   8  -2  -8  840.82   33.10
  -2  -6  -8  818.42   32.50
  -6   8  -8  851.61   35.10
  -2  -6  -8  818.82   33.90
   8  -2  -8  775.52   33.80
   2   6   8  805.82   34.60
  -8   2   8  829.12   34.60
   2   6   8  812.02   32.20
   6  -8   8  790.72   35.30
   6  -8   8  840.02   36.00
   2   6   8  834.02   32.60
   6  -8   8  799.32   30.50
   2   6   8  817.12   35.70
  -8   2   8  832.62   34.90
  -7  -1  -8   53.49    7.20
  -7  -1  -8   59.09    8.40
   8  -7  -8   55.29    6.30
  -1   8  -8   53.49    8.30
  -1   8  -8   68.39    7.60
  -7  -1  -8   64.69    7.40
   8  -7  -8   72.99    7.90
   8  -7  -8   56.09    7.30
  -1   8  -8   65.79    8.40
  -8   7   8   55.89    7.00
   7   1   8   67.79   10.00
   1  -8   8   77.39    9.70
   7   1   8   90.19   11.00
   1  -8   8   68.69    7.00
   1  -8   8   73.79    9.40
   7   1   8   68.59    7.70
  -8   7   8   77.79    9.20
   7  -7  -8   67.69    7.90
  -7   0  -8   84.19    7.60
  -7   0  -8   53.39    7.60
   0   7  -8   81.39    8.60
   7  -7  -8   72.39    7.50
   0   7  -8   78.49    9.70
  -7   0  -8   62.89    7.30
   7  -7  -8   69.09    5.80
   0   7  -8   74.09    8.50
   7   0   8   73.89    6.90
  -7   7   8   78.39    8.50
   0  -7   8   60.19    5.90
   7   0   8   61.49    8.20
   7   0   8   63.59    8.50
   0  -7   8   86.39    9.80
  -7   7   8   75.29    8.20
   0  -7   8   56.19    7.50
  -7   1  -8  105.49    9.20
   1   6  -8  110.39    9.00
   6  -7  -8  104.29    6.90
   1   6  -8  118.29   10.80
   1   6  -8  116.39    9.00
   6  -7  -8  110.09    9.10
  -7   1  -8  113.69    9.00
  -7   1  -8  115.79   10.30
   6  -7  -8  125.89    8.70
  -1  -6   8  119.29   10.30
   7  -1   8  125.79   10.70
   7  -1   8  124.19   10.60
   7  -1   8  125.79    8.30
  -1  -6   8  104.99   11.20
  -6   7   8  107.39    9.00
  -1  -6   8  117.09    8.60
  -6   7   8  108.79    9.10
  -7   2  -8   93.09    8.60
   2   5  -8   85.89    9.00
  -7   2  -8   94.39    8.20
   5  -7  -8   93.29    8.20
   5  -7  -8   84.79    7.60
   2   5  -8   99.49    8.00
   5  -7  -8   84.09    6.70
   2   5  -8  107.29    8.00
   7  -2   8   95.49    6.40
  -5   7   8   98.29    8.80
   7  -2   8   88.79    9.80
  -2  -5   8   93.39    8.90
  -2  -5   8   86.39    7.80
  -5   7   8  100.79    8.50
  -2  -5   8   90.19   10.10
   7  -2   8   90.59    9.40
   4  -7  -8  117.09    7.30
   3   4  -8  116.19    8.40
   3   4  -8   97.89    9.10
  -7   3  -8  109.19    9.00
   3   4  -8  118.69    8.00
   4  -7  -8   96.69    8.30
  -7   3  -8   95.39    8.60
   4  -7  -8   91.39    7.80
  -4   7   8   97.79    8.80
  -3  -4   8  103.69    8.60
  -3  -4   8  112.59   10.30
  -3  -4   8  114.59    9.00
   7  -3   8   95.29    9.60
  -4   7   8  116.59    9.30
  -4   7   8  118.49    9.60
   7  -3   8  112.69    9.60
   3  -7  -8  101.29    7.20
   4   3  -8  104.79    7.50
   4   3  -8  102.69    8.20
   3  -7  -8  103.09    8.50
  -7   4  -8  115.09    9.00
  -7   4  -8  115.19    9.50
   3  -7  -8  108.99    8.30
   4   3  -8  101.59    8.80
  -4  -3   8  102.79    9.80
   7  -4   8   91.69    9.70
  -3   7   8  109.09    9.30
  -3   7   8  108.99    9.30
  -3   7   8   99.59    9.60
  -4  -3   8  103.59    9.00
   7  -4   8  104.59    9.50
  -3   7   8  104.49    9.00
  -4  -3   8  103.29    8.90
  -4  -3   8  103.09    8.50
   5   2  -8   83.79    8.40
   2  -7  -8  106.99    8.40
   5   2  -8  102.19    7.90
  -7   5  -8   85.19    6.90
   2  -7  -8   86.69    8.00
   2  -7  -8  103.99    7.70
  -7   5  -8   85.29    8.40
  -7   5  -8   97.89    9.50
   5   2  -8   98.39    7.30
   7  -5   8   84.69    8.90
  -5  -2   8   98.39    9.10
  -5  -2   8  101.79    8.30
  -2   7   8  103.79    9.00
   7  -5   8  100.49   10.20
  -5  -2   8  104.99   10.10
  -2   7   8   92.39    9.00
  -2   7   8   99.59    9.50
   7  -5   8   99.09    6.50
   1  -7  -8  105.19    9.00
   6   1  -8  116.89    8.90
  -7   6  -8  129.39   10.50
  -7   6  -8   96.39    9.40
   6   1  -8  117.69    8.10
  -7   6  -8  133.19    9.20
   6   1  -8  108.69    9.30
   1  -7  -8  106.89    8.80
   1  -7  -8  110.29    8.90
  -6  -1   8  113.59    9.80
   7  -6   8  107.99   10.00
  -1   7   8  128.59    9.60
  -6  -1   8  104.29   10.70
  -1   7   8  112.09   10.40
  -1   7   8  124.79   10.20
  -6  -1   8  123.39    8.90
   7  -6   8  117.99    9.70
   7  -6   8  111.09   11.30
   7   0  -8   65.39    8.00
   0  -7  -8   49.80    6.70
  -7   7  -8   79.89    8.30
   7   0  -8   75.49    7.10
   0  -7  -8   62.29    7.70
   0  -7  -8   71.99    8.30
  -7   7  -8   65.69    8.90
   0   7   8   74.79    8.60
   7  -7   8   69.99    9.30
  -7   0   8   66.99    7.80
   7  -7   8   75.29    9.60
  -7   0   8   64.39    8.60
   0   7   8   59.49    7.60
  -7   0   8   79.69    9.50
   0   7   8   71.49    9.20
   7  -7   8   79.09    8.40
  -1  -7  -8   57.69    7.30
   8  -1  -8   67.39    7.80
  -7   8  -8   73.49    9.70
   8  -1  -8   67.59    8.50
  -1  -7  -8   60.39    7.40
  -1  -7  -8   63.69    7.10
  -7   8  -8   76.09   10.30
  -8   1   8   61.09    8.10
   1   7   8   63.69    9.30
   1   7   8   67.69    7.70
  -8   1   8   59.39    6.80
   7  -8   8   61.49    9.20
   7  -8   8   61.99    8.90
   1   7   8   73.49    9.00
   7  -8   8   57.29    7.20
   7  -8  -8   81.29    7.20
   1   7  -8   85.29    9.20
  -8   1  -8   58.09    7.90
  -8   1  -8   60.69    8.30
   7  -8  -8   70.79    8.60
   1   7  -8   77.19    8.10
   7  -8  -8   63.29    8.50
  -8   1  -8   77.99    9.30
   1   7  -8   67.89    9.80
   8  -1   8   71.89    8.20
  -7   8   8   51.49    6.90
  -1  -7   8   76.49    9.30
   8  -1   8   87.89   10.30
  -1  -7   8   73.39    9.00
   8  -1   8   67.99    9.70
  -7   8   8   72.09    7.90
   2   6  -8  823.02   33.80
   6  -8  -8  818.62   33.40
   2   6  -8  799.72   35.70
  -8   2  -8  759.42   34.00
   2   6  -8  833.82   33.00
   6  -8  -8  843.22   31.60
   6  -8  -8  772.52   34.40
  -8   2  -8  793.02   33.40
   8  -2   8  790.12   35.60
   8  -2   8  857.11   35.90
  -2  -6   8  883.51   35.20
   8  -2   8  858.21   31.50
  -6   8   8  835.72   34.50
  -2  -6   8  900.91   36.20
  -6   8   8  790.02   33.20
   3   5  -8   75.29    9.40
  -8   3  -8   67.69    7.80
   5  -8  -8   73.59    8.00
   5  -8  -8   65.09    7.90
  -8   3  -8   90.19    9.10
   3   5  -8   78.09    8.40
   5  -8  -8   71.39    7.20
   3   5  -8   86.49    7.60
   8  -3   8   84.69    9.90
  -5   8   8   77.09    9.70
   8  -3   8   94.29   10.60
  -5   8   8   69.39    8.30
  -3  -5   8   81.99    9.60
  -3  -5   8   82.19    9.30
  -5   8   8   59.39    7.40
  -8   4  -8  704.13   31.10
   4   4  -8  756.32   28.90
   4  -8  -8  719.03   30.20
  -8   4  -8  760.82   31.30
   4   4  -8  735.53   30.30
   4   4  -8  680.43   31.40
   4  -8  -8  677.13   28.70
   4  -8  -8  723.13   31.00
  -4   8   8  753.72   32.00
   8  -4   8  726.43   32.30
  -4  -4   8  771.02   32.50
  -4   8   8  736.03   31.50
  -4  -4   8  765.92   31.00
   8  -4   8  725.53   31.60
  -4   8   8  719.33   30.40
   3  -8  -8   70.69    8.10
   5   3  -8   61.49    6.90
   3  -8  -8   78.29    7.80
   3  -8  -8   82.99    8.20
   5   3  -8   85.29    9.10
   5   3  -8   63.79    6.70
  -8   5  -8   83.69    9.00
  -8   5  -8   81.09    9.50
   8  -5   8   88.19   10.70
  -5  -3   8   97.29   10.60
   8  -5   8   80.29    9.60
  -3   8   8   75.59    9.40
  -3   8   8   72.49    9.40
  -3   8   8   78.09    9.40
  -5  -3   8   76.89    8.60
  -8   6  -8  844.42   32.00
   6   2  -8  817.52   33.50
   6   2  -8  762.42   34.20
   2  -8  -8  799.82   33.70
  -8   6  -8  846.92   34.70
   2  -8  -8  794.62   33.60
  -8   6  -8  848.42   35.70
   6   2  -8  826.72   31.60
   2  -8  -8  837.62   33.10
  -2   8   8  780.62   34.20
  -6  -2   8  815.92   35.40
   8  -6   8  822.82   35.40
  -2   8   8  844.42   34.80
   8  -6   8  798.12   33.90
  -6  -2   8  843.52   33.40
  -2   8   8  796.22   34.90
   8  -6   8  837.72   35.80
   7   1  -8   71.19    8.80
   7   1  -8   56.79    6.90
   1  -8  -8   65.49    7.70
   1  -8  -8   71.69    8.00
  -8   7  -8   69.49    9.00
  -8   7  -8   73.79    7.90
   7   1  -8   60.79    7.20
   1  -8  -8   70.89    8.40
   8  -7   8   71.19    9.80
   8  -7   8   64.49    8.90
  -1   8   8   77.39    9.60
  -7  -1   8   68.29    7.60
  -1   8   8   90.59   10.00
  -1   8   8   66.09    8.90
   8  -7   8   79.99    9.40
  -7  -1   8   58.99    8.70
   0   0  -9 1869.91   66.49
   0   0  -9 1725.73   66.59
   0   0  -9 1745.33   65.49
   0   0  -9 1786.92   65.19
   0   0  -9 1827.22   65.69
   0   0   9 1748.72   66.29
   0   0   9 1856.61   65.69
   0   0   9 2012.60   64.59
   0   0   9 1752.12   67.49
   0   0   9 1761.82   65.19
   0   0   9 1790.42   65.29
   0   1  -9  133.09    7.80
   0   1  -9  130.69    7.00
   1  -1  -9  126.19    8.20
   0   1  -9  133.29    9.30
   1  -1  -9  139.49    7.30
   0   1  -9  132.49    8.40
  -1   0  -9  157.48    8.10
   1  -1  -9  145.09    8.40
  -1   0  -9  137.49    7.60
   1  -1  -9  136.09    7.80
   1  -1  -9  139.09    8.80
   0   1  -9  143.89    7.90
   1  -1  -9  133.09    8.80
  -1   0  -9  142.09    9.00
  -1   0  -9  151.08    8.60
  -1   1   9  147.09    8.20
  -1   1   9  137.19    9.10
   0  -1   9  136.29    9.00
   1   0   9  142.49    7.30
   1   0   9  136.69    9.30
   0  -1   9  126.99    8.40
   0  -1   9  136.29    7.10
  -1   1   9  149.29    7.80
   1   0   9  136.59    7.20
   1   0   9  158.88    8.40
   1   0   9  148.49    8.60
   0  -1   9  137.09    7.30
  -1   1   9  144.49    7.60
   0  -1   9  151.98    7.00
   1   0  -9  134.49    8.30
   1   0  -9  132.69    7.80
  -1   1  -9  126.99    9.30
   1   0  -9  152.78    8.60
  -1   1  -9  154.48    7.70
   0  -1  -9  139.89    8.40
  -1   1  -9  145.59    7.70
  -1   1  -9  135.09    7.30
   0  -1  -9  150.68    7.50
  -1   1  -9  131.89    8.70
   0  -1  -9  145.79    8.40
   0  -1  -9  134.09    7.40
   1   0  -9  131.29    8.80
   1   0  -9  146.69    6.90
   0  -1  -9  147.99    8.40
   0  -1  -9  150.98    8.80
  -1   0   9  135.99    9.10
   1  -1   9  149.39    7.40
   0   1   9  131.69    7.10
  -1   0   9  141.99    7.30
  -1   0   9  132.39    7.20
  -1   0   9  123.59    8.30
   1  -1   9  145.89    9.30
   0   1   9  145.79    7.60
   0   1   9  126.89    9.10
   1  -1   9  139.49    6.80
   1  -1   9  145.59    7.30
   1  -1   9  155.98    8.10
   1  -1   9  129.69    8.50
   0   1   9  144.99    8.30
   0   1   9  139.19    8.10
  -1  -1  -9  144.89    8.10
  -1   2  -9  147.19    8.20
  -1  -1  -9  152.58    8.80
  -1  -1  -9  153.48    8.40
   2  -1  -9  149.59    8.70
  -1   2  -9  146.09    7.50
  -1  -1  -9  144.09    7.30
  -1   2  -9  150.38    7.50
   2  -1  -9  149.88    8.80
   2  -1  -9  153.08    8.30
   2  -1  -9  142.99    7.10
  -1   2  -9  136.99    9.00
  -1  -1  -9  142.49    8.60
  -2   1   9  142.39    8.30
   1  -2   9  124.69    8.80
  -2   1   9  151.28    7.90
   1  -2   9  155.18    7.80
   1  -2   9  152.78    7.80
  -2   1   9  151.18    7.50
   1  -2   9  136.49    7.80
   1   1   9  124.19    7.50
   1   1   9  152.48    7.90
  -2   1   9  134.89    9.20
   1  -2   9  126.89    8.80
   1   1   9  157.98    8.60
   1   1   9  157.68   10.00
  -2  -1  -9   72.29    6.30
   3  -2  -9   69.99    6.00
  -1   3  -9   65.49    6.00
   3  -2  -9   55.89    4.70
  -2  -1  -9   64.19    4.20
  -2  -1  -9   63.59    5.50
  -2  -1  -9   70.69    5.20
   3  -2  -9   58.39    6.10
  -1   3  -9   63.09    5.00
  -2  -1  -9   58.99    5.40
   3  -2  -9   57.39    5.40
  -1   3  -9   55.59    4.90
  -1   3  -9   61.39    6.20
  -2  -1  -9   56.79    5.80
   1  -3   9   70.39    6.30
   1  -3   9   69.89    6.60
  -3   2   9   58.39    6.30
  -3   2   9   60.29    5.80
  -3   2   9   69.09    5.20
   2   1   9   66.69    6.40
   1  -3   9   70.89    5.70
  -3   2   9   51.49    5.00
   2   1   9   62.79    5.90
   1  -3   9   67.09    5.10
   2   1   9   61.09    5.20
   2   1   9   62.49    7.00
  -2   0  -9 1098.79   41.80
  -2   0  -9 1131.29   40.10
  -2   0  -9 1137.09   40.30
   0   2  -9 1146.39   40.30
   0   2  -9 1120.99   41.50
   0   2  -9 1060.59   39.60
   2  -2  -9 1017.40   41.60
  -2   0  -9 1094.89   39.70
   2  -2  -9 1084.49   40.20
   0   2  -9 1098.29   41.90
   2  -2  -9 1128.69   40.50
  -2   0  -9 1101.69   40.90
   0  -2   9 1107.19   39.70
   0  -2   9 1067.49   42.00
   2   0   9 1088.89   41.70
  -2   2   9 1104.89   40.50
  -2   2   9 1031.10   40.80
  -2   2   9 1091.99   42.60
   2   0   9  982.40   40.90
   0  -2   9 1176.88   40.30
   2   0   9 1079.29   40.60
   2   0   9 1074.59   42.80
  -2   2   9  979.80   40.40
   0  -2   9 1038.60   41.90
   1   1  -9  140.19    8.40
   1  -2  -9  157.78    9.60
   1   1  -9  152.98    8.60
  -2   1  -9  130.49    7.30
   1   1  -9  135.19    6.70
   1  -2  -9  153.48   13.50
   1  -2  -9  155.98    8.20
  -2   1  -9  161.68    7.60
   1  -2  -9  150.68    7.80
  -2   1  -9  152.78    8.00
   1   1  -9  131.09    8.60
   1  -2  -9  146.79    8.70
  -2   1  -9  150.18    8.90
  -1  -1   9  138.19    8.60
  -1   2   9  136.59    8.00
  -1   2   9  134.29    7.80
   2  -1   9  144.89    8.80
  -1   2   9  133.79    9.40
   2  -1   9  149.88    8.20
   2  -1   9  157.98    9.20
  -1   2   9  132.19    8.20
  -1  -1   9  148.49    7.00
  -1  -1   9  133.39    9.10
   2  -1   9  146.19    6.90
   2  -1   9  134.59    9.20
  -1  -1   9  149.99    6.70
  -2   2  -9 1044.70   42.10
  -2   2  -9 1145.59   39.90
   2   0  -9 1025.50   41.30
   2   0  -9 1114.09   41.90
  -2   2  -9 1095.29   40.80
  -2   2  -9 1113.99   40.90
   2   0  -9 1097.19   39.50
   2   0  -9 1051.19   41.70
   0  -2  -9 1111.29   40.20
   2   0  -9 1119.89   41.90
   0  -2  -9 1100.79   41.60
   0  -2  -9 1144.29   41.50
   0  -2  -9 1099.09   41.00
   0  -2  -9 1093.39   41.90
   2  -2   9 1108.29   40.80
  -2   0   9 1121.49   39.70
   0   2   9 1088.69   39.90
   0   2   9 1067.79   43.00
  -2   0   9 1074.79   41.60
   2  -2   9 1047.40   42.20
   2  -2   9 1053.49   42.40
   2  -2   9 1093.29   41.00
   2  -2   9 1216.08   41.30
   0   2   9 1075.09   41.20
  -2   0   9 1014.70   42.40
  -1  -2  -9   59.59    5.60
  -1  -2  -9   49.30    5.30
   3  -1  -9   51.39    5.40
  -2   3  -9   56.59    6.10
  -2   3  -9   55.49    5.50
   3  -1  -9   65.69    7.00
   3  -1  -9   55.89    4.00
  -2   3  -9   65.09    4.50
   3  -1  -9   58.79    5.90
  -1  -2  -9   61.79    5.70
  -2   3  -9   58.29    7.70
  -1  -2  -9   73.09    5.20
  -1  -2  -9   49.99    6.20
  -2   3  -9   62.19    5.20
   2  -3   9   67.09    5.80
   1   2   9   60.99    5.80
   1   2   9   65.69    5.70
   2  -3   9   59.99    6.50
  -3   1   9   61.49    6.00
  -3   1   9   61.19    4.40
   2  -3   9   61.79    6.40
  -3   1   9   61.29    5.20
   2  -3   9   61.79    6.10
   2  -3   9   65.79    5.80
   1   2   9   64.19    5.50
   2  -3   9   69.09    5.70
   1   2   9   57.49    7.00
  -3   1   9   64.29    6.50
  -2   4  -9 1018.30   35.20
   4  -2  -9  940.31   36.90
   4  -2  -9  904.31   37.30
  -2  -2  -9  974.30   36.80
  -2   4  -9 1025.20   38.60
   4  -2  -9  912.31   37.50
  -2  -2  -9  959.80   35.30
  -2  -2  -9  975.40   37.50
   4  -2  -9  982.40   35.50
  -2  -2  -9  966.60   37.20
  -2   4  -9  977.60   36.30
  -2   4  -9  949.51   37.50
  -2   4  -9  966.70   38.40
  -2  -2  -9  979.70   35.70
   2   2   9  981.50   37.00
  -4   2   9  916.31   38.20
  -4   2   9  985.30   36.90
  -4   2   9  930.91   36.90
   2   2   9  967.00   39.20
   2   2   9 1000.70   37.10
   2  -4   9  958.30   37.60
   2  -4   9  978.00   37.40
   2  -4   9  910.61   38.40
   2   2   9  946.91   37.20
   2  -4   9  972.70   36.10
  -2   5  -9   97.09   10.60
   5  -3  -9   83.19    7.20
  -3  -2  -9   89.89    7.30
  -2   5  -9   99.99    5.60
   5  -3  -9   83.39    8.10
  -2   5  -9   89.99    7.90
  -3  -2  -9   88.89    7.20
  -3  -2  -9   93.99    4.90
   5  -3  -9   89.49    6.00
  -3  -2  -9   92.39    4.50
  -3  -2  -9   84.29    6.90
  -2   5  -9   89.69    8.10
  -2   5  -9   84.49    5.30
  -5   3   9   87.49    7.80
   2  -5   9   79.79    7.40
  -5   3   9  100.29    7.00
   3   2   9   77.69    7.10
   2  -5   9   80.59    7.10
   3   2   9   93.69    7.30
   2  -5   9   95.29    6.90
   3   2   9   81.49    8.90
  -5   3   9   80.39    6.90
   2  -5   9   88.99    8.70
  -1   4  -9  128.29    7.30
   4  -3  -9  129.09    8.60
  -1   4  -9  129.59    7.20
   4  -3  -9  136.29    8.10
  -3  -1  -9  130.69    6.10
  -3  -1  -9  134.09    8.20
  -1   4  -9  132.99    8.80
   4  -3  -9  136.59    7.20
  -3  -1  -9  123.69    8.40
  -1   4  -9  127.19    9.00
  -3  -1  -9  140.89    8.90
  -3  -1  -9  135.29    5.70
  -3  -1  -9  124.19    8.40
  -1   4  -9  139.49    6.80
   1  -4   9  125.29    8.70
   1  -4   9  129.89    8.20
  -4   3   9  129.09    9.10
   3   1   9  111.89   10.60
   3   1   9  121.79    7.80
   3   1   9  136.89    8.70
   3   1   9  116.79    9.40
   1  -4   9  123.69    7.00
  -4   3   9  125.69    8.00
   1  -4   9  123.09    9.60
   3  -3  -9   96.69    7.50
  -3   0  -9  105.89    5.70
  -3   0  -9   99.69    6.70
   0   3  -9   98.29    5.70
   0   3  -9  100.79    7.40
  -3   0  -9  104.49    7.50
   3  -3  -9  112.99    6.60
   3  -3  -9   97.69    6.30
  -3   0  -9  107.49    7.20
   0   3  -9  101.79    6.60
   0   3  -9  110.99    7.70
  -3   0  -9   97.59    5.10
   0  -3   9  101.89    7.60
  -3   3   9  104.39    6.20
   3   0   9   99.29    8.60
   0  -3   9  112.09    7.10
   0  -3   9  109.09    5.80
   3   0   9  105.09    6.60
  -3   3   9  103.49    7.20
   0  -3   9  102.69    8.20
   3   0   9  100.49    7.70
  -3   3   9  103.29    8.20
  -3   3   9   95.79    7.00
   1   2  -9   59.79    5.90
   1   2  -9   61.19    5.80
   2  -3  -9   60.59    5.00
   1   2  -9   61.29    5.80
  -3   1  -9   68.49    4.90
   2  -3  -9   59.99    5.80
   1   2  -9   54.89    3.70
  -3   1  -9   62.69    6.00
  -3   1  -9   68.49    5.20
   2  -3  -9   63.09    5.00
  -3   1  -9   53.89    5.40
  -2   3   9   53.99    5.50
   3  -1   9   58.59    6.70
  -1  -2   9   56.29    6.30
  -2   3   9   60.39    6.70
   3  -1   9   60.29    6.30
  -1  -2   9   63.79    4.10
  -1  -2   9   56.79    4.60
  -1  -2   9   56.69    6.00
   3  -1   9   65.99    6.60
  -2   3   9   62.59    4.60
   3  -1   9   58.39    4.20
  -2   3   9   54.19    6.40
   2   1  -9   58.49    5.60
  -3   2  -9   66.49    4.30
  -3   2  -9   66.09    4.90
   1  -3  -9   59.69    5.50
  -3   2  -9   68.39    6.10
   1  -3  -9   58.99    5.90
   2   1  -9   64.49    5.80
   1  -3  -9   75.19    7.70
  -3   2  -9   55.79    5.20
   2   1  -9   63.29    3.50
   1  -3  -9   61.39    3.80
  -1   3   9   65.19    6.90
  -2  -1   9   62.29    4.00
  -2  -1   9   54.69    6.30
   3  -2   9   66.29    3.70
  -2  -1   9   61.49    3.60
  -1   3   9   72.39    6.00
  -2  -1   9   52.89    5.90
  -1   3   9   60.59    4.10
   3  -2   9   53.69    6.40
   3  -2   9   56.59    6.40
   3  -2   9   62.89    6.60
  -1   3   9   60.29    4.70
   0  -3  -9  107.39    6.00
  -3   3  -9   97.69    6.80
   3   0  -9  103.69    7.30
   3   0  -9  101.09    4.70
   3   0  -9  109.09    7.20
   0  -3  -9   98.09    7.20
   0  -3  -9   99.89    8.10
   0  -3  -9   94.79    6.80
  -3   3  -9   93.29    7.60
  -3   3  -9  101.49    6.80
   3  -3   9  101.59    7.20
   0   3   9   86.09    8.00
   0   3   9  103.59    7.20
   3  -3   9  102.09    8.20
   3  -3   9  111.49    8.10
   3  -3   9   93.49    8.20
  -3   0   9   99.09    7.70
   0   3   9  107.19    6.50
   3  -3   9  107.39    6.50
   0   3   9  104.29    6.40
  -3   0   9   95.79    7.60
   4  -1  -9  126.49    5.80
  -3   4  -9  140.89    8.50
  -3   4  -9  127.19   10.80
  -3   4  -9  120.79    7.80
  -1  -3  -9  129.89    8.10
   4  -1  -9  122.39    8.10
  -3   4  -9  130.09    9.00
  -1  -3  -9  119.49    8.20
  -1  -3  -9  126.59    8.20
  -1  -3  -9  128.79    7.50
   4  -1  -9  123.69    8.30
   1   3   9  128.59    7.70
  -4   1   9  121.79    8.80
   3  -4   9  136.69    8.70
   1   3   9  122.29    8.20
   3  -4   9  110.89    8.50
   1   3   9  122.89    9.60
  -4   1   9  142.99    8.80
   1   3   9  129.69    7.90
   3  -4   9  120.69    9.60
   3  -4   9  128.99    8.10
   1   3   9  118.39    8.60
  -2  -3  -9   87.29    6.90
   5  -2  -9   83.09    5.10
  -2  -3  -9   85.09    7.00
  -3   5  -9  105.19    8.40
   5  -2  -9   86.19    7.20
  -2  -3  -9   97.69    6.50
  -3   5  -9   80.59    7.90
  -2  -3  -9   96.69    7.40
   5  -2  -9   91.79    7.40
  -3   5  -9   81.89   10.10
  -3   5  -9   86.99    7.00
   3  -5   9   95.39    7.40
  -5   2   9   90.59    8.10
   2   3   9  102.69    9.00
   2   3   9   96.79    7.10
   2   3   9   79.19    7.90
  -5   2   9   86.59    7.60
   3  -5   9   81.79    8.20
   2   3   9   89.49    7.50
   3  -5   9   92.49    8.00
  -3   6  -9   92.99    9.10
  -3   6  -9   84.49   10.80
   6  -3  -9  102.89    7.00
  -3  -3  -9   90.09    5.60
   6  -3  -9  101.29    6.10
  -3  -3  -9   94.79    8.10
  -3  -3  -9   81.29    7.30
  -3  -3  -9   93.19    8.00
  -3   6  -9  103.09    9.10
   6  -3  -9   93.09    7.90
   6  -3  -9   96.79    8.10
   3   3   9   90.89    9.40
   3  -6   9   76.29    8.90
   3   3   9  101.29    7.90
   3   3   9  103.29    8.20
  -6   3   9  101.79    7.90
   3  -6   9   92.29    7.50
  -6   3   9   86.69    8.50
   3  -6   9   79.99    8.80
  -3   7  -9   56.59    6.40
   7  -4  -9   68.99    7.70
  -3   7  -9   59.99    5.10
  -4  -3  -9   64.89    8.00
  -3   7  -9   52.39    7.70
   7  -4  -9   67.79    6.00
  -4  -3  -9   62.59    7.30
  -4  -3  -9   61.99    6.90
  -3   7  -9   45.10    6.80
  -7   4   9   74.59    8.80
   4   3   9   60.29    7.00
   4   3   9   45.80    6.90
   3  -7   9   71.99    9.10
  -7   4   9   66.79    7.50
   3  -7   9   77.89    6.60
   3  -7   9   62.99    8.60
   4   3   9   48.60    6.60
   6  -4  -9  830.02   30.90
  -4  -2  -9  742.03   31.20
   6  -4  -9  778.92   30.00
  -2   6  -9  824.92   33.10
  -2   6  -9  781.52   29.20
  -4  -2  -9  791.42   32.10
  -2   6  -9  769.32   29.50
  -2   6  -9  755.22   32.70
  -2   6  -9  766.22   33.00
  -4  -2  -9  778.22   31.90
   6  -4  -9  780.32   32.20
  -6   4   9  799.82   30.50
   4   2   9  822.62   32.20
   2  -6   9  800.12   32.50
   2  -6   9  770.02   30.90
  -6   4   9  811.72   32.90
   2  -6   9  776.62   33.30
   4   2   9  734.93   33.80
   4   2   9  785.72   31.30
  -6   4   9  785.12   31.70
  -1   5  -9   73.59    5.70
  -1   5  -9   68.99    7.10
  -1   5  -9   75.49    5.90
   5  -4  -9   62.29    6.40
  -1   5  -9   73.49    7.60
   5  -4  -9   66.39    6.70
   5  -4  -9   66.49    5.50
  -4  -1  -9   65.59    6.80
  -4  -1  -9   73.29    6.70
  -4  -1  -9   66.29    6.60
  -5   4   9   67.19    5.50
   4   1   9   74.79    6.40
   1  -5   9   75.29    5.70
  -5   4   9   69.29    7.30
   1  -5   9   68.49    7.10
   4   1   9   63.19    7.00
   1  -5   9   73.69    8.10
  -5   4   9   58.59    6.20
   1  -5   9   67.99    6.40
   4   1   9   65.09    8.00
   0   4  -9  895.01   33.10
   4  -4  -9  834.02   33.30
   4  -4  -9  906.41   32.50
   0   4  -9  872.31   35.20
  -4   0  -9  899.31   34.90
  -4   0  -9  892.81   33.10
   0   4  -9  939.41   35.30
   4  -4  -9  859.01   35.00
   0   4  -9  904.21   33.10
  -4   0  -9  853.11   34.60
  -4   0  -9  895.81   34.60
   4   0   9  829.62   36.00
   4   0   9  860.41   35.10
   4   0   9  914.41   33.30
   0  -4   9  844.62   34.20
   0  -4   9  896.11   35.90
   0  -4   9  884.51   34.60
  -4   4   9  823.82   34.40
  -4   4   9  829.62   35.40
   0  -4   9  913.51   32.20
  -4   4   9  863.91   32.40
   3  -4  -9  128.99    8.60
  -4   1  -9  118.69    8.10
   1   3  -9  128.09    8.80
  -4   1  -9  120.39    8.40
   3  -4  -9  117.49    7.50
   1   3  -9  122.89    8.50
   3  -4  -9  119.19    7.30
  -4   1  -9  133.29    6.90
   1   3  -9  130.09    8.20
  -1  -3   9  132.09    7.90
  -1  -3   9  134.79    8.60
  -1  -3   9  127.09    5.90
   4  -1   9  147.39    9.10
  -1  -3   9  125.29    9.20
  -3   4   9  132.79    8.50
   4  -1   9  120.09    9.40
   4  -1   9  129.79    6.90
  -3   4   9  123.39    6.10
  -3   4   9  123.69    9.40
   2   2  -9  991.90   37.00
   2   2  -9  944.31   37.30
  -4   2  -9  942.31   36.60
   2  -4  -9  967.90   36.30
  -4   2  -9  975.10   37.50
  -4   2  -9  931.31   34.70
   2  -4  -9  950.20   37.30
  -2  -2   9  948.71   37.60
  -2  -2   9  962.10   37.50
  -2   4   9  911.71   36.80
  -2   4   9  951.10   34.40
  -2  -2   9  882.81   35.20
  -2   4   9  912.01   37.90
   4  -2   9  940.51   34.00
   4  -2   9  965.60   37.70
   4  -2   9  949.90   38.00
   3   1  -9  124.49    8.30
   1  -4  -9  127.29    6.70
   1  -4  -9  131.09    8.60
   1  -4  -9  117.59    7.80
  -4   3  -9  125.79    7.30
  -4   3  -9  130.29    8.80
  -4   3  -9  133.79    8.40
   3   1  -9  122.29    8.50
  -1   4   9  126.89    6.60
  -3  -1   9  124.39    9.00
  -3  -1   9  113.69    6.90
   4  -3   9  127.39    9.10
  -1   4   9  137.19    8.70
  -1   4   9  134.89    7.20
  -3  -1   9  131.19    8.80
   4  -3   9  136.89    9.60
  -1   4   9  127.29    9.70
  -4   4  -9  856.41   33.70
   0  -4  -9  884.01   34.50
  -4   4  -9  853.31   35.40
  -4   4  -9  918.71   34.30
   0  -4  -9  850.11   33.10
   4   0  -9  878.31   34.40
   4   0  -9  851.71   34.70
   0  -4  -9  854.11   34.70
   0  -4  -9  871.01   34.40
   0   4   9  865.11   34.70
   4  -4   9  914.61   35.20
   0   4   9  886.91   32.60
   4  -4   9  891.11   33.10
  -4   0   9  888.51   35.00
  -4   0   9  883.91   35.50
   0   4   9  832.12   32.70
   0   4   9  888.41   33.80
   4  -4   9  909.71   36.00
   4  -4   9  869.81   35.00
   0   4   9  878.21   36.20
  -4   5  -9   61.19    7.10
  -1  -4  -9   64.39    6.20
   5  -1  -9   71.19    6.80
  -1  -4  -9   75.39    6.70
  -1  -4  -9   71.29    7.40
  -4   5  -9   61.99    6.80
  -4   5  -9   62.39    7.70
  -4   5  -9   66.49    7.60
  -1  -4  -9   64.19    6.40
   5  -1  -9   62.39    6.60
   1   4   9   65.99    8.20
   1   4   9   69.79    8.60
   1   4   9   63.79    7.10
   4  -5   9   68.59    7.20
  -5   1   9   59.39    7.10
   4  -5   9   79.29    8.50
   1   4   9   57.39    6.00
  -5   1   9   68.69    7.50
   4  -5   9   64.79    6.70
   1   4   9   74.09    6.60
   6  -2  -9  791.12   28.50
   6  -2  -9  722.53   31.40
  -2  -4  -9  755.02   31.60
  -4   6  -9  765.32   33.00
   6  -2  -9  742.83   31.80
  -2  -4  -9  783.32   31.20
  -4   6  -9  802.62   32.30
  -4   6  -9  750.82   31.90
   6  -2  -9  749.42   28.40
  -2  -4  -9  794.42   31.40
  -2  -4  -9  775.62   30.00
   4  -6   9  800.82   32.80
   2   4   9  812.72   32.10
   2   4   9  793.22   30.80
  -6   2   9  803.82   32.90
  -6   2   9  839.42   32.00
   4  -6   9  793.52   31.00
   4  -6   9  774.12   33.10
   2   4   9  767.62   30.80
   2   4   9  772.42   33.70
   7  -3  -9   56.29    7.10
   7  -3  -9   63.59    7.40
  -3  -4  -9   64.69    8.00
   7  -3  -9   63.89    5.20
  -3  -4  -9   55.19    6.90
  -3  -4  -9   64.59    6.90
  -4   7  -9   71.89    8.60
  -4   7  -9   53.09    7.40
  -3  -4  -9   59.29    6.20
   3   4   9   64.39    7.60
   4  -7   9   68.09    6.40
   4  -7   9   68.79    8.50
   3   4   9   48.00    7.60
   4  -7   9   54.49    8.00
  -7   3   9   81.19    8.70
  -7   3   9   60.69    7.10
   3   4   9   69.19    7.70
   8  -4  -9  592.24   26.80
  -4  -4  -9  624.84   27.30
  -4  -4  -9  634.14   26.90
  -4  -4  -9  609.34   25.00
   8  -4  -9  584.64   26.60
   8  -4  -9  599.54   23.80
  -4   8  -9  624.54   28.60
  -4   8  -9  602.34   28.50
   4  -8   9  607.54   28.60
   4   4   9  596.04   29.30
  -8   4   9  612.24   26.20
   4  -8   9  586.34   28.20
   4   4   9  618.04   26.60
   4   4   9  611.24   27.00
  -8   4   9  613.74   27.80
  -3   8  -9   84.09   10.60
  -5  -3  -9   60.29    7.50
  -5  -3  -9   70.79    7.40
   8  -5  -9   77.59    8.70
   8  -5  -9   78.79    7.40
  -5  -3  -9   77.19    9.70
  -3   8  -9   89.89   10.70
  -3   8  -9   63.79    6.80
   5   3   9   64.29    8.00
   5   3   9   54.69    8.30
  -8   5   9   88.69    9.90
   5   3   9   90.89    9.40
   3  -8   9   87.99   10.10
   3  -8   9   68.49    6.80
   3  -8   9   74.99    9.00
  -5  -2  -9   81.39    7.50
   7  -5  -9   87.39    6.90
  -5  -2  -9   57.59    7.40
  -2   7  -9   76.79    9.10
  -2   7  -9   71.99    7.30
   7  -5  -9   62.69    7.80
  -2   7  -9   66.89    9.10
  -5  -2  -9   90.79    8.40
  -7   5   9   81.99    8.00
  -7   5   9   82.79    9.10
   5   2   9   74.49    9.00
   2  -7   9   65.89    8.20
   5   2   9   57.39    8.40
   5   2   9   90.09    8.30
   2  -7   9   79.99    7.10
   2  -7   9   84.79    9.70
  -1   6  -9  104.69    7.50
  -5  -1  -9  101.59    8.80
   6  -5  -9   88.69    7.00
  -5  -1  -9   90.59    7.80
   6  -5  -9   82.79    7.10
  -1   6  -9   90.29    7.90
  -1   6  -9   99.49    8.90
  -1   6  -9  101.29    9.70
  -5  -1  -9   89.29    8.20
   6  -5  -9   90.79    8.20
   1  -6   9   96.99    7.60
   5   1   9  104.89    9.10
  -6   5   9   96.09    6.50
   1  -6   9   90.39    9.30
   1  -6   9  103.09   10.10
  -6   5   9   92.29    7.90
  -6   5   9  103.19    9.00
   5   1   9  102.99    9.80
   1  -6   9   93.49    7.10
   5   1   9  100.19    7.80
  -5   0  -9   48.00    5.90
   5  -5  -9   56.89    5.70
   5  -5  -9   51.69    5.50
   0   5  -9   42.40    6.10
  -5   0  -9   49.90    6.10
   5  -5  -9   41.90    6.00
   0   5  -9   54.59    6.70
  -5   0  -9   63.49    6.60
   0   5  -9   50.69    5.80
  -5   0  -9   43.80    5.30
   5   0   9   54.19    5.90
  -5   5   9   64.09    6.60
   0  -5   9   54.09    6.10
   0  -5   9   58.89    7.60
   5   0   9   46.10    7.10
  -5   5   9   59.09    6.90
   5   0   9   52.39    6.60
   0  -5   9   53.19    7.00
   0  -5   9   56.69    4.60
   4  -5  -9   63.39    6.00
  -5   1  -9   78.99    6.90
  -5   1  -9   77.19    7.10
  -5   1  -9   76.99    5.50
   1   4  -9   61.99    6.00
   4  -5  -9   63.69    6.70
   1   4  -9   63.79    7.50
   1   4  -9   65.99    6.70
   5  -1   9   68.19    7.90
  -1  -4   9   63.79    7.70
  -4   5   9   63.89    6.70
  -1  -4   9   68.39    7.00
   5  -1   9   64.29    7.50
  -4   5   9   77.09    7.40
   5  -1   9   74.29    6.40
  -1  -4   9   62.99    6.70
   2   3  -9   89.69    7.30
   3  -5  -9   82.39    6.80
   2   3  -9   98.19    8.10
  -5   2  -9   91.69    7.40
   2   3  -9   87.59    6.80
   3  -5  -9   84.59    7.50
  -5   2  -9   89.89    7.70
   2   3  -9   96.29    7.50
  -5   2  -9  104.19    4.90
   5  -2   9   89.39    4.90
   5  -2   9   91.79    8.60
   5  -2   9   84.99    8.20
  -2  -3   9  100.99    7.10
  -3   5   9   82.79    8.00
  -2  -3   9   80.09    8.30
  -3   5   9   89.39    7.70
  -2  -3   9   90.29    7.70
  -5   3  -9   90.99    7.50
   3   2  -9   85.69    7.60
  -5   3  -9   95.09    8.00
   2  -5  -9   95.19    7.00
   2  -5  -9   89.09    7.40
   2  -5  -9   78.99    5.40
   3   2  -9   93.89    6.70
   3   2  -9   95.79    7.20
  -3  -2   9   88.49    8.40
   5  -3   9   89.19    8.70
  -3  -2   9   87.09    7.80
  -2   5   9   87.29    7.70
   5  -3   9   90.39    8.30
  -2   5   9   91.99    6.10
  -2   5   9   97.39    8.50
   4   1  -9   62.29    6.60
  -5   4  -9   65.79    7.30
   4   1  -9   70.99    5.50
   4   1  -9   64.59    6.40
   1  -5  -9   53.99    6.30
   1  -5  -9   56.99    6.50
   1  -5  -9   63.19    5.80
  -5   4  -9   53.19    6.50
   5  -4   9   77.49    5.70
   5  -4   9   65.59    8.30
  -4  -1   9   70.39    7.70
  -1   5   9   61.49    7.90
  -4  -1   9   69.69    7.10
  -1   5   9   71.19    7.10
  -1   5   9   69.39    7.10
   5  -4   9   74.09    7.70
  -4  -1   9   66.79    5.20
   0  -5  -9   50.09    5.90
   5   0  -9   58.69    6.20
  -5   5  -9   57.09    6.20
  -5   5  -9   57.49    7.50
   5   0  -9   39.10    5.40
  -5   5  -9   49.90    5.80
   0  -5  -9   53.19    6.40
   5   0  -9   61.29    4.80
   0  -5  -9   45.10    6.20
   5  -5   9   58.59    5.90
   0   5   9   59.19    7.00
  -5   0   9   43.80    6.30
  -5   0   9   61.59    7.40
   5  -5   9   49.70    6.30
   5  -5   9   50.39    6.70
   0   5   9   55.69    6.70
   0   5   9   63.09    5.10
   0   5   9   58.79    4.80
   0   5   9   65.69    8.20
   5  -5   9   58.79    7.60
  -5   6  -9   90.59    8.60
   6  -1  -9   88.79    7.80
  -1  -5  -9   99.49    8.20
  -1  -5  -9   94.99   11.40
  -5   6  -9   90.29    8.70
  -1  -5  -9   86.19    8.00
  -1  -5  -9   98.59    8.20
  -5   6  -9   80.79    9.00
   6  -1  -9   87.69    7.60
  -5   6  -9   94.09   10.70
   5  -6   9   84.89    9.30
   1   5   9   96.89    7.80
   1   5   9  101.79   10.10
   5  -6   9   85.59    8.10
  -6   1   9  108.39    9.30
   1   5   9   94.59    8.70
   1   5   9  100.59    7.20
   5  -6   9   96.59   10.20
  -6   1   9   96.59    9.20
   7  -2  -9   80.39    8.40
  -2  -5  -9   69.99    8.10
  -2  -5  -9   90.69    7.80
   7  -2  -9   57.49    7.50
  -5   7  -9   71.09    9.60
  -5   7  -9   89.99    9.90
  -2  -5  -9   81.49    8.40
  -7   2   9   92.79    9.60
   2   5   9   82.89    8.90
   2   5   9   78.49    7.80
   5  -7   9   95.49   10.60
   2   5   9   77.29   10.10
   5  -7   9   74.39    7.30
   5  -7   9   77.79   10.10
  -7   2   9   66.39    8.80
  -5   8  -9   87.89   11.00
   8  -3  -9   72.59    8.50
   8  -3  -9   67.49    8.50
  -5   8  -9   84.39    9.70
   8  -3  -9   83.39    5.80
  -3  -5  -9   70.79    7.80
  -3  -5  -9   66.59    7.70
  -3  -5  -9   79.19    9.50
   5  -8   9   66.19    8.30
   5  -8   9   77.99    9.10
  -8   3   9   76.29    9.40
   3   5   9   65.79    9.40
   3   5   9   70.79    7.50
   5  -8   9   66.39    8.70
   3   5   9   95.99    9.80
  -8   3   9   76.99    8.60
  -1   7  -9   63.69    8.10
  -6  -1  -9   83.69    8.40
  -6  -1  -9   58.19    7.90
   7  -6  -9   53.89    6.00
  -1   7  -9   69.29    9.20
  -1   7  -9   62.99    6.50
   7  -6  -9   63.39    8.10
  -6  -1  -9   60.79    7.30
   1  -7   9   63.39    6.40
   1  -7   9   53.59    7.50
   6   1   9   66.69    7.00
  -7   6   9   64.69    7.40
   6   1   9   48.20    7.30
  -7   6   9   53.99    7.60
   1  -7   9   59.29    7.00
   6   1   9   46.50    7.30
   1  -7   9   73.89    8.80
   0   6  -9  640.44   29.70
   6  -6  -9  626.34   28.50
   0   6  -9  693.13   28.60
  -6   0  -9  691.53   29.30
   6  -6  -9  658.33   27.00
  -6   0  -9  665.83   27.50
  -6   0  -9  659.63   28.40
   0   6  -9  691.83   27.10
  -6   6   9  665.13   28.60
   0  -6   9  654.63   25.20
   0  -6   9  681.83   29.90
   6   0   9  705.23   29.50
   0  -6   9  677.73   27.30
   0  -6   9  646.14   25.10
   0  -6   9  642.44   28.60
   6   0   9  656.03   30.10
  -6   6   9  667.13   28.40
   6   0   9  682.23   26.70
  -6   1  -9   91.39    8.30
   1   5  -9   91.79    9.40
   1   5  -9   92.59    7.60
   5  -6  -9   99.49    7.70
  -6   1  -9  103.49    7.10
  -6   1  -9   90.79    8.30
   1   5  -9   82.29    8.00
   5  -6  -9   93.89    8.40
  -5   6   9   98.59    8.40
  -1  -5   9   91.49   10.00
   6  -1   9   89.59    9.50
  -5   6   9  103.09    8.90
   6  -1   9  101.09    7.00
  -1  -5   9   97.69    8.60
  -1  -5   9  111.59    8.20
   6  -1   9   85.89    9.10
   4  -6  -9  755.32   31.90
  -6   2  -9  779.02   31.70
   2   4  -9  758.62   32.70
   2   4  -9  804.52   30.70
  -6   2  -9  762.32   31.80
   4  -6  -9  790.62   30.90
   2   4  -9  782.02   31.20
   6  -2   9  783.62   33.20
  -2  -4   9  789.32   33.00
  -2  -4   9  749.62   31.10
  -4   6   9  739.13   32.00
   6  -2   9  799.92   28.70
  -4   6   9  737.93   31.90
  -2  -4   9  794.32   31.80
   6  -2   9  760.72   32.60
  -6   3  -9   95.69    8.30
  -6   3  -9   85.49    8.40
   3  -6  -9   95.59    6.00
   3   3  -9   89.89    7.30
   3   3  -9   89.19    8.40
   3  -6  -9   89.59    7.80
   3   3  -9   88.99    9.00
   3  -6  -9   91.09    7.50
   3   3  -9   84.99    7.60
  -3   6   9   98.69    8.60
  -3  -3   9   90.49    9.30
   6  -3   9   93.69    9.20
  -3  -3   9   98.69    8.40
  -3   6   9   88.29    9.00
  -3  -3   9   93.49    7.80
   6  -3   9   95.09    9.10
   4   2  -9  749.33   30.10
   2  -6  -9  765.32   31.80
  -6   4  -9  770.12   32.60
   2  -6  -9  775.72   31.40
  -6   4  -9  793.42   29.20
   4   2  -9  793.42   31.10
  -6   4  -9  793.72   32.00
   2  -6  -9  800.22   29.80
   4   2  -9  802.52   31.10
  -2   6   9  701.73   30.20
   6  -4   9  798.22   33.20
  -4  -2   9  784.42   32.40
  -2   6   9  768.52   32.30
  -4  -2   9  808.22   30.40
  -2   6   9  749.92   32.50
  -4  -2   9  771.72   32.60
   6  -4   9  775.62   32.60
   1  -6  -9   93.89    7.80
   5   1  -9   83.19    7.40
   5   1  -9   87.19    7.60
  -6   5  -9   94.69    8.50
   5   1  -9   72.49    7.70
  -6   5  -9  100.79    7.70
  -6   5  -9  107.69    9.50
   1  -6  -9   88.49    8.00
   1  -6  -9   92.89    7.20
   6  -5   9   83.69    9.30
  -5  -1   9   85.59    9.60
  -1   6   9  107.39   11.50
  -1   6   9   76.89    8.30
   6  -5   9   88.59    8.90
   6  -5   9   90.89    7.40
   6  -5   9   92.29   10.20
  -5  -1   9  106.39    7.70
  -1   6   9   77.19    9.40
  -5  -1   9   97.19    8.70
   6   0  -9  656.43   27.10
  -6   6  -9  643.94   29.50
   0  -6  -9  656.33   27.80
   0  -6  -9  664.33   28.10
   0  -6  -9  676.53   27.20
  -6   6  -9  676.33   27.60
  -6   6  -9  676.33   28.20
   6   0  -9  625.24   28.20
  -6   0   9  641.84   25.60
   6  -6   9  695.43   27.90
  -6   0   9  642.04   28.90
  -6   0   9  669.23   28.90
   6  -6   9  683.73   30.00
   0   6   9  665.13   29.80
   0   6   9  648.14   28.60
   6  -6   9  649.43   29.20
  -6   7  -9   61.29    9.20
  -1  -6  -9   60.99    7.10
  -6   7  -9   77.29    8.70
  -1  -6  -9   58.29    7.30
   7  -1  -9   40.40    6.50
   7  -1  -9   54.49    7.30
  -1  -6  -9   61.39    8.20
  -7   1   9   69.89    8.90
   1   6   9   73.09    9.30
  -7   1   9   54.49    7.50
   6  -7   9   75.09    7.80
   6  -7   9   73.49    9.60
   1   6   9   57.89    8.10
   6  -7   9   72.09    9.30
  -7   0  -9   39.20    6.30
   0   7  -9   60.69    7.80
  -7   0  -9   47.80    6.20
   0   7  -9   54.19    8.90
  -7   0  -9   48.00    7.60
   0   7  -9   49.90    6.80
   7  -7  -9   41.10    5.80
   7  -7  -9   47.40    7.20
   7   0   9   32.20    7.10
   0  -7   9   39.70    6.90
  -7   7   9   43.20    6.50
   0  -7   9   56.19    8.50
   7   0   9   29.50    7.10
   7   0   9   49.20    6.30
  -7   7   9   54.09    7.50
   0  -7   9   49.40    6.30
   6  -7  -9   56.49    6.50
  -7   1  -9   61.79    7.70
   1   6  -9   63.39    8.20
   6  -7  -9   53.19    7.30
   1   6  -9   64.79    7.10
  -7   1  -9   56.99    6.90
   1   6  -9   49.00    7.50
   7  -1   9   67.99    9.00
  -6   7   9   55.49    6.70
  -1  -6   9   67.39    9.10
  -6   7   9   54.99    7.20
   7  -1   9   62.59    7.20
  -1  -6   9   65.19    8.20
  -1  -6   9   58.09    7.10
   7  -1   9   62.19    9.00
   2   5  -9   57.59    8.10
   2   5  -9   74.99    8.00
  -7   2  -9   79.39    8.40
  -7   2  -9   74.49    8.30
   5  -7  -9   75.79    7.50
   2   5  -9   70.39    8.10
   5  -7  -9   65.79    8.00
   5  -7  -9   77.09    5.60
  -2  -5   9   80.99    9.00
   7  -2   9   65.89    8.30
  -5   7   9   73.19    8.40
  -2  -5   9   83.09   10.50
   7  -2   9   67.39    8.30
   7  -2   9   77.39    6.20
  -5   7   9   66.79    7.60
  -2  -5   9   76.39    8.20
   3   4  -9   78.79    7.60
  -7   3  -9   59.99    7.30
   3   4  -9   49.00    6.90
   4  -7  -9   44.10    6.20
   4  -7  -9   52.69    6.40
   3   4  -9   70.99    7.10
  -7   3  -9   56.39    7.00
  -4   7   9   78.09    8.30
   7  -3   9   61.89    8.10
  -3  -4   9   53.79    7.60
  -4   7   9   62.79    7.80
  -3  -4   9   62.29    6.90
  -3  -4   9   53.59    6.70
   7  -3   9   67.49    8.60
   3  -7  -9   53.69    6.80
   3  -7  -9   65.39    7.20
   4   3  -9   71.39    7.20
   4   3  -9   70.39    8.50
   4   3  -9   64.49    7.40
  -7   4  -9   56.19    7.30
  -7   4  -9   52.89    6.90
   3  -7  -9   63.49    6.40
  -3   7   9   52.29    7.70
   7  -4   9   68.39    9.00
  -4  -3   9   62.29    7.90
   7  -4   9   51.19    7.30
  -3   7   9   87.39    8.80
  -4  -3   9   58.99    7.80
  -4  -3   9   65.89    8.10
   2  -7  -9   77.59    7.90
   5   2  -9   85.99    7.70
   2  -7  -9   68.09    7.90
  -7   5  -9   74.49    9.80
   5   2  -9   89.39    7.80
   2  -7  -9   74.09    7.30
   5   2  -9   63.49    8.10
  -7   5  -9   83.89    9.00
  -7   5  -9   78.89    6.80
  -5  -2   9   67.99    8.40
  -5  -2   9   88.59    7.90
  -2   7   9   78.49    8.90
   7  -5   9   77.59    9.40
   7  -5   9   79.49    9.80
  -2   7   9   71.69    8.70
  -2   7   9   70.79    8.70
  -5  -2   9   79.39    8.90
  -7   6  -9   81.59    8.40
  -7   6  -9   75.19    9.10
   1  -7  -9   55.99    7.10
   6   1  -9   52.89    7.20
   6   1  -9   56.79    6.70
   1  -7  -9   57.49    6.70
   6   1  -9   69.09    8.50
   1  -7  -9   62.29    7.50
  -7   6  -9   66.89    9.00
  -6  -1   9   68.79    8.80
   7  -6   9   47.80    7.80
  -1   7   9   50.09    7.90
   7  -6   9   53.69    7.60
  -6  -1   9   68.99    7.60
  -6  -1   9   75.29    9.30
  -1   7   9   55.49    7.10
  -1   7   9   58.69    7.40
   7  -6   9   57.59    7.50
   7   0  -9   32.80    6.10
   0  -7  -9   39.70    6.50
   7   0  -9   49.99    6.10
   0  -7  -9   43.60    6.50
   0  -7  -9   49.40    7.10
  -7   7  -9   49.99    7.10
  -7   7  -9   41.40    7.60
   0   7   9   48.60    8.20
   0   7   9   47.70    7.50
  -7   0   9   52.39    6.00
   7  -7   9   48.90    6.70
  -7   0   9   50.89    8.30
   7  -7   9   48.00    7.80
   7  -7   9   34.90    7.90
   0   7   9   53.99    7.20
  -7   0   9   48.70    8.20
   3   5  -9   66.79    8.80
   5  -8  -9   90.59    8.80
  -8   3  -9   70.69    8.10
   3   5  -9   63.89    8.30
  -8   3  -9   83.69   10.10
   5  -8  -9   80.69    7.30
   3   5  -9   87.39    9.30
   5  -8  -9   85.19    9.10
  -5   8   9   77.89    8.70
   8  -3   9   51.19    8.50
  -3  -5   9   94.99   11.90
  -3  -5   9   76.19    8.50
  -5   8   9   66.99    8.20
   8  -3   9   71.29    9.40
  -3  -5   9   85.89    9.60
   4  -8  -9  535.55   24.00
   4   4  -9  624.14   25.10
   4  -8  -9  585.14   26.60
   4   4  -9  580.44   27.50
  -8   4  -9  607.94   27.10
   4   4  -9  605.64   26.00
  -8   4  -9  598.64   27.30
   4  -8  -9  593.74   25.90
  -4   8   9  560.34   26.40
  -4  -4   9  603.64   26.30
  -4  -4   9  643.34   28.60
  -4   8   9  587.54   27.10
   8  -4   9  629.84   28.70
   8  -4   9  577.24   27.60
  -4  -4   9  622.04   27.10
  -8   5  -9   83.69   10.60
   3  -8  -9   76.49    8.40
   3  -8  -9   81.19    8.80
   5   3  -9   74.49    9.40
  -8   5  -9   63.39    8.10
   3  -8  -9   77.39    8.60
   5   3  -9   85.39    8.90
   5   3  -9   70.29    7.50
  -5  -3   9   68.19    7.90
   8  -5   9   79.69   10.50
   8  -5   9   77.19   10.20
  -5  -3   9   69.99    9.00
  -3   8   9   57.29    7.80
  -3   8   9   76.69    9.30
  -3   8   9   80.79    9.30
  -5  -3   9   70.59    9.20
   0   0 -10 1625.24   57.59
   0   0 -10 1522.15   58.49
   0   0 -10 1562.04   56.79
   0   0 -10 1669.43   59.59
   0   0 -10 1513.35   57.19
   0   0  10 1555.94   59.49
   0   0  10 1574.64   56.89
   0   0  10 1540.25   58.19
   0   0  10 1497.25   55.79
   0   0  10 1544.05   57.09
  -1   0 -10  117.29    8.20
   1  -1 -10  128.89    8.90
   0   1 -10  116.39    8.10
   1  -1 -10  116.29    6.80
   0   1 -10  125.99    7.80
  -1   0 -10  122.49    7.30
   0   1 -10  135.09    7.00
  -1   0 -10  132.79    7.20
   1  -1 -10  119.49    8.20
  -1   0 -10  122.89    8.10
   1  -1 -10  118.29    7.50
  -1   0 -10  113.29    8.10
   0   1 -10  119.79    8.40
   1   0  10  143.89    7.20
   0  -1  10  111.89    6.30
   0  -1  10  123.29    9.20
   0  -1  10  126.19    6.70
   1   0  10  126.29    8.60
   0  -1  10  125.99    6.70
  -1   1  10  116.69    7.20
   0  -1  10  122.99    7.30
  -1   1  10  125.89    7.90
  -1   1  10  114.09    7.70
   1   0  10  121.69    6.90
   1   0  10  109.69    9.00
  -1   1  10  113.99    9.10
   0  -1  10  119.59    8.50
   1   0 -10  113.29    6.50
   0  -1 -10  116.69    8.10
   1   0 -10  120.99    8.20
   1   0 -10  111.89    8.70
   1   0 -10  125.39    7.60
   0  -1 -10  123.79    9.10
  -1   1 -10  106.39    8.40
  -1   1 -10  120.69    7.60
   0  -1 -10  125.79    8.70
   0  -1 -10  123.79    7.20
  -1   1 -10  108.39    7.10
   0  -1 -10  132.69    7.20
   0  -1 -10  120.39    8.70
  -1   1 -10  119.59    7.20
   1  -1  10  136.59    7.10
  -1   0  10  100.29    8.10
  -1   0  10  105.09    8.70
   1  -1  10  127.39    8.10
   0   1  10  113.49    7.60
   0   1  10  121.89    7.30
   1  -1  10  131.89    8.60
  -1   0  10  123.89    7.00
   1  -1  10  107.99    8.50
   1  -1  10  114.89    6.80
   0   1  10  120.99    9.20
  -1   0  10  112.59    6.80
   1  -1  10  114.69    6.40
   2  -1 -10  124.49    6.80
  -1  -1 -10  124.09    7.10
   2  -1 -10  118.99    8.10
  -1  -1 -10  146.49    9.40
  -1  -1 -10  104.89    7.40
  -1  -1 -10  128.69    8.60
  -1   2 -10  130.99    7.60
   2  -1 -10  122.39    7.90
  -1   2 -10  113.29    8.80
  -1   2 -10  124.19    7.10
   2  -1 -10   94.79    8.80
  -1  -1 -10  138.69    8.60
  -1   2 -10  121.69    8.00
  -2   1  10  127.29    8.30
  -2   1  10  119.49    7.40
   1  -2  10   96.19    8.40
   1  -2  10  136.39    8.00
  -2   1  10  140.39    7.40
   1   1  10  127.19    9.40
   1  -2  10  130.49    7.70
   1   1  10  128.99    8.40
   1   1  10  130.29    7.40
  -2   1  10  117.89    9.10
   1  -2  10  105.39    8.90
   1  -2  10  113.59    8.90
   1   1  10  127.99    7.60
   3  -2 -10   46.70    5.70
  -1   3 -10   53.19    5.70
  -1   3 -10   49.50    4.70
  -2  -1 -10   57.39    6.10
  -2  -1 -10   52.39    4.30
  -1   3 -10   37.10    5.30
  -2  -1 -10   46.00    5.90
   3  -2 -10   47.40    4.50
  -2  -1 -10   47.90    5.60
   3  -2 -10   50.49    5.60
   3  -2 -10   51.89    5.70
  -1   3 -10   52.69    6.20
  -2  -1 -10   49.40    5.50
   1  -3  10   51.79    6.40
  -3   2  10   43.50    6.50
  -3   2  10   52.79    5.50
   1  -3  10   63.29    5.80
   1  -3  10   51.99    5.40
   2   1  10   48.10    5.10
   2   1  10   49.60    6.20
   2   1  10   43.40    6.20
  -3   2  10   53.89    5.90
  -3   2  10   49.99    5.20
   1  -3  10   52.59    6.70
   2   1  10   62.39    6.70
  -2   0 -10  926.01   34.10
  -2   0 -10  891.91   34.70
   2  -2 -10  920.51   34.00
  -2   0 -10  893.81   35.80
  -2   0 -10  881.11   33.50
   0   2 -10  934.41   35.30
   2  -2 -10  925.81   34.90
   0   2 -10  900.31   35.90
  -2   0 -10  947.01   34.30
   2  -2 -10  870.91   34.40
   0   2 -10  905.61   34.20
   2  -2 -10  854.41   35.60
   2   0  10  842.72   35.30
   0  -2  10  885.51   36.00
  -2   2  10  869.01   34.40
   2   0  10  961.90   34.60
   0  -2  10  867.41   33.70
  -2   2  10  898.81   34.80
  -2   2  10  907.91   36.70
   2   0  10  910.91   33.90
   2   0  10  885.11   37.00
   0  -2  10  930.01   33.80
  -2   2  10  876.11   34.30
   0  -2  10  887.31   36.20
   0  -2  10  906.01   33.50
   1   1 -10  136.69    9.00
   1   1 -10  124.69    6.40
   1  -2 -10  129.69    7.40
   1  -2 -10  120.09    8.40
   1  -2 -10  135.19    8.30
   1   1 -10  113.59    8.30
   1  -2 -10  132.09    7.60
  -2   1 -10  130.89    7.60
  -2   1 -10  120.19    7.40
   1   1 -10  128.59    8.20
  -2   1 -10  129.49    7.60
  -2   1 -10  119.69    8.50
   2  -1  10  127.39    9.40
  -1  -1  10  119.89    8.50
  -1  -1  10  129.29    9.30
  -1   2  10  113.29    7.70
   2  -1  10  116.09    7.80
  -1   2  10  119.99    7.70
   2  -1  10  126.69    9.00
  -1   2  10  119.09    9.20
   2  -1  10  115.19    6.50
  -1  -1  10  115.09    6.80
  -1  -1  10  113.59    5.90
   2   0 -10  894.11   33.00
  -2   2 -10  952.80   33.50
  -2   2 -10  930.61   34.50
  -2   2 -10  864.81   35.90
  -2   2 -10  884.91   34.40
   0  -2 -10  905.31   35.20
   0  -2 -10  892.01   34.60
   0  -2 -10  903.81   34.10
   2   0 -10  894.01   35.50
   2   0 -10  846.82   34.90
   0  -2 -10  904.41   35.60
  -2   0  10  924.61   35.50
   0   2  10  915.21   34.60
  -2   0  10  906.61   33.20
   2  -2  10  892.91   36.30
   2  -2  10  896.41   34.50
   2  -2  10  905.51   34.60
   0   2  10  900.71   33.20
   0   2  10  906.21   37.00
   2  -2  10  888.31   36.10
  -2   0  10  869.91   36.40
   0   2  10  893.31   34.70
  -1  -2 -10   60.39    5.50
  -1  -2 -10   59.69    6.60
  -1  -2 -10   57.59    4.90
  -1  -2 -10   58.89    7.70
  -2   3 -10   47.00    5.30
   3  -1 -10   43.50    4.00
   3  -1 -10   47.60    5.80
  -2   3 -10   46.00    4.20
  -2   3 -10   47.80    6.20
   3  -1 -10   54.39    5.70
  -2   3 -10   50.49    5.90
  -1  -2 -10   53.69    5.80
   2  -3  10   49.10    5.70
  -3   1  10   49.00    4.70
   1   2  10   51.79    5.70
   2  -3  10   60.39    6.20
   1   2  10   55.29    5.90
   1   2  10   42.40    5.10
   2  -3  10   52.69    6.50
  -3   1  10   47.40    5.60
   1   2  10   45.00    6.90
   2  -3  10   52.89    6.60
  -3   1  10   46.40    5.20
  -3   1  10   44.10    6.20
   4  -2 -10  672.93   28.40
  -2   4 -10  728.13   28.90
  -2  -2 -10  702.03   28.60
   4  -2 -10  724.43   28.50
  -2  -2 -10  716.43   27.70
  -2   4 -10  681.43   25.80
  -2   4 -10  716.33   27.40
   4  -2 -10  694.03   28.90
  -2  -2 -10  671.03   26.20
  -2  -2 -10  702.83   26.90
  -2   4 -10  693.73   29.60
  -2  -2 -10  712.53   28.40
  -2   4 -10  704.13   26.20
   2  -4  10  696.43   29.80
  -4   2  10  684.43   28.00
   2   2  10  715.13   28.30
   2   2  10  643.34   30.30
   2  -4  10  702.03   28.90
   2   2  10  690.53   28.40
  -4   2  10  715.43   28.20
   2   2  10  711.53   28.20
  -4   2  10  679.23   29.70
   2  -4  10  697.73   28.30
  -2   5 -10   57.79    5.80
   5  -3 -10   71.09    5.50
  -3  -2 -10   70.69    4.10
  -2   5 -10   58.99    7.90
  -3  -2 -10   71.99    7.10
   5  -3 -10   56.99    6.90
  -2   5 -10   69.49    8.30
  -3  -2 -10   60.49    6.90
  -3  -2 -10   60.49    6.80
   5  -3 -10   76.99    7.20
   5  -3 -10   60.59    7.00
  -2   5 -10   53.49    4.90
   2  -5  10   64.99    7.10
  -5   3  10   70.89    6.80
   3   2  10   74.09    7.10
   2  -5  10   70.99    8.50
   3   2  10   61.09    7.30
   3   2  10   72.99    9.00
  -5   3  10   59.79    7.10
   2  -5  10   73.99    7.60
  -5   3  10   72.99    8.00
  -1   4 -10   90.19    8.20
  -3  -1 -10  100.49    7.50
  -1   4 -10  109.29    6.30
  -1   4 -10  106.19    7.10
  -3  -1 -10  102.69    5.20
  -1   4 -10   85.19    8.20
   4  -3 -10   96.29    7.90
   4  -3 -10  103.59    6.50
  -3  -1 -10   96.79    8.00
   4  -3 -10   95.39    8.20
  -1   4 -10  103.69    6.80
  -3  -1 -10   96.39    7.80
   1  -4  10  110.29    8.10
   3   1  10  107.69    8.20
   1  -4  10   92.59    6.80
  -4   3  10   96.69    7.30
  -4   3  10   99.59    8.70
  -4   3  10   96.79    7.30
   1  -4  10   81.79    8.80
   3   1  10   95.99    7.20
   1  -4  10   87.19    8.10
   3   1  10   95.79    9.10
   0   3 -10   80.09    5.50
  -3   0 -10   90.19    5.80
   0   3 -10   78.49    7.30
  -3   0 -10   72.69    6.90
   0   3 -10   80.69    7.20
   3  -3 -10   92.09    6.30
   3  -3 -10   86.89    7.00
  -3   0 -10   87.09    7.00
   0   3 -10   66.29    7.00
   3  -3 -10   86.89    7.40
  -3   0 -10   93.09    7.40
   0  -3  10   97.89    7.90
  -3   3  10   78.49    9.70
   0  -3  10   91.59    8.20
   3   0  10   77.89    7.50
  -3   3  10   75.39    6.50
   0  -3  10   76.99    5.80
   0  -3  10   87.99    6.60
   3   0  10   75.39    8.30
   3   0  10   90.19    6.30
   3   0  10   70.29    8.50
  -3   3  10   84.69    8.10
  -3   1 -10   51.79    4.60
   2  -3 -10   50.89    5.70
   1   2 -10   48.00    6.10
  -3   1 -10   51.79    5.20
  -3   1 -10   56.49    5.80
   1   2 -10   47.00    4.00
   2  -3 -10   47.60    5.10
   1   2 -10   56.29    6.00
  -3   1 -10   50.39    6.10
   2  -3 -10   47.10    5.50
  -3   1 -10   60.29    5.50
  -2   3  10   41.40    6.10
  -1  -2  10   54.99    4.90
   3  -1  10   59.49    7.40
   3  -1  10   65.29    6.90
  -1  -2  10   52.09    6.70
  -1  -2  10   45.90    4.20
  -2   3  10   54.09    5.80
   3  -1  10   48.20    6.30
  -1  -2  10   40.70    6.00
  -2   3  10   59.29    5.20
   3  -1  10   49.90    4.40
   2   1 -10   45.60    5.80
   2   1 -10   48.30    3.50
  -3   2 -10   45.50    4.50
   1  -3 -10   43.40    4.90
   2   1 -10   59.19    6.20
  -3   2 -10   63.59    6.60
   1  -3 -10   56.19    6.10
  -3   2 -10   45.10    5.20
   3  -2  10   55.99    7.00
  -1   3  10   51.49    6.60
  -2  -1  10   42.10    5.70
  -2  -1  10   54.09    3.90
  -1   3  10   48.50    5.50
   3  -2  10   42.90    5.50
   3  -2  10   56.19    6.90
  -2  -1  10   45.90    6.10
   3  -2  10   48.10    3.60
  -2  -1  10   60.09    3.80
  -1   3  10   52.79    5.20
   3   0 -10   82.99    7.00
  -3   3 -10   84.49    6.80
  -3   3 -10   91.49    7.00
   3   0 -10   92.69    4.50
   0  -3 -10   98.49    9.10
   3   0 -10   80.89    7.00
  -3   3 -10   82.89    7.90
   0  -3 -10   83.69    5.70
  -3   3 -10   86.69    4.90
   0  -3 -10   82.79    6.60
   0  -3 -10   84.29    7.30
   0   3  10   96.99    7.40
   0   3  10  100.89    6.70
   3  -3  10   88.09    8.10
   3  -3  10   78.49    8.20
   0   3  10   80.89    6.20
  -3   0  10   77.59    7.80
   3  -3  10   90.89    7.30
   0   3  10   86.29    8.80
  -3   0  10   62.49    7.50
  -3   4 -10   96.79    7.50
  -3   4 -10   88.89    8.40
  -1  -3 -10   94.39    7.60
  -1  -3 -10   83.49    7.40
  -3   4 -10   97.69    8.10
  -1  -3 -10   96.89    8.30
   4  -1 -10   98.29    7.70
   4  -1 -10   97.39    7.90
  -1  -3 -10  101.89    7.10
   1   3  10   97.99    7.30
   3  -4  10   96.59    8.20
   1   3  10   95.79    7.50
   3  -4  10   93.09    8.30
   1   3  10  100.79    9.40
  -4   1  10  106.09    8.40
   3  -4  10   94.39    8.80
  -4   1  10  109.39    8.90
   1   3  10   89.09    8.40
  -2  -3 -10   81.19    7.10
  -2  -3 -10   60.59    6.60
  -2  -3 -10   71.29    6.90
   5  -2 -10   65.59    4.80
  -2  -3 -10   63.99    6.80
  -3   5 -10   61.39    8.00
   5  -2 -10   72.29    7.10
  -3   5 -10   66.99    7.70
  -3   5 -10   65.69    6.80
   5  -2 -10   66.59    6.80
  -5   2  10   71.69    7.60
   3  -5  10   65.19    7.20
  -5   2  10   60.09    7.70
   2   3  10   46.90    7.10
   2   3  10   75.99    7.00
   3  -5  10   73.79    8.70
   3  -5  10   50.49    6.30
   2   3  10   60.09    7.00
  -3  -3 -10   63.39    7.30
   6  -3 -10   71.79    5.90
  -3  -3 -10   67.59    7.30
   6  -3 -10   65.19    7.40
  -3   6 -10   80.39    9.10
  -3  -3 -10   80.09    5.70
  -3  -3 -10   76.39    7.80
   6  -3 -10   66.39    7.50
  -3  -3 -10   69.59    5.50
   6  -3 -10   74.29    7.40
  -3   6 -10   81.09    9.10
  -6   3  10   80.29    8.30
   3   3  10   74.49    7.80
   3  -6  10   61.19    7.30
  -6   3  10   68.09    8.80
   3  -6  10   58.49    8.00
   3   3  10   64.99    7.10
   3   3  10   74.69    9.40
   3  -6  10   71.39    8.90
  -3   7 -10   38.40    7.40
   7  -4 -10   45.30    6.90
  -4  -3 -10   40.30    6.10
   7  -4 -10   47.50    4.90
  -4  -3 -10   45.50    6.90
   7  -4 -10   59.99    8.10
  -3   7 -10   45.40    7.60
  -4  -3 -10   45.10    6.30
   4   3  10   50.69    7.00
   4   3  10   35.40    6.40
  -7   4  10   45.60    7.30
   3  -7  10   33.70    6.80
   3  -7  10   53.49    6.10
  -7   4  10   47.70    6.30
   4   3  10   50.79    8.00
   3  -7  10   41.40    6.90
   6  -4 -10  611.64   26.80
   6  -4 -10  600.64   24.20
  -4  -2 -10  637.64   26.60
  -2   6 -10  598.34   23.70
  -2   6 -10  613.84   27.70
  -4  -2 -10  606.64   26.00
  -4  -2 -10  593.34   26.30
  -2   6 -10  609.94   23.60
  -2   6 -10  651.33   27.70
   2  -6  10  609.64   26.90
   2  -6  10  601.84   25.60
  -6   4  10  646.84   25.00
   4   2  10  581.94   25.60
  -6   4  10  614.24   27.50
  -6   4  10  619.14   26.20
   4   2  10  624.14   26.50
   4   2  10  598.34   28.40
   2  -6  10  613.84   28.00
  -4  -1 -10   30.30    4.80
   5  -4 -10   37.90    4.50
  -1   5 -10   36.80    4.30
  -4  -1 -10   39.60    5.60
   5  -4 -10   33.20    5.20
  -1   5 -10   34.90    6.10
  -1   5 -10   49.80    5.10
   5  -4 -10   37.20    5.20
  -1   5 -10   37.10    5.70
  -4  -1 -10   34.90    5.70
  -5   4  10   38.40    5.50
   4   1  10   42.00    6.20
  -5   4  10   37.60    4.70
   1  -5  10   27.50    5.60
   1  -5  10   37.20    4.40
   4   1  10   45.50    5.30
  -5   4  10   30.50    5.70
   4   1  10   33.10    6.30
   1  -5  10   41.60    5.80
   1  -5  10   35.60    5.30
   4  -4 -10  614.94   24.10
  -4   0 -10  582.44   24.60
  -4   0 -10  598.74   26.30
   0   4 -10  639.74   24.50
   0   4 -10  621.34   24.90
   0   4 -10  615.94   26.90
   4  -4 -10  650.43   25.00
  -4   0 -10  599.24   25.90
   4  -4 -10  629.24   26.80
   0   4 -10  645.14   26.90
   0  -4  10  613.74   26.30
   4   0  10  641.44   24.80
  -4   4  10  604.84   27.30
   0  -4  10  621.84   27.60
   0  -4  10  646.84   23.80
  -4   4  10  605.54   23.90
   4   0  10  655.83   28.30
  -4   4  10  606.04   26.00
   0  -4  10  633.44   25.70
   4   0  10  659.13   26.90
   1   3 -10   93.19    8.10
   3  -4 -10   94.49    7.90
   1   3 -10  101.09    8.10
  -4   1 -10   88.19    6.30
  -4   1 -10   83.79    7.30
  -4   1 -10  100.89    8.10
   3  -4 -10   96.09    6.90
  -1  -3  10   89.49    8.80
  -1  -3  10  111.69    8.20
  -3   4  10   71.89    8.30
  -1  -3  10   89.89    5.70
  -3   4  10   92.89    7.70
   4  -1  10   96.89    6.00
  -1  -3  10   96.79    7.00
  -3   4  10  103.09    6.90
   4  -1  10   93.99    8.90
   4  -1  10   97.29    8.50
  -4   2 -10  713.93   28.10
  -4   2 -10  677.03   25.30
   2  -4 -10  698.03   27.60
   2  -4 -10  672.63   28.70
   2   2 -10  654.43   28.60
  -4   2 -10  708.63   26.00
   2   2 -10  681.33   28.40
  -4   2 -10  693.23   29.00
   4  -2  10  711.23   29.50
   4  -2  10  642.64   25.90
  -2  -2  10  701.93   29.10
   4  -2  10  693.23   29.70
  -2  -2  10  674.53   26.40
  -2   4  10  710.53   28.40
  -2   4  10  697.03   29.70
  -2  -2  10  684.93   29.10
   1  -4 -10  108.09    7.50
   1  -4 -10   99.69    5.80
  -4   3 -10   94.39    7.60
   1  -4 -10   99.59    7.80
   3   1 -10   87.29    7.90
  -4   3 -10   89.39    9.50
   3   1 -10   90.99    7.80
  -4   3 -10  105.89    8.80
  -3  -1  10   90.69    8.70
   4  -3  10  108.89    9.40
  -3  -1  10   97.79    5.30
  -1   4  10   92.09    5.90
  -1   4  10   92.69    7.80
   4  -3  10   89.89    8.50
  -1   4  10   88.49    9.00
  -1   4  10   96.89    6.30
  -3  -1  10  103.39    8.50
   0  -4 -10  626.04   24.40
   4   0 -10  581.44   25.90
   4   0 -10  617.84   25.90
   0  -4 -10  611.64   25.80
  -4   4 -10  660.63   25.80
  -4   4 -10  652.73   25.40
  -4   4 -10  610.54   27.20
   0  -4 -10  590.14   26.10
   0   4  10  603.34   24.10
  -4   0  10  638.04   26.60
   4  -4  10  621.94   26.80
   0   4  10  628.14   27.80
   0   4  10  625.44   24.00
  -4   0  10  641.14   27.30
   4  -4  10  607.54   24.60
   4  -4  10  610.84   27.30
   0   4  10  610.14   24.90
   4  -4  10  625.84   26.40
   0   4  10  594.04   26.00
  -1  -4 -10   36.30    4.80
  -4   5 -10   35.80    5.20
  -1  -4 -10   39.30    5.50
   5  -1 -10   32.50    4.90
  -1  -4 -10   39.10    6.10
  -1  -4 -10   33.60    5.10
   5  -1 -10   38.70    5.60
  -4   5 -10   39.20    6.30
  -4   5 -10   33.20    5.70
   4  -5  10   38.10    6.20
  -5   1  10   39.90    6.30
  -5   1  10   34.80    6.40
   1   4  10   34.20    5.60
   4  -5  10   52.79    7.50
   4  -5  10   38.10    5.40
   1   4  10   34.70    6.40
   1   4  10   40.80    4.90
   1   4  10   33.90    4.90
  -4   6 -10  587.14   26.40
   6  -2 -10  582.74   22.00
   6  -2 -10  560.14   25.80
  -2  -4 -10  620.84   25.40
  -4   6 -10  577.44   27.30
   6  -2 -10  558.84   22.50
  -2  -4 -10  608.94   25.90
   6  -2 -10  603.24   25.90
  -2  -4 -10  608.54   25.40
  -2  -4 -10  607.14   24.70
  -6   2  10  624.44   27.30
   2   4  10  596.34   28.00
   4  -6  10  583.84   27.40
   4  -6  10  613.84   25.40
   2   4  10  605.84   24.80
   2   4  10  585.84   26.00
   4  -6  10  626.04   26.90
  -6   2  10  637.14   26.10
  -3  -4 -10   46.30    6.20
  -4   7 -10   30.50    6.90
  -3  -4 -10   40.80    6.50
   7  -3 -10   44.00    4.10
   7  -3 -10   41.20    6.50
  -4   7 -10   46.20    8.10
   7  -3 -10   42.00    6.20
  -3  -4 -10   43.20    6.40
  -7   3  10   50.59    7.00
   4  -7  10   37.70    6.70
   4  -7  10   39.00    5.70
   3   4  10   43.10    6.50
   3   4  10   50.79    6.60
   3   4  10   27.70    7.20
   4  -7  10   41.80    7.20
  -7   3  10   41.50    7.10
  -2   7 -10   79.39   10.00
  -2   7 -10   67.49    6.20
   7  -5 -10   65.09    7.10
  -2   7 -10   61.69    9.00
  -5  -2 -10   55.29    7.00
  -5  -2 -10   67.09    8.20
  -5  -2 -10   63.69    8.40
   7  -5 -10   65.69    8.50
  -7   5  10   79.59    9.00
   5   2  10   70.29   10.00
   2  -7  10   69.49    8.40
   5   2  10   71.69    8.40
  -7   5  10   72.99    8.30
   2  -7  10   60.49    8.60
   2  -7  10   64.09    7.70
  -7   5  10   88.39    7.90
   5   2  10   63.39    7.50
  -1   6 -10   50.19    7.70
  -1   6 -10   70.49    8.40
  -1   6 -10   61.89    7.00
  -5  -1 -10   80.49    8.70
   6  -5 -10   75.99    7.00
   6  -5 -10   71.99    7.80
  -5  -1 -10   55.39    6.80
  -5  -1 -10   68.09    7.90
   5   1  10   72.99    8.60
  -6   5  10   63.09    6.10
   5   1  10   68.09    7.70
   5   1  10   44.70    7.40
  -6   5  10   72.19    8.90
   1  -6  10   74.69    7.90
   1  -6  10   69.69    8.00
   1  -6  10   59.69    8.10
  -6   5  10   60.49    7.00
   0   5 -10   48.60    5.70
   5  -5 -10   66.69    7.70
   0   5 -10   55.79    7.40
  -5   0 -10   50.59    6.10
   5  -5 -10   44.30    6.30
  -5   0 -10   61.29    6.90
   5  -5 -10   57.29    6.10
   0   5 -10   60.09    8.00
  -5   0 -10   59.99    7.50
   0  -5  10   60.69    7.30
  -5   5  10   52.49    6.50
   5   0  10   52.89    7.70
   5   0  10   57.19    6.10
  -5   5  10   65.09    4.50
   0  -5  10   68.69    7.70
   5   0  10   67.39    8.50
  -5   5  10   60.89    8.00
   0  -5  10   54.39    5.40
   0  -5  10   64.39    8.20
  -5   1 -10   40.30    4.40
  -5   1 -10   39.90    5.70
   4  -5 -10   39.30    5.00
   1   4 -10   40.30    4.60
   1   4 -10   32.90    5.40
  -5   1 -10   54.19    7.00
   1   4 -10   31.90    6.00
   4  -5 -10   33.70    5.60
  -1  -4  10   33.20    6.50
   5  -1  10   24.70    5.20
  -4   5  10   36.60    5.40
   5  -1  10   45.30    4.60
  -1  -4  10   36.10    5.30
  -1  -4  10   34.20    5.70
   5  -1  10   41.60    7.10
  -4   5  10   44.90    6.70
   2   3 -10   70.29    6.50
   2   3 -10   68.59    7.60
   2   3 -10   68.09    7.20
   3  -5 -10   71.19    7.40
  -5   2 -10   76.09    7.40
  -5   2 -10   68.59    4.60
  -5   2 -10   71.09    7.80
   3  -5 -10   67.39    6.60
  -2  -3  10   73.69    7.80
  -2  -3  10   79.99    6.70
  -3   5  10   62.69    7.30
   5  -2  10   56.29    7.50
  -2  -3  10   70.19    8.90
   5  -2  10   57.39    5.70
   5  -2  10   75.09    8.80
  -3   5  10   66.29    8.20
   3   2 -10   72.59    7.10
  -5   3 -10   58.19    5.10
  -5   3 -10   69.09    7.40
   2  -5 -10   63.99    7.10
   2  -5 -10   63.19    6.70
  -5   3 -10   65.39    8.00
  -3  -2  10   59.89    7.30
   5  -3  10   66.29    8.40
  -2   5  10   66.19    8.30
  -3  -2  10   60.99    7.80
  -2   5  10   72.39    5.60
  -3  -2  10   64.39    6.20
   5  -3  10   71.79    8.90
  -2   5  10   69.09    7.50
   1  -5 -10   31.80    5.00
   1  -5 -10   43.40    5.60
  -5   4 -10   37.70    5.40
  -5   4 -10   40.80    5.00
   4   1 -10   47.00    6.20
   1  -5 -10   39.50    5.90
   4   1 -10   35.00    5.60
  -5   4 -10   37.10    6.40
  -4  -1  10   45.20    7.00
  -4  -1  10   35.00    6.20
  -1   5  10   41.20    5.70
  -1   5  10   40.70    5.20
   5  -4  10   35.50    6.20
   5  -4  10   34.60    6.20
  -1   5  10   36.40    6.50
   5  -4  10   41.90    6.20
  -4  -1  10   40.80    4.60
  -5   5 -10   56.69    6.50
   5   0 -10   54.99    7.00
   0  -5 -10   55.39    6.80
  -5   5 -10   68.39    8.90
   0  -5 -10   61.39    7.20
  -5   5 -10   64.89    7.50
   0  -5 -10   47.80    6.00
   5   0 -10   70.19    7.10
   0   5  10   61.69    5.90
   0   5  10   52.19    7.60
   0   5  10   62.19    5.60
   5  -5  10   54.89    7.60
  -5   0  10   54.79    7.00
   5  -5  10   70.49    7.90
   0   5  10   56.99    7.00
  -5   0  10   61.89    8.10
   5  -5  10   60.09    7.50
   0   5  10   58.29    7.20
  -5   6 -10   68.59    8.00
  -1  -5 -10   70.99    8.00
   6  -1 -10   72.99    7.60
  -5   6 -10   59.49    7.00
  -5   6 -10   64.89    9.00
  -1  -5 -10   71.29    7.80
   6  -1 -10   65.09    8.00
  -1  -5 -10   49.40    6.50
   5  -6  10   66.29    8.20
   5  -6  10   84.69    9.50
   1   5  10   63.29    8.70
   5  -6  10   62.89    8.90
   1   5  10   60.99    7.00
  -6   1  10   78.39    9.40
   1   5  10   73.19    8.40
  -6   1  10   73.49    8.40
  -2  -5 -10   64.39    8.10
  -2  -5 -10   76.79    8.70
   7  -2 -10   54.69    7.20
  -2  -5 -10   77.59    8.90
  -5   7 -10   50.59    8.00
  -5   7 -10   70.89    9.30
   7  -2 -10   60.29    7.80
   2   5  10   62.39    8.00
   2   5  10   62.29    7.90
  -7   2  10   63.59    8.10
   2   5  10   87.69   11.00
  -7   2  10   73.09    9.10
   5  -7  10   69.69    9.80
   5  -7  10   60.29    8.00
   5  -7  10   78.49    9.60
  -1   7 -10   27.40    7.60
   7  -6 -10   38.90    5.70
  -6  -1 -10   35.30    6.40
  -1   7 -10   35.70    7.30
  -6  -1 -10   46.60    6.30
  -1   7 -10   37.20    5.90
   7  -6 -10   44.80    6.70
  -6  -1 -10   36.10    6.70
   1  -7  10   51.09    6.40
   6   1  10   27.40    7.00
  -7   6  10   39.60    7.20
   6   1  10   43.90    6.40
   1  -7  10   46.40    7.20
  -6   0 -10  527.25   22.80
   0   6 -10  499.35   24.80
   6  -6 -10  467.35   21.50
  -6   0 -10  525.35   23.40
   6  -6 -10  499.55   23.40
   0   6 -10  501.35   23.40
   0   6 -10  488.45   21.60
  -6   0 -10  532.75   24.20
   0  -6  10  482.15   19.50
  -6   6  10  471.15   22.70
   0  -6  10  532.05   22.60
   6   0  10  502.85   25.30
   0  -6  10  536.55   23.70
  -6   6  10  489.95   23.60
   6   0  10  489.35   21.40
   0  -6  10  533.05   25.30
   6   0  10  498.75   24.00
   5  -6 -10   59.99    7.20
  -6   1 -10   62.59    7.40
   1   5 -10   65.39    7.50
   5  -6 -10   68.09    7.70
  -6   1 -10   61.39    7.50
   1   5 -10   65.39    8.40
   1   5 -10   84.39    8.60
  -5   6  10   53.69    6.60
  -5   6  10   55.29    7.50
   6  -1  10   62.89    8.40
  -1  -5  10   61.89    8.00
  -1  -5  10   61.59    8.30
  -1  -5  10   65.69    8.60
   6  -1  10   75.89    9.20
   6  -1  10   89.39    6.90
   2   4 -10  596.44   27.30
   2   4 -10  606.54   25.90
   4  -6 -10  597.54   25.30
   2   4 -10  624.14   25.30
  -6   2 -10  600.94   26.40
   4  -6 -10  619.44   26.80
  -6   2 -10  593.94   26.60
  -2  -4  10  643.24   25.80
  -4   6  10  581.14   27.00
  -2  -4  10  608.04   26.50
   6  -2  10  589.64   27.60
   6  -2  10  587.34   27.20
   6  -2  10  606.04   22.90
  -2  -4  10  639.64   28.10
  -4   6  10  598.54   26.40
   3   3 -10   74.79    9.60
   3  -6 -10   68.79    5.90
   3   3 -10   56.89    7.50
   3  -6 -10   70.99    7.60
   3   3 -10   85.39    8.60
  -6   3 -10   71.69    8.60
   3  -6 -10   61.99    7.20
   3   3 -10   82.39    7.50
  -6   3 -10   70.89    7.80
  -3   6  10   67.49    8.00
   6  -3  10   96.99    9.80
   6  -3  10   80.49    9.80
  -3  -3  10   71.79    8.30
  -3  -3  10   85.79    9.50
  -3  -3  10   76.49    7.60
  -3   6  10   57.49    8.10
   2  -6 -10  606.24   25.60
  -6   4 -10  608.04   27.10
   2  -6 -10  583.54   26.20
   4   2 -10  600.24   25.40
   2  -6 -10  582.54   23.60
  -6   4 -10  606.64   23.20
  -6   4 -10  606.14   26.20
  -4  -2  10  581.84   27.00
  -2   6  10  557.24   24.70
  -4  -2  10  572.94   24.00
  -2   6  10  600.54   27.40
  -2   6  10  614.64   26.60
   6  -4  10  626.74   27.30
  -4  -2  10  611.04   26.90
   6  -4  10  659.73   28.30
   1  -6 -10   73.19    7.90
  -6   5 -10   90.69    8.00
   5   1 -10   49.99    7.00
   1  -6 -10   69.69    7.10
   1  -6 -10   74.99    8.00
  -6   5 -10   71.09    7.80
   5   1 -10   67.09    7.50
  -6   5 -10   63.89    8.20
  -1   6  10   60.69    7.60
  -5  -1  10   69.89    8.70
   6  -5  10   85.99   10.80
   6  -5  10   68.69    8.40
  -5  -1  10   69.49    8.70
   6  -5  10   76.69    9.70
  -5  -1  10   69.29    6.20
  -1   6  10   64.19    9.00
   6   0 -10  505.25   22.20
   6   0 -10  465.05   23.00
   0  -6 -10  486.85   22.80
   0  -6 -10  504.45   22.90
   0  -6 -10  506.35   21.80
  -6   6 -10  498.95   22.50
  -6   6 -10  514.35   24.90
  -6   6 -10  525.05   23.40
   0   6  10  479.45   24.60
   0   6  10  493.25   23.60
  -6   0  10  525.55   24.30
  -6   0  10  494.35   23.90
   6  -6  10  496.55   25.10
   6  -6  10  502.85   22.80
   6  -6  10  516.25   24.30
  -6   7 -10   42.80    8.30
   7  -1 -10   44.30    6.60
   7  -1 -10   36.20    6.50
  -1  -6 -10   37.30    6.20
  -1  -6 -10   41.50    6.30
  -1  -6 -10   48.20    6.70
  -6   7 -10   43.20    7.80
  -7   1  10   36.50    7.40
   1   6  10   32.60    7.20
   1   6  10   44.70    8.30
   6  -7  10   25.50    6.90
   6  -7  10   47.60    6.80
   1   6 -10   44.60    7.70
  -7   1 -10   49.70    6.80
  -7   1 -10   38.10    6.90
   1   6 -10   45.70    6.80
   6  -7 -10   41.20    5.90
   1   6 -10   44.00    7.00
   6  -7 -10   39.00    6.70
  -6   7  10   43.30    6.80
   7  -1  10   52.89    9.10
   7  -1  10   51.59    5.90
  -1  -6  10   38.70    6.50
  -6   7  10   25.50    6.40
  -1  -6  10   47.60    7.60
   2   5 -10   67.09    7.30
   5  -7 -10   71.29    8.70
   5  -7 -10   60.29    6.90
  -7   2 -10   75.59    9.40
   2   5 -10   48.10    7.70
   2   5 -10   65.19    7.60
  -7   2 -10   54.19    7.40
  -5   7  10   58.29    7.20
  -2  -5  10   73.29    8.30
   7  -2  10   59.59    8.10
   7  -2  10   64.99    8.90
  -2  -5  10   84.79   10.10
  -2  -5  10   73.09    9.50
  -5   7  10   73.79    9.80
   7  -2  10   78.69    6.20
   4  -7 -10   38.40    4.10
   3   4 -10   37.10    7.10
  -7   3 -10   37.20    7.10
  -7   3 -10   35.00    6.10
   4  -7 -10   44.60    6.70
   3   4 -10   47.50    6.50
   3   4 -10   40.00    6.10
   4  -7 -10   32.00    5.40
  -4   7  10   40.40    7.00
  -3  -4  10   24.60    7.00
  -3  -4  10   50.99    6.60
   7  -3  10   34.90    7.00
  -4   7  10   44.40    6.70
   7  -3  10   43.10    7.30
  -3  -4  10   42.70    7.00
  -7   4 -10   36.20    7.00
   4   3 -10   30.40    5.80
  -7   4 -10   29.90    6.10
   4   3 -10   44.30    6.30
   3  -7 -10   48.60    6.20
   3  -7 -10   29.00    6.00
   3  -7 -10   30.60    5.50
   4   3 -10   40.60    5.70
  -3   7  10   45.60    7.40
  -4  -3  10   39.60    7.60
   7  -4  10   39.50    7.50
   7  -4  10   46.40    7.70
  -4  -3  10   45.10    6.00
  -3   7  10   36.50    7.10
  -4  -3  10   44.10    6.90
   5   2 -10   68.29    8.80
  -7   5 -10   57.79    7.80
   2  -7 -10   73.09    8.30
   2  -7 -10   71.09    7.50
   2  -7 -10   62.59    7.80
  -7   5 -10   80.89   10.70
   5   2 -10   66.09    8.20
   5   2 -10   76.19    8.40
  -7   5 -10   58.89    6.90
  -5  -2  10   62.29    7.90
  -5  -2  10   46.00    8.00
  -2   7  10   68.19    9.10
   7  -5  10   64.89    9.10
  -5  -2  10   64.79    8.30
   7  -5  10   80.49   10.80
  -2   7  10   68.89    8.80
   1  -7 -10   39.10    6.00
   6   1 -10   43.50    6.40
   1  -7 -10   41.10    6.90
  -7   6 -10   36.80    7.00
   1  -7 -10   34.70    5.90
  -7   6 -10   42.70    6.90
   6   1 -10   29.90    5.60
   6   1 -10   31.70    6.30
   7  -6  10   37.50    7.80
  -1   7  10   44.20    7.00
  -6  -1  10   48.80    5.40
  -6  -1  10   33.20    6.50
  -1   7  10   36.10    8.00
   7  -6  10   36.60    7.40
   0   0 -11 1136.49   42.90
   0   0 -11 1183.38   43.60
   0   0 -11 1158.98   44.90
   0   0  11 1122.59   42.80
   0   0  11 1145.39   42.90
   0   0  11 1135.99   45.80
   0   0  11 1143.89   44.40
   0   0  11 1180.68   41.70
   0   1 -11  123.49    9.00
  -1   0 -11  114.69    9.20
  -1   0 -11  118.19    8.70
   0   1 -11  121.19    6.90
   0   1 -11   94.49    9.10
  -1   0 -11  117.69    7.40
   1  -1 -11  111.59    8.40
  -1   0 -11  124.99    7.50
   0   1 -11  102.19    7.70
   1  -1 -11  106.59    7.70
   1  -1 -11  105.89    7.10
  -1   0 -11  126.39    9.30
   0  -1  11  109.89    9.20
   1   0  11  101.59    8.50
  -1   1  11  117.89    8.40
  -1   1  11  110.79    8.50
  -1   1  11  110.49    9.60
   0  -1  11  119.79    6.60
   0  -1  11  103.19    6.20
   0  -1  11  113.39    7.90
   1   0  11  120.69    7.00
  -1   1  11  118.89    7.50
   1   0  11  112.49    9.90
   0  -1  11  114.89    8.90
   1   0  11  109.89    7.20
   0  -1 -11  127.19    8.80
   1   0 -11  116.69    6.70
  -1   1 -11  127.99    7.90
  -1   1 -11  117.89    8.70
  -1   1 -11  104.39    8.80
   0  -1 -11  113.89    7.30
  -1   1 -11  106.49    7.30
   1   0 -11  115.89    8.60
   1   0 -11  118.69    8.00
   0  -1 -11  115.39    7.60
   0   1  11  114.99    8.30
   1  -1  11  116.89    6.50
  -1   0  11   95.69    8.60
   1  -1  11  123.89    7.10
   0   1  11  113.49    7.40
   1  -1  11  122.19    9.00
   0   1  11  107.59    9.20
  -1   0  11  118.59    7.70
  -1   0  11   90.79    9.20
   1  -1  11  102.49    9.20
   0   1  11  107.09    5.80
  -1   0  11  119.79    7.20
   1  -1  11  109.29    7.30
   2  -1 -11  104.69    6.40
  -1   2 -11   96.69    8.50
  -1   2 -11  108.19    6.90
  -1  -1 -11  108.39    9.20
   2  -1 -11  100.99    8.10
  -1   2 -11  112.59    8.00
   2  -1 -11   95.89    7.80
  -1   2 -11  105.09    7.90
  -1  -1 -11  110.29    6.70
  -1  -1 -11   89.39    8.20
  -1  -1 -11   91.19    7.40
   1  -2  11  106.09    7.30
   1  -2  11  105.69    8.20
   1  -2  11  103.89    7.80
   1   1  11  103.29    8.20
  -2   1  11  108.69    8.20
   1  -2  11  103.59    9.10
   1   1  11  112.79    7.30
  -2   1  11   95.09    9.30
   1   1  11   98.19    9.40
  -2   1  11   93.99    7.50
   1  -2  11  105.09    9.10
  -2   1  11   92.09    6.90
   1   1  11  108.99    7.30
  -2  -1 -11   81.79    7.20
  -2  -1 -11   70.29    7.30
   3  -2 -11   62.29    6.90
  -2  -1 -11   61.29    6.40
  -1   3 -11   75.19    7.00
   3  -2 -11   79.89    6.80
  -1   3 -11   75.89    6.30
   3  -2 -11   66.99    7.10
  -1   3 -11   62.99    7.80
   3  -2 -11   73.89    5.60
  -1   3 -11   70.69    7.40
   1  -3  11   68.19    7.50
   1  -3  11   59.29    7.80
   2   1  11   75.09    6.50
   2   1  11   71.79    9.10
  -3   2  11   59.79    7.30
   2   1  11   80.79    8.10
  -3   2  11   57.89    6.20
   1  -3  11   86.59    8.70
   1  -3  11   75.49    7.90
   2   1  11   87.49    7.80
  -3   2  11   83.09    7.30
   1  -3  11   90.49    6.70
  -3   2  11   65.39    8.20
  -2   0 -11  861.41   34.70
   2  -2 -11  895.51   35.20
  -2   0 -11  885.51   34.00
   0   2 -11  906.51   36.50
   2  -2 -11  888.91   34.20
   0   2 -11  875.61   34.70
   0   2 -11  937.11   33.90
   0   2 -11  879.51   35.60
  -2   0 -11  933.21   34.70
   2  -2 -11  907.01   36.30
  -2   0 -11  920.01   35.10
   2  -2 -11  887.71   35.10
  -2   0 -11  875.21   36.20
  -2   2  11  890.21   35.10
  -2   2  11  859.01   37.00
   0  -2  11  898.71   36.60
   2   0  11  930.61   36.20
   2   0  11  938.11   34.20
   0  -2  11  950.70   34.00
   2   0  11  908.61   34.70
   2   0  11  849.02   37.20
   0  -2  11  886.21   33.90
   0  -2  11  928.41   37.00
  -2   2  11  891.11   34.90
   0  -2  11  910.51   33.90
   1  -2 -11   94.09    8.80
   1   1 -11  109.79    8.00
  -2   1 -11  105.29    7.90
  -2   1 -11  107.29    7.40
   1  -2 -11   99.99    8.10
   1   1 -11   87.59    8.20
  -2   1 -11  105.49    8.70
   1  -2 -11   98.09    7.10
   1   1 -11   85.49    7.00
  -2   1 -11  113.59    7.30
   1  -2 -11  117.79    7.20
  -1   2  11   93.99    9.50
  -1  -1  11   93.69    8.40
   2  -1  11  116.09    9.50
   2  -1  11   98.29    8.80
  -1  -1  11  113.59    9.20
  -1   2  11  104.69    7.40
  -1   2  11  101.29    7.70
  -1  -1  11  100.79    5.40
   2  -1  11   89.69    8.00
   2  -1  11  108.59    6.40
  -1  -1  11   95.29    6.70
   2   0 -11  872.21   35.10
   0  -2 -11  881.01   34.50
   2   0 -11  882.01   35.70
  -2   2 -11  898.71   33.40
  -2   2 -11  890.51   36.30
   0  -2 -11  862.91   35.60
   2   0 -11  837.82   33.40
  -2   2 -11  911.31   34.40
  -2   2 -11  918.61   34.60
   0  -2 -11  882.21   34.10
  -2   0  11  906.81   33.20
  -2   0  11  893.91   35.50
   2  -2  11  881.01   34.40
   2  -2  11  996.30   34.70
   2  -2  11  863.31   36.10
   0   2  11  891.61   37.20
   2  -2  11  859.61   36.40
   0   2  11  873.91   32.80
   0   2  11  896.51   34.60
  -2   0  11  861.71   36.70
   0   2  11  899.71   34.80
  -2   3 -11   67.29    7.40
  -2   3 -11   62.29    6.30
  -2   3 -11   68.09    7.30
  -1  -2 -11   67.09    7.10
  -2   3 -11   60.79    6.20
  -1  -2 -11   72.99    6.60
   3  -1 -11   70.09    7.00
  -1  -2 -11   65.69    7.00
  -1  -2 -11   80.19    5.70
   3  -1 -11   53.49    6.80
  -3   1  11   70.29    8.30
   1   2  11   66.19    6.70
  -3   1  11   62.29    5.90
  -3   1  11   72.89    6.20
   2  -3  11   55.49    6.70
   1   2  11   70.29    7.10
   2  -3  11   74.59    7.10
   2  -3  11   77.99    8.00
  -3   1  11   85.69    8.00
   1   2  11   55.69    7.50
   2  -3  11   62.69    7.90
   1   2  11   64.99    7.10
  -2   4 -11  775.92   29.80
   4  -2 -11  786.52   30.30
  -2   4 -11  835.12   31.60
  -2   4 -11  818.02   34.10
   4  -2 -11  801.92   33.20
  -2  -2 -11  810.42   31.20
  -2   4 -11  789.42   30.20
  -2   4 -11  820.82   33.10
  -2  -2 -11  810.92   32.60
  -2  -2 -11  806.82   33.10
   4  -2 -11  822.22   32.90
  -2  -2 -11  822.92   31.80
   2  -4  11  812.52   34.20
  -4   2  11  786.42   34.20
  -4   2  11  813.62   32.40
   2   2  11  805.32   32.50
   2  -4  11  797.72   33.30
   2  -4  11  832.22   32.50
   2   2  11  799.02   35.10
  -4   2  11  810.12   32.30
   2   2  11  794.22   32.50
   2   2  11  817.22   32.30
  -3  -2 -11   75.39    4.90
  -2   5 -11   67.89    5.80
   5  -3 -11   90.49    6.50
  -3  -2 -11   82.29    8.30
  -3  -2 -11   81.09    7.30
   5  -3 -11   68.39    7.60
  -3  -2 -11   90.19    8.00
  -2   5 -11   98.89    9.90
   5  -3 -11   79.09    8.00
  -2   5 -11   81.39    7.00
  -3  -2 -11   77.49    8.30
  -2   5 -11   74.29    9.20
   2  -5  11   89.49   10.50
  -5   3  11   89.89    8.30
   3   2  11   80.89    8.50
   2  -5  11   87.49    8.60
  -5   3  11   83.89    7.80
   3   2  11   85.19    8.00
   3   2  11   86.59   10.10
   2  -5  11   75.59    8.50
  -5   3  11   85.59    9.40
  -3  -1 -11   78.79    7.80
   4  -3 -11   80.29    9.20
  -1   4 -11   71.69    6.40
   4  -3 -11   84.59    6.40
  -1   4 -11   79.99    8.50
  -1   4 -11   78.09    8.90
   4  -3 -11   76.79    7.60
  -1   4 -11   87.39    6.10
   4  -3 -11   83.99    8.00
  -3  -1 -11   76.99    6.00
  -1   4 -11   89.99    6.80
  -3  -1 -11   67.79    7.90
   1  -4  11   92.69    7.80
  -4   3  11   82.09    7.50
  -4   3  11   78.89    8.60
   3   1  11   84.79    8.40
   1  -4  11   81.19    9.90
   3   1  11   90.79    9.70
   1  -4  11   70.79    8.40
   1  -4  11   83.39    7.80
  -4   3  11   76.69    7.10
   3   1  11   97.59    7.40
  -3   0 -11   90.99    8.60
  -3   0 -11  110.09    8.10
   0   3 -11  105.09    8.90
   0   3 -11  108.39    9.30
   0   3 -11  104.89    7.10
   3  -3 -11  103.29    8.70
  -3   0 -11  107.39    7.20
  -3   0 -11  103.79    6.20
   3  -3 -11  105.19    7.30
   3  -3 -11  111.09    9.00
   0   3 -11  113.49    9.00
  -3   0 -11  112.89    9.20
   3   0  11  112.79    7.40
   3   0  11  120.89    9.30
  -3   3  11  100.99    9.70
   3   0  11   95.39    9.90
  -3   3  11  110.19    7.80
   0  -3  11  105.29    9.50
  -3   3  11  100.49    8.00
   0  -3  11  112.69    9.20
   0  -3  11  102.49    7.60
   0  -3  11  108.09    7.30
   1   2 -11   69.69    5.10
  -3   1 -11   55.29    5.60
  -3   1 -11   66.89    6.70
   2  -3 -11   74.39    6.30
   1   2 -11   83.59    7.40
  -3   1 -11   74.09    7.60
  -3   1 -11   69.89    6.90
   1   2 -11   65.39    7.20
   2  -3 -11   75.29    7.40
   2  -3 -11   61.09    6.90
  -3   1 -11   60.69    6.50
  -1  -2  11   71.29    8.30
   3  -1  11   65.69    7.70
  -2   3  11   73.29    6.60
   3  -1  11   79.49    8.70
  -1  -2  11   74.49    5.40
  -2   3  11   68.19    8.60
  -1  -2  11   64.39    5.50
  -1  -2  11   63.29    7.70
  -2   3  11   60.69    6.50
   3  -1  11   73.39    5.40
   2   1 -11   68.59    7.30
   1  -3 -11   67.69    6.50
   2   1 -11   73.99    4.60
   2   1 -11   65.19    6.90
  -3   2 -11   72.99    6.80
  -3   2 -11   78.89    7.80
   1  -3 -11   71.99    7.40
  -3   2 -11   65.89    6.40
  -3   2 -11   62.89    5.80
   3  -2  11   83.69    7.40
   3  -2  11   72.89    8.70
  -2  -1  11   66.29    8.10
   3  -2  11   64.09    4.60
  -1   3  11   61.29    6.70
   3  -2  11   68.59    8.30
  -1   3  11   61.99    8.00
  -2  -1  11   66.69    7.70
  -1   3  11   75.39    6.50
  -2  -1  11   64.39    4.90
  -3   3 -11  100.19    9.20
   0  -3 -11  117.09    8.60
   3   0 -11  106.09    8.50
  -3   3 -11  111.39    6.90
  -3   3 -11  103.59    8.30
   3   0 -11   92.89    8.30
   0  -3 -11  116.29    8.00
  -3   3 -11  113.69    8.00
  -3   0  11  105.39    9.50
   3  -3  11  114.99   10.00
   0   3  11  104.99   10.00
  -3   0  11   91.39    9.20
   3  -3  11  115.29    8.70
   3  -3  11  116.99    9.50
   0   3  11  104.89    8.10
   0   3  11  112.79    7.70
   0   3  11  100.29    7.00
  -1  -3 -11   65.89    7.60
  -3   4 -11   85.19    8.80
   4  -1 -11   84.49    5.00
  -1  -3 -11   87.19    6.40
   4  -1 -11   74.49    7.50
  -1  -3 -11   76.09    7.30
  -1  -3 -11   84.39    9.50
  -3   4 -11   70.69    7.50
  -1  -3 -11   89.59    7.00
  -3   4 -11   90.99    8.50
   4  -1 -11   76.89    7.60
  -4   1  11   66.89    8.30
  -4   1  11   89.09    8.80
   1   3  11   77.49    8.70
   1   3  11   90.79    8.00
   3  -4  11   76.29    7.90
   3  -4  11   80.89    9.70
   1   3  11   84.09    7.60
   1   3  11   74.49    9.30
   3  -4  11   78.39    8.60
   5  -2 -11   79.89    5.50
  -2  -3 -11   84.19    6.40
   5  -2 -11   81.99    8.10
  -3   5 -11   80.49    9.40
  -2  -3 -11   91.79    8.30
  -3   5 -11   84.19    9.50
  -2  -3 -11   92.89    8.30
  -3   5 -11   68.49    7.80
   5  -2 -11   81.49    8.20
  -2  -3 -11   74.89    7.70
  -2  -3 -11   94.59    8.10
   3  -5  11   75.59    8.60
   3  -5  11   90.09   10.40
   2   3  11   91.59    8.50
   3  -5  11   77.29    8.90
   2   3  11   80.09    9.80
  -5   2  11   81.29    9.00
   2   3  11   91.89    8.50
  -5   2  11   78.29    9.40
   6  -3 -11   45.90    4.60
  -3   6 -11   57.69    8.60
   6  -3 -11   31.70    5.40
  -3  -3 -11   45.00    6.50
  -3  -3 -11   35.50    6.00
  -3   6 -11   45.80    7.70
  -3  -3 -11   49.99    6.80
   6  -3 -11   50.19    6.90
   3   3  11   43.70    6.30
   3  -6  11   54.39    7.20
   3   3  11   57.19    9.10
   3  -6  11   49.70    8.80
  -6   3  11   54.99    8.00
  -6   3  11   49.99    6.70
   3  -6  11   45.00    7.00
   3   3  11   54.29    7.00
  -2   6 -11  612.54   27.60
   6  -4 -11  592.94   26.10
  -2   6 -11  591.24   27.40
  -2   6 -11  475.25   25.60
  -4  -2 -11  602.14   26.20
   6  -4 -11  595.44   26.50
   6  -4 -11  593.24   23.70
  -4  -2 -11  596.54   25.80
  -4  -2 -11  566.34   25.80
   4   2  11  602.84   28.70
   2  -6  11  599.14   26.50
   2  -6  11  581.54   27.80
   4   2  11  585.74   25.30
  -6   4  11  595.44   25.70
  -6   4  11  615.04   24.60
   2  -6  11  586.04   25.50
  -6   4  11  594.74   27.50
   4   2  11  612.54   26.30
  -1   5 -11   68.69    8.90
  -1   5 -11   59.69    8.10
   5  -4 -11   56.29    6.40
  -4  -1 -11   59.09    7.90
   5  -4 -11   52.79    7.30
  -4  -1 -11   49.70    6.30
  -1   5 -11   71.09    6.50
  -4  -1 -11   70.19    8.30
   1  -5  11   67.69    7.90
   4   1  11   65.89    9.00
  -5   4  11   52.69    6.40
   4   1  11   72.99    8.90
   4   1  11   65.59    6.90
   1  -5  11   52.89    7.60
  -5   4  11   48.30    7.40
   1  -5  11   76.89    8.40
  -5   4  11   58.79    6.90
   4  -4 -11  746.53   29.00
  -4   0 -11  733.43   30.30
   4  -4 -11  704.53   30.90
  -4   0 -11  622.94   28.60
   0   4 -11  762.52   31.40
   0   4 -11  732.43   28.50
   0   4 -11  751.22   31.30
   4  -4 -11  708.33   28.30
  -4   0 -11  759.32   31.10
   4   0  11  751.52   31.10
  -4   4  11  714.33   28.20
   0  -4  11  765.62   32.20
   4   0  11  729.53   32.50
   4   0  11  744.93   28.80
  -4   4  11  734.13   32.00
   0  -4  11  815.42   30.00
  -4   4  11  709.63   30.30
   0  -4  11  740.13   30.90
   0  -4  11  715.93   27.60
  -4   1 -11   89.49    7.60
  -4   1 -11   89.39    7.00
   1   3 -11   81.09    8.30
   1   3 -11   72.29    8.30
  -4   1 -11   81.99    8.30
   3  -4 -11   79.09    7.70
   3  -4 -11   82.69    7.10
  -3   4  11   60.29    6.00
  -3   4  11   76.99    9.20
  -1  -3  11   75.49    9.00
   4  -1  11   79.39    9.20
  -3   4  11   84.79    7.60
   4  -1  11   80.79    6.10
  -1  -3  11   77.49    5.10
  -1  -3  11   81.19    8.30
  -1  -3  11   69.29    6.80
   4  -1  11   85.49    9.20
  -4   2 -11  764.62   30.50
  -4   2 -11  848.62   32.90
   2   2 -11  814.82   33.60
   2  -4 -11  828.92   32.30
  -4   2 -11  808.32   33.90
  -4   2 -11  804.12   29.90
   2  -4 -11  807.32   33.60
   2   2 -11  847.52   33.50
   4  -2  11  790.62   34.60
  -2   4  11  808.02   30.60
  -2  -2  11  793.02   30.50
   4  -2  11  789.62   29.70
  -2  -2  11  855.81   34.30
  -2   4  11  777.72   34.50
   4  -2  11  854.81   34.50
  -2   4  11  824.62   33.10
  -2  -2  11  813.02   34.00
  -4   3 -11   87.69    7.20
   3   1 -11   67.19    7.60
   1  -4 -11   89.39    7.50
   3   1 -11   74.99    7.50
  -4   3 -11   83.49    7.90
  -4   3 -11   88.59    8.80
   1  -4 -11   75.09    7.70
   4  -3  11   69.89    8.40
  -1   4  11   85.49    5.90
  -3  -1  11   78.69    8.70
   4  -3  11   82.49    8.70
  -1   4  11   77.79    8.00
  -3  -1  11   74.79    9.20
  -1   4  11   76.09    6.40
  -1   4  11   69.49    9.30
   4  -3  11   69.99    8.80
   0  -4 -11  740.43   30.50
  -4   4 -11  755.02   30.50
   4   0 -11  746.93   31.00
   0  -4 -11  744.43   28.90
  -4   4 -11  796.32   32.70
  -4   4 -11  739.73   30.10
   4   0 -11  720.33   31.00
   0  -4 -11  752.62   31.20
   0   4  11  706.63   29.20
   0   4  11  784.92   31.20
   4  -4  11  808.52   31.60
   0   4  11  707.33   28.80
   0   4  11  724.83   29.00
   4  -4  11  731.43   32.60
  -4   0  11  779.22   31.70
   0   4  11  746.83   33.10
   4  -4  11  737.03   31.70
  -4   0  11  761.62   32.40
  -1  -4 -11   49.99    6.10
  -4   5 -11   72.39    8.70
  -1  -4 -11   65.89    7.00
  -4   5 -11   66.69    7.30
   5  -1 -11   51.49    6.70
  -1  -4 -11   70.19    7.70
  -4   5 -11   69.89    9.40
   5  -1 -11   57.59    7.40
   4  -5  11   60.49    7.50
  -5   1  11   57.39    8.30
   1   4  11   35.40    7.30
   4  -5  11   60.39    7.40
  -5   1  11   55.49    7.40
   1   4  11   61.09    7.50
   1   4  11   62.89    7.20
   4  -5  11   51.29    7.60
   6  -2 -11  566.54   26.30
  -4   6 -11  590.54   27.20
  -4   6 -11  611.14   28.20
  -2  -4 -11  596.74   25.50
   6  -2 -11  586.64   26.20
  -2  -4 -11  586.74   26.00
  -2  -4 -11  587.94   25.90
   2   4  11  562.24   28.60
   4  -6  11  639.84   27.30
  -6   2  11  601.14   27.70
   2   4  11  609.34   25.20
   4  -6  11  593.24   25.90
   2   4  11  599.84   26.40
  -6   2  11  606.84   26.50
   4  -6  11  607.14   28.60
   6  -5 -11   75.49    8.80
  -1   6 -11   64.49    8.70
  -1   6 -11   51.99    8.50
  -5  -1 -11   49.70    7.50
  -5  -1 -11   37.00    6.80
  -1   6 -11   62.59    6.20
  -5  -1 -11   51.89    6.90
   6  -5 -11   52.99    5.90
  -6   5  11   49.70    6.90
   1  -6  11   49.30    7.70
   5   1  11   61.39    9.20
   5   1  11   38.00    6.10
   5   1  11   54.79    7.50
  -6   5  11   67.59    9.30
   1  -6  11   68.99    7.60
   1  -6  11   40.90    7.70
  -6   5  11   59.89    7.30
   5  -5 -11   54.29    5.90
  -5   0 -11   53.39    6.90
   5  -5 -11   47.40    6.90
   0   5 -11   56.99    6.10
   0   5 -11   59.89    7.80
  -5   0 -11   52.09    7.40
   0   5 -11   56.59    7.90
   5   0  11   58.99    8.70
  -5   5  11   61.49    8.10
  -5   5  11   49.60    6.40
   0  -5  11   52.79    7.10
   0  -5  11   55.89    7.50
   5   0  11   47.60    5.80
   0  -5  11   55.09    8.20
   5   0  11   53.59    7.20
   4  -5 -11   49.10    6.90
   4  -5 -11   64.29    6.80
   1   4 -11   44.00    6.40
  -5   1 -11   44.30    6.20
   1   4 -11   56.09    6.10
   1   4 -11   63.09    8.20
  -5   1 -11   64.59    8.30
  -4   5  11   59.59    8.20
   5  -1  11   58.79    7.80
  -4   5  11   68.99    7.70
   5  -1  11   48.10    7.50
  -1  -4  11   60.59    7.70
  -1  -4  11   45.80    7.70
   5  -1  11   55.39    6.10
  -1  -4  11   60.79    7.90
  -5   2 -11   91.29    9.50
   2   3 -11   77.49    8.80
   2   3 -11   82.39    8.60
  -5   2 -11   94.39    8.60
  -5   2 -11   80.69    5.50
   3  -5 -11   83.59    8.30
   3  -5 -11   80.09    7.70
   2   3 -11   71.09    7.60
  -2  -3  11   95.09    9.20
  -3   5  11   94.59    9.60
  -3   5  11   97.99    8.80
  -2  -3  11   92.89    7.40
   5  -2  11   72.09    9.70
   5  -2  11   76.79    9.90
  -2  -3  11   87.69   10.40
   3   2 -11   94.99    8.60
   2  -5 -11   99.59    8.00
  -5   3 -11   84.19    8.60
  -5   3 -11   84.19    6.30
   3   2 -11   69.99    8.30
  -5   3 -11   69.19    9.00
   2  -5 -11   87.39    8.40
   5  -3  11   98.99   10.70
  -3  -2  11   83.09    6.60
  -2   5  11   78.99    8.60
   5  -3  11   78.29    9.60
  -2   5  11   80.69    9.60
  -3  -2  11   71.89    9.10
  -3  -2  11   93.29   10.40
   4   1 -11   59.89    7.50
  -5   4 -11   58.39    6.70
  -5   4 -11   68.49    8.80
   1  -5 -11   72.49    8.00
   1  -5 -11   59.49    6.80
  -5   4 -11   68.49    7.20
   4   1 -11   49.00    6.70
  -4  -1  11   65.19    8.70
   5  -4  11   43.30    7.30
   5  -4  11   54.19    7.80
  -1   5  11   49.70    6.40
   5  -4  11   63.39    7.70
  -4  -1  11   54.79    7.70
  -1   5  11   56.29    8.10
  -5   5 -11   57.69    8.80
   0  -5 -11   53.09    6.70
  -5   5 -11   57.09    7.20
   5   0 -11   66.09    7.80
   0  -5 -11   59.39    7.50
   0  -5 -11   52.99    6.90
   5   0 -11   59.09    7.60
  -5   5 -11   62.39    7.20
   5  -5  11   52.09    8.50
   5  -5  11   55.59    7.40
   0   5  11   61.09    7.80
  -5   0  11   57.29    8.50
   0   5  11   51.19    6.00
   0   5  11   46.30    7.90
  -5   0  11   76.79    8.70
   5  -5  11   56.19    7.30
  -5   6 -11   60.39    8.30
  -5   6 -11   52.39    8.20
   6  -1 -11   41.90    6.80
  -5   6 -11   61.89    7.40
  -1  -5 -11   53.39    7.10
   6  -1 -11   61.59    8.10
  -1  -5 -11   47.60    6.80
  -1  -5 -11   42.00    6.20
   5  -6  11   54.09    8.50
  -6   1  11   65.39    8.80
  -6   1  11   56.39    7.90
   1   5  11   67.39    7.50
   1   5  11   49.99    8.30
   5  -6  11   58.59    7.70
   5  -6  11   57.59    8.00
   1   5  11   55.39    7.50
   5  -6 -11   65.79    7.60
  -6   1 -11   42.40    6.90
   1   5 -11   42.70    6.30
   1   5 -11   44.10    7.50
  -6   1 -11   50.69    7.10
   5  -6 -11   53.69    7.40
   1   5 -11   53.79    7.40
  -5   6  11   50.29    7.80
   6  -1  11   53.19    8.90
   6  -1  11   62.89    6.60
   6  -1  11   52.19    8.00
  -1  -5  11   47.60    7.10
  -5   6  11   47.00    6.40
  -1  -5  11   47.30    8.20
  -1  -5  11   60.49    7.50
  -6   2 -11  580.64   26.70
   4  -6 -11  540.75   26.30
   2   4 -11  605.44   25.10
   2   4 -11  578.74   26.10
   4  -6 -11  606.54   25.30
   2   4 -11  556.94   27.20
  -6   2 -11  602.64   26.50
  -2  -4  11  614.34   26.80
   6  -2  11  635.04   28.50
   6  -2  11  574.24   24.20
   6  -2  11  620.64   28.00
  -2  -4  11  587.54   25.10
  -4   6  11  576.74   27.30
  -2  -4  11  618.74   28.30
  -4   6  11  608.34   26.50
   3   3 -11   62.59    6.80
  -6   3 -11   51.89    7.40
   3   3 -11   36.40    6.80
  -6   3 -11   42.20    6.90
   3  -6 -11   46.60    6.10
   3  -6 -11   33.00    5.70
   3   3 -11   40.60    6.30
  -3   6  11   54.89    8.30
  -3  -3  11   44.80    7.40
   6  -3  11   55.79    8.20
  -3  -3  11   46.00    5.90
  -3   6  11   51.09    6.90
   6  -3  11   44.50    7.80
  -3  -3  11   44.40    7.40
  -6   4 -11  583.64   27.70
   4   2 -11  595.14   25.90
  -6   4 -11  629.34   26.80
  -6   4 -11  558.24   23.10
   2  -6 -11  591.74   25.80
   2  -6 -11  574.84   26.60
   2  -6 -11  628.04   23.70
   4   2 -11  559.94   26.70
  -2   6  11  589.94   26.70
  -4  -2  11  645.24   24.80
  -4  -2  11  634.94   28.10
  -2   6  11  564.74   27.60
   6  -4  11  609.64   27.80
  -4  -2  11  595.44   27.40
   6  -4  11  572.54   28.10
   5   1 -11   53.19    7.00
   1  -6 -11   49.50    7.00
   5   1 -11   38.10    6.60
  -6   5 -11   61.49    8.90
   1  -6 -11   58.79    6.00
   1  -6 -11   49.80    6.50
  -6   5 -11   71.39    8.50
  -6   5 -11   59.59    7.20
   6  -5  11   46.60    7.60
   6  -5  11   49.40    7.90
  -5  -1  11   53.49    7.80
  -1   6  11   40.60    8.20
  -5  -1  11   36.90    7.30
  -1   6  11   72.69    8.70
   6  -5  11   53.89    8.70
   0   0 -12  410.56   17.70
   0   0 -12  430.46   20.00
   0   0 -12  425.66   18.50
   0   0  12  412.66   19.50
   0   0  12  403.06   17.60
   0   0  12  420.56   20.90
  -1   0 -12   32.80    4.50
  -1   0 -12   34.60    5.50
  -1   0 -12   45.30    5.80
   1  -1 -12   41.80    6.30
   1  -1 -12   36.20    4.90
   0   1 -12   31.50    5.00
   0   1 -12   47.00    6.30
   0   1 -12   41.20    4.50
   1  -1 -12   37.80    4.70
   0  -1  12   41.80    6.00
   1   0  12   56.99    5.50
   1   0  12   31.70    5.80
   0  -1  12   20.70    4.90
   1   0  12   43.70    6.30
  -1   1  12   41.60    7.00
  -1   1  12   37.50    4.60
  -1   1  12   52.49    6.20
   0  -1  12   33.10    4.20
   1   0  12   37.90    4.70
   0  -1  12   37.40    5.00
   1   0  12   39.90    4.70
  -1   1 -12   38.10    5.10
  -1   1 -12   36.00    6.20
   1   0 -12   44.60    6.50
   0  -1 -12   45.50    5.40
   0  -1 -12   27.90    4.90
   1   0 -12   41.70    5.60
  -1   1 -12   39.30    6.30
   1   0 -12   49.99    5.20
   0  -1 -12   40.10    4.90
  -1   1 -12   37.40    4.70
   0   1  12   30.10    5.30
   1  -1  12   36.60    5.60
   1  -1  12   43.10    4.90
   0   1  12   39.10    6.70
  -1   0  12   43.10    4.80
  -1   0  12   26.60    5.20
  -1   0  12   32.10    6.30
  -1   0  12   34.40    5.30
   0   1  12   51.09    5.70
   1  -1  12   54.29    6.40
   1  -1  12   40.30    6.80
   2  -1 -12   43.50    6.30
  -1   2 -12   46.60    6.80
  -1  -1 -12   30.90    5.20
  -1   2 -12   33.50    5.30
  -1  -1 -12   37.20    5.10
  -1  -1 -12   40.80    7.90
   2  -1 -12   44.60    6.00
  -1   2 -12   43.90    4.90
  -1   2 -12   50.69    6.30
  -1  -1 -12   40.60    4.90
   2  -1 -12   50.89    5.40
   1   1  12   40.00    4.80
   1  -2  12   52.79    5.80
   1   1  12   40.20    5.80
  -2   1  12   35.40    4.70
  -2   1  12   38.40    5.90
   1  -2  12   38.30    6.30
   1  -2  12   44.50    7.10
  -2   1  12   29.20    5.40
  -2   1  12   34.20    6.10
   1  -2  12   41.00    5.10
   1   1  12   36.80    7.10
   1   1  12   41.70    5.10
  -1   3 -12   33.80    5.80
   3  -2 -12   45.80    6.20
  -2  -1 -12   41.40    6.30
  -2  -1 -12   53.49    5.70
   3  -2 -12   46.30    5.50
  -2  -1 -12   38.70    5.10
  -2  -1 -12   44.90    6.10
   3  -2 -12   39.90    5.60
  -1   3 -12   40.90    5.00
  -1   3 -12   30.40    5.90
  -1   3 -12   40.70    6.20
  -3   2  12   39.20    4.90
   1  -3  12   40.40    6.80
   1  -3  12   41.40    6.30
   1  -3  12   38.00    5.90
   2   1  12   46.10    5.30
   1  -3  12   50.29    6.60
   2   1  12   43.60    6.30
  -3   2  12   40.20    6.00
  -3   2  12   37.60    6.90
   2   1  12   31.20    6.40
   2   1  12   46.40    6.10
   2  -2 -12  440.76   18.00
  -2   0 -12  419.16   19.10
   2  -2 -12  421.76   19.10
  -2   0 -12  451.35   20.40
   2  -2 -12  410.36   20.00
  -2   0 -12  422.66   17.90
   0   2 -12  462.25   19.90
  -2   0 -12  424.46   18.90
   0   2 -12  433.66   20.60
   0   2 -12  452.55   17.70
  -2   2  12  398.36   21.00
   2   0  12  384.56   18.70
   0  -2  12  417.16   20.90
  -2   2  12  420.66   18.80
   0  -2  12  403.96   17.90
   2   0  12  429.86   20.20
   0  -2  12  410.66   20.60
  -2   2  12  426.06   19.10
   2   0  12  419.96   21.50
   2   0  12  420.56   17.80
   0  -2  12  423.66   17.70
   0  -2  12  402.36   17.60
  -2   1 -12   35.40    5.60
   1   1 -12   34.70    5.60
   1  -2 -12   34.40    5.20
   1   1 -12   44.30    4.30
  -2   1 -12   49.99    5.70
   1  -2 -12   39.90    4.90
   1   1 -12   38.10    6.30
  -2   1 -12   44.10    5.30
   1  -2 -12   36.00    4.90
  -2   1 -12   49.00    6.30
  -1   2  12   33.70    6.10
   2  -1  12   50.19    4.90
   2  -1  12   40.40    5.20
  -1   2  12   42.40    5.60
  -1  -1  12   33.40    6.20
  -1  -1  12   42.90    4.70
  -1   2  12   36.70    4.80
   2  -1  12   32.20    5.60
  -1  -1  12   40.10    6.40
   2  -1  12   38.40    6.00
   2  -1  12   41.20    6.80
   0  -2 -12  412.86   20.10
   0  -2 -12  433.16   19.00
   2   0 -12  435.86   20.30
  -2   2 -12  441.06   18.90
   2   0 -12  415.16   17.40
  -2   2 -12  430.86   20.90
  -2   2 -12  405.76   18.30
  -2   2 -12  442.46   19.30
   0  -2 -12  422.96   18.60
   2   0 -12  444.56   19.80
   2  -2  12  385.76   19.10
   0   2  12  425.36   19.20
   0   2  12  448.36   22.00
   0   2  12  492.45   19.70
   2  -2  12  418.96   20.90
  -2   0  12  458.65   21.90
   2  -2  12  439.86   21.40
  -2   0  12  444.66   20.50
   2  -2  12  454.35   19.10
  -2   0  12  402.26   17.80
  -1  -2 -12   37.50    5.10
  -2   3 -12   58.29    6.70
  -1  -2 -12   42.20    6.40
  -2   3 -12   34.40    5.60
   3  -1 -12   37.20    4.20
  -1  -2 -12   28.30    6.80
   3  -1 -12   46.00    6.60
  -1  -2 -12   38.20    4.70
  -2   3 -12   62.49    7.10
   3  -1 -12   46.40    6.30
  -2   3 -12   45.60    6.10
   1   2  12   67.09    7.30
   2  -3  12   53.39    7.60
   2  -3  12   35.70    5.40
  -3   1  12   57.39    7.90
  -3   1  12   28.90    6.00
   1   2  12   45.60    8.10
  -3   1  12   45.60    5.00
   2  -3  12   49.90    7.40
   1   2  12   43.30    5.80
   1   2  12   36.40    5.50
   4  -2 -12  473.85   22.70
  -2   4 -12  536.25   23.60
  -2  -2 -12  509.05   20.50
  -2   4 -12  535.45   24.60
  -2   4 -12  503.25   22.70
   4  -2 -12  501.05   23.30
  -2   4 -12  500.05   21.70
  -2  -2 -12  533.25   23.60
  -2   4 -12  495.85   19.90
  -2  -2 -12  516.75   22.70
   4  -2 -12  514.65   20.30
   2   2  12  527.55   22.40
   2  -4  12  532.75   24.20
  -4   2  12  511.35   22.30
  -4   2  12  520.15   24.80
   2   2  12  527.75   25.90
  -4   2  12  483.35   22.60
   2  -4  12  496.85   24.70
   2  -4  12  536.05   22.80
   2   2  12  512.25   22.80
   5  -3 -12   46.50    6.80
  -2   5 -12   56.39    5.70
  -2   5 -12   52.89    7.70
  -3  -2 -12   48.50    6.50
   5  -3 -12   46.70    6.30
   5  -3 -12   49.40    5.10
  -3  -2 -12   57.59    7.40
  -2   5 -12   62.29    9.00
   2  -5  12   66.69    8.10
  -5   3  12   70.69    9.00
  -5   3  12   44.50    6.40
   3   2  12   50.39    7.40
   3   2  12   40.20    7.90
  -5   3  12   56.89    8.30
   3   2  12   55.99    7.00
   2  -5  12   62.99    7.70
   2  -5  12   44.00    7.40
  -1   4 -12   51.99    7.30
  -3  -1 -12   53.09    5.10
  -3  -1 -12   57.79    6.80
  -3  -1 -12   53.39    6.30
  -1   4 -12   46.80    6.90
  -1   4 -12   54.19    6.00
   4  -3 -12   52.49    7.20
   4  -3 -12   36.70    5.70
   4  -3 -12   38.10    4.90
  -1   4 -12   52.39    5.60
  -3  -1 -12   42.50    6.60
   3   1  12   50.69    7.10
   1  -4  12   53.59    7.60
  -4   3  12   36.50    5.50
   1  -4  12   50.69    6.30
   1  -4  12   53.19    8.50
  -4   3  12   62.59    8.40
  -4   3  12   52.69    6.40
   3   1  12   51.19    5.90
   3   1  12   40.90    7.30
   0   3 -12   55.39    7.40
  -3   0 -12   63.69    7.20
   3  -3 -12   57.49    7.20
  -3   0 -12   61.29    7.30
   3  -3 -12   56.99    7.10
  -3   0 -12   50.29    7.00
   3  -3 -12   42.50    6.20
   3  -3 -12   61.09    6.50
  -3   0 -12   61.99    5.70
   0   3 -12   70.29    8.30
   0   3 -12   51.99    6.00
   0  -3  12   46.10    6.20
   0  -3  12   78.39    7.20
  -3   3  12   51.69    7.40
   3   0  12   67.19    6.60
   0  -3  12   54.19    7.50
   0  -3  12   52.39    7.20
  -3   3  12   69.59    7.50
   3   0  12   55.39    7.50
   0  -3  12   72.69    7.00
   3   0  12   40.30    7.40
  -3   3  12   64.59    7.10
  -3   1 -12   35.80    5.30
   1   2 -12   30.40    5.30
  -3   1 -12   50.39    6.10
   1   2 -12   44.70    4.30
  -3   1 -12   64.29    7.70
  -3   1 -12   37.40    6.00
   2  -3 -12   36.90    6.20
   2  -3 -12   34.30    5.10
   1   2 -12   52.69    7.00
   2  -3 -12   45.90    5.40
   2  -3 -12   42.90    6.40
  -3   1 -12   46.60    5.30
   3  -1  12   36.40    6.00
   3  -1  12   43.80    4.90
  -1  -2  12   45.30    4.50
  -1  -2  12   39.60    6.40
  -2   3  12   41.10    7.00
  -1  -2  12   42.20    4.40
  -1  -2  12   49.30    7.50
  -1  -2  12   40.40    4.50
  -2   3  12   45.90    5.40
   3  -1  12   42.70    7.50
  -2   3  12   45.00    5.80
   1  -3 -12   37.40    5.90
   2   1 -12   30.40    5.20
   1  -3 -12   36.60    5.20
  -3   2 -12   46.70    5.00
   1  -3 -12   59.89    6.60
   2   1 -12   36.40    5.50
  -3   2 -12   51.39    5.70
   2   1 -12   44.80    4.50
  -3   2 -12   45.00    5.50
  -3   2 -12   34.10    6.20
  -2  -1  12   37.00    6.30
  -1   3  12   50.19    5.50
   3  -2  12   35.80    6.20
   3  -2  12   31.30    6.40
  -2  -1  12   47.50    7.30
  -2  -1  12   49.10    5.20
  -1   3  12   37.10    6.50
  -1   3  12   49.70    6.30
   3  -2  12   40.60    5.60
   3   0 -12   44.10    5.90
   0  -3 -12   54.59    7.30
  -3   3 -12   53.59    6.20
  -3   3 -12   70.89    9.00
  -3   3 -12   71.79    7.90
  -3   3 -12   66.59    5.70
   3   0 -12   64.89    7.60
   0  -3 -12   58.49    6.60
   0  -3 -12   47.40    5.90
   3   0 -12   58.99    4.60
   3  -3  12   70.59    8.40
   0   3  12   56.69    7.20
   3  -3  12   58.99    8.10
  -3   0  12   61.69    8.20
   0   3  12   78.49    9.80
   0   3  12   49.50    6.30
  -3   0  12   60.09    7.70
   3  -3  12   53.59    7.90
   0   3  12   57.99    6.90
   4  -1 -12   49.70    4.70
   4  -1 -12   45.90    6.60
  -3   4 -12   39.70    6.90
   4  -1 -12   36.10    5.80
  -1  -3 -12   54.09    6.10
  -3   4 -12   54.59    7.40
  -1  -3 -12   43.90    5.90
  -3   4 -12   53.09    6.30
  -1  -3 -12   37.70    6.30
   1   3  12   53.39    8.50
  -4   1  12   40.30    6.60
   1   3  12   53.99    6.40
   3  -4  12   53.89    6.80
   3  -4  12   67.09    9.00
   3  -4  12   40.30    7.20
   1   3  12   44.20    6.10
  -4   1  12   38.40    6.70
  -2  -3 -12   57.49    6.50
  -3   5 -12   53.79    8.50
  -3   5 -12   65.39    7.00
  -2  -3 -12   57.09    6.10
   5  -2 -12   47.70    6.90
   5  -2 -12   49.00    6.50
  -2  -3 -12   53.49    6.50
   5  -2 -12   58.49    5.70
  -2  -3 -12   56.69    7.20
  -3   5 -12   56.29    8.00
  -5   2  12   58.99    8.30
   2   3  12   42.20    8.30
   2   3  12   53.99    7.00
   2   3  12   62.39    7.10
  -5   2  12   53.49    7.60
   3  -5  12   42.30    7.10
   3  -5  12   48.40    7.20
   3  -5  12   54.79    7.50
  -1   5 -12   58.29    8.30
  -4  -1 -12   60.89    7.70
   5  -4 -12   51.39    7.40
   5  -4 -12   56.09    5.90
  -4  -1 -12   51.59    6.90
  -1   5 -12   60.49    8.30
  -1   5 -12   53.39    5.50
   5  -4 -12   70.99    8.60
   4   1  12   57.29    7.90
   1  -5  12   53.39    7.30
  -5   4  12   60.49    7.80
   1  -5  12   59.19    7.70
   1  -5  12   46.20    8.00
   4   1  12   42.30    8.20
   4   1  12   73.59    8.00
  -5   4  12   52.39    8.30
  -5   4  12   60.29    7.30
   4  -4 -12  496.95   23.40
  -4   0 -12  510.25   22.80
   0   4 -12  503.15   20.90
  -4   0 -12  522.05   23.80
   0   4 -12  499.85   23.80
   0   4 -12  489.75   23.70
   4  -4 -12  527.65   21.50
   0  -4  12  483.15   23.50
   0  -4  12  518.35   24.70
  -4   4  12  495.45   24.80
   0  -4  12  524.95   22.00
   4   0  12  489.25   25.20
  -4   4  12  490.05   22.60
   4   0  12  473.15   20.80
   4   0  12  503.55   23.80
  -4   4  12  499.55   20.80
  -4   1 -12   47.70    5.90
   1   3 -12   45.70    6.70
  -4   1 -12   46.50    4.60
  -4   1 -12   39.30    5.80
   1   3 -12   44.50    6.50
  -4   1 -12   40.20    6.50
   3  -4 -12   37.60    6.20
   3  -4 -12   38.20    5.00
   4  -1  12   43.30    7.50
   4  -1  12   48.40    4.70
  -3   4  12   45.20    7.50
   4  -1  12   45.80    7.10
  -1  -3  12   52.59    7.70
  -1  -3  12   55.19    6.80
  -1  -3  12   49.00    5.70
  -1  -3  12   58.49    7.80
  -3   4  12   42.40    5.70
  -3   4  12   49.10    6.30
  -4   2 -12  565.44   22.90
   2  -4 -12  497.35   23.30
  -4   2 -12  496.15   19.90
  -4   2 -12  512.65   23.90
   2   2 -12  476.05   23.00
   2   2 -12  514.55   23.40
  -4   2 -12  494.25   21.00
   2  -4 -12  526.45   22.10
  -2  -2  12  488.45   19.70
   4  -2  12  478.75   19.20
  -2  -2  12  490.25   20.00
  -2  -2  12  516.85   24.10
  -2   4  12  537.35   22.90
  -2  -2  12  539.85   24.50
   4  -2  12  495.45   24.50
  -2   4  12  464.55   20.50
  -2   4  12  506.85   24.90
   4  -2  12  532.35   24.50
   1  -4 -12   35.70    5.80
   3   1 -12   53.39    7.10
  -4   3 -12   55.59    6.20
   3   1 -12   49.40    7.00
  -4   3 -12   55.99    7.80
  -4   3 -12   42.00    6.20
   1  -4 -12   63.29    7.30
  -1   4  12   48.80    6.30
  -1   4  12   46.50    6.40
   4  -3  12   46.20    7.60
   4  -3  12   51.59    7.00
  -3  -1  12   65.59    8.30
  -3  -1  12   42.30    6.70
   4  -3  12   33.60    6.40
  -1   4  12   34.80    7.30
   4   0 -12  499.15   22.80
  -4   4 -12  509.55   22.30
  -4   4 -12  487.25   24.10
   4   0 -12  480.35   22.60
  -4   4 -12  500.65   22.00
   0  -4 -12  505.25   22.30
   0  -4 -12  457.35   22.70
   0  -4 -12  498.25   20.50
   4  -4  12  476.35   24.40
   0   4  12  480.35   25.00
  -4   0  12  519.35   23.80
   4  -4  12  537.05   23.50
   4  -4  12  492.45   23.70
   0   4  12  477.15   22.60
  -4   0  12  501.75   24.30
   0   4  12  492.25   20.70
  -4   5 -12   51.09    7.50
  -4   5 -12   73.29    9.70
  -1  -4 -12   46.90    6.70
  -1  -4 -12   59.19    7.40
  -1  -4 -12   70.59    7.70
   5  -1 -12   52.99    7.10
  -4   5 -12   59.59    7.40
   5  -1 -12   52.09    7.50
   4  -5  12   64.69    8.40
  -5   1  12   53.89    8.70
   1   4  12   44.90    6.20
   4  -5  12   68.59    9.70
   1   4  12   53.99    9.70
   4  -5  12   61.79    7.80
  -5   1  12   54.59    7.80
   1   4  12   52.39    7.10
   0   5 -12   16.40    6.30
  -5   0 -12   21.80    5.80
  -5   0 -12   17.30    5.10
   5  -5 -12   17.80    5.70
   0   5 -12   22.40    5.00
   5  -5 -12   14.50    4.70
   0   5 -12   26.00    6.90
  -5   5  12   20.80    6.00
   0  -5  12   21.50    6.50
   0  -5  12   26.00    5.60
   5   0  12   24.60    6.00
   5   0  12    9.80    6.10
   0  -5  12   18.80    6.50
  -5   5  12    9.80    4.90
   5   0  12   24.10    5.30
   1   4 -12   36.40    6.90
  -5   1 -12   53.69    7.00
   4  -5 -12   69.89    7.80
   1   4 -12   50.89    6.20
  -5   1 -12   71.69    9.40
   4  -5 -12   54.99    7.50
   1   4 -12   60.69    8.00
  -1  -4  12   56.39    8.10
  -1  -4  12   54.49    8.40
   5  -1  12   74.79    6.40
  -4   5  12   43.30    7.40
   5  -1  12   39.60    7.70
  -4   5  12   61.89    7.50
  -1  -4  12   46.80    6.30
   5  -1  12   51.79    7.90
  -5   2 -12   46.10    7.20
   2   3 -12   59.99    6.60
  -5   2 -12   54.79    6.70
   3  -5 -12   52.09    6.60
   2   3 -12   54.49    7.90
   3  -5 -12   45.30    6.70
   2   3 -12   58.49    8.30
  -3   5  12   60.99    7.70
  -2  -3  12   57.39    8.40
   5  -2  12   56.19    8.50
   5  -2  12   54.59    5.30
  -2  -3  12   65.09    9.20
   5  -2  12   46.30    7.80
  -3   5  12   41.20    7.20
  -2  -3  12   76.49    7.20
  -5   3 -12   54.39    8.20
   3   2 -12   64.99    8.70
  -5   3 -12   57.59    6.40
  -5   3 -12   54.09    7.10
   3   2 -12   43.10    6.70
   2  -5 -12   52.09    7.30
   2  -5 -12   47.30    6.30
   5  -3  12   49.10    8.10
  -3  -2  12   64.89    8.40
  -2   5  12   54.29    6.90
  -3  -2  12   49.80    7.60
  -2   5  12   53.59    8.60
  -3  -2  12   47.10    5.60
   5  -3  12   62.69    9.00
  -5   4 -12   53.09    7.20
   1  -5 -12   51.89    6.70
   1  -5 -12   65.19    8.10
  -5   4 -12   60.69    9.10
   4   1 -12   60.29    7.90
   4   1 -12   65.89    7.70
   1  -5 -12   45.80    6.70
  -5   4 -12   56.69    6.40
   5  -4  12   49.00    7.90
  -1   5  12   53.29    7.00
  -4  -1  12   68.39    9.20
   5  -4  12   41.70    7.90
  -1   5  12   60.19    8.30
  -4  -1  12   59.79    8.30
   5  -4  12   56.19    7.90
  -5   5 -12   12.90    6.20
   0  -5 -12   29.10    5.70
  -5   5 -12   17.90    5.70
   5   0 -12   23.00    6.20
  -5   5 -12   27.20    6.40
   0  -5 -12   27.60    5.10
   5   0 -12   20.60    5.50
   0  -5 -12   24.70    5.50
  -5   0  12   24.00    6.80
   5  -5  12   29.50    6.40
   0   5  12   27.40    5.60
   5  -5  12   13.00    6.10
   0   5  12   20.30    6.80
   5  -5  12   27.40    7.60
  -5   0  12   16.50    6.20
   0   5  12   27.30    6.00
   0   0 -13  400.26   19.40
   0   0 -13  380.46   17.10
   0   0 -13  388.56   17.80
   0   0  13  358.26   20.30
   0   0  13  391.36   19.20
   0   0  13  381.06   16.90
   0   1 -13   43.70    6.90
  -1   0 -13   40.80    6.80
   1  -1 -13   32.70    4.70
  -1   0 -13   37.20    4.90
   0   1 -13   33.50    4.60
   1  -1 -13   27.90    5.90
   1  -1 -13   40.30    5.60
  -1   0 -13   30.10    5.10
   0   1 -13   36.40    5.70
   0  -1  13   33.30    6.20
  -1   1  13   37.20    5.30
   1   0  13   54.39    6.00
  -1   1  13   29.10    5.60
   0  -1  13   39.40    4.00
   0  -1  13   38.10    6.80
   1   0  13   41.80    6.70
   1   0  13   37.40    7.10
  -1   1  13   31.30    6.50
   1   0  13   36.90    4.90
   1   0  13   38.60    4.70
  -1   1 -13   33.10    5.20
   0  -1 -13   33.20    4.80
  -1   1 -13   43.30    6.10
   1   0 -13   36.40    5.80
  -1   1 -13   22.20    5.30
   1   0 -13   40.20    4.60
   1   0 -13   39.00    5.80
   0  -1 -13   33.50    6.10
   0  -1 -13   38.60    5.20
  -1   0  13   29.20    6.30
   0   1  13   34.10    4.90
   1  -1  13   38.50    6.80
   1  -1  13   23.80    5.30
   0   1  13   27.00    5.90
   1  -1  13   28.10    6.10
   0   1  13   49.00    6.70
   1  -1  13   37.30    5.40
  -1   0  13   30.60    6.30
   2  -1 -13   38.10    4.60
   2  -1 -13   33.10    5.60
  -1   2 -13   38.20    5.00
  -1  -1 -13   28.70    6.00
   2  -1 -13   20.30    4.90
  -1  -1 -13   40.20    5.60
  -1  -1 -13   30.30    4.90
  -1   2 -13   37.90    6.60
  -1   2 -13   33.80    5.70
   1  -2  13   24.70    6.40
   1   1  13   37.40    5.20
  -2   1  13   30.40    6.20
   1  -2  13   23.30    6.10
   1   1  13   24.50    6.30
  -2   1  13   40.10    5.50
   1   1  13   22.70    5.30
   1  -2  13   36.30    4.70
  -2   1  13   39.10    7.40
  -1   3 -13   31.70    6.60
   3  -2 -13   26.90    6.10
   3  -2 -13   29.80    4.40
  -2  -1 -13   32.10    6.50
  -2  -1 -13   38.40    4.90
  -1   3 -13   33.70    6.70
   3  -2 -13   25.40    5.60
  -2  -1 -13   28.20    5.00
  -1   3 -13   26.90    4.90
   2   1  13   23.90    4.90
   2   1  13   39.60    7.80
   2   1  13   34.10    6.50
  -3   2  13   35.70    7.40
  -3   2  13   37.60    6.00
  -3   2  13   28.80    5.10
   1  -3  13   28.00    6.10
   1  -3  13   37.40    5.50
   1  -3  13   34.20    6.60
   2  -2 -13  329.37   15.50
   0   2 -13  350.06   15.30
  -2   0 -13  345.67   18.10
   0   2 -13  338.87   18.10
   2  -2 -13  334.07   17.70
  -2   0 -13  352.86   16.70
  -2   0 -13  335.27   15.50
   2  -2 -13  325.97   16.60
   0   2 -13  349.37   17.50
  -2   2  13  347.37   19.20
   2   0  13  362.86   18.20
  -2   2  13  340.57   17.00
   0  -2  13  325.57   18.50
   2   0  13  327.37   15.30
   0  -2  13  309.67   14.70
   2   0  13  338.07   19.40
   0  -2  13  329.67   18.50
  -2   2  13  335.57   16.30
   1  -2 -13   39.50    5.50
   1  -2 -13   41.00    5.10
   1  -2 -13   36.40    6.20
  -2   1 -13   35.90    5.40
   1   1 -13   31.10    4.30
  -2   1 -13   29.20    5.60
   1   1 -13   37.80    6.70
  -2   1 -13   38.80    5.50
   1   1 -13   26.50    5.60
   2  -1  13   39.90    4.50
  -1  -1  13   32.10    6.20
   2  -1  13   43.40    7.00
  -1  -1  13   34.30    6.80
  -1   2  13   39.60    5.90
  -1   2  13   34.80    5.30
   2  -1  13   35.20    5.50
  -1   2  13   29.40    6.70
   2  -1  13   27.80    6.40
  -2   2 -13  328.07   16.90
   2   0 -13  332.37   14.60
  -2   2 -13  375.66   16.60
   2   0 -13  324.97   17.70
   0  -2 -13  336.87   16.30
  -2   2 -13  332.47   18.40
   0  -2 -13  359.76   18.10
   0  -2 -13  356.56   16.20
   2   0 -13  339.97   17.20
   2  -2  13  334.57   18.60
   2  -2  13  327.57   18.70
   0   2  13  318.07   16.20
  -2   0  13  340.07   18.30
  -2   0  13  335.07   19.10
   2  -2  13  358.76   16.20
   0   2  13  334.67   19.60
   0   2  13  340.57   16.90
   3  -1 -13   27.60    4.00
  -2   3 -13   22.40    5.60
  -1  -2 -13   35.20    5.00
  -1  -2 -13   22.00    5.40
   3  -1 -13   21.30    4.80
  -2   3 -13   32.10    5.10
   3  -1 -13   24.20    5.30
  -2   3 -13   39.90    6.20
  -1  -2 -13   31.20    5.20
  -3   1  13   33.90    6.50
   1   2  13   27.30    5.90
   2  -3  13   23.50    5.00
   2  -3  13   29.90    6.10
   2  -3  13   25.30    6.20
  -3   1  13   31.90    6.40
   1   2  13   31.70    5.40
   1   2  13   34.60    8.10
   4  -2 -13  336.37   18.00
  -2  -2 -13  345.97   17.50
  -2   4 -13  335.27   19.40
   4  -2 -13  336.17   15.10
  -2  -2 -13  347.07   15.30
   4  -2 -13  343.17   18.40
  -2   4 -13  366.76   16.90
  -2  -2 -13  341.27   18.40
  -2   4 -13  347.97   18.80
   2   2  13  365.06   17.40
  -4   2  13  361.16   20.00
   2  -4  13  361.16   17.50
   2   2  13  323.97   20.40
   2   2  13  336.07   18.00
   2  -4  13  362.46   19.30
  -4   2  13  346.27   18.10
   2  -4  13  348.47   20.10
  -1   4 -13   46.40    7.30
  -3  -1 -13   28.10    6.10
  -3  -1 -13   36.90    4.20
   4  -3 -13   35.00    4.90
   4  -3 -13   40.00    7.20
  -1   4 -13   36.80    5.40
   4  -3 -13   18.30    5.40
  -3  -1 -13   32.20    5.90
  -1   4 -13   44.40    5.20
  -1   4 -13   28.10    6.80
   1  -4  13   34.90    6.00
  -4   3  13   32.50    5.80
   1  -4  13   29.50    6.90
   3   1  13   38.60    7.10
   3   1  13   39.10    8.10
  -4   3  13   34.70    7.30
   3   1  13   26.10    5.10
   1  -4  13   31.30    7.70
  -4   3  13   28.00    5.80
   3  -3 -13   35.30    6.90
   3  -3 -13   30.80    5.70
   3  -3 -13   43.60    5.30
  -3   0 -13   36.80    6.00
   0   3 -13   47.40    5.20
   0   3 -13   35.70    6.90
   0   3 -13   44.80    6.90
  -3   0 -13   39.90    5.80
  -3   0 -13   38.70    6.70
   3   0  13   31.70    6.80
   0  -3  13   55.09    8.50
  -3   3  13   39.00    7.50
   3   0  13   52.19    8.80
  -3   3  13   36.40    5.70
   0  -3  13   43.30    7.80
   0  -3  13   44.40    5.30
   3   0  13   38.40    5.20
  -3   3  13   24.40    5.00
   1   2 -13   21.90    5.30
  -3   1 -13   28.10    5.20
   2  -3 -13   32.70    5.00
  -3   1 -13   42.70    5.30
  -3   1 -13   29.80    6.60
   2  -3 -13   36.20    5.90
   1   2 -13   26.90    6.10
   2  -3 -13   29.00    5.80
   1   2 -13   31.40    4.40
  -2   3  13   21.80    5.40
   3  -1  13   35.00    4.20
  -2   3  13   26.00    5.20
  -1  -2  13   43.80    7.60
  -1  -2  13   31.00    3.90
  -2   3  13   25.70    5.90
   3  -1  13   25.20    6.30
  -1  -2  13   25.80    6.50
   3  -1  13   26.40    6.90
   2   1 -13   28.10    6.10
   1  -3 -13   26.40    5.20
   2   1 -13   13.00    5.00
  -3   2 -13   34.30    5.70
  -3   2 -13   32.70    5.60
   1  -3 -13   25.20    5.50
   1  -3 -13   28.30    5.20
  -3   2 -13   15.30    5.10
   2   1 -13   32.60    3.90
  -1   3  13   35.20    5.50
  -2  -1  13   32.70    6.90
  -1   3  13   30.80    5.40
  -2  -1  13   35.50    6.80
   3  -2  13   20.00    6.00
  -1   3  13   45.30    7.50
   3  -2  13   30.40    7.10
   3  -2  13   25.20    5.30
   0  -3 -13   32.20    5.90
   3   0 -13   31.50    6.00
  -3   3 -13   58.19    7.00
  -3   3 -13   38.10    7.00
  -3   3 -13   55.19    6.60
   3   0 -13   41.10    3.90
   0  -3 -13   36.50    5.60
   0  -3 -13   34.80    5.60
   3   0 -13   36.00    6.30
   3  -3  13   38.90    6.10
  -3   0  13   45.40    7.70
   0   3  13   40.00    6.00
   0   3  13   47.10    6.20
   0   3  13   41.00    7.90
   3  -3  13   42.20    7.50
  -3   0  13   43.40    7.60
   3  -3  13   42.80    7.10
  -3   4 -13   35.80    7.00
  -3   4 -13   30.50    6.10
   4  -1 -13   32.10    6.00
   4  -1 -13   32.80    3.70
   4  -1 -13   33.30    6.30
  -1  -3 -13   27.40    5.30
  -3   4 -13   45.80    8.20
  -1  -3 -13   28.30    6.10
  -1  -3 -13   38.20    5.10
   3  -4  13   32.20    6.30
  -4   1  13   37.30    7.80
   1   3  13   34.20    6.10
   3  -4  13   26.80    6.90
   1   3  13   31.30    5.90
   3  -4  13   34.50    7.90
   1   3  13   30.20    7.60
  -4   1  13   34.50    7.10
   0   4 -13  353.06   18.90
   4  -4 -13  295.27   17.60
  -4   0 -13  327.87   18.40
   0  -4  13  328.27   18.50
   4   0  13  334.47   20.20
  -4   4  13  316.37   19.60
   3  -4 -13   27.90    5.90
  -4   1 -13   36.50    6.10
   1   3 -13   21.40    6.20
  -4   1 -13   33.50    6.90
  -4   1 -13   24.90    4.90
   3  -4 -13   30.90    6.70
   3  -4 -13   28.60    5.30
   1   3 -13   28.30    6.60
   4  -1  13   40.60    7.60
   4  -1  13   37.50    8.10
  -3   4  13   29.90    7.90
  -1  -3  13   34.20    5.00
  -3   4  13   37.70    6.30
  -1  -3  13   28.80    6.60
  -3   4  13   22.40    4.80
  -1  -3  13   36.40    7.50
   4  -1  13   38.20    4.60
   2  -4 -13  336.87   18.80
  -4   2 -13  338.67   16.10
   2   2 -13  344.37   18.80
   2   2 -13  362.26   19.00
   2  -4 -13  353.66   17.20
   2  -4 -13  367.46   17.60
  -4   2 -13  357.36   18.10
  -4   2 -13  365.46   19.70
   4  -2  13  357.06   20.30
   4  -2  13  378.76   18.90
   4  -2  13  341.37   20.30
  -2  -2  13  355.06   20.00
  -2   4  13  360.06   16.20
  -2   4  13  355.66   20.50
  -2   4  13  344.27   17.90
  -2  -2  13  354.76   19.70
  -4   3 -13   37.70    7.60
  -4   3 -13   36.70    6.00
   3   1 -13   19.80    6.00
   1  -4 -13   32.60    5.80
   1  -4 -13   48.20    7.40
   1  -4 -13   30.90    5.80
   3   1 -13   34.60    6.00
  -4   3 -13   28.60    6.10
   4  -3  13   31.60    7.60
   4  -3  13   17.80    7.00
  -1   4  13   27.80    5.80
  -1   4  13   38.80    5.30
  -1   4  13   23.50    7.40
  -3  -1  13   35.00    7.90
  -3  -1  13   29.70    6.60
   4  -3  13   25.90    6.60
  -4   4 -13  337.07   19.70
   0  -4 -13  326.27   17.90
   4   0 -13  324.17   17.80
   0   4  13  336.17   20.60
   4  -4  13  321.47   18.90
  -4   0  13  338.87   19.80
   0   0 -14  401.96   21.10
   0   0 -14  387.46   19.30
   0   0 -14  421.66   18.50
   0   0  14  421.26   22.20
   0   0  14  413.86   20.90
   0   0  14  395.46   18.10
   0   1 -14   25.60    6.10
  -1   0 -14   34.10    6.60
   0   1 -14   42.70    5.40
   1  -1 -14   31.80    5.00
   0   1 -14   33.70    6.30
   1  -1 -14   34.70    7.30
   1  -1 -14   47.10    6.60
  -1   0 -14   38.10    6.10
  -1   0 -14   27.00    5.30
   0  -1  14   42.70    7.30
   1   0  14   29.90    7.40
  -1   1  14   41.40    8.00
  -1   1  14   38.20    6.90
   1   0  14   29.30    4.90
  -1   1  14   33.00    5.20
   1   0  14   30.90    6.70
   0  -1  14   44.90    8.10
   1   0  14   33.90    4.50
   1   0 -14   30.50    4.70
   0  -1 -14   32.30    6.40
   1   0 -14   39.70    6.50
   0  -1 -14   36.40    5.50
  -1   1 -14   30.10    6.10
   1   0 -14   34.00    6.30
   0  -1 -14   32.20    5.80
  -1   1 -14   26.00    5.30
  -1   1 -14   24.00    6.20
   0   1  14   27.90    5.10
   0   1  14   30.00    7.80
   1  -1  14   47.60    8.50
  -1   0  14   23.00    7.40
   1  -1  14   34.80    6.90
   0   1  14   24.50    6.40
  -1   0  14   32.10    7.20
  -1  -1 -14   36.80    5.70
  -1   2 -14   22.70    6.00
  -1   2 -14   27.50    6.30
  -1  -1 -14   31.50    5.60
  -1  -1 -14   28.40    7.00
   2  -1 -14   30.30    4.70
  -1   2 -14   35.50    5.40
   2  -1 -14   22.00    5.50
   2  -1 -14   27.30    5.60
   1   1  14   32.30    6.60
  -2   1  14   35.90    7.30
   1   1  14   28.00    5.50
   1  -2  14   29.40    7.60
   1  -2  14   39.90    5.10
  -2   1  14   35.10    7.40
   1   1  14   31.40    4.60
   1  -2  14   30.00    7.40
   1   1  14   40.40    8.30
  -2   1  14   23.90    5.10
   0   2 -14  303.97   16.60
  -2   0 -14  271.37   14.50
   0   2 -14  293.87   14.30
   2  -2 -14  267.77   14.30
  -2   0 -14  280.37   16.90
  -2   0 -14  294.77   15.50
   0   2 -14  283.87   17.10
   2  -2 -14  296.77   16.90
   2  -2 -14  303.27   15.70
  -2   2  14  276.47   15.00
   2   0  14  271.97   18.30
   2   0  14  281.47   13.90
   2   0  14  320.97   17.30
   0  -2  14  268.37   17.50
   2   0  14  296.07   14.90
   0  -2  14  259.17   17.40
  -2   2  14  272.77   16.10
  -2   2  14  286.57   18.50
   0  -2  14  255.77   12.70
   1  -2 -14   33.40    5.80
   1  -2 -14   31.00    5.20
   1   1 -14   28.20    6.30
   1   1 -14   26.00    5.90
   1   1 -14   36.10    5.20
  -2   1 -14   41.30    6.20
  -2   1 -14   31.00    5.60
  -2   1 -14   26.20    6.30
   1  -2 -14   25.90    6.10
   2  -1  14   33.50    4.80
  -1  -1  14   26.30    6.50
   2  -1  14   34.10    5.90
  -1   2  14   35.10    5.90
  -1   2  14   35.90    6.70
  -1   2  14   31.40    7.40
  -1  -1  14   33.00    7.20
   2  -1  14   37.90    7.40
   2  -1  14   34.50    6.80
   2   0 -14  277.37   13.10
   2   0 -14  290.27   16.50
   2   0 -14  283.67   15.90
   0  -2 -14  265.47   14.70
   0  -2 -14  287.67   15.10
  -2   2 -14  287.57   17.40
  -2   2 -14  262.17   15.60
  -2   2 -14  282.67   15.20
   0  -2 -14  264.37   16.50
  -2   0  14  280.97   17.30
  -2   0  14  267.27   18.00
   0   2  14  298.67   15.20
   0   2  14  289.77   15.90
   0   2  14  291.97   18.70
   2  -2  14  265.57   14.40
   2  -2  14  284.87   17.80
   2  -2  14  270.57   17.90
   0   0   0    0.00    0.00

_computing_structure_solution     'SHELXT 2014/5 (Sheldrick, 2014)'
;
_shelx_hkl_checksum              85812
_shelx_fab_file
;
    0    1    0     35.33      0.00
   -1    2    0     11.38      0.00
   -1    3    0     -5.66      0.00
    0    3    0     -8.82      0.00
   -1    4    0     -6.06      0.00
   -2    4    0     -1.93      0.00
    0    4    0     -7.78      0.00
   -1    5    0     -3.41      0.00
   -2    5    0      1.22      0.00
    0    5    0     -5.19      0.00
   -1    6    0     -2.23      0.00
   -2    6    0      1.64      0.00
   -3    6    0      4.62      0.00
    0    6    0     -3.49      0.00
   -1    7    0     -2.62      0.00
   -2    7    0      0.59      0.00
   -3    7    0      4.28      0.00
    0    7    0     -2.64      0.00
   -1    8    0     -1.63      0.00
   -2    8    0     -1.10      0.00
   -3    8    0      1.37      0.00
   -4    8    0      2.96      0.00
    0    8    0     -0.81      0.00
   -1    9    0     -0.03      0.00
   -2    9    0     -1.13      0.00
   -3    9    0     -0.60      0.00
   -4    9    0      0.14      0.00
    0    9    0      0.96      0.00
   -3   10    0     -0.67      0.00
   -4   10    0     -0.64      0.00
   -5   10    0     -0.48      0.00
    0    1    1     24.00      0.00
   -1    2    1      4.40      0.00
   -1    3    1     -8.25      0.00
    0    2    1     -3.57      0.00
   -2    4    1     -2.57      0.00
   -2    5    1      1.87      0.00
   -1    4    1     -6.10      0.00
    0    3    1    -10.11      0.00
   -3    6    1      5.60      0.00
   -3    7    1      5.18      0.00
   -2    6    1      2.84      0.00
   -1    5    1     -2.19      0.00
    0    4    1     -6.97      0.00
   -4    8    1      3.54      0.00
   -4    9    1      0.46      0.00
   -3    8    1      2.01      0.00
   -2    7    1      1.67      0.00
   -1    6    1     -0.80      0.00
    0    5    1     -3.64      0.00
   -5   10    1     -0.36      0.00
   -4   10    1     -0.56      0.00
   -3    9    1     -0.28      0.00
   -2    8    1     -0.38      0.00
   -1    7    1     -1.49      0.00
    0    6    1     -2.10      0.00
   -3   10    1     -0.63      0.00
   -2    9    1     -0.83      0.00
   -1    8    1     -1.00      0.00
    0    7    1     -1.71      0.00
   -1    9    1      0.14      0.00
    0    8    1     -0.39      0.00
    0    9    1      0.98      0.00
    0    1    2      9.50      0.00
   -1    2    2     -2.51      0.00
   -1    3    2     -9.06      0.00
    0    2    2     -7.80      0.00
   -2    4    2     -2.36      0.00
   -2    5    2      2.61      0.00
   -1    4    2     -4.90      0.00
    0    3    2     -9.38      0.00
   -3    6    2      6.07      0.00
   -3    7    2      5.32      0.00
   -2    6    2      3.76      0.00
   -1    5    2     -0.47      0.00
    0    4    2     -4.87      0.00
   -4    8    2      3.34      0.00
   -4    9    2      0.33      0.00
   -3    8    2      2.03      0.00
   -2    7    2      2.33      0.00
   -1    6    2      0.63      0.00
    0    5    2     -1.61      0.00
   -5   10    2     -0.35      0.00
   -4   10    2     -0.63      0.00
   -3    9    2     -0.29      0.00
   -2    8    2      0.06      0.00
   -1    7    2     -0.49      0.00
    0    6    2     -0.72      0.00
   -3   10    2     -0.72      0.00
   -2    9    2     -0.64      0.00
   -1    8    2     -0.40      0.00
    0    7    2     -0.82      0.00
   -1    9    2      0.28      0.00
    0    8    2      0.06      0.00
    0    9    2      0.95      0.00
    0    0    3     19.01      0.00
    0    1    3      9.73      0.00
   -1    2    3      2.24      0.00
   -1    3    3     -3.33      0.00
    0    2    3     -1.62      0.00
   -2    4    3     -0.15      0.00
   -2    5    3      2.28      0.00
   -1    4    3     -2.13      0.00
    0    3    3     -4.01      0.00
   -3    6    3      4.22      0.00
   -3    7    3      2.95      0.00
   -2    6    3      2.35      0.00
   -1    5    3     -0.12      0.00
    0    4    3     -2.54      0.00
   -4    8    3      1.14      0.00
   -4    9    3     -0.90      0.00
   -3    8    3      0.20      0.00
   -2    7    3      0.73      0.00
   -1    6    3     -0.23      0.00
    0    5    3     -1.45      0.00
   -5   10    3     -0.70      0.00
   -4   10    3     -1.02      0.00
   -3    9    3     -1.18      0.00
   -2    8    3     -0.94      0.00
   -1    7    3     -1.33      0.00
    0    6    3     -1.47      0.00
   -3   10    3     -1.00      0.00
   -2    9    3     -0.97      0.00
   -1    8    3     -0.75      0.00
    0    7    3     -1.34      0.00
   -1    9    3      0.16      0.00
    0    8    3     -0.07      0.00
    0    1    4      8.68      0.00
   -1    2    4      4.69      0.00
   -1    3    4      0.13      0.00
    0    2    4      2.10      0.00
   -2    4    4      0.80      0.00
   -2    5    4      1.77      0.00
   -1    4    4     -0.55      0.00
    0    3    4     -0.71      0.00
   -3    6    4      2.85      0.00
   -3    7    4      1.31      0.00
   -2    6    4      1.42      0.00
   -1    5    4      0.11      0.00
    0    4    4     -1.07      0.00
   -4    8    4     -0.37      0.00
   -4    9    4     -1.62      0.00
   -3    8    4     -0.96      0.00
   -2    7    4     -0.16      0.00
   -1    6    4     -0.54      0.00
    0    5    4     -1.12      0.00
   -5   10    4     -0.79      0.00
   -4   10    4     -1.09      0.00
   -3    9    4     -1.54      0.00
   -2    8    4     -1.35      0.00
   -1    7    4     -1.50      0.00
    0    6    4     -1.54      0.00
   -2    9    4     -0.91      0.00
   -1    8    4     -0.74      0.00
    0    7    4     -1.34      0.00
   -1    9    4      0.11      0.00
    0    8    4     -0.06      0.00
    0    0    5     -0.60      0.00
    0    1    5     -1.64      0.00
   -1    2    5     -1.55      0.00
   -1    3    5     -2.10      0.00
    0    2    5     -2.32      0.00
   -2    4    5     -0.32      0.00
   -2    5    5      1.74      0.00
   -1    4    5     -0.84      0.00
    0    3    5     -1.84      0.00
   -3    6    5      3.18      0.00
   -3    7    5      1.73      0.00
   -2    6    5      2.11      0.00
   -1    5    5      0.87      0.00
    0    4    5     -0.54      0.00
   -4    8    5     -0.03      0.00
   -4    9    5     -1.15      0.00
   -3    8    5     -0.45      0.00
   -2    7    5      0.72      0.00
   -1    6    5      0.65      0.00
    0    5    5      0.19      0.00
   -3    9    5     -0.88      0.00
   -2    8    5     -0.54      0.00
   -1    7    5     -0.31      0.00
    0    6    5     -0.13      0.00
   -2    9    5     -0.28      0.00
   -1    8    5     -0.10      0.00
    0    7    5     -0.45      0.00
   -1    9    5      0.14      0.00
    0    8    5      0.14      0.00
    0    0    6     -5.09      0.00
    0    1    6     -4.46      0.00
   -1    2    6     -3.14      0.00
   -1    3    6     -2.20      0.00
    0    2    6     -3.05      0.00
   -2    4    6     -0.43      0.00
   -2    5    6      1.51      0.00
   -1    4    6     -0.64      0.00
    0    3    6     -1.67      0.00
   -3    6    6      2.84      0.00
   -3    7    6      1.52      0.00
   -2    6    6      1.93      0.00
   -1    5    6      0.89      0.00
    0    4    6     -0.28      0.00
   -4    8    6      0.02      0.00
   -4    9    6     -0.85      0.00
   -3    8    6     -0.35      0.00
   -2    7    6      0.75      0.00
   -1    6    6      0.69      0.00
    0    5    6      0.39      0.00
   -3    9    6     -0.48      0.00
   -2    8    6     -0.37      0.00
   -1    7    6     -0.14      0.00
    0    6    6      0.09      0.00
   -2    9    6      0.04      0.00
   -1    8    6     -0.12      0.00
    0    7    6     -0.48      0.00
    0    8    6     -0.10      0.00
    0    0    7      1.72      0.00
    0    1    7      1.87      0.00
   -1    2    7      1.56      0.00
   -1    3    7      0.69      0.00
    0    2    7      1.35      0.00
   -2    4    7      0.56      0.00
   -2    5    7      0.91      0.00
   -1    4    7      0.21      0.00
    0    3    7      0.41      0.00
   -3    6    7      1.55      0.00
   -3    7    7      0.42      0.00
   -2    6    7      0.75      0.00
   -1    5    7      0.25      0.00
    0    4    7     -0.13      0.00
   -4    8    7     -0.58      0.00
   -4    9    7     -1.09      0.00
   -3    8    7     -0.91      0.00
   -2    7    7     -0.12      0.00
   -1    6    7     -0.27      0.00
    0    5    7     -0.35      0.00
   -3    9    7     -0.66      0.00
   -2    8    7     -0.83      0.00
   -1    7    7     -0.74      0.00
    0    6    7     -0.63      0.00
   -1    8    7     -0.48      0.00
    0    7    7     -1.02      0.00
    0    0    8      2.32      0.00
    0    1    8      2.31      0.00
   -1    2    8      1.41      0.00
   -1    3    8      0.47      0.00
    0    2    8      1.24      0.00
   -2    4    8      0.25      0.00
   -2    5    8      0.45      0.00
   -1    4    8      0.00      0.00
    0    3    8      0.15      0.00
   -3    6    8      1.10      0.00
   -3    7    8      0.42      0.00
   -2    6    8      0.51      0.00
   -1    5    8      0.07      0.00
    0    4    8     -0.33      0.00
   -4    8    8     -0.21      0.00
   -3    8    8     -0.56      0.00
   -2    7    8      0.09      0.00
   -1    6    8     -0.19      0.00
    0    5    8     -0.30      0.00
   -2    8    8     -0.56      0.00
   -1    7    8     -0.35      0.00
    0    6    8     -0.29      0.00
   -1    8    8     -0.22      0.00
    0    7    8     -0.65      0.00
    0    0    9     -1.88      0.00
    0    1    9     -1.42      0.00
   -1    2    9     -1.68      0.00
   -1    3    9     -1.31      0.00
    0    2    9     -1.42      0.00
   -2    4    9     -0.61      0.00
   -2    5    9      0.11      0.00
   -1    4    9     -0.61      0.00
    0    3    9     -1.12      0.00
   -3    6    9      1.06      0.00
   -3    7    9      0.90      0.00
   -2    6    9      0.62      0.00
   -1    5    9      0.07      0.00
    0    4    9     -0.58      0.00
   -4    8    9      0.68      0.00
   -3    8    9      0.26      0.00
   -2    7    9      0.63      0.00
   -1    6    9      0.12      0.00
    0    5    9     -0.03      0.00
   -1    7    9      0.17      0.00
    0    6    9      0.16      0.00
    0    7    9     -0.24      0.00
    0    0   10     -0.15      0.00
    0    1   10      0.23      0.00
   -1    2   10     -0.25      0.00
   -1    3   10     -0.32      0.00
    0    2   10     -0.06      0.00
   -2    4   10     -0.21      0.00
   -2    5   10     -0.16      0.00
   -1    4   10     -0.23      0.00
    0    3   10     -0.25      0.00
   -3    6   10      0.43      0.00
   -3    7   10      0.48      0.00
   -2    6   10      0.05      0.00
   -1    5   10     -0.17      0.00
    0    4   10     -0.39      0.00
   -2    7   10      0.26      0.00
   -1    6   10     -0.40      0.00
    0    5   10     -0.36      0.00
   -1    7   10     -0.10      0.00
    0    6   10     -0.30      0.00
    0    0   11      2.09      0.00
    0    1   11      2.19      0.00
   -1    2   11      1.39      0.00
   -1    3   11      0.68      0.00
    0    2   11      1.35      0.00
   -2    4   11      0.26      0.00
   -2    5   11     -0.18      0.00
   -1    4   11      0.23      0.00
    0    3   11      0.57      0.00
   -3    6   11      0.01      0.00
   -2    6   11     -0.25      0.00
   -1    5   11     -0.10      0.00
    0    4   11     -0.04      0.00
   -1    6   11     -0.52      0.00
    0    5   11     -0.30      0.00
    0    0   12     -0.34      0.00
    0    1   12     -0.16      0.00
   -1    2   12     -0.43      0.00
   -1    3   12     -0.46      0.00
    0    2   12     -0.36      0.00
   -2    4   12     -0.20      0.00
   -2    5   12     -0.11      0.00
   -1    4   12     -0.11      0.00
    0    3   12     -0.25      0.00
   -1    5   12      0.18      0.00
    0    4   12     -0.01      0.00
    0    5   12      0.23      0.00
    0    0   13     -0.77      0.00
    0    1   13     -0.67      0.00
   -1    2   13     -0.73      0.00
   -1    3   13     -0.64      0.00
    0    2   13     -0.67      0.00
   -2    4   13     -0.31      0.00
   -1    4   13     -0.24      0.00
    0    3   13     -0.40      0.00
    0    4   13     -0.07      0.00
    0    0   14      1.43      0.00
    0    1   14      1.23      0.00
   -1    2   14      0.94      0.00
    0    2   14      0.78      0.00
    0    2    0      1.80      0.00
   -2   10    0      0.10      0.00
    0    0    1     45.02      0.00
   -2   10    1      0.11      0.00
    0    0    2     24.02      0.00
   -2   10    2      0.05      0.00
    0    9    3      0.84      0.00
    0    0    4     13.66      0.00
   -3   10    4     -0.96      0.00
   -5   10    5     -0.35      0.00
    0    8    7     -0.32      0.00
   -2    8    9     -0.01      0.00
    0    6   11     -0.34      0.00
   -3    7   11     -0.03      0.00
   -3    6   12      0.13      0.00
   -2    6   12      0.01      0.00
   -2    5   13     -0.17      0.00
   -1    3   14      0.43      0.00
    0    0    0      0.00      0.00
# SQUEEZE RESULTS (Version = 120716)
# Note: Data are Listed for all Voids in the P1 Unit Cell
# i.e. Centre of Gravity, Solvent Accessible Volume,
# Recovered number of Electrons in the Void and
# Details about the Squeezed Material
loop_
  _platon_squeeze_void_nr
  _platon_squeeze_void_average_x
  _platon_squeeze_void_average_y
  _platon_squeeze_void_average_z
  _platon_squeeze_void_volume
  _platon_squeeze_void_count_electrons
  _platon_squeeze_void_content
   1  0.000  0.000  0.000       139        57 ' '
   2  0.333  0.667  0.000         7         1 ' '
   3  0.666  0.333  0.000         7         1 ' '
# Missing Reflections Below sin(th)/lambda = 0.25
loop_
  _platon_missing_refln_index_h
  _platon_missing_refln_index_k
  _platon_missing_refln_index_l
  _platon_missing_refln_theta
    0    2    0     5.755
    0    0    1     1.806
    0    0    2     3.613
    0    0    4     7.241
_platon_squeeze_void_probe_radius                  1.20
_platon_squeeze_details
)
TITL p6onm_b.res in P6/m              New: P6/mmm
CELL    8.1842    8.1842   11.2773     90.00     90.00    120.00
SPGR P6/mmm
# Solvent Accessible Volume =       154
# Electrons Found in S.A.V. =        55
# Note: Atoms in Void as Cxxx and Qxxx all others
C101 0.891 0.094 0.008 !       4.68 eA-3
Q102 1.000 1.000 0.328 !       3.00 eA-3
Q103 1.000 1.000 0.500 !       2.57 eA-3
Q104 0.500 0.518 0.453 !       2.34 eA-3
Q105 0.500 0.482 0.547 !       2.34 eA-3
Q106 0.944 1.007 0.277 !       2.04 eA-3
Q107 0.417 0.188 0.505 !       1.70 eA-3
Q108 0.921 0.562 0.292 !       0.94 eA-3
Q109 1.000 0.487 0.250 !       0.69 eA-3
Q110 0.328 0.656 0.008 !       0.54 eA-3
C111 0.074 0.062 0.006 !       0.52 eA-3
)
;
_shelx_fab_checksum              35494
loop_
_space_group_symop_operation_xyz
'x, y, z'
'x-y, x, z'
'-y, x-y, z'
'-x, -y, z'
'-x+y, -x, z'
'y, -x+y, z'
'-y, -x, -z'
'x-y, -y, -z'
'x, x-y, -z'
'y, x, -z'
'-x+y, y, -z'
'-x, -x+y, -z'
'-x, -y, -z'
'-x+y, -x, -z'
'y, -x+y, -z'
'x, y, -z'
'x-y, x, -z'
'-y, x-y, -z'
'y, x, z'
'-x+y, y, z'
'-x, -x+y, z'
'-y, -x, z'
'x-y, -y, z'
'x, x-y, z'
loop_
_atom_site_label
_atom_site_type_symbol
_atom_site_fract_x
_atom_site_fract_y
_atom_site_fract_z
_atom_site_U_iso_or_equiv
_atom_site_adp_type
_atom_site_occupancy
_atom_site_site_symmetry_order
_atom_site_calc_flag
_atom_site_refinement_flags_posn
_atom_site_refinement_flags_adp
_atom_site_refinement_flags_occupancy
_atom_site_disorder_assembly
_atom_site_disorder_group
Np1 Np 0.500000 0.500000 0.500000 0.01591(12) Uani 1 8 d S T P . .
Na1 Na 0.000000 0.000000 0.500000 0.0424(16) Uani 1 24 d S T P . .
O1 O 0.4201(6) 0.1752(5) 0.500000 0.0269(13) Uani 0.5 2 d S T P . .
O2 O 0.500000 0.500000 0.1287(5) 0.097(4) Uani 1 4 d S T P . .
O3 O 0.3492(6) 0.4399(6) 0.2953(3) 0.0389(9) Uani 0.5 1 d . . P . .
O4 O 0.000000 0.000000 0.3240(19) 0.132(13) Uani 0.5 12 d S T P . .
N1 N 0.500000 0.500000 0.2381(6) 0.0489(18) Uani 1 4 d S T P . .
loop_
_atom_site_aniso_label
_atom_site_aniso_U_11
_atom_site_aniso_U_22
_atom_site_aniso_U_33
_atom_site_aniso_U_23
_atom_site_aniso_U_13
_atom_site_aniso_U_12
Np1 0.00803(14) 0.00803(14) 0.03243(17) 0.000 0.000 0.00457(9)
Na1 0.0168(17) 0.0168(17) 0.094(5) 0.000 0.000 0.0084(8)
O1 0.0145(18) 0.017(3) 0.047(2) 0.000 0.000 0.0060(15)
O2 0.105(4) 0.105(4) 0.028(3) 0.000 0.000 0.014(4)
O3 0.029(2) 0.044(2) 0.0384(17) 0.0035(16) -0.0039(17) 0.0139(16)
O4 0.18(2) 0.18(2) 0.045(11) 0.000 0.000 0.088(11)
N1 0.045(3) 0.045(3) 0.040(3) 0.000 0.000 0.010(2)
loop_
_atom_type_symbol
_atom_type_description
_atom_type_scat_dispersion_real
_atom_type_scat_dispersion_imag
_atom_type_scat_source
N N 0.0061 0.0033 'International Tables Vol C Tables 4.2.6.8 and 6.1.1.4'
Na Na 0.0362 0.0249 'International Tables Vol C Tables 4.2.6.8 and 6.1.1.4'
Np Np -11.4937 4.1493 'International Tables Vol C Tables 4.2.6.8 and 6.1.1.4'
O O 0.0106 0.0060 'International Tables Vol C Tables 4.2.6.8 and 6.1.1.4'
loop_
_geom_angle_atom_site_label_1
_geom_angle_atom_site_label_2
_geom_angle_atom_site_label_3
_geom_angle
_geom_angle_site_symmetry_1
_geom_angle_site_symmetry_3
_geom_angle_publ_flag
O1 Np1 O1 180.0 21_665 9_556 ?
O1 Np1 O1 84.3(3) 21_665 14_666 ?
O1 Np1 O1 95.7(3) 9_556 14_666 ?
O1 Np1 O1 95.7(3) 21_665 2 ?
O1 Np1 O1 84.3(3) 9_556 2 ?
O1 Np1 O1 180.0 14_666 2 ?
O1 Np1 O1 175.83(6) 21_665 . ?
O1 Np1 O1 4.17(6) 9_556 . ?
O1 Np1 O1 91.5(2) 14_666 . ?
O1 Np1 O1 88.5(2) 2 . ?
O1 Np1 O1 4.17(6) 21_665 13_666 ?
O1 Np1 O1 175.83(6) 9_556 13_666 ?
O1 Np1 O1 88.5(2) 14_666 13_666 ?
O1 Np1 O1 91.5(2) 2 13_666 ?
O1 Np1 O1 180.0 . 13_666 ?
O1 Np1 O1 91.5(2) 21_665 19 ?
O1 Np1 O1 88.5(2) 9_556 19 ?
O1 Np1 O1 175.83(6) 14_666 19 ?
O1 Np1 O1 4.17(6) 2 19 ?
O1 Np1 O1 92.7(2) . 19 ?
O1 Np1 O1 87.3(2) 13_666 19 ?
O1 Np1 O1 88.5(2) 21_665 7_666 ?
O1 Np1 O1 91.5(2) 9_556 7_666 ?
O1 Np1 O1 4.17(6) 14_666 7_666 ?
O1 Np1 O1 175.83(6) 2 7_666 ?
O1 Np1 O1 87.3(2) . 7_666 ?
O1 Np1 O1 92.7(2) 13_666 7_666 ?
O1 Np1 O1 180.0 19 7_666 ?
O1 Np1 O3 114.87(10) 21_665 19 ?
O1 Np1 O3 65.13(10) 9_556 19 ?
O1 Np1 O3 94.69(11) 14_666 19 ?
O1 Np1 O3 85.31(11) 2 19 ?
O1 Np1 O3 65.38(10) . 19 ?
O1 Np1 O3 114.62(10) 13_666 19 ?
O1 Np1 O3 87.06(10) 19 19 ?
O1 Np1 O3 92.94(10) 7_666 19 ?
O1 Np1 O3 65.13(10) 21_665 7_666 ?
O1 Np1 O3 114.87(10) 9_556 7_666 ?
O1 Np1 O3 85.31(11) 14_666 7_666 ?
O1 Np1 O3 94.69(11) 2 7_666 ?
O1 Np1 O3 114.62(10) . 7_666 ?
O1 Np1 O3 65.38(10) 13_666 7_666 ?
O1 Np1 O3 92.94(10) 19 7_666 ?
O1 Np1 O3 87.06(10) 7_666 7_666 ?
O3 Np1 O3 180.0 19 7_666 ?
O1 Np1 O3 85.31(11) 21_665 13_666 ?
O1 Np1 O3 94.69(11) 9_556 13_666 ?
O1 Np1 O3 65.13(10) 14_666 13_666 ?
O1 Np1 O3 114.87(10) 2 13_666 ?
O1 Np1 O3 92.94(10) . 13_666 ?
O1 Np1 O3 87.06(10) 13_666 13_666 ?
O1 Np1 O3 114.62(10) 19 13_666 ?
O1 Np1 O3 65.38(10) 7_666 13_666 ?
O3 Np1 O3 150.76(18) 19 13_666 ?
O3 Np1 O3 29.24(18) 7_666 13_666 ?
O1 Np1 O3 65.13(10) 21_665 22_665 ?
O1 Np1 O3 114.87(10) 9_556 22_665 ?
O1 Np1 O3 85.31(11) 14_666 22_665 ?
O1 Np1 O3 94.69(11) 2 22_665 ?
O1 Np1 O3 114.62(10) . 22_665 ?
O1 Np1 O3 65.38(10) 13_666 22_665 ?
O1 Np1 O3 92.94(10) 19 22_665 ?
O1 Np1 O3 87.06(10) 7_666 22_665 ?
O3 Np1 O3 49.99(19) 19 22_665 ?
O3 Np1 O3 130.01(19) 7_666 22_665 ?
O3 Np1 O3 140.4(2) 13_666 22_665 ?
O4 Na1 O4 180.0 13_556 . ?
O4 Na1 O1 90.000(2) 13_556 21 ?
O4 Na1 O1 90.000(2) . 21 ?
O4 Na1 O1 90.000(2) 13_556 9_556 ?
O4 Na1 O1 90.000(2) . 9_556 ?
O1 Na1 O1 180.0 21 9_556 ?
O4 Na1 O1 90.000(2) 13_556 14_556 ?
O4 Na1 O1 90.000(2) . 14_556 ?
O1 Na1 O1 49.06(13) 21 14_556 ?
O1 Na1 O1 130.94(13) 9_556 14_556 ?
O4 Na1 O1 90.000(2) 13_556 2 ?
O4 Na1 O1 90.000(2) . 2 ?
O1 Na1 O1 130.94(13) 21 2 ?
O1 Na1 O1 49.06(13) 9_556 2 ?
O1 Na1 O1 180.00(12) 14_556 2 ?
O4 Na1 O1 90.000(2) 13_556 19 ?
O4 Na1 O1 90.000(2) . 19 ?
O1 Na1 O1 120.0 21 19 ?
O1 Na1 O1 60.000(1) 9_556 19 ?
O1 Na1 O1 169.06(13) 14_556 19 ?
O1 Na1 O1 10.94(13) 2 19 ?
O4 Na1 O1 90.000(2) 13_556 7_556 ?
O4 Na1 O1 90.000(2) . 7_556 ?
O1 Na1 O1 60.0 21 7_556 ?
O1 Na1 O1 120.0 9_556 7_556 ?
O1 Na1 O1 10.94(13) 14_556 7_556 ?
O1 Na1 O1 169.06(14) 2 7_556 ?
O1 Na1 O1 180.0 19 7_556 ?
O4 Na1 O1 90.000(2) 13_556 13_556 ?
O4 Na1 O1 90.000(2) . 13_556 ?
O1 Na1 O1 10.94(13) 21 13_556 ?
O1 Na1 O1 169.06(14) 9_556 13_556 ?
O1 Na1 O1 60.0 14_556 13_556 ?
O1 Na1 O1 120.0 2 13_556 ?
O1 Na1 O1 109.06(13) 19 13_556 ?
O1 Na1 O1 70.94(14) 7_556 13_556 ?
O4 Na1 O1 90.0 13_556 20 ?
O4 Na1 O1 90.0 . 20 ?
O1 Na1 O1 60.0 21 20 ?
O1 Na1 O1 120.000(1) 9_556 20 ?
O1 Na1 O1 109.06(14) 14_556 20 ?
O1 Na1 O1 70.94(14) 2 20 ?
O1 Na1 O1 60.0 19 20 ?
O1 Na1 O1 120.000(1) 7_556 20 ?
O1 Na1 O1 49.06(14) 13_556 20 ?
O4 Na1 O1 90.0 13_556 8_556 ?
O4 Na1 O1 90.0 . 8_556 ?
O1 Na1 O1 120.000(1) 21 8_556 ?
O1 Na1 O1 60.0 9_556 8_556 ?
O1 Na1 O1 70.94(14) 14_556 8_556 ?
O1 Na1 O1 109.06(14) 2 8_556 ?
O1 Na1 O1 120.000(1) 19 8_556 ?
O1 Na1 O1 60.0 7_556 8_556 ?
O1 Na1 O1 130.94(14) 13_556 8_556 ?
O1 Na1 O1 180.0 20 8_556 ?
O4 Na1 O1 90.0 13_556 15_556 ?
O4 Na1 O1 90.0 . 15_556 ?
O1 Na1 O1 109.06(14) 21 15_556 ?
O1 Na1 O1 70.94(14) 9_556 15_556 ?
O1 Na1 O1 60.0 14_556 15_556 ?
O1 Na1 O1 120.000(1) 2 15_556 ?
O1 Na1 O1 130.94(14) 19 15_556 ?
O1 Na1 O1 49.06(13) 7_556 15_556 ?
O1 Na1 O1 120.000(1) 13_556 15_556 ?
O1 Na1 O1 169.06(14) 20 15_556 ?
O1 Na1 O1 10.94(14) 8_556 15_556 ?
O1 O1 Np1 162.17(13) 9_556 3_655 ?
O1 O1 Np1 13.66(11) 9_556 . ?
Np1 O1 Np1 148.5(2) 3_655 . ?
O1 O1 Na1 84.53(7) 9_556 . ?
Np1 O1 Na1 113.30(18) 3_655 . ?
Np1 O1 Na1 98.19(12) . . ?
N1 O3 O3 59.2(2) . 19 ?
N1 O3 O3 46.6(2) . 22_665 ?
O3 O3 O3 90.000(2) 19 22_665 ?
N1 O3 Np1 96.0(3) . . ?
O3 O3 Np1 75.38(9) 19 . ?
O3 O3 Np1 70.19(10) 22_665 . ?
O2 N1 O3 121.0(3) . . ?
O2 N1 O3 121.0(3) . 22_665 ?
O3 N1 O3 86.9(5) . 22_665 ?
O2 N1 O3 121.0(3) . 4_665 ?
O3 N1 O3 118.1(6) . 4_665 ?
O3 N1 O3 61.6(4) 22_665 4_665 ?
O2 N1 O3 121.0(3) . 19 ?
O3 N1 O3 61.6(4) . 19 ?
O3 N1 O3 118.1(6) 22_665 19 ?
O3 N1 O3 86.9(5) 4_665 19 ?
O2 N1 Np1 180.0 . . ?
O3 N1 Np1 59.0(3) . . ?
O3 N1 Np1 59.0(3) 22_665 . ?
O3 N1 Np1 59.0(3) 4_665 . ?
O3 N1 Np1 59.0(3) 19 . ?
loop_
_geom_bond_atom_site_label_1
_geom_bond_atom_site_label_2
_geom_bond_distance
_geom_bond_site_symmetry_2
_geom_bond_publ_flag
Np1 O1 1.850(4) 21_665 ?
Np1 O1 1.850(4) 9_556 ?
Np1 O1 1.850(4) 14_666 ?
Np1 O1 1.850(4) 2 ?
Np1 O1 2.399(4) . ?
Np1 O1 2.399(4) 13_666 ?
Np1 O1 2.399(4) 19 ?
Np1 O1 2.399(4) 7_666 ?
Np1 O3 2.547(4) 19 ?
Np1 O3 2.547(4) 7_666 ?
Np1 O3 2.547(4) 13_666 ?
Np1 O3 2.547(4) 22_665 ?
Na1 O4 1.99(2) 13_556 ?
Na1 O4 1.99(2) . ?
Na1 O1 2.991(4) 21 ?
Na1 O1 2.991(4) 9_556 ?
Na1 O1 2.991(4) 14_556 ?
Na1 O1 2.991(4) 2 ?
Na1 O1 2.991(4) 19 ?
Na1 O1 2.991(4) 7_556 ?
Na1 O1 2.991(4) 13_556 ?
Na1 O1 2.991(4) 20 ?
Na1 O1 2.991(4) 8_556 ?
Na1 O1 2.991(4) 15_556 ?
O1 O1 0.570(7) 9_556 ?
O2 N1 1.234(9) . ?
O3 N1 1.255(5) . ?
O3 O3 1.286(8) 19 ?
O3 O3 1.726(9) 22_665 ?
loop_
_geom_torsion_atom_site_label_1
_geom_torsion_atom_site_label_2
_geom_torsion_atom_site_label_3
_geom_torsion_atom_site_label_4
_geom_torsion
_geom_torsion_site_symmetry_1
_geom_torsion_site_symmetry_2
_geom_torsion_site_symmetry_3
_geom_torsion_site_symmetry_4
_geom_torsion_publ_flag
O3 O3 N1 O2 111.0(2) 19 . . . ?
O3 O3 N1 O2 -124.6(3) 22_665 . . . ?
Np1 O3 N1 O2 180.000(1) . . . . ?
O3 O3 N1 O3 -124.4(4) 19 . . 22_665 ?
Np1 O3 N1 O3 -55.4(3) . . . 22_665 ?
O3 O3 N1 O3 -69.0(2) 19 . . 4_665 ?
O3 O3 N1 O3 55.4(3) 22_665 . . 4_665 ?
Np1 O3 N1 O3 0.001(1) . . . 4_665 ?
O3 O3 N1 O3 124.4(4) 22_665 . . 19 ?
Np1 O3 N1 O3 69.0(2) . . . 19 ?
O3 O3 N1 Np1 -69.0(2) 19 . . . ?
O3 O3 N1 Np1 55.4(3) 22_665 . . . ?
