#------------------------------------------------------------------------------
#$Date: 2022-04-12 02:05:35 +0300 (Tue, 12 Apr 2022) $
#$Revision: 274457 $
#$URL: file:///home/coder/svn-repositories/cod/cif/7/70/99/7709962.cif $
#------------------------------------------------------------------------------
#
# This file is available in the Crystallography Open Database (COD),
# http://www.crystallography.net/
#
# All data on this site have been placed in the public domain by the
# contributors.
#
data_7709962
loop_
_publ_author_name
'Tulewicz, Adam'
'Szejko, Vadim'
'Justyniak, Iwona'
'Wolska, Ma\/lgorzata'
'Lewinski, Janusz'
_publ_section_title
;
 Exploring the reactivity of homoleptic organozincs towards SO2: Synthesis
 and structure of a homologous series of organozinc sulfinates
;
_journal_name_full               'Dalton Transactions'
_journal_paper_doi               10.1039/D2DT00577H
_journal_year                    2022
_chemical_formula_sum            'C2 H6 O2 S Zn'
_chemical_formula_weight         159.50
_space_group_crystal_system      triclinic
_space_group_IT_number           2
_space_group_name_Hall           '-P 1'
_space_group_name_H-M_alt        'P -1'
_atom_sites_solution_hydrogens   geom
_audit_creation_method           SHELXL-2018/3
_audit_update_record
;
2021-10-19 deposited with the CCDC.	2022-04-11 downloaded from the CCDC.
;
_cell_angle_alpha                89.141(12)
_cell_angle_beta                 80.887(14)
_cell_angle_gamma                84.090(13)
_cell_formula_units_Z            2
_cell_length_a                   4.5135(8)
_cell_length_b                   7.7984(11)
_cell_length_c                   7.8400(13)
_cell_measurement_reflns_used    1045
_cell_measurement_temperature    100(2)
_cell_measurement_theta_max      29.9470
_cell_measurement_theta_min      3.7020
_cell_volume                     271.02(8)
_computing_cell_refinement       'CrysAlisPro 1.171.40.84a (Rigaku OD, 2020)'
_computing_data_collection       'CrysAlisPro 1.171.40.84a (Rigaku OD, 2020)'
_computing_data_reduction        'CrysAlisPro 1.171.40.84a (Rigaku OD, 2020)'
_computing_structure_refinement  'SHELXL-2018/3 (Sheldrick, 2018)'
_diffrn_ambient_temperature      100(2)
_diffrn_detector                 'CCD plate'
_diffrn_detector_area_resol_mean 16.2974
_diffrn_measured_fraction_theta_full 0.996
_diffrn_measured_fraction_theta_max 0.996
_diffrn_measurement_device       'four-circle diffractometer'
_diffrn_measurement_device_type  'SuperNova, Dual, Cu at home/near, Eos'
_diffrn_measurement_method       '\w scans'
_diffrn_radiation_type           MoK\a
_diffrn_radiation_wavelength     0.71073
_diffrn_reflns_av_R_equivalents  0.0810
_diffrn_reflns_av_unetI/netI     0.0462
_diffrn_reflns_Laue_measured_fraction_full 0.996
_diffrn_reflns_Laue_measured_fraction_max 0.996
_diffrn_reflns_limit_h_max       5
_diffrn_reflns_limit_h_min       -5
_diffrn_reflns_limit_k_max       9
_diffrn_reflns_limit_k_min       -8
_diffrn_reflns_limit_l_max       9
_diffrn_reflns_limit_l_min       -9
_diffrn_reflns_number            2895
_diffrn_reflns_point_group_measured_fraction_full 0.996
_diffrn_reflns_point_group_measured_fraction_max 0.996
_diffrn_reflns_theta_full        25.242
_diffrn_reflns_theta_max         26.500
_diffrn_reflns_theta_min         2.626
_diffrn_source                   'micro-focus sealed X-ray tube'
_diffrn_source_type              'SuperNova (Mo) X-ray Source'
_exptl_absorpt_coefficient_mu    4.785
_exptl_absorpt_correction_T_max  0.787
_exptl_absorpt_correction_T_min  0.537
_exptl_absorpt_correction_type   multi-scan
_exptl_absorpt_process_details
;
CrysAlisPro 1.171.40.84a (Rigaku Oxford Diffraction, 2020)
Empirical absorption correction using spherical harmonics,
implemented in SCALE3 ABSPACK scaling algorithm.
;
_exptl_crystal_colour            colorless
_exptl_crystal_density_diffrn    1.954
_exptl_crystal_description       plate
_exptl_crystal_F_000             160
_exptl_crystal_size_max          0.18
_exptl_crystal_size_mid          0.11
_exptl_crystal_size_min          0.05
_refine_diff_density_max         1.568
_refine_diff_density_min         -1.647
_refine_diff_density_rms         0.288
_refine_ls_extinction_method     none
_refine_ls_goodness_of_fit_ref   1.088
_refine_ls_hydrogen_treatment    constr
_refine_ls_matrix_type           full
_refine_ls_number_parameters     57
_refine_ls_number_reflns         1117
_refine_ls_number_restraints     0
_refine_ls_restrained_S_all      1.088
_refine_ls_R_factor_all          0.0701
_refine_ls_R_factor_gt           0.0632
_refine_ls_shift/su_max          0.000
_refine_ls_shift/su_mean         0.000
_refine_ls_structure_factor_coef Fsqd
_refine_ls_weighting_details
'w=1/[\s^2^(Fo^2^)+(0.1310P)^2^] where P=(Fo^2^+2Fc^2^)/3'
_refine_ls_weighting_scheme      calc
_refine_ls_wR_factor_gt          0.1609
_refine_ls_wR_factor_ref         0.1688
_reflns_Friedel_coverage         0.000
_reflns_number_gt                977
_reflns_number_total             1117
_reflns_threshold_expression     'I > 2\s(I)'
_twin_special_details
;
Component 2 rotated by 3.1089\% 
around [-0.20 -0.98 -0.08] (reciprocal) or [-0.39 -0.92 -0.02] (direct)
;
_cod_data_source_file            d2dt00577h2.cif
_cod_data_source_block           shelx
_cod_database_code               7709962
_shelx_shelxl_version_number     2018/3
_shelx_space_group_comment
;
The symmetry employed for this shelxl refinement is uniquely defined
by the following loop, which should always be used as a source of
symmetry information in preference to the above space-group names.
They are only intended as comments.
;
_oxdiff_twin_items               2
_oxdiff_twin_integration_method  simultaneous
_shelx_res_file
;
TITL atme2znso2_3_a.res in P-1
    shelx.res
    created by SHELXL-2018/3 at 14:38:39 on 07-Oct-2021
CELL  0.71073   4.5135   7.7984   7.8400   89.141   80.887   84.090
ZERR     2.00   0.0008   0.0011   0.0013    0.012    0.014    0.013
LATT   1
SFAC  C    H    O    S    ZN
UNIT  4 12 4 2 2
MERG   2
OMIT    -2.00  53.00
FMAP   2
PLAN   20
ACTA
BOND   $H
LIST   4
L.S.  10
WGHT    0.131000
FVAR      11.08783
C1    1    0.000478    0.725613    0.135955    11.00000    0.02973    0.02005 =
         0.01718   -0.00065   -0.00359   -0.00329
AFIX 137
H1A   2    0.069879    0.836544    0.108531    11.00000   -1.50000
H1B   2   -0.211610    0.731333    0.131401    11.00000   -1.50000
H1C   2    0.107474    0.641988    0.053908    11.00000   -1.50000
AFIX   0
C2    1    0.581867    0.870872    0.748656    11.00000    0.03047    0.01158 =
         0.02190   -0.00342   -0.00715   -0.00538
AFIX 137
H2A   2    0.708423    0.929935    0.662029    11.00000   -1.50000
H2B   2    0.694305    0.831186    0.838318    11.00000   -1.50000
H2C   2    0.410882    0.948279    0.796929    11.00000   -1.50000
AFIX   0
O1    3    0.321533    0.780342    0.506010    11.00000    0.01873    0.00852 =
         0.02556    0.00092   -0.00958   -0.00296
O2    3    0.760527    0.592269    0.574307    11.00000    0.01718    0.00896 =
         0.02169   -0.00095   -0.00532   -0.00429
S1    4    0.456339    0.692240    0.653960    11.00000    0.01661    0.00729 =
         0.01463   -0.00193   -0.00325   -0.00114
ZN1   5    0.072678    0.658810    0.366606    11.00000    0.01852    0.00985 =
         0.01557   -0.00009   -0.00573   -0.00164
HKLF    4




REM  atme2znso2_3_a.res in P-1
REM wR2 = 0.1688, GooF = S = 1.088, Restrained GooF = 1.088 for all data
REM R1 = 0.0632 for 977 Fo > 4sig(Fo) and 0.0701 for all 1117 data
REM 57 parameters refined using 0 restraints

END

WGHT      0.1309      0.0000

REM Highest difference peak  1.568,  deepest hole -1.647,  1-sigma level  0.288
Q1    1  -0.1056  0.6375  0.3594  11.00000  0.05    1.57
Q2    1   0.2582  0.6856  0.3608  11.00000  0.05    1.48
Q3    1  -0.0668  0.7201  0.2363  11.00000  0.05    1.26
Q4    1  -0.0332  0.7540  0.3213  11.00000  0.05    1.26
Q5    1  -0.2019  0.6898  0.4207  11.00000  0.05    1.17
Q6    1   0.6027  0.5490  0.5787  11.00000  0.05    1.12
Q7    1   0.5601  0.6605  0.3692  11.00000  0.05    1.05
Q8    1   0.3555  0.6116  0.3038  11.00000  0.05    1.02
Q9    1   0.1945  0.5732  0.3885  11.00000  0.05    0.96
Q10   1   0.2527  0.6603  0.6689  11.00000  0.05    0.95
Q11   1   0.7301  0.6541  0.5916  11.00000  0.05    0.89
Q12   1   0.9663  0.6246  0.5214  11.00000  0.05    0.88
Q13   1  -0.3452  0.6265  0.0862  11.00000  0.05    0.84
Q14   1   0.2126  0.5842  0.4744  11.00000  0.05    0.81
Q15   1   0.5373  0.5856  0.6940  11.00000  0.05    0.80
Q16   1   0.0832  0.4979  0.3119  11.00000  0.05    0.78
Q17   1   0.6136  0.7540  0.6598  11.00000  0.05    0.78
Q18   1   0.7744  0.5048  0.4274  11.00000  0.05    0.77
Q19   1   0.4194  0.8204  0.7454  11.00000  0.05    0.76
Q20   1   0.9659  0.6673  0.6655  11.00000  0.05    0.76
;
_shelx_res_checksum              82633
_shelx_hkl_file
;
  -5  -6   0 30816.0 2227.51  -2
  -5  -6   0 30816.0 2227.51   1
  -5  -6   1 33848.1 2367.45  -2
  -5  -6   1 33848.1 2367.45   1
  -5  -6   2 4790.95 1787.56  -2
  -5  -6   2 4790.95 1787.56   1
  -5  -5  -1 18482.2 1785.23  -2
  -5  -5  -1 18482.2 1785.23   1
  -5  -5   0 19536.3 1917.02  -2
  -5  -5   0 19536.3 1917.02   1
  -5  -5   1 1620.57 1413.89  -2
  -5  -5   1 1620.57 1413.89   1
  -5  -5   2 593.896 1492.65  -2
  -5  -5   2 593.896 1492.65   1
  -5  -5   3 4824.57 1682.51  -2
  -5  -5   3 4824.57 1682.51   1
  -5  -4  -1 15376.3 1704.94  -2
  -5  -4  -1 15376.3 1704.94   1
  -5  -4   0 98607.0 3053.97  -2
  -5  -4   0 98607.0 3053.97   1
  -5  -4   1 57212.0 2513.26  -2
  -5  -4   1 57212.0 2513.26   1
  -5  -4   2-701.942 1357.01  -2
  -5  -4   2-701.942 1357.01   1
  -5  -4   3 32433.2 2190.03  -2
  -5  -4   3 32433.2 2190.03   1
  -5  -3  -1-492.252 1218.11  -2
  -5  -3  -1-492.252 1218.11   1
  -5  -3   0 33693.8 1928.38  -2
  -5  -3   0 33693.8 1928.38   1
  -5  -3   1 38519.4 2105.68  -2
  -5  -3   1 38519.4 2105.68   1
  -5  -3   2 239.566 1234.98  -2
  -5  -3   2 239.566 1234.98   1
  -5  -3   3 3832.82 1400.60  -2
  -5  -3   3 3832.82 1400.60   1
  -5  -2  -1 6111.69 1234.84  -2
  -5  -2  -1 6111.69 1234.84   1
  -5  -2   0 14378.2 1508.85  -2
  -5  -2   0 14378.2 1508.85   1
  -5  -2   1-195.396 1146.10  -2
  -5  -2   1-195.396 1146.10   1
  -5  -2   2 22057.6 1753.55  -2
  -5  -2   2 22057.6 1753.55   1
  -5  -2   3 32347.3 1926.01  -2
  -5  -2   3 32347.3 1926.01   1
  -5  -1  -1 33763.6 1820.56  -2
  -5  -1  -1 33763.6 1820.56   1
  -5  -1   0 70900.2 2473.60  -2
  -5  -1   0 70900.2 2473.60   1
  -5  -1   1 11094.8 1393.47  -2
  -5  -1   1 11094.8 1393.47   1
  -5  -1   2 15671.3 1488.35  -2
  -5  -1   2 15671.3 1488.35   1
  -5  -1   3 41112.9 2005.87  -2
  -5  -1   3 41112.9 2005.87   1
  -5   0  -1 4166.00 1189.46  -2
  -5   0  -1 4166.00 1189.46   1
  -5   0   0 14053.0 1472.11  -2
  -5   0   0 14053.0 1472.11   1
  -5   0   1 24633.5 1638.19  -2
  -5   0   1 24633.5 1638.19   1
  -5   0   2 4884.90 1127.97  -2
  -5   0   2 4884.90 1127.97   1
  -5   0   3 158.299 1040.44  -2
  -5   0   3 158.299 1040.44   1
  -5   1  -1 31388.6 1741.63  -2
  -5   1  -1 31388.6 1741.63   1
  -5   1   0 9765.56 1400.53  -2
  -5   1   0 9765.56 1400.53   1
  -5   1   1 482.696 1117.00  -2
  -5   1   1 482.696 1117.00   1
  -5   1   2 23594.7 1409.85   1
  -5   1   3 26848.3 1519.98   1
  -5   2  -1 78869.7 2425.14  -2
  -5   2  -1 78869.7 2425.14   1
  -5   2   0 43889.7 1802.32   1
  -5   2   1 5847.02 952.467   1
  -5   2   2 17288.3 1281.46   1
  -5   2   3 39686.3 1829.08   1
  -5   3   0 7274.28 1272.41  -2
  -5   3  -1 7274.28 1272.41   1
  -5   3   0 3925.88 842.887   1
  -5   3   1 1332.67 714.782   1
  -5   3   2-214.659 693.323   1
  -5   3   3 757.433 723.680   1
  -5   4   0 58756.2 2236.39  -2
  -5   4  -1 58756.2 2236.39   1
  -5   4   0 17947.2 1309.90   1
  -5   4   1-50.8891 698.721   1
  -5   4   2 19545.5 1428.12   1
  -5   4   3 16157.1 1380.38   1
  -4  -8   3 22680.6 2009.12  -2
  -4  -8   3 22680.6 2009.12   1
  -4  -7   2 3259.86 1348.89  -2
  -4  -7   2 3259.86 1348.89   1
  -4  -7   3 902.716 1354.90  -2
  -4  -7   3 902.716 1354.90   1
  -4  -7   4 171.692 1544.66  -2
  -4  -7   4 171.692 1544.66   1
  -4  -6  -7 2954.74 1557.56  -2
  -4  -6  -7 2954.74 1557.56   1
  -4  -6   0 8454.88 1312.99  -2
  -4  -6   0 8454.88 1312.99   1
  -4  -6   1 9382.32 947.848  -2
  -4  -6   1 9382.32 947.848   1
  -4  -6   2 41666.4 1441.56  -2
  -4  -6   2 41666.4 1441.56   1
  -4  -6   3 43712.8 1469.24  -2
  -4  -6   3 43712.8 1469.24   1
  -4  -6   4 407.900 980.381  -2
  -4  -6   4 407.900 980.381   1
  -4  -6   5 24951.1 1997.14  -2
  -4  -6   5 24951.1 1997.14   1
  -4  -5  -8 72180.0 3098.94  -2
  -4  -5  -8 72180.0 3098.94   1
  -4  -5  -7 35352.0 2212.55  -2
  -4  -5  -7 35352.0 2212.55   1
  -4  -5  -6 2013.68 1221.74  -2
  -4  -5  -6 2013.68 1221.74   1
  -4  -5  -1 82209.7 2565.56  -2
  -4  -5  -1 82209.7 2565.56   1
  -4  -5   0 44503.6 2130.49  -2
  -4  -5   0 44503.6 2130.49   1
  -4  -5   1 5837.25 796.534  -2
  -4  -5   1 5837.25 796.534   1
  -4  -5   2 68518.5 1564.04  -2
  -4  -5   2 68518.5 1564.04   1
  -4  -5   3 77364.1 1680.46  -2
  -4  -5   3 77364.1 1680.46   1
  -4  -5   4 6506.70 1414.34  -2
  -4  -5   4 6506.70 1414.34   1
  -4  -5   5 12877.1 1672.64  -2
  -4  -5   5 12877.1 1672.64   1
  -4  -4  -8 23423.4 2067.33  -2
  -4  -4  -8 23423.4 2067.33   1
  -4  -4  -7 11583.0 1561.42  -2
  -4  -4  -7 11583.0 1561.42   1
  -4  -4  -6 562.745 1117.62  -2
  -4  -4  -6 562.745 1117.62   1
  -4  -4  -5 3743.91 1108.15  -2
  -4  -4  -5 3743.91 1108.15   1
  -4  -4  -1-67.5323 891.809  -2
  -4  -4  -1-67.5323 891.809   1
  -4  -4   0 7549.31 1156.95  -2
  -4  -4   0 7549.31 1156.95   1
  -4  -4   1 1274.54 663.208  -2
  -4  -4   1 1274.54 663.208   1
  -4  -4   2-230.516 718.464  -2
  -4  -4   2-230.516 718.464   1
  -4  -4   3-242.970 1050.70  -2
  -4  -4   3-242.970 1050.70   1
  -4  -4   4 4907.98 1357.72  -2
  -4  -4   4 4907.98 1357.72   1
  -4  -4   5 9004.86 1477.42  -2
  -4  -4   5 9004.86 1477.42   1
  -4  -4   6 1983.95 1448.23  -2
  -4  -4   6 1983.95 1448.23   1
  -4  -3  -8 5517.21 1450.56  -2
  -4  -3  -8 5517.21 1450.56   1
  -4  -3  -7 1893.59 1213.16  -2
  -4  -3  -7 1893.59 1213.16   1
  -4  -3  -6 32018.8 1828.64  -2
  -4  -3  -6 32018.8 1828.64   1
  -4  -3  -5 60612.9 2133.68  -2
  -4  -3  -5 60612.9 2133.68   1
  -4  -3  -1 123507. 2787.07  -2
  -4  -3  -1 123507. 2787.07   1
  -4  -3   0 6436.91 1272.77  -2
  -4  -3   0 6436.91 1272.77   1
  -4  -3   1 76799.9 2350.94  -2
  -4  -3   1 76799.9 2350.94   1
  -4  -3   2 143533. 1844.61  -2
  -4  -3   2 143533. 1844.61   1
  -4  -3   3 66306.2 1781.73  -2
  -4  -3   3 66306.2 1781.73   1
  -4  -3   4 577.875 1121.04  -2
  -4  -3   4 577.875 1121.04   1
  -4  -3   5 33989.6 1707.28  -2
  -4  -3   5 33989.6 1707.28   1
  -4  -3   6 26768.1 1707.70  -2
  -4  -3   6 26768.1 1707.70   1
  -4  -2  -8 37186.2 2036.02  -2
  -4  -2  -8 37186.2 2036.02   1
  -4  -2  -7 2518.95 1096.30  -2
  -4  -2  -7 2518.95 1096.30   1
  -4  -2  -6 16063.1 1419.81  -2
  -4  -2  -6 16063.1 1419.81   1
  -4  -2  -5 84863.3 2340.21  -2
  -4  -2  -5 84863.3 2340.21   1
  -4  -2  -2 96986.7 2312.22  -2
  -4  -2  -2 96986.7 2312.22   1
  -4  -2  -1 133217. 2736.20  -2
  -4  -2  -1 133217. 2736.20   1
  -4  -2   0 21380.5 1588.88  -2
  -4  -2   0 21380.5 1588.88   1
  -4  -2   1 30387.4 1556.51  -2
  -4  -2   1 30387.4 1556.51   1
  -4  -2   2 97128.4 1427.33  -2
  -4  -2   2 97128.4 1427.33   1
  -4  -2   3 55656.4 1492.27  -2
  -4  -2   3 55656.4 1492.27   1
  -4  -2   4 10613.6 1130.25  -2
  -4  -2   4 10613.6 1130.25   1
  -4  -2   5 3013.46 1252.01  -2
  -4  -2   5 3013.46 1252.01   1
  -4  -2   6 23106.6 1681.05  -2
  -4  -2   6 23106.6 1681.05   1
  -4  -1  -8 18034.0 1545.73  -2
  -4  -1  -8 18034.0 1545.73   1
  -4  -1  -7 26647.4 1678.94  -2
  -4  -1  -7 26647.4 1678.94   1
  -4  -1  -6 2921.50 969.337  -2
  -4  -1  -6 2921.50 969.337   1
  -4  -1  -5 229.810 848.838  -2
  -4  -1  -5 229.810 848.838   1
  -4  -1  -2-317.830 753.762  -2
  -4  -1  -2-317.830 753.762   1
  -4  -1  -1 1145.26 831.453  -2
  -4  -1  -1 1145.26 831.453   1
  -4  -1   0 23271.4 1384.85  -2
  -4  -1   0 23271.4 1384.85   1
  -4  -1   1 32578.9 1552.37  -2
  -4  -1   1 32578.9 1552.37   1
  -4  -1   1 18171.8 745.228   1
  -4  -1   2 2237.19 904.966  -2
  -4  -1   2 2237.19 904.966   1
  -4  -1   3 320.637 886.526  -2
  -4  -1   3 320.637 886.526   1
  -4  -1   4 6787.53 1151.72  -2
  -4  -1   4 6787.53 1151.72   1
  -4  -1   5 12432.8 1432.86  -2
  -4  -1   5 12432.8 1432.86   1
  -4  -1   6 131.414 908.924   1
  -4  -1   7 613.099 1110.87   1
  -4   0  -8 3690.09 1229.60  -2
  -4   0  -8 3690.09 1229.60   1
  -4   0  -7 4372.11 1145.47  -2
  -4   0  -7 4372.11 1145.47   1
  -4   0  -6 55201.6 2080.64  -2
  -4   0  -6 55201.6 2080.64   1
  -4   0  -5 94832.9 2323.90  -2
  -4   0  -5 94832.9 2323.90   1
  -4   0  -2 150323. 2624.13  -2
  -4   0  -2 150323. 2624.13   1
  -4   0  -1 82825.6 2133.41  -2
  -4   0  -1 82825.6 2133.41   1
  -4   0   0-555.114 953.276  -2
  -4   0   0-555.114 953.276   1
  -4   0   1 66407.8 1948.22  -2
  -4   0   1 66407.8 1948.22   1
  -4   0   2 92068.7 2305.91  -2
  -4   0   2 92068.7 2305.91   1
  -4   0   3 19393.2 1078.67  -2
  -4   0   3 19393.2 1078.67   1
  -4   0   4 6296.13 1086.28  -2
  -4   0   4 6296.13 1086.28   1
  -4   0   5 37785.0 1507.99   1
  -4   0   6 17608.3 1316.46   1
  -4   0   7 607.037 1067.16   1
  -4   1  -8 53259.9 2260.03  -2
  -4   1  -8 53259.9 2260.03   1
  -4   1  -7 1538.06 1067.63  -2
  -4   1  -7 1538.06 1067.63   1
  -4   1  -6 54104.4 2076.11  -2
  -4   1  -6 54104.4 2076.11   1
  -4   1  -5 67814.7 1978.21  -2
  -4   1  -5 67814.7 1978.21   1
  -4   1  -1 155110. 2853.36  -2
  -4   1  -1 155110. 2853.36   1
  -4   1   0 39005.4 1912.07  -2
  -4   1   0 39005.4 1912.07   1
  -4   1   1 3154.00 933.523  -2
  -4   1   1 3154.00 933.523   1
  -4   1   2 56365.7 1841.95  -2
  -4   1   2 56365.7 1841.95   1
  -4   1   2 34821.4 1165.56   1
  -4   1   3 7997.30 884.809   1
  -4   1   4 1186.76 858.417   1
  -4   1   5 4353.07 1059.14   1
  -4   1   6 7252.86 1219.43   1
  -4   2  -8 4004.40 1332.16  -2
  -4   2  -8 4004.40 1332.16   1
  -4   2  -7 8117.07 1336.06  -2
  -4   2  -7 8117.07 1336.06   1
  -4   2  -6 304.964 1072.24  -2
  -4   2  -6 304.964 1072.24   1
  -4   2  -5 515.632 898.405  -2
  -4   2  -5 515.632 898.405   1
  -4   2  -1 7589.37 1016.10  -2
  -4   2  -1 7589.37 1016.10   1
  -4   2   0 13542.9 1191.88  -2
  -4   2   0 13542.9 1191.88   1
  -4   2   0 10361.5 824.301   1
  -4   2   1 32541.0 1503.67  -2
  -4   2   1 32541.0 1503.67   1
  -4   2   2 7356.53 1050.88  -2
  -4   2   2 7356.53 1050.88   1
  -4   2   3 2461.49 744.927   1
  -4   2   4 19371.9 1279.42   1
  -4   2   5 26280.5 1529.41   1
  -4   2   6 3430.00 1252.96   1
  -4   3  -8 14071.8 1308.57   1
  -4   3  -7 5265.29 1440.60  -2
  -4   3  -7 5265.29 1440.60   1
  -4   3  -6 51902.7 1911.55  -2
  -4   3  -6 51902.7 1911.55   1
  -4   3  -5 31911.8 1546.75  -2
  -4   3  -5 31911.8 1546.75   1
  -4   3  -1 58979.8 1873.21  -2
  -4   3  -1 58979.8 1873.21   1
  -4   3  -1 37000.6 1232.68   1
  -4   3   0 1176.63 1065.88  -2
  -4   3   0 1176.63 1065.88   1
  -4   3   1 86576.5 2215.55  -2
  -4   3   1 86576.5 2215.55   1
  -4   3   1 55705.7 1695.45   1
  -4   3   2 66447.3 1996.85  -2
  -4   3   2 66447.3 1996.85   1
  -4   3   3-164.821 734.561   1
  -4   3   4 21574.3 1287.01   1
  -4   3   5 40767.3 1696.94   1
  -4   3   6 18156.7 1515.92   1
  -4   4  -7 1420.56 1208.75  -2
  -4   4  -7 1420.56 1208.75   1
  -4   4  -6 59556.9 2061.82  -2
  -4   4  -6 59556.9 2061.82   1
  -4   4  -1 21208.3 1146.17   1
  -4   4   0-78.7818 918.239  -2
  -4   4   0-78.7818 918.239   1
  -4   4   0-136.011 679.501   1
  -4   4   1 9294.77 1246.25  -2
  -4   4   1 9294.77 1246.25   1
  -4   4   1 7650.19 1025.68   1
  -4   4   2 24524.4 1476.90  -2
  -4   4   2 24524.4 1476.90   1
  -4   4   2 15647.3 1233.87   1
  -4   4   3 6172.51 1153.23  -2
  -4   4   3 6172.51 1153.23   1
  -4   4   5 3098.29 1066.59   1
  -4   5  -1 1695.89 805.689   1
  -4   5   0 22183.4 1479.04  -2
  -4   5   0 22183.4 1479.04   1
  -4   5   0 17145.9 1168.22   1
  -4   5   1 29215.2 1646.90  -2
  -4   5   1 29215.2 1646.90   1
  -4   5   1 23332.4 1592.75   1
  -4   5   2 4740.95 640.397   1
  -4   5   3 2216.55 1005.76   1
  -4   5   4 10766.6 1368.22   1
  -4   6  -1 719.957 936.504   1
  -4   6   0 27901.7 1571.83   1
  -4   6   1 59997.4 2290.46   1
  -4   6   2 51100.9 2437.78   1
  -4   6   3 55.5859 1144.31   1
  -4   7  -1 6878.41 1351.22   1
  -4   7   0 3636.38 1206.98   1
  -4   7   1 14067.9 1402.86   1
  -4   7   2 6093.91 1457.83   1
  -3  -9   2 15326.2 2061.08  -2
  -3  -9   2 15326.2 2061.08   1
  -3  -8   2 893.227 1482.37  -2
  -3  -8   2 893.227 1482.37   1
  -3  -8   3 7349.80 1883.06  -2
  -3  -8   3 7349.80 1883.06   1
  -3  -8   4 12622.5 1820.29  -2
  -3  -8   4 12622.5 1820.29   1
  -3  -7   2 45059.5 2367.66  -2
  -3  -7   2 45059.5 2367.66   1
  -3  -7   3 1416.40 1326.73  -2
  -3  -7   3 1416.40 1326.73   1
  -3  -7   4 35510.0 2073.70  -2
  -3  -7   4 35510.0 2073.70   1
  -3  -7   5 52492.5 2416.63  -2
  -3  -7   5 52492.5 2416.63   1
  -3  -6  -7 7593.85 1538.83  -2
  -3  -6  -7 7593.85 1538.83   1
  -3  -6  -6 96865.1 3056.56  -2
  -3  -6  -6 96865.1 3056.56   1
  -3  -6  -5 90896.5 2695.04  -2
  -3  -6  -5 90896.5 2695.04   1
  -3  -6   0-209.671 759.718  -2
  -3  -6   0-209.671 759.718   1
  -3  -6   1 51943.5 2016.30  -2
  -3  -6   1 51943.5 2016.30   1
  -3  -6   2 64201.3 1647.96  -2
  -3  -6   2 64201.3 1647.96   1
  -3  -6   3 18856.2 1620.24  -2
  -3  -6   3 18856.2 1620.24   1
  -3  -6   4-257.434 1218.86  -2
  -3  -6   4-257.434 1218.86   1
  -3  -6   5 1805.99 1445.49  -2
  -3  -6   5 1805.99 1445.49   1
  -3  -6   6 235.051 1584.14  -2
  -3  -6   6 235.051 1584.14   1
  -3  -5  -9 168.952 1508.27  -2
  -3  -5  -9 168.952 1508.27   1
  -3  -5  -8 959.832 1282.48  -2
  -3  -5  -8 959.832 1282.48   1
  -3  -5  -7 2051.64 1209.07  -2
  -3  -5  -7 2051.64 1209.07   1
  -3  -5  -6 5466.30 1247.85  -2
  -3  -5  -6 5466.30 1247.85   1
  -3  -5  -5 1322.60 1023.07  -2
  -3  -5  -5 1322.60 1023.07   1
  -3  -5  -4 31467.2 1635.91  -2
  -3  -5  -4 31467.2 1635.91   1
  -3  -5  -1 4905.69 882.188  -2
  -3  -5  -1 4905.69 882.188   1
  -3  -5   0 41046.3 1729.87  -2
  -3  -5   0 41046.3 1729.87   1
  -3  -5   1 20372.0 969.439  -2
  -3  -5   1 20372.0 969.439   1
  -3  -5   2 3259.13 708.877  -2
  -3  -5   2 3259.13 708.877   1
  -3  -5   3 22990.4 1553.17  -2
  -3  -5   3 22990.4 1553.17   1
  -3  -5   4 89535.0 2386.79  -2
  -3  -5   4 89535.0 2386.79   1
  -3  -5   5 40572.0 1911.42  -2
  -3  -5   5 40572.0 1911.42   1
  -3  -5   6 139.977 1502.10  -2
  -3  -5   6 139.977 1502.10   1
  -3  -4  -9 37561.1 2124.47  -2
  -3  -4  -9 37561.1 2124.47   1
  -3  -4  -8 219.758 1139.36  -2
  -3  -4  -8 219.758 1139.36   1
  -3  -4  -7 67225.6 2241.76  -2
  -3  -4  -7 67225.6 2241.76   1
  -3  -4  -6 154132. 3195.68  -2
  -3  -4  -6 154132. 3195.68   1
  -3  -4  -5 82599.4 2476.17  -2
  -3  -4  -5 82599.4 2476.17   1
  -3  -4  -4 3909.70 962.178  -2
  -3  -4  -4 3909.70 962.178   1
  -3  -4  -1 12359.7 1124.23  -2
  -3  -4  -1 12359.7 1124.23   1
  -3  -4   0 139616. 2907.36  -2
  -3  -4   0 139616. 2907.36   1
  -3  -4   1 237295. 2452.07  -2
  -3  -4   1 237295. 2452.07   1
  -3  -4   2 55626.5 1768.39  -2
  -3  -4   2 55626.5 1768.39   1
  -3  -4   3 2902.58 1001.57  -2
  -3  -4   3 2902.58 1001.57   1
  -3  -4   4 84037.8 2206.96  -2
  -3  -4   4 84037.8 2206.96   1
  -3  -4   5 58533.6 2037.23  -2
  -3  -4   5 58533.6 2037.23   1
  -3  -4   6 891.408 1361.80  -2
  -3  -4   6 891.408 1361.80   1
  -3  -4   7 17733.1 1843.94  -2
  -3  -4   7 17733.1 1843.94   1
  -3  -3  -9 31211.2 1922.09  -2
  -3  -3  -9 31211.2 1922.09   1
  -3  -3  -8 775.860 1091.44  -2
  -3  -3  -8 775.860 1091.44   1
  -3  -3  -7 19575.2 1384.39  -2
  -3  -3  -7 19575.2 1384.39   1
  -3  -3  -6 81616.2 2227.42  -2
  -3  -3  -6 81616.2 2227.42   1
  -3  -3  -5 125181. 2772.90  -2
  -3  -3  -5 125181. 2772.90   1
  -3  -3  -4 15399.2 1190.03  -2
  -3  -3  -4 15399.2 1190.03   1
  -3  -3  -3 50613.8 1703.52  -2
  -3  -3  -3 50613.8 1703.52   1
  -3  -3  -1 46587.7 1525.82  -2
  -3  -3  -1 46587.7 1525.82   1
  -3  -3   0-11.2758 414.350  -2
  -3  -3   0-11.2758 414.350   1
  -3  -3   0 2.48991 266.220   1
  -3  -3   1 24519.5 816.542  -2
  -3  -3   1 24519.5 816.542   1
  -3  -3   2 17696.8 1076.69  -2
  -3  -3   2 17696.8 1076.69   1
  -3  -3   3 13429.5 1140.30  -2
  -3  -3   3 13429.5 1140.30   1
  -3  -3   4-220.427 1015.17  -2
  -3  -3   4-220.427 1015.17   1
  -3  -3   5 11592.6 1421.74  -2
  -3  -3   5 11592.6 1421.74   1
  -3  -3   6 4197.31 1398.55  -2
  -3  -3   6 4197.31 1398.55   1
  -3  -3   7 579.877 1414.52  -2
  -3  -3   7 579.877 1414.52   1
  -3  -2  -9 425.573 1071.79  -2
  -3  -2  -9 425.573 1071.79   1
  -3  -2  -8 13113.5 1259.32  -2
  -3  -2  -8 13113.5 1259.32   1
  -3  -2  -7 7104.83 1046.08  -2
  -3  -2  -7 7104.83 1046.08   1
  -3  -2  -6 1395.90 793.762  -2
  -3  -2  -6 1395.90 793.762   1
  -3  -2  -5 481.807 713.471  -2
  -3  -2  -5 481.807 713.471   1
  -3  -2  -4 34871.4 1496.29  -2
  -3  -2  -4 34871.4 1496.29   1
  -3  -2  -3 23505.9 537.707  -2
  -3  -2  -3 23505.9 537.707   1
  -3  -2  -2 218.000 181.031   1
  -3  -2  -1 82639.5 865.888  -2
  -3  -2  -1 82639.5 865.888   1
  -3  -2   0 322464. 2073.73  -2
  -3  -2   0 322464. 2073.73   1
  -3  -2   0 250950. 1735.78   1
  -3  -2   1 150274. 1598.71  -2
  -3  -2   1 150274. 1598.71   1
  -3  -2   2 5224.87 787.179  -2
  -3  -2   2 5224.87 787.179   1
  -3  -2   3 27332.3 1283.86  -2
  -3  -2   3 27332.3 1283.86   1
  -3  -2   4 90191.7 2064.18  -2
  -3  -2   4 90191.7 2064.18   1
  -3  -2   5 33097.1 1616.90  -2
  -3  -2   5 33097.1 1616.90   1
  -3  -2   6 112.937 1218.64  -2
  -3  -2   6 112.937 1218.64   1
  -3  -2   7 34702.6 1875.83  -2
  -3  -2   7 34702.6 1875.83   1
  -3  -1  -9 17980.5 1536.61  -2
  -3  -1  -9 17980.5 1536.61   1
  -3  -1  -8-54.3484 815.241  -2
  -3  -1  -8-54.3484 815.241   1
  -3  -1  -7 46069.3 1711.60  -2
  -3  -1  -7 46069.3 1711.60   1
  -3  -1  -6 88145.9 2093.09  -2
  -3  -1  -6 88145.9 2093.09   1
  -3  -1  -5 30222.7 1314.19  -2
  -3  -1  -5 30222.7 1314.19   1
  -3  -1  -4 58376.8 1731.75  -2
  -3  -1  -4 58376.8 1731.75   1
  -3  -1  -3 224707. 2867.76  -2
  -3  -1  -3 224707. 2867.76   1
  -3  -1  -1 6820.07 249.652  -2
  -3  -1  -1 6820.07 249.652   1
  -3  -1   0 226002. 1515.71  -2
  -3  -1   0 226002. 1515.71   1
  -3  -1   1 270289. 2399.87  -2
  -3  -1   1 270289. 2399.87   1
  -3  -1   2 34308.2 1107.59  -2
  -3  -1   2 34308.2 1107.59   1
  -3  -1   3 27649.0 1159.69  -2
  -3  -1   3 27649.0 1159.69   1
  -3  -1   4 157046. 2371.05  -2
  -3  -1   4 157046. 2371.05   1
  -3  -1   5 111868. 2241.64  -2
  -3  -1   5 111868. 2241.64   1
  -3  -1   6 278.662 1224.02  -2
  -3  -1   6 278.662 1224.02   1
  -3  -1   7 18892.1 1732.48  -2
  -3  -1   7 18892.1 1732.48   1
  -3  -1   8 12385.5 1532.06   1
  -3   0  -9 39321.4 1994.89  -2
  -3   0  -9 39321.4 1994.89   1
  -3   0  -8 7359.74 1040.82  -2
  -3   0  -8 7359.74 1040.82   1
  -3   0  -7 15068.5 1192.08  -2
  -3   0  -7 15068.5 1192.08   1
  -3   0  -6 34637.0 1410.94  -2
  -3   0  -6 34637.0 1410.94   1
  -3   0  -5 15042.9 1015.84  -2
  -3   0  -5 15042.9 1015.84   1
  -3   0  -4 566.019 675.589  -2
  -3   0  -4 566.019 675.589   1
  -3   0  -3 47687.8 1396.15  -2
  -3   0  -3 47687.8 1396.15   1
  -3   0  -1 42318.3 1317.46  -2
  -3   0  -1 42318.3 1317.46   1
  -3   0  -1 26160.7 508.099   1
  -3   0   0 2631.21 297.763  -2
  -3   0   0 2631.21 297.763   1
  -3   0   1 23349.8 738.345  -2
  -3   0   1 23349.8 738.345   1
  -3   0   2 10456.9 771.461  -2
  -3   0   2 10456.9 771.461   1
  -3   0   3 346.076 808.617  -2
  -3   0   3 346.076 808.617   1
  -3   0   4 1888.40 1038.96  -2
  -3   0   4 1888.40 1038.96   1
  -3   0   5 13396.1 1228.56  -2
  -3   0   5 13396.1 1228.56   1
  -3   0   6 19888.0 1409.76  -2
  -3   0   6 19888.0 1409.76   1
  -3   0   7 6628.71 1365.55  -2
  -3   0   7 6628.71 1365.55   1
  -3   0   8-144.353 1179.27   1
  -3   1  -9 146.612 650.674   1
  -3   1  -8 12882.4 1258.85  -2
  -3   1  -8 12882.4 1258.85   1
  -3   1  -7 23738.7 1370.47  -2
  -3   1  -7 23738.7 1370.47   1
  -3   1  -6 873.805 768.683  -2
  -3   1  -6 873.805 768.683   1
  -3   1  -5 22307.3 1176.79  -2
  -3   1  -5 22307.3 1176.79   1
  -3   1  -4 157386. 2608.02  -2
  -3   1  -4 157386. 2608.02   1
  -3   1  -3 116788. 2042.56  -2
  -3   1  -3 116788. 2042.56   1
  -3   1  -3 86428.7 964.077   1
  -3   1  -2 3584.38 292.330   1
  -3   1  -1 29414.2 1129.40  -2
  -3   1  -1 29414.2 1129.40   1
  -3   1  -1 20561.1 642.103   1
  -3   1   0 168247. 2472.78  -2
  -3   1   0 168247. 2472.78   1
  -3   1   0 96595.1 1049.80   1
  -3   1   1 121210. 1207.89  -2
  -3   1   1 121210. 1207.89   1
  -3   1   2 169.892 675.853  -2
  -3   1   2 169.892 675.853   1
  -3   1   3 78690.8 1540.69  -2
  -3   1   3 78690.8 1540.69   1
  -3   1   4 113762. 2034.20  -2
  -3   1   4 113762. 2034.20   1
  -3   1   5 15430.2 1317.68  -2
  -3   1   5 15430.2 1317.68   1
  -3   1   6 18494.3 1431.15  -2
  -3   1   6 18494.3 1431.15   1
  -3   1   7 22378.6 1499.27   1
  -3   2  -9 11981.2 1087.48   1
  -3   2  -8 5282.86 798.452   1
  -3   2  -7 74286.6 2044.51  -2
  -3   2  -7 74286.6 2044.51   1
  -3   2  -6 32982.4 1415.17  -2
  -3   2  -6 32982.4 1415.17   1
  -3   2  -5 2380.31 790.808  -2
  -3   2  -5 2380.31 790.808   1
  -3   2  -4 133020. 2393.01  -2
  -3   2  -4 133020. 2393.01   1
  -3   2  -3 365381. 2012.35  -2
  -3   2  -3 365381. 2012.35   1
  -3   2  -2 101807. 1479.14   1
  -3   2  -1 13914.7 993.311  -2
  -3   2  -1 13914.7 993.311   1
  -3   2  -1 11614.7 602.905   1
  -3   2   0 206933. 2704.16  -2
  -3   2   0 206933. 2704.16   1
  -3   2   0 133764. 1215.86   1
  -3   2   1 191992. 2608.35  -2
  -3   2   1 191992. 2608.35   1
  -3   2   1 120177. 1532.77   1
  -3   2   2 4212.46 832.261  -2
  -3   2   2 4212.46 832.261   1
  -3   2   3 65979.9 1701.93  -2
  -3   2   3 65979.9 1701.93   1
  -3   2   4 88190.0 2078.63  -2
  -3   2   4 88190.0 2078.63   1
  -3   2   5 54146.7 1987.24  -2
  -3   2   5 54146.7 1987.24   1
  -3   2   6 221.984 1537.73  -2
  -3   2   6 221.984 1537.73   1
  -3   2   7 10058.3 1501.08   1
  -3   3  -9 5986.15 952.003   1
  -3   3  -8 628.191 635.549   1
  -3   3  -7 13219.3 1260.28  -2
  -3   3  -7 13219.3 1260.28   1
  -3   3  -6 50158.8 1685.03  -2
  -3   3  -6 50158.8 1685.03   1
  -3   3  -5 11156.1 1072.96  -2
  -3   3  -5 11156.1 1072.96   1
  -3   3  -4 721.188 463.366  -2
  -3   3  -4 721.188 463.366   1
  -3   3  -3 25331.9 1002.87  -2
  -3   3  -3 25331.9 1002.87   1
  -3   3  -2 18356.6 902.446   1
  -3   3  -1 333.041 646.144  -2
  -3   3  -1 333.041 646.144   1
  -3   3  -1 837.591 421.109   1
  -3   3   0 7607.03 849.742  -2
  -3   3   0 7607.03 849.742   1
  -3   3   0 7702.90 757.874   1
  -3   3   1 27135.6 1146.16  -2
  -3   3   1 27135.6 1146.16   1
  -3   3   1 20731.0 718.159   1
  -3   3   2 37339.0 1125.86   1
  -3   3   3 20770.1 1228.82  -2
  -3   3   3 20770.1 1228.82   1
  -3   3   4 547.971 1096.85  -2
  -3   3   4 547.971 1096.85   1
  -3   3   5 2442.41 1032.04   1
  -3   3   6 8087.74 1279.16   1
  -3   3   7 3601.05 1356.05   1
  -3   4  -9 1248.13 777.451   1
  -3   4  -8 15345.6 1119.49   1
  -3   4  -7 23525.9 1272.96   1
  -3   4  -6 2021.35 968.489  -2
  -3   4  -6 2021.35 968.489   1
  -3   4  -5 16959.3 767.702  -2
  -3   4  -5 16959.3 767.702   1
  -3   4  -4 97618.7 1346.63  -2
  -3   4  -4 97618.7 1346.63   1
  -3   4  -3 133673. 2172.43  -2
  -3   4  -3 133673. 2172.43   1
  -3   4  -2 2920.54 934.718  -2
  -3   4  -2 2920.54 934.718   1
  -3   4  -1 58384.6 1618.44  -2
  -3   4  -1 58384.6 1618.44   1
  -3   4   0 87136.9 1966.96  -2
  -3   4   0 87136.9 1966.96   1
  -3   4   0 74272.1 2053.09   1
  -3   4   1 18477.0 1092.34  -2
  -3   4   1 18477.0 1092.34   1
  -3   4   1 12964.0 714.643   1
  -3   4   2 25697.9 1221.17  -2
  -3   4   2 25697.9 1221.17   1
  -3   4   2 18038.4 1142.74   1
  -3   4   3 58538.6 1645.03   1
  -3   4   4 32320.9 1416.67   1
  -3   4   5 3331.88 1361.34  -2
  -3   4   5 3331.88 1361.34   1
  -3   4   6 18650.7 1510.14   1
  -3   4   7 39113.8 1990.53   1
  -3   5  -8 23071.3 1386.59   1
  -3   5  -7 100750. 2395.29   1
  -3   5  -6 55094.4 1742.42   1
  -3   5  -5 4610.66 659.006  -2
  -3   5  -5 4610.66 659.006   1
  -3   5  -4 90757.3 2002.21  -2
  -3   5  -4 90757.3 2002.21   1
  -3   5  -3 115530. 2260.40  -2
  -3   5  -3 115530. 2260.40   1
  -3   5  -2 10791.8 1022.36   1
  -3   5  -1 42371.1 1721.55  -2
  -3   5  -1 42371.1 1721.55   1
  -3   5   0 113967. 1623.76  -2
  -3   5   0 113967. 1623.76   1
  -3   5   1 93162.2 2085.18  -2
  -3   5   1 93162.2 2085.18   1
  -3   5   1 70576.1 2303.27   1
  -3   5   2 5069.71 864.846  -2
  -3   5   2 5069.71 864.846   1
  -3   5   2 3510.70 684.054   1
  -3   5   3 20957.6 1450.75   1
  -3   5   4 21272.2 1666.52   1
  -3   5   5 157.198 1044.28   1
  -3   5   6 6252.76 1257.51   1
  -3   6  -6 16068.1 1236.89  -2
  -3   6  -6 16068.1 1236.89   1
  -3   6  -5 1986.24 953.803  -2
  -3   6  -5 1986.24 953.803   1
  -3   6  -4 1517.68 992.849  -2
  -3   6  -4 1517.68 992.849   1
  -3   6  -3 10600.7 1194.55  -2
  -3   6  -3 10600.7 1194.55   1
  -3   6  -2 35730.1 1820.91  -2
  -3   6  -2 35730.1 1820.91   1
  -3   6  -1 7264.73 1357.03  -2
  -3   6  -1 7264.73 1357.03   1
  -3   6   0 1639.58 771.449   1
  -3   6   1 6432.23 1169.90   1
  -3   6   2 16481.5 1485.70   1
  -3   6   3 11543.3 986.977   1
  -3   6   4 1732.00 827.814   1
  -3   6   5 392.268 1377.79   1
  -3   7  -6 3860.95 1160.74  -2
  -3   7  -6 3860.95 1160.74   1
  -3   7  -5 12491.0 1381.33  -2
  -3   7  -5 12491.0 1381.33   1
  -3   7  -4 21800.9 1560.82  -2
  -3   7  -4 21800.9 1560.82   1
  -3   7  -3 10068.6 1363.15  -2
  -3   7  -3 10068.6 1363.15   1
  -3   7  -2 5313.67 1440.29  -2
  -3   7  -2 5313.67 1440.29   1
  -3   7  -1 95019.0 3028.87  -2
  -3   7  -1 95019.0 3028.87   1
  -3   7   0 81207.6 2637.25  -2
  -3   7   0 81207.6 2637.25   1
  -3   7   1 8299.50 1195.60   1
  -3   7   2 19924.5 1799.00   1
  -3   7   3 71891.3 2923.36   1
  -3   7   4 14756.3 1716.91   1
  -3   8  -4 45178.3 2106.46  -2
  -3   8  -4 45178.3 2106.46   1
  -3   8  -3 41716.2 2081.47  -2
  -3   8  -3 41716.2 2081.47   1
  -3   8  -2 2634.56 1472.40  -2
  -3   8  -2 2634.56 1472.40   1
  -3   8  -1 33870.9 2451.12  -2
  -3   8  -1 33870.9 2451.12   1
  -3   8   0 43645.9 2550.49  -2
  -3   8   0 43645.9 2550.49   1
  -3   8   1 1288.09 1096.99   1
  -3   8   2 3240.57 1298.90   1
  -2  -8   4 74096.6 3154.89  -2
  -2  -8   4 74096.6 3154.89   1
  -2  -8   5 15763.8 1986.58  -2
  -2  -8   5 15763.8 1986.58   1
  -2  -7   3 3493.70 1356.79  -2
  -2  -7   3 3493.70 1356.79   1
  -2  -7   4 410.315 1453.59  -2
  -2  -7   4 410.315 1453.59   1
  -2  -7   5 467.448 1451.99  -2
  -2  -7   5 467.448 1451.99   1
  -2  -7   6 7986.10 1787.49  -2
  -2  -7   6 7986.10 1787.49   1
  -2  -6  -6 13.9315 978.676  -2
  -2  -6  -6 13.9315 978.676   1
  -2  -6  -5 82130.3 2266.73  -2
  -2  -6  -5 82130.3 2266.73   1
  -2  -6  -4 184255. 3302.75  -2
  -2  -6  -4 184255. 3302.75   1
  -2  -6   0 136834. 2133.12  -2
  -2  -6   0 136834. 2133.12   1
  -2  -6   1 47599.0 1565.86  -2
  -2  -6   1 47599.0 1565.86   1
  -2  -6   3 140337. 3439.67  -2
  -2  -6   3 140337. 3439.67   1
  -2  -6   4 72571.3 2461.94  -2
  -2  -6   4 72571.3 2461.94   1
  -2  -6   5-198.985 1226.79  -2
  -2  -6   5-198.985 1226.79   1
  -2  -6   6 31918.7 1955.92  -2
  -2  -6   6 31918.7 1955.92   1
  -2  -6   7 51494.8 2417.20  -2
  -2  -6   7 51494.8 2417.20   1
  -2  -5  -9 445.594 1420.52  -2
  -2  -5  -9 445.594 1420.52   1
  -2  -5  -8 62334.8 2394.04  -2
  -2  -5  -8 62334.8 2394.04   1
  -2  -5  -7 118014. 3047.82  -2
  -2  -5  -7 118014. 3047.82   1
  -2  -5  -6 40782.5 1777.73  -2
  -2  -5  -6 40782.5 1777.73   1
  -2  -5  -5 19056.6 1262.69  -2
  -2  -5  -5 19056.6 1262.69   1
  -2  -5  -4 144734. 2892.40  -2
  -2  -5  -4 144734. 2892.40   1
  -2  -5   0 423172. 4028.34  -2
  -2  -5   0 423172. 4028.34   1
  -2  -5   1 148484. 2531.85  -2
  -2  -5   1 148484. 2531.85   1
  -2  -5   3 46226.7 2010.37  -2
  -2  -5   3 46226.7 2010.37   1
  -2  -5   4 53050.5 1995.56  -2
  -2  -5   4 53050.5 1995.56   1
  -2  -5   5 2672.73 1281.96  -2
  -2  -5   5 2672.73 1281.96   1
  -2  -5   6 604.039 1447.23  -2
  -2  -5   6 604.039 1447.23   1
  -2  -5   7 19687.5 1873.52  -2
  -2  -5   7 19687.5 1873.52   1
  -2  -4  -9 9624.90 1602.31  -2
  -2  -4  -9 9624.90 1602.31   1
  -2  -4  -8 863.791 1228.60  -2
  -2  -4  -8 863.791 1228.60   1
  -2  -4  -7 8408.36 1213.07  -2
  -2  -4  -7 8408.36 1213.07   1
  -2  -4  -6 35446.4 1643.07  -2
  -2  -4  -6 35446.4 1643.07   1
  -2  -4  -5 28082.5 1399.89  -2
  -2  -4  -5 28082.5 1399.89   1
  -2  -4  -4 1444.72 656.237  -2
  -2  -4  -4 1444.72 656.237   1
  -2  -4  -1 3391.47 575.660  -2
  -2  -4  -1 3391.47 575.660   1
  -2  -4   0 4467.58 704.738  -2
  -2  -4   0 4467.58 704.738   1
  -2  -4   2 47837.8 1763.24  -2
  -2  -4   2 47837.8 1763.24   1
  -2  -4   3 29757.5 1434.00  -2
  -2  -4   3 29757.5 1434.00   1
  -2  -4   4 3763.81 1023.88  -2
  -2  -4   4 3763.81 1023.88   1
  -2  -4   5 39563.7 1752.84  -2
  -2  -4   5 39563.7 1752.84   1
  -2  -4   6 35841.8 1852.03  -2
  -2  -4   6 35841.8 1852.03   1
  -2  -4   7 22267.3 1858.36  -2
  -2  -4   7 22267.3 1858.36   1
  -2  -4   8-554.585 1657.37  -2
  -2  -4   8-554.585 1657.37   1
  -2  -3  -6 2595.60 844.872  -2
  -2  -3  -6 2595.60 844.872   1
  -2  -3  -5 78862.2 2083.69  -2
  -2  -3  -5 78862.2 2083.69   1
  -2  -3  -4 177492. 2732.97  -2
  -2  -3  -4 177492. 2732.97   1
  -2  -3  -2 23799.0 1050.62  -2
  -2  -3  -2 23799.0 1050.62   1
  -2  -3  -1 450301. 3789.24  -2
  -2  -3  -1 450301. 3789.24   1
  -2  -3   0 400185. 2161.79  -2
  -2  -3   0 400185. 2161.79   1
  -2  -3   1 5943.93 642.582  -2
  -2  -3   1 5943.93 642.582   1
  -2  -3   1 2791.78 368.217   1
  -2  -3   2 43645.4 1428.82  -2
  -2  -3   2 43645.4 1428.82   1
  -2  -3   3 123452. 2384.57  -2
  -2  -3   3 123452. 2384.57   1
  -2  -3   4 37305.7 1505.64  -2
  -2  -3   4 37305.7 1505.64   1
  -2  -3   5 25980.0 1478.43  -2
  -2  -3   5 25980.0 1478.43   1
  -2  -3   6 134093. 2790.85  -2
  -2  -3   6 134093. 2790.85   1
  -2  -3   7 113650. 2741.25  -2
  -2  -3   7 113650. 2741.25   1
  -2  -3   8 11183.9 1712.69  -2
  -2  -3   8 11183.9 1712.69   1
  -2  -2 -10 11388.7 1376.98   1
  -2  -2  -6 14832.7 1158.27  -2
  -2  -2  -6 14832.7 1158.27   1
  -2  -2  -5 79735.9 1847.22  -2
  -2  -2  -5 79735.9 1847.22   1
  -2  -2  -4 399216. 3817.04  -2
  -2  -2  -4 399216. 3817.04   1
  -2  -2  -2 198.255 217.186  -2
  -2  -2  -2 198.255 217.186   1
  -2  -2  -1 100653. 1695.23  -2
  -2  -2  -1 100653. 1695.23   1
  -2  -2   0 319674. 1535.20  -2
  -2  -2   0 319674. 1535.20   1
  -2  -2   1 78386.1 1455.15  -2
  -2  -2   1 78386.1 1455.15   1
  -2  -2   1 33470.3 1066.30   1
  -2  -2   2 3301.66 586.526  -2
  -2  -2   2 3301.66 586.526   1
  -2  -2   3 80453.3 1826.22  -2
  -2  -2   3 80453.3 1826.22   1
  -2  -2   4 89834.6 2050.56  -2
  -2  -2   4 89834.6 2050.56   1
  -2  -2   5 1529.99 1010.23  -2
  -2  -2   5 1529.99 1010.23   1
  -2  -2   6 16068.2 1419.42  -2
  -2  -2   6 16068.2 1419.42   1
  -2  -2   7 7900.23 1407.74  -2
  -2  -2   7 7900.23 1407.74   1
  -2  -2   8 3261.76 1462.14  -2
  -2  -2   8 3261.76 1462.14   1
  -2  -1 -10 8555.00 1176.51   1
  -2  -1  -5 1289.75 556.881  -2
  -2  -1  -5 1289.75 556.881   1
  -2  -1  -4 11990.4 797.986  -2
  -2  -1  -4 11990.4 797.986   1
  -2  -1  -3 123400. 1243.33  -2
  -2  -1  -3 123400. 1243.33   1
  -2  -1  -2 137562. 1004.34  -2
  -2  -1  -2 137562. 1004.34   1
  -2  -1  -1 136689. 1787.71  -2
  -2  -1  -1 136689. 1787.71   1
  -2  -1  -1 83697.4 682.778   1
  -2  -1   0 1791.88 143.961  -2
  -2  -1   0 1791.88 143.961   1
  -2  -1   1 90776.0 1119.36  -2
  -2  -1   1 90776.0 1119.36   1
  -2  -1   2 68546.2 1527.09  -2
  -2  -1   2 68546.2 1527.09   1
  -2  -1   3 52825.0 1458.19  -2
  -2  -1   3 52825.0 1458.19   1
  -2  -1   4 138.372 815.754  -2
  -2  -1   4 138.372 815.754   1
  -2  -1   5 81281.4 1947.61  -2
  -2  -1   5 81281.4 1947.61   1
  -2  -1   6 94848.5 2220.29  -2
  -2  -1   6 94848.5 2220.29   1
  -2  -1   7 35600.5 1794.88  -2
  -2  -1   7 35600.5 1794.88   1
  -2  -1   8 75.9859 1438.30  -2
  -2  -1   8 75.9859 1438.30   1
  -2   0 -10 1375.10 895.117   1
  -2   0  -5 124513. 2113.43  -2
  -2   0  -5 124513. 2113.43   1
  -2   0  -4 102283. 1915.28  -2
  -2   0  -4 102283. 1915.28   1
  -2   0  -1 122403. 857.235   1
  -2   0   0 158885. 1112.72  -2
  -2   0   0 158885. 1112.72   1
  -2   0   1 55617.8 1016.47  -2
  -2   0   1 55617.8 1016.47   1
  -2   0   2 432124. 3038.07  -2
  -2   0   2 432124. 3038.07   1
  -2   0   3 375732. 3251.94  -2
  -2   0   3 375732. 3251.94   1
  -2   0   4 58083.4 1563.21  -2
  -2   0   4 58083.4 1563.21   1
  -2   0   5 56010.7 1676.49  -2
  -2   0   5 56010.7 1676.49   1
  -2   0   6 140187. 2618.41  -2
  -2   0   6 140187. 2618.41   1
  -2   0   7 51784.6 2030.21  -2
  -2   0   7 51784.6 2030.21   1
  -2   0   8 930.228 1321.00  -2
  -2   0   8 930.228 1321.00   1
  -2   1 -10 8162.94 1215.93   1
  -2   1  -9 7843.28 1076.17   1
  -2   1  -5 60046.1 1515.73  -2
  -2   1  -5 60046.1 1515.73   1
  -2   1  -4 301851. 3058.50  -2
  -2   1  -4 301851. 3058.50   1
  -2   1  -3 223600. 2335.65  -2
  -2   1  -3 223600. 2335.65   1
  -2   1  -2 143.380 469.014  -2
  -2   1  -2 143.380 469.014   1
  -2   1  -2 41.7305 158.280   1
  -2   1  -1 70668.8 1278.82  -2
  -2   1  -1 70668.8 1278.82   1
  -2   1  -1 47968.0 798.381   1
  -2   1   0 90051.2 1428.23  -2
  -2   1   0 90051.2 1428.23   1
  -2   1   1 579.800 384.981  -2
  -2   1   1 579.800 384.981   1
  -2   1   2 89213.5 1406.39  -2
  -2   1   2 89213.5 1406.39   1
  -2   1   3 58902.6 1361.58  -2
  -2   1   3 58902.6 1361.58   1
  -2   1   4 31324.8 1173.87  -2
  -2   1   4 31324.8 1173.87   1
  -2   1   5 2335.78 925.938  -2
  -2   1   5 2335.78 925.938   1
  -2   1   6 14344.2 1347.04  -2
  -2   1   6 14344.2 1347.04   1
  -2   1   7 17821.7 1575.33  -2
  -2   1   7 17821.7 1575.33   1
  -2   1   8 3437.27 1114.06   1
  -2   2  -9 798.970 860.012   1
  -2   2  -8 1075.80 770.521   1
  -2   2  -6 47262.6 1558.29  -2
  -2   2  -6 47262.6 1558.29   1
  -2   2  -5 17404.2 982.188  -2
  -2   2  -5 17404.2 982.188   1
  -2   2  -4 48.4976 521.655  -2
  -2   2  -4 48.4976 521.655   1
  -2   2  -3 46919.2 733.360  -2
  -2   2  -3 46919.2 733.360   1
  -2   2  -2 72651.8 1360.01  -2
  -2   2  -2 72651.8 1360.01   1
  -2   2  -2 56433.6 1022.97   1
  -2   2  -1 62058.5 1193.64  -2
  -2   2  -1 62058.5 1193.64   1
  -2   2  -1 42487.0 924.073   1
  -2   2   0 2314.10 512.124  -2
  -2   2   0 2314.10 512.124   1
  -2   2   0 2259.47 242.092   1
  -2   2   1 150326. 1564.35  -2
  -2   2   1 150326. 1564.35   1
  -2   2   2 288418. 2594.11  -2
  -2   2   2 288418. 2594.11   1
  -2   2   3 82911.6 1796.35  -2
  -2   2   3 82911.6 1796.35   1
  -2   2   4 831.974 945.686  -2
  -2   2   4 831.974 945.686   1
  -2   2   5 39936.5 1557.76  -2
  -2   2   5 39936.5 1557.76   1
  -2   2   6 35442.6 1714.47  -2
  -2   2   6 35442.6 1714.47   1
  -2   2   7 1295.99 1444.37  -2
  -2   2   7 1295.99 1444.37   1
  -2   2   8 5291.54 1317.02   1
  -2   3  -9 20532.5 1491.90   1
  -2   3  -8 53238.5 1916.43   1
  -2   3  -7 6854.71 825.366   1
  -2   3  -6 33775.1 1344.93  -2
  -2   3  -6 33775.1 1344.93   1
  -2   3  -5 181234. 2709.29  -2
  -2   3  -5 181234. 2709.29   1
  -2   3  -4 167721. 1451.73  -2
  -2   3  -4 167721. 1451.73   1
  -2   3  -3 284.546 378.095  -2
  -2   3  -3 284.546 378.095   1
  -2   3  -2 312631. 1955.67  -2
  -2   3  -2 312631. 1955.67   1
  -2   3  -1 239044. 2496.44   1
  -2   3   0 55282.1 1019.40  -2
  -2   3   0 55282.1 1019.40   1
  -2   3   1 55217.3 1311.19   1
  -2   3   2 326216. 2865.10  -2
  -2   3   2 326216. 2865.10   1
  -2   3   3 197829. 2496.85  -2
  -2   3   3 197829. 2496.85   1
  -2   3   4 20710.2 1387.80  -2
  -2   3   4 20710.2 1387.80   1
  -2   3   5 40921.4 1822.96  -2
  -2   3   5 40921.4 1822.96   1
  -2   3   6 145083. 2981.53  -2
  -2   3   6 145083. 2981.53   1
  -2   3   7 27994.3 2036.00  -2
  -2   3   7 27994.3 2036.00   1
  -2   3   8 1815.50 1352.00   1
  -2   4  -9 16236.4 1247.79   1
  -2   4  -8 72991.2 2054.63   1
  -2   4  -7 70378.2 1888.83   1
  -2   4  -6 393.546 927.765  -2
  -2   4  -6 393.546 927.765   1
  -2   4  -5 42900.0 910.036  -2
  -2   4  -5 42900.0 910.036   1
  -2   4  -4 39365.3 849.315  -2
  -2   4  -4 39365.3 849.315   1
  -2   4  -3 2683.19 470.109  -2
  -2   4  -3 2683.19 470.109   1
  -2   4  -2 60114.5 1636.10  -2
  -2   4  -2 60114.5 1636.10   1
  -2   4  -1 123999. 2151.67  -2
  -2   4  -1 123999. 2151.67   1
  -2   4   0 88763.2 2128.68  -2
  -2   4   0 88763.2 2128.68   1
  -2   4   0 57499.1 1196.35   1
  -2   4   1 16874.8 1094.59  -2
  -2   4   1 16874.8 1094.59   1
  -2   4   1 11566.0 929.768   1
  -2   4   2 26843.9 1387.16  -2
  -2   4   2 26843.9 1387.16   1
  -2   4   3 56846.9 1582.19  -2
  -2   4   3 56846.9 1582.19   1
  -2   4   4 5475.56 1157.91  -2
  -2   4   4 5475.56 1157.91   1
  -2   4   5-152.475 1219.44  -2
  -2   4   5-152.475 1219.44   1
  -2   4   6 7178.28 1522.35  -2
  -2   4   6 7178.28 1522.35   1
  -2   4   7 13012.3 1777.83  -2
  -2   4   7 13012.3 1777.83   1
  -2   5  -9 223.014 783.920   1
  -2   5  -8-40.0310 757.199   1
  -2   5  -7 11246.7 947.566   1
  -2   5  -6 31025.9 1170.88   1
  -2   5  -5 30408.0 883.640  -2
  -2   5  -5 30408.0 883.640   1
  -2   5  -4 3972.39 547.265  -2
  -2   5  -4 3972.39 547.265   1
  -2   5  -3 37907.5 1400.17  -2
  -2   5  -3 37907.5 1400.17   1
  -2   5  -3 31484.5 923.671   1
  -2   5  -2 109005. 2327.66  -2
  -2   5  -2 109005. 2327.66   1
  -2   5  -1 28799.1 1390.18  -2
  -2   5  -1 28799.1 1390.18   1
  -2   5   0 455.917 898.753  -2
  -2   5   0 455.917 898.753   1
  -2   5   0 578.977 323.391   1
  -2   5   1 39956.3 1834.20  -2
  -2   5   1 39956.3 1834.20   1
  -2   5   1 26348.1 856.765   1
  -2   5   2 78172.2 1566.31  -2
  -2   5   2 78172.2 1566.31   1
  -2   5   3 11775.7 1458.66  -2
  -2   5   3 11775.7 1458.66   1
  -2   5   4 11692.7 1581.00  -2
  -2   5   4 11692.7 1581.00   1
  -2   5   5 71583.4 2211.99  -2
  -2   5   5 71583.4 2211.99   1
  -2   5   6 50013.2 2190.83  -2
  -2   5   6 50013.2 2190.83   1
  -2   5   7 513.227 1664.22  -2
  -2   5   7 513.227 1664.22   1
  -2   6  -6 57649.3 1753.42  -2
  -2   6  -6 57649.3 1753.42   1
  -2   6  -5 95645.1 2167.21  -2
  -2   6  -5 95645.1 2167.21   1
  -2   6  -4 27414.8 1368.30  -2
  -2   6  -4 27414.8 1368.30   1
  -2   6  -3 14914.6 1196.05  -2
  -2   6  -3 14914.6 1196.05   1
  -2   6  -2 224066. 3592.23  -2
  -2   6  -2 224066. 3592.23   1
  -2   6  -1 275863. 4104.25  -2
  -2   6  -1 275863. 4104.25   1
  -2   6   0 51089.8 1943.27  -2
  -2   6   0 51089.8 1943.27   1
  -2   6   1 22804.9 1767.42  -2
  -2   6   1 22804.9 1767.42   1
  -2   6   2 146360. 3284.81  -2
  -2   6   2 146360. 3284.81   1
  -2   6   3 43419.7 2196.06  -2
  -2   6   3 43419.7 2196.06   1
  -2   6   3 29977.7 1697.98   1
  -2   6   4 8583.06 1767.71  -2
  -2   6   4 8583.06 1767.71   1
  -2   6   5 45953.7 2562.42  -2
  -2   6   5 45953.7 2562.42   1
  -2   6   6 49561.1 2912.99  -2
  -2   6   6 49561.1 2912.99   1
  -2   7  -6 5011.86 1120.71  -2
  -2   7  -6 5011.86 1120.71   1
  -2   7  -5 40967.8 1751.02  -2
  -2   7  -5 40967.8 1751.02   1
  -2   7  -4 27602.0 1531.67  -2
  -2   7  -4 27602.0 1531.67   1
  -2   7  -3 1618.61 1092.52  -2
  -2   7  -3 1618.61 1092.52   1
  -2   7  -2 22442.4 1604.96  -2
  -2   7  -2 22442.4 1604.96   1
  -2   7  -1 66193.7 2518.28  -2
  -2   7  -1 66193.7 2518.28   1
  -2   7   0 11369.2 1492.08  -2
  -2   7   0 11369.2 1492.08   1
  -2   7   1 877.599 1256.33  -2
  -2   7   1 877.599 1256.33   1
  -2   7   2 3475.39 1714.91  -2
  -2   7   2 3475.39 1714.91   1
  -2   7   3 15537.1 1562.71   1
  -2   7   4 12012.5 1439.34   1
  -2   7   5 3312.92 2254.50  -2
  -2   7   5 3312.92 2254.50   1
  -2   7   5 3599.44 1299.10   1
  -2   8  -5 3176.41 1283.35  -2
  -2   8  -5 3176.41 1283.35   1
  -2   8  -4 264.782 1133.66  -2
  -2   8  -4 264.782 1133.66   1
  -2   8  -3 12902.3 1518.00  -2
  -2   8  -3 12902.3 1518.00   1
  -2   8  -2 58729.2 2481.00  -2
  -2   8  -2 58729.2 2481.00   1
  -2   8  -1 25739.7 2162.33  -2
  -2   8  -1 25739.7 2162.33   1
  -2   8   0 4765.83 1655.56  -2
  -2   8   0 4765.83 1655.56   1
  -2   8   1 40273.7 2217.91  -2
  -2   8   1 40273.7 2217.91   1
  -2   8   2 38319.2 2469.83  -2
  -2   8   2 38319.2 2469.83   1
  -2   8   3 415.738 1384.81   1
  -2   8   4 26423.8 2245.51   1
  -2   9  -3 7847.15 1689.83  -2
  -2   9  -3 7847.15 1689.83   1
  -2   9  -2 65805.4 2867.43  -2
  -2   9  -2 65805.4 2867.43   1
  -2   9  -1 41658.9 2654.35  -2
  -2   9  -1 41658.9 2654.35   1
  -2   9   0 2342.52 1948.74  -2
  -2   9   0 2342.52 1948.74   1
  -2   9   1 30362.7 2455.08  -2
  -2   9   1 30362.7 2455.08   1
  -1  -9   4 6681.29 1670.48  -2
  -1  -9   4 6681.29 1670.48   1
  -1  -8   4 294.809 1293.40  -2
  -1  -8   4 294.809 1293.40   1
  -1  -8   5 27623.3 2358.27  -2
  -1  -8   5 27623.3 2358.27   1
  -1  -7   4 1890.68 1241.65  -2
  -1  -7   4 1890.68 1241.65   1
  -1  -7   5 66125.2 2649.53  -2
  -1  -7   5 66125.2 2649.53   1
  -1  -7   6 76897.6 2720.57  -2
  -1  -7   6 76897.6 2720.57   1
  -1  -7   7 15123.3 2004.17  -2
  -1  -7   7 15123.3 2004.17   1
  -1  -6  -5 68337.6 1840.60  -2
  -1  -6  -5 68337.6 1840.60   1
  -1  -6  -3 18357.6 950.543  -2
  -1  -6  -3 18357.6 950.543   1
  -1  -6   1 2451.17 381.646  -2
  -1  -6   1 2451.17 381.646   1
  -1  -6   2 1587.84 879.100  -2
  -1  -6   2 1587.84 879.100   1
  -1  -6   4 114.991 1144.97  -2
  -1  -6   4 114.991 1144.97   1
  -1  -6   5 775.375 1129.46  -2
  -1  -6   5 775.375 1129.46   1
  -1  -6   6 4922.96 1376.53  -2
  -1  -6   6 4922.96 1376.53   1
  -1  -6   7 22868.8 1917.16  -2
  -1  -6   7 22868.8 1917.16   1
  -1  -5  -3 84123.3 1719.43  -2
  -1  -5  -3 84123.3 1719.43   1
  -1  -5  -2 178076. 2176.83  -2
  -1  -5  -2 178076. 2176.83   1
  -1  -5   1 144910. 2324.51  -2
  -1  -5   1 144910. 2324.51   1
  -1  -5   4 47849.0 2062.83  -2
  -1  -5   4 47849.0 2062.83   1
  -1  -5   5 74141.5 2169.21  -2
  -1  -5   5 74141.5 2169.21   1
  -1  -5   6 57259.0 2104.78  -2
  -1  -5   6 57259.0 2104.78   1
  -1  -5   7-28.7561 1409.20  -2
  -1  -5   7-28.7561 1409.20   1
  -1  -5   8 30396.1 2167.14  -2
  -1  -5   8 30396.1 2167.14   1
  -1  -4  -3 98725.5 1891.32  -2
  -1  -4  -3 98725.5 1891.32   1
  -1  -4  -2 574774. 3801.71  -2
  -1  -4  -2 574774. 3801.71   1
  -1  -4   0 528.258 314.287  -2
  -1  -4   0 528.258 314.287   1
  -1  -4   3 113350. 2488.07  -2
  -1  -4   3 113350. 2488.07   1
  -1  -4   4 10258.8 1046.53  -2
  -1  -4   4 10258.8 1046.53   1
  -1  -4   5 137044. 2687.35  -2
  -1  -4   5 137044. 2687.35   1
  -1  -4   6 123859. 2637.56  -2
  -1  -4   6 123859. 2637.56   1
  -1  -4   7 24168.4 1717.19  -2
  -1  -4   7 24168.4 1717.19   1
  -1  -4   8 11404.7 1733.08  -2
  -1  -4   8 11404.7 1733.08   1
  -1  -3  -2 3806.59 470.477  -2
  -1  -3  -2 3806.59 470.477   1
  -1  -3  -1 16540.2 633.416  -2
  -1  -3  -1 16540.2 633.416   1
  -1  -3   0 23030.6 714.724  -2
  -1  -3   0 23030.6 714.724   1
  -1  -3   3 127236. 2344.14  -2
  -1  -3   3 127236. 2344.14   1
  -1  -3   4 43288.7 1502.06  -2
  -1  -3   4 43288.7 1502.06   1
  -1  -3   5 666.098 898.565  -2
  -1  -3   5 666.098 898.565   1
  -1  -3   6 1472.23 1040.08  -2
  -1  -3   6 1472.23 1040.08   1
  -1  -3   7 12955.5 1411.10  -2
  -1  -3   7 12955.5 1411.10   1
  -1  -3   8 21944.4 1761.64  -2
  -1  -3   8 21944.4 1761.64   1
  -1  -3   9 1985.91 1659.39  -2
  -1  -3   9 1985.91 1659.39   1
  -1  -2  -2 606481. 2627.99  -2
  -1  -2  -2 606481. 2627.99   1
  -1  -2  -1 236440. 1466.95  -2
  -1  -2  -1 236440. 1466.95   1
  -1  -2   0 51802.0 698.890  -2
  -1  -2   0 51802.0 698.890   1
  -1  -2   1 122370. 1575.32  -2
  -1  -2   1 122370. 1575.32   1
  -1  -2   2 105848. 1834.79  -2
  -1  -2   2 105848. 1834.79   1
  -1  -2   3 6964.44 724.401  -2
  -1  -2   3 6964.44 724.401   1
  -1  -2   4 168660. 2554.66  -2
  -1  -2   4 168660. 2554.66   1
  -1  -2   5 224517. 3081.77  -2
  -1  -2   5 224517. 3081.77   1
  -1  -2   6 38997.3 1653.54  -2
  -1  -2   6 38997.3 1653.54   1
  -1  -2   7 11660.2 1351.55  -2
  -1  -2   7 11660.2 1351.55   1
  -1  -2   8 103485. 2622.63  -2
  -1  -2   8 103485. 2622.63   1
  -1  -2   9 43814.3 2230.01  -2
  -1  -2   9 43814.3 2230.01   1
  -1  -1  -2 333791. 1385.72  -2
  -1  -1  -2 333791. 1385.72   1
  -1  -1  -1 544108. 1557.70  -2
  -1  -1  -1 544108. 1557.70   1
  -1  -1   0 387.719 111.140  -2
  -1  -1   0 387.719 111.140   1
  -1  -1   1 699540. 3457.03  -2
  -1  -1   1 699540. 3457.03   1
  -1  -1   2 608633. 3889.44  -2
  -1  -1   2 608633. 3889.44   1
  -1  -1   3 161151. 2297.33  -2
  -1  -1   3 161151. 2297.33   1
  -1  -1   4 8417.98 884.723  -2
  -1  -1   4 8417.98 884.723   1
  -1  -1   5 93791.6 2014.07  -2
  -1  -1   5 93791.6 2014.07   1
  -1  -1   6 22423.0 1318.82  -2
  -1  -1   6 22423.0 1318.82   1
  -1  -1   7 14.6739 1139.99  -2
  -1  -1   7 14.6739 1139.99   1
  -1  -1   8 20626.9 1723.24  -2
  -1  -1   8 20626.9 1723.24   1
  -1  -1   9 41624.7 2263.55  -2
  -1  -1   9 41624.7 2263.55   1
  -1   0  -3 2152.02 365.055  -2
  -1   0  -3 2152.02 365.055   1
  -1   0  -2 132067. 825.184  -2
  -1   0  -2 132067. 825.184   1
  -1   0   0 54419.2 502.511  -2
  -1   0   0 54419.2 502.511   1
  -1   0   1 42062.5 831.827  -2
  -1   0   1 42062.5 831.827   1
  -1   0   2 47725.6 1090.93  -2
  -1   0   2 47725.6 1090.93   1
  -1   0   3 102802. 1662.64  -2
  -1   0   3 102802. 1662.64   1
  -1   0   4 173028. 2373.72  -2
  -1   0   4 173028. 2373.72   1
  -1   0   5 18366.5 1139.32  -2
  -1   0   5 18366.5 1139.32   1
  -1   0   6 6171.81 1045.78  -2
  -1   0   6 6171.81 1045.78   1
  -1   0   7 21407.9 1479.13  -2
  -1   0   7 21407.9 1479.13   1
  -1   0   8 31018.4 1908.19  -2
  -1   0   8 31018.4 1908.19   1
  -1   0   9 3304.25 1665.38  -2
  -1   0   9 3304.25 1665.38   1
  -1   1  -3 50550.1 1012.42   1
  -1   1  -2 92653.2 740.918  -2
  -1   1  -2 92653.2 740.918   1
  -1   1  -1 48705.4 782.894  -2
  -1   1  -1 48705.4 782.894   1
  -1   1  -1 38964.6 654.478   1
  -1   1   0 367310. 1653.85  -2
  -1   1   0 367310. 1653.85   1
  -1   1   0 189532. 1071.39   1
  -1   1   1 932123. 3451.97  -2
  -1   1   1 932123. 3451.97   1
  -1   1   2 113473. 1543.40  -2
  -1   1   2 113473. 1543.40   1
  -1   1   3 17210.8 803.658  -2
  -1   1   3 17210.8 803.658   1
  -1   1   4 194734. 2459.42  -2
  -1   1   4 194734. 2459.42   1
  -1   1   5 171890. 2455.14  -2
  -1   1   5 171890. 2455.14   1
  -1   1   6 3732.66 1004.05  -2
  -1   1   6 3732.66 1004.05   1
  -1   1   7 46364.8 1703.72  -2
  -1   1   7 46364.8 1703.72   1
  -1   1   8 138258. 2883.24  -2
  -1   1   8 138258. 2883.24   1
  -1   1   9 44682.1 2049.08   1
  -1   2  -4 9517.84 543.345   1
  -1   2  -3 322346. 2249.24  -2
  -1   2  -3 322346. 2249.24   1
  -1   2  -3 177626. 1630.89   1
  -1   2  -2 516367. 1975.50  -2
  -1   2  -2 516367. 1975.50   1
  -1   2  -1 94339.1 838.933  -2
  -1   2  -1 94339.1 838.933   1
  -1   2   0 9495.08 519.673  -2
  -1   2   0 9495.08 519.673   1
  -1   2   0 6909.02 239.898   1
  -1   2   1 221000. 1757.85  -2
  -1   2   1 221000. 1757.85   1
  -1   2   2 140443. 1940.89  -2
  -1   2   2 140443. 1940.89   1
  -1   2   3 982.436 687.422  -2
  -1   2   3 982.436 687.422   1
  -1   2   4 47693.3 1439.24  -2
  -1   2   4 47693.3 1439.24   1
  -1   2   5 151488. 2514.83  -2
  -1   2   5 151488. 2514.83   1
  -1   2   6 33880.7 1551.15  -2
  -1   2   6 33880.7 1551.15   1
  -1   2   7 10191.9 1309.49  -2
  -1   2   7 10191.9 1309.49   1
  -1   2   8 28380.0 1828.90  -2
  -1   2   8 28380.0 1828.90   1
  -1   2   9 12081.7 1568.56   1
  -1   3  -4 14662.0 716.013  -2
  -1   3  -4 14662.0 716.013   1
  -1   3  -4 7338.39 432.987   1
  -1   3  -3 1624.11 448.307  -2
  -1   3  -3 1624.11 448.307   1
  -1   3  -2 107311. 986.063  -2
  -1   3  -2 107311. 986.063   1
  -1   3  -1 204022. 2329.86  -2
  -1   3  -1 204022. 2329.86   1
  -1   3  -1 147338. 1245.25   1
  -1   3   0 368860. 3485.43  -2
  -1   3   0 368860. 3485.43   1
  -1   3   0 238721. 1644.97   1
  -1   3   1 110527. 1631.33  -2
  -1   3   1 110527. 1631.33   1
  -1   3   2 6568.94 675.018  -2
  -1   3   2 6568.94 675.018   1
  -1   3   3 19208.5 1047.19  -2
  -1   3   3 19208.5 1047.19   1
  -1   3   4 27715.2 1419.95  -2
  -1   3   4 27715.2 1419.95   1
  -1   3   5 11841.5 1335.60  -2
  -1   3   5 11841.5 1335.60   1
  -1   3   6 8010.22 1374.46  -2
  -1   3   6 8010.22 1374.46   1
  -1   3   7 33277.7 1904.10  -2
  -1   3   7 33277.7 1904.10   1
  -1   3   8 39223.2 2245.94  -2
  -1   3   8 39223.2 2245.94   1
  -1   3   9 2735.33 1491.78   1
  -1   4  -4 51404.4 1302.62  -2
  -1   4  -4 51404.4 1302.62   1
  -1   4  -3 271252. 1779.37  -2
  -1   4  -3 271252. 1779.37   1
  -1   4  -2 71751.5 1560.98  -2
  -1   4  -2 71751.5 1560.98   1
  -1   4  -2 59858.6 924.794   1
  -1   4  -1 19339.9 1024.92  -2
  -1   4  -1 19339.9 1024.92   1
  -1   4   0 235442. 3398.51  -2
  -1   4   0 235442. 3398.51   1
  -1   4   0 156792. 1228.57   1
  -1   4   1 358457. 3900.03  -2
  -1   4   1 358457. 3900.03   1
  -1   4   2 59489.0 1673.53  -2
  -1   4   2 59489.0 1673.53   1
  -1   4   3 64401.7 1661.85  -2
  -1   4   3 64401.7 1661.85   1
  -1   4   4 268504. 3337.15  -2
  -1   4   4 268504. 3337.15   1
  -1   4   5 209969. 3165.36  -2
  -1   4   5 209969. 3165.36   1
  -1   4   6 3180.12 1279.26  -2
  -1   4   6 3180.12 1279.26   1
  -1   4   7 52475.8 2205.16  -2
  -1   4   7 52475.8 2205.16   1
  -1   4   8 45984.3 2284.12  -2
  -1   4   8 45984.3 2284.12   1
  -1   5  -5 24000.1 1081.80  -2
  -1   5  -5 24000.1 1081.80   1
  -1   5  -5 30061.5 1160.72   1
  -1   5  -4 4883.35 798.760  -2
  -1   5  -4 4883.35 798.760   1
  -1   5  -3 150681. 2473.18  -2
  -1   5  -3 150681. 2473.18   1
  -1   5  -3 119255. 1419.13   1
  -1   5  -2 203453. 2982.26  -2
  -1   5  -2 203453. 2982.26   1
  -1   5  -2 163921. 1412.61   1
  -1   5  -1 21156.5 1299.08  -2
  -1   5  -1 21156.5 1299.08   1
  -1   5   0 33633.8 1480.47  -2
  -1   5   0 33633.8 1480.47   1
  -1   5   1 170265. 3353.78  -2
  -1   5   1 170265. 3353.78   1
  -1   5   1 105447. 1107.73   1
  -1   5   2 51568.3 1298.71  -2
  -1   5   2 51568.3 1298.71   1
  -1   5   3 30683.0 1659.78  -2
  -1   5   3 30683.0 1659.78   1
  -1   5   4 107419. 2874.17  -2
  -1   5   4 107419. 2874.17   1
  -1   5   5 59364.0 2056.27  -2
  -1   5   5 59364.0 2056.27   1
  -1   5   6 24625.5 1745.04  -2
  -1   5   6 24625.5 1745.04   1
  -1   5   7-515.364 1528.24  -2
  -1   5   7-515.364 1528.24   1
  -1   5   8 8986.39 1862.76  -2
  -1   5   8 8986.39 1862.76   1
  -1   6  -6 12270.6 639.561   1
  -1   6  -5 36780.5 1436.10  -2
  -1   6  -5 36780.5 1436.10   1
  -1   6  -5 37349.6 1107.38   1
  -1   6  -4 39834.8 1522.91  -2
  -1   6  -4 39834.8 1522.91   1
  -1   6  -4 32790.8 898.643   1
  -1   6  -3 14673.8 1199.50  -2
  -1   6  -3 14673.8 1199.50   1
  -1   6  -3 12956.8 572.458   1
  -1   6  -2 3785.35 925.372  -2
  -1   6  -2 3785.35 925.372   1
  -1   6  -1 14737.5 1402.30  -2
  -1   6  -1 14737.5 1402.30   1
  -1   6   0 18173.4 1360.71  -2
  -1   6   0 18173.4 1360.71   1
  -1   6   1 24162.2 1714.23  -2
  -1   6   1 24162.2 1714.23   1
  -1   6   2 4124.34 1238.89  -2
  -1   6   2 4124.34 1238.89   1
  -1   6   3 53041.6 1531.88  -2
  -1   6   3 53041.6 1531.88   1
  -1   6   4 39864.2 2141.38  -2
  -1   6   4 39864.2 2141.38   1
  -1   6   5 5567.76 1768.07  -2
  -1   6   5 5567.76 1768.07   1
  -1   6   6 12880.0 2243.05  -2
  -1   6   6 12880.0 2243.05   1
  -1   6   7 23259.2 2380.65  -2
  -1   6   7 23259.2 2380.65   1
  -1   7  -6 12258.3 1000.64   1
  -1   7  -5 2675.09 976.349  -2
  -1   7  -5 2675.09 976.349   1
  -1   7  -4 61964.2 1991.68  -2
  -1   7  -4 61964.2 1991.68   1
  -1   7  -3 186150. 3551.58  -2
  -1   7  -3 186150. 3551.58   1
  -1   7  -2 80892.8 2510.50  -2
  -1   7  -2 80892.8 2510.50   1
  -1   7  -1 21847.5 1861.12  -2
  -1   7  -1 21847.5 1861.12   1
  -1   7   0 173049. 3707.66  -2
  -1   7   0 173049. 3707.66   1
  -1   7   1 153905. 3424.33  -2
  -1   7   1 153905. 3424.33   1
  -1   7   2 8050.38 1622.23  -2
  -1   7   2 8050.38 1622.23   1
  -1   7   3 69490.5 2710.97  -2
  -1   7   3 69490.5 2710.97   1
  -1   7   4 63024.7 2401.37   1
  -1   7   5 50372.7 2776.05  -2
  -1   7   5 50372.7 2776.05   1
  -1   7   5 33529.3 2067.17   1
  -1   7   6-176.711 2030.29  -2
  -1   7   6-176.711 2030.29   1
  -1   8  -6 63576.0 2112.81  -2
  -1   8  -6 63576.0 2112.81   1
  -1   8  -5 8218.35 1249.08  -2
  -1   8  -5 8218.35 1249.08   1
  -1   8  -4 16626.1 1455.00  -2
  -1   8  -4 16626.1 1455.00   1
  -1   8  -3 58593.8 2416.61  -2
  -1   8  -3 58593.8 2416.61   1
  -1   8  -2 33168.7 2100.30  -2
  -1   8  -2 33168.7 2100.30   1
  -1   8  -1 7000.77 1638.97  -2
  -1   8  -1 7000.77 1638.97   1
  -1   8   0 72104.7 2940.00  -2
  -1   8   0 72104.7 2940.00   1
  -1   8   1 70731.8 2694.04  -2
  -1   8   1 70731.8 2694.04   1
  -1   8   2 47530.5 2449.71  -2
  -1   8   2 47530.5 2449.71   1
  -1   8   3-232.510 1742.36  -2
  -1   8   3-232.510 1742.36   1
  -1   8   4 15388.5 1805.36   1
  -1   8   5 8404.57 1569.44   1
  -1   9  -4 7663.36 1455.33  -2
  -1   9  -4 7663.36 1455.33   1
  -1   9  -3 12078.4 1664.39  -2
  -1   9  -3 12078.4 1664.39   1
  -1   9  -2 1202.43 1334.13  -2
  -1   9  -2 1202.43 1334.13   1
  -1   9  -1 15397.8 1949.06  -2
  -1   9  -1 15397.8 1949.06   1
  -1   9   0 10522.0 1938.88  -2
  -1   9   0 10522.0 1938.88   1
  -1   9   1 251.674 1491.44  -2
  -1   9   1 251.674 1491.44   1
  -1   9   2 5024.58 1571.02  -2
  -1   9   2 5024.58 1571.02   1
  -1   9   3 25666.5 2370.25  -2
  -1   9   3 25666.5 2370.25   1
   0  -8   5 23602.9 2223.06  -2
   0  -8   5 23602.9 2223.06   1
   0  -8   6 5262.31 1871.35  -2
   0  -8   6 5262.31 1871.35   1
   0  -7   2 4278.19 1220.19  -2
   0  -7   2 4278.19 1220.19   1
   0  -7   3 32433.4 2044.49  -2
   0  -7   3 32433.4 2044.49   1
   0  -7   5 2094.72 1545.40  -2
   0  -7   5 2094.72 1545.40   1
   0  -7   6 15705.0 1864.12  -2
   0  -7   6 15705.0 1864.12   1
   0  -7   7 47163.5 2417.74  -2
   0  -7   7 47163.5 2417.74   1
   0  -6   5 60914.6 2405.30  -2
   0  -6   5 60914.6 2405.30   1
   0  -6   6 247.488 1259.41  -2
   0  -6   6 247.488 1259.41   1
   0  -6   7 62896.8 2486.15  -2
   0  -6   7 62896.8 2486.15   1
   0  -6   8 68291.7 2658.76  -2
   0  -6   8 68291.7 2658.76   1
   0  -5   1 58845.1 2229.71  -2
   0  -5   1 58845.1 2229.71   1
   0  -5   4 63138.4 1932.14  -2
   0  -5   4 63138.4 1932.14   1
   0  -5   5 42868.6 1814.15  -2
   0  -5   5 42868.6 1814.15   1
   0  -5   6 10771.2 1405.19  -2
   0  -5   6 10771.2 1405.19   1
   0  -5   7 3003.70 1516.46  -2
   0  -5   7 3003.70 1516.46   1
   0  -5   8 20021.7 1898.04  -2
   0  -5   8 20021.7 1898.04   1
   0  -5   9 2972.68 1875.50  -2
   0  -5   9 2972.68 1875.50   1
   0  -4   0 93087.0 2302.57  -2
   0  -4   0 93087.0 2302.57   1
   0  -4   1 3398.98 723.804  -2
   0  -4   1 3398.98 723.804   1
   0  -4   4 102366. 2351.96  -2
   0  -4   4 102366. 2351.96   1
   0  -4   5 16487.1 1236.23  -2
   0  -4   5 16487.1 1236.23   1
   0  -4   6 2657.27 1106.01  -2
   0  -4   6 2657.27 1106.01   1
   0  -4   7 61708.9 2194.43  -2
   0  -4   7 61708.9 2194.43   1
   0  -4   8 18954.0 1831.88  -2
   0  -4   8 18954.0 1831.88   1
   0  -4   9 1831.22 1709.59  -2
   0  -4   9 1831.22 1709.59   1
   0  -3  -1 226162. 3149.67  -2
   0  -3  -1 226162. 3149.67   1
   0  -3   0 449027. 4176.05  -2
   0  -3   0 449027. 4176.05   1
   0  -3   3 326346. 3167.71  -2
   0  -3   3 326346. 3167.71   1
   0  -3   4 497050. 4163.20  -2
   0  -3   4 497050. 4163.20   1
   0  -3   5 110247. 2221.34  -2
   0  -3   5 110247. 2221.34   1
   0  -3   6 8331.46 1153.83  -2
   0  -3   6 8331.46 1153.83   1
   0  -3   7 128401. 2779.06  -2
   0  -3   7 128401. 2779.06   1
   0  -3   8 87405.6 2576.16  -2
   0  -3   8 87405.6 2576.16   1
   0  -3   9 1508.80 1648.62  -2
   0  -3   9 1508.80 1648.62   1
   0  -2  -1 3446.76 455.942  -2
   0  -2  -1 3446.76 455.942   1
   0  -2   0 446687. 2206.99  -2
   0  -2   0 446687. 2206.99   1
   0  -2   3 6665.84 569.724  -2
   0  -2   3 6665.84 569.724   1
   0  -2   4 96168.9 1786.94  -2
   0  -2   4 96168.9 1786.94   1
   0  -2   5 26740.8 1252.65  -2
   0  -2   5 26740.8 1252.65   1
   0  -2   6 1758.04 989.870  -2
   0  -2   6 1758.04 989.870   1
   0  -2   7 2862.81 1194.04  -2
   0  -2   7 2862.81 1194.04   1
   0  -2   8 38327.1 1925.42  -2
   0  -2   8 38327.1 1925.42   1
   0  -2   9 29301.5 1915.65  -2
   0  -2   9 29301.5 1915.65   1
   0  -2  10 2126.21 1356.93   1
   0  -1   0 241623. 1816.36  -2
   0  -1   0 241623. 1816.36   1
   0  -1   2 1301.26 323.167  -2
   0  -1   2 1301.26 323.167   1
   0  -1   3 326734. 2788.80  -2
   0  -1   3 326734. 2788.80   1
   0  -1   4 130158. 2137.96  -2
   0  -1   4 130158. 2137.96   1
   0  -1   5 8380.57 932.834  -2
   0  -1   5 8380.57 932.834   1
   0  -1   6 76132.3 1964.20  -2
   0  -1   6 76132.3 1964.20   1
   0  -1   7 90704.1 2198.15  -2
   0  -1   7 90704.1 2198.15   1
   0  -1   8 16383.4 1583.56  -2
   0  -1   8 16383.4 1583.56   1
   0  -1   9 16071.5 1785.53  -2
   0  -1   9 16071.5 1785.53   1
   0  -1  10 21575.8 1778.14   1
   0   0   1 760907. 10389.7  -2
   0   0   1 760907. 10389.7   1
   0   0   2 2906.32 346.024  -2
   0   0   2 2906.32 346.024   1
   0   0   3 212752. 2354.57  -2
   0   0   3 212752. 2354.57   1
   0   0   4 316291. 3053.26  -2
   0   0   4 316291. 3053.26   1
   0   0   5 17073.4 1055.89  -2
   0   0   5 17073.4 1055.89   1
   0   0   6 52273.5 1653.92  -2
   0   0   6 52273.5 1653.92   1
   0   0   7 131747. 2604.94  -2
   0   0   7 131747. 2604.94   1
   0   0   8 89001.0 2449.70  -2
   0   0   8 89001.0 2449.70   1
   0   0   9 555.246 1431.62  -2
   0   0   9 555.246 1431.62   1
   0   0  10 16440.0 1604.48   1
   0   1  -1 74881.5 870.096  -2
   0   1  -1 74881.5 870.096   1
   0   1   0 247816. 1287.05  -2
   0   1   0 247816. 1287.05   1
   0   1   1 234817. 1796.27  -2
   0   1   1 234817. 1796.27   1
   0   1   2 12305.6 561.533  -2
   0   1   2 12305.6 561.533   1
   0   1   3 4972.26 502.651  -2
   0   1   3 4972.26 502.651   1
   0   1   4 149220. 2185.41  -2
   0   1   4 149220. 2185.41   1
   0   1   5 141639. 2258.79  -2
   0   1   5 141639. 2258.79   1
   0   1   6 12289.1 1144.59  -2
   0   1   6 12289.1 1144.59   1
   0   1   7-548.138 1086.57  -2
   0   1   7-548.138 1086.57   1
   0   1   8 702.524 1352.04  -2
   0   1   8 702.524 1352.04   1
   0   1   9 8451.58 1666.12  -2
   0   1   9 8451.58 1666.12   1
   0   1  10 547.852 1338.09   1
   0   2  -2 43660.9 883.386  -2
   0   2  -2 43660.9 883.386   1
   0   2  -1 412497. 2904.45  -2
   0   2  -1 412497. 2904.45   1
   0   2   0 424856. 1718.84  -2
   0   2   0 424856. 1718.84   1
   0   2   1 3085.55 403.494  -2
   0   2   1 3085.55 403.494   1
   0   2   2 47839.6 1141.77  -2
   0   2   2 47839.6 1141.77   1
   0   2   3 66942.8 1601.08  -2
   0   2   3 66942.8 1601.08   1
   0   2   4 33895.8 1368.54  -2
   0   2   4 33895.8 1368.54   1
   0   2   5 59904.5 1701.06  -2
   0   2   5 59904.5 1701.06   1
   0   2   6 213888. 3063.03  -2
   0   2   6 213888. 3063.03   1
   0   2   7 144563. 2757.86  -2
   0   2   7 144563. 2757.86   1
   0   2   8 17865.0 1689.73  -2
   0   2   8 17865.0 1689.73   1
   0   2   9 41338.8 2318.28  -2
   0   2   9 41338.8 2318.28   1
   0   2  10 42574.6 2396.80   1
   0   3  -3 316710. 2566.94  -2
   0   3  -3 316710. 2566.94   1
   0   3  -2 400.853 325.053  -2
   0   3  -2 400.853 325.053   1
   0   3  -1 134247. 1046.94  -2
   0   3  -1 134247. 1046.94   1
   0   3   0 411592. 2338.43  -2
   0   3   0 411592. 2338.43   1
   0   3   1 202614. 2053.56  -2
   0   3   1 202614. 2053.56   1
   0   3   2 86491.1 1979.05  -2
   0   3   2 86491.1 1979.05   1
   0   3   3 306136. 3385.92  -2
   0   3   3 306136. 3385.92   1
   0   3   4 209613. 3026.48  -2
   0   3   4 209613. 3026.48   1
   0   3   5 3103.15 1028.32  -2
   0   3   5 3103.15 1028.32   1
   0   3   6 115385. 2671.94  -2
   0   3   6 115385. 2671.94   1
   0   3   7 72884.9 2419.67  -2
   0   3   7 72884.9 2419.67   1
   0   3   8 7960.26 1817.22  -2
   0   3   8 7960.26 1817.22   1
   0   3   9 6195.03 2012.24  -2
   0   3   9 6195.03 2012.24   1
   0   4  -4 93085.2 1578.28  -2
   0   4  -4 93085.2 1578.28   1
   0   4  -3 249899. 2753.05  -2
   0   4  -3 249899. 2753.05   1
   0   4  -2 71611.0 1634.82  -2
   0   4  -2 71611.0 1634.82   1
   0   4  -1 2646.14 359.613  -2
   0   4  -1 2646.14 359.613   1
   0   4   0 87807.2 1244.77  -2
   0   4   0 87807.2 1244.77   1
   0   4   1 150541. 3051.78  -2
   0   4   1 150541. 3051.78   1
   0   4   2 6439.38 966.510  -2
   0   4   2 6439.38 966.510   1
   0   4   3 6263.29 1107.64  -2
   0   4   3 6263.29 1107.64   1
   0   4   4 8685.41 1030.04  -2
   0   4   4 8685.41 1030.04   1
   0   4   5 45081.2 1766.98  -2
   0   4   5 45081.2 1766.98   1
   0   4   6 23561.3 1605.37  -2
   0   4   6 23561.3 1605.37   1
   0   4   7 205.346 1400.07  -2
   0   4   7 205.346 1400.07   1
   0   4   8 1172.26 1629.82  -2
   0   4   8 1172.26 1629.82   1
   0   4   9 7662.12 1998.50  -2
   0   4   9 7662.12 1998.50   1
   0   5  -4 66260.4 1533.22  -2
   0   5  -4 66260.4 1533.22   1
   0   5  -3 1695.66 612.989  -2
   0   5  -3 1695.66 612.989   1
   0   5  -2 23811.5 695.258   1
   0   5  -2 30838.8 1298.62  -2
   0   5  -2 30838.8 1298.62   1
   0   5  -1 52984.6 1090.23  -2
   0   5  -1 52984.6 1090.23   1
   0   5   0 44672.2 1010.37  -2
   0   5   0 44672.2 1010.37   1
   0   5   1 37578.4 1837.47  -2
   0   5   1 37578.4 1837.47   1
   0   5   2 357209. 4668.78  -2
   0   5   2 357209. 4668.78   1
   0   5   3 299247. 4540.97  -2
   0   5   3 299247. 4540.97   1
   0   5   4 35839.9 1923.88  -2
   0   5   4 35839.9 1923.88   1
   0   5   5 33563.5 1812.24  -2
   0   5   5 33563.5 1812.24   1
   0   5   6 121133. 2762.88  -2
   0   5   6 121133. 2762.88   1
   0   5   7 41749.3 2112.09  -2
   0   5   7 41749.3 2112.09   1
   0   5   8-363.208 1702.43  -2
   0   5   8-363.208 1702.43   1
   0   6  -5 55568.1 1546.95  -2
   0   6  -5 55568.1 1546.95   1
   0   6  -4 177039. 2666.11  -2
   0   6  -4 177039. 2666.11   1
   0   6  -3 114816. 2370.00  -2
   0   6  -3 114816. 2370.00   1
   0   6  -2 7706.72 231.989   1
   0   6  -2 10479.6 1048.75  -2
   0   6  -2 10479.6 1048.75   1
   0   6  -1 154605. 1862.99  -2
   0   6  -1 154605. 1862.99   1
   0   6   0 129409. 3287.02  -2
   0   6   0 129409. 3287.02   1
   0   6   1 1072.01 880.590  -2
   0   6   1 1072.01 880.590   1
   0   6   2 151854. 3700.27  -2
   0   6   2 151854. 3700.27   1
   0   6   3 157630. 3314.51  -2
   0   6   3 157630. 3314.51   1
   0   6   4 39307.0 2199.33  -2
   0   6   4 39307.0 2199.33   1
   0   6   5 687.841 1434.80  -2
   0   6   5 687.841 1434.80   1
   0   6   6 84166.5 3092.03  -2
   0   6   6 84166.5 3092.03   1
   0   6   7 84679.7 3415.20  -2
   0   6   7 84679.7 3415.20   1
   0   6   8 4305.64 2295.67  -2
   0   6   8 4305.64 2295.67   1
   0   7  -5 3811.49 841.142  -2
   0   7  -5 3811.49 841.142   1
   0   7  -4 21059.4 1260.42  -2
   0   7  -4 21059.4 1260.42   1
   0   7  -3 27737.1 1476.29  -2
   0   7  -3 27737.1 1476.29   1
   0   7  -2 3565.50 953.473  -2
   0   7  -2 3565.50 953.473   1
   0   7  -1 5791.17 1161.22  -2
   0   7  -1 5791.17 1161.22   1
   0   7   0 19311.9 1754.27  -2
   0   7   0 19311.9 1754.27   1
   0   7   1 49658.7 2258.15  -2
   0   7   1 49658.7 2258.15   1
   0   7   2 39598.7 2228.41  -2
   0   7   2 39598.7 2228.41   1
   0   7   3 103.611 1452.96  -2
   0   7   3 103.611 1452.96   1
   0   7   4 657.131 1458.66  -2
   0   7   4 657.131 1458.66   1
   0   7   5 738.501 1052.89   1
   0   7   5 618.100 1772.13  -2
   0   7   5 618.100 1772.13   1
   0   7   6 305.254 2177.51  -2
   0   7   6 305.254 2177.51   1
   0   7   7 3089.80 2193.41  -2
   0   7   7 3089.80 2193.41   1
   0   8  -5 24478.7 1384.30  -2
   0   8  -5 24478.7 1384.30   1
   0   8  -4 26947.2 1543.74  -2
   0   8  -4 26947.2 1543.74   1
   0   8  -3 198.756 929.354  -2
   0   8  -3 198.756 929.354   1
   0   8  -2 89448.8 2872.66  -2
   0   8  -2 89448.8 2872.66   1
   0   8  -1 102850. 3343.69  -2
   0   8  -1 102850. 3343.69   1
   0   8   0 20845.3 2088.37  -2
   0   8   0 20845.3 2088.37   1
   0   8   1 17217.2 1890.41  -2
   0   8   1 17217.2 1890.41   1
   0   8   2 124461. 3430.39  -2
   0   8   2 124461. 3430.39   1
   0   8   3 110353. 3632.31  -2
   0   8   3 110353. 3632.31   1
   0   8   4 9019.17 2150.26  -2
   0   8   4 9019.17 2150.26   1
   0   8   5 14626.7 1710.71   1
   0   8   6 58683.6 2758.74   1
   0   9  -4 27262.9 1764.38  -2
   0   9  -4 27262.9 1764.38   1
   0   9  -3 1261.66 1132.27  -2
   0   9  -3 1261.66 1132.27   1
   0   9  -2 41177.8 2372.81  -2
   0   9  -2 41177.8 2372.81   1
   0   9  -1 122449. 3997.71  -2
   0   9  -1 122449. 3997.71   1
   0   9   0 58883.6 3280.05  -2
   0   9   0 58883.6 3280.05   1
   0   9   1 35.2766 1752.53  -2
   0   9   1 35.2766 1752.53   1
   0   9   2 53409.9 2765.94  -2
   0   9   2 53409.9 2765.94   1
   0   9   3 82904.4 3105.76  -2
   0   9   3 82904.4 3105.76   1
   0   9   4 1076.47 2020.03  -2
   0   9   4 1076.47 2020.03   1
   0   9   5 12186.0 2076.83   1
   0  10  -1 299.872 1483.84  -2
   0  10  -1 299.872 1483.84   1
   0  10   0 2841.96 1694.68  -2
   0  10   0 2841.96 1694.68   1
   0  10   1 204.755 2012.81  -2
   0  10   1 204.755 2012.81   1
   0  10   2 458.141 2020.25  -2
   0  10   2 458.141 2020.25   1
   1  -9   5 5216.09 1832.16  -2
   1  -9   5 5216.09 1832.16   1
   1  -8   2 30984.5 2570.63  -2
   1  -8   2 30984.5 2570.63   1
   1  -8   3 57041.9 3197.31  -2
   1  -8   3 57041.9 3197.31   1
   1  -8   4 21938.0 2782.41  -2
   1  -8   4 21938.0 2782.41   1
   1  -8   5 6188.95 1195.58  -2
   1  -8   5 6188.95 1195.58   1
   1  -8   6 60427.1 2789.65  -2
   1  -8   6 60427.1 2789.65   1
   1  -7   1 18065.8 2016.13  -2
   1  -7   1 18065.8 2016.13   1
   1  -7   2 81944.7 3481.62  -2
   1  -7   2 81944.7 3481.62   1
   1  -7   3 234497. 5932.73  -2
   1  -7   3 234497. 5932.73   1
   1  -7   4 62487.0 2812.98  -2
   1  -7   4 62487.0 2812.98   1
   1  -7   5 1612.06 1462.75  -2
   1  -7   5 1612.06 1462.75   1
   1  -7   6 16554.7 1800.98  -2
   1  -7   6 16554.7 1800.98   1
   1  -7   7 31111.6 2180.51  -2
   1  -7   7 31111.6 2180.51   1
   1  -6   1 12507.6 1522.51  -2
   1  -6   1 12507.6 1522.51   1
   1  -6   2 4065.45 1401.97  -2
   1  -6   2 4065.45 1401.97   1
   1  -6   3 14160.6 1458.91  -2
   1  -6   3 14160.6 1458.91   1
   1  -6   5 32322.4 1947.07  -2
   1  -6   5 32322.4 1947.07   1
   1  -6   6 12816.6 1565.25  -2
   1  -6   6 12816.6 1565.25   1
   1  -6   7 788.558 1436.85  -2
   1  -6   7 788.558 1436.85   1
   1  -6   8 1114.31 1699.38  -2
   1  -6   8 1114.31 1699.38   1
   1  -5  -1 117154. 1104.50   1
   1  -5   0 37667.2 1122.01  -2
   1  -5   0 37667.2 1122.01   1
   1  -5   1 20690.0 1652.97  -2
   1  -5   1 20690.0 1652.97   1
   1  -5   2 147798. 1376.56   1
   1  -5   2 207130. 4155.28  -2
   1  -5   2 207130. 4155.28   1
   1  -5   5 24585.3 1672.31  -2
   1  -5   5 24585.3 1672.31   1
   1  -5   6 105285. 2549.39  -2
   1  -5   6 105285. 2549.39   1
   1  -5   7 45316.1 1982.21  -2
   1  -5   7 45316.1 1982.21   1
   1  -5   8 6852.62 1692.61  -2
   1  -5   8 6852.62 1692.61   1
   1  -5   9 70308.6 2743.99  -2
   1  -5   9 70308.6 2743.99   1
   1  -4   0 191398. 1343.68   1
   1  -4   0 249090. 2194.14  -2
   1  -4   0 249090. 2194.14   1
   1  -4   2 47623.3 805.782   1
   1  -4   4 49792.6 1557.47  -2
   1  -4   4 49792.6 1557.47   1
   1  -4   5 11506.8 1102.14  -2
   1  -4   5 11506.8 1102.14   1
   1  -4   6 67034.1 2008.83  -2
   1  -4   6 67034.1 2008.83   1
   1  -4   7 47494.5 1937.39  -2
   1  -4   7 47494.5 1937.39   1
   1  -4   8 674.239 1464.36  -2
   1  -4   8 674.239 1464.36   1
   1  -4   9 15751.4 1888.93  -2
   1  -4   9 15751.4 1888.93   1
   1  -3   0 291527. 1844.17   1
   1  -3   0 311043. 4143.35  -2
   1  -3   0 311043. 4143.35   1
   1  -3   1 142756. 1263.17   1
   1  -3   1 190692. 3211.71  -2
   1  -3   1 190692. 3211.71   1
   1  -3   4 14028.5 931.653  -2
   1  -3   4 14028.5 931.653   1
   1  -3   5 23294.3 1196.49  -2
   1  -3   5 23294.3 1196.49   1
   1  -3   6 34124.6 1528.05  -2
   1  -3   6 34124.6 1528.05   1
   1  -3   7 438.010 1173.44  -2
   1  -3   7 438.010 1173.44   1
   1  -3   8 37826.4 1951.14  -2
   1  -3   8 37826.4 1951.14   1
   1  -3   9 25426.9 1901.95  -2
   1  -3   9 25426.9 1901.95   1
   1  -3  10 3917.92 1286.72   1
   1  -2   0 8685.47 267.555  -2
   1  -2   0 8685.47 267.555   1
   1  -2   1 97891.0 699.919  -2
   1  -2   1 97891.0 699.919   1
   1  -2   3 350925. 2639.48  -2
   1  -2   3 350925. 2639.48   1
   1  -2   4 24321.4 921.975  -2
   1  -2   4 24321.4 921.975   1
   1  -2   5 275991. 2990.85  -2
   1  -2   5 275991. 2990.85   1
   1  -2   6 279386. 3437.94  -2
   1  -2   6 279386. 3437.94   1
   1  -2   7 65934.2 1986.22  -2
   1  -2   7 65934.2 1986.22   1
   1  -2   8 12624.1 1461.18  -2
   1  -2   8 12624.1 1461.18   1
   1  -2   9 66816.6 2282.01  -2
   1  -2   9 66816.6 2282.01   1
   1  -2  10 20572.6 1722.21   1
   1  -1  -1 999999. 3975.59  -2
   1  -1  -1 999999. 3975.59   1
   1  -1   0 385954. 1640.08  -2
   1  -1   0 385954. 1640.08   1
   1  -1   1 34930.0 652.550   1
   1  -1   1 48080.6 542.165  -2
   1  -1   1 48080.6 542.165   1
   1  -1   2 63202.1 949.514   1
   1  -1   2 102037. 728.578  -2
   1  -1   2 102037. 728.578   1
   1  -1   3 113042. 1395.51  -2
   1  -1   3 113042. 1395.51   1
   1  -1   4 295.127 491.273  -2
   1  -1   4 295.127 491.273   1
   1  -1   5 107200. 2035.50  -2
   1  -1   5 107200. 2035.50   1
   1  -1   6 144232. 2473.35  -2
   1  -1   6 144232. 2473.35   1
   1  -1   7 99974.5 2171.59  -2
   1  -1   7 99974.5 2171.59   1
   1  -1   8 3237.40 1314.23  -2
   1  -1   8 3237.40 1314.23   1
   1  -1   9 18590.5 1859.57  -2
   1  -1   9 18590.5 1859.57   1
   1  -1  10 5412.57 1322.93   1
   1   0  -1 46736.0 953.800  -2
   1   0  -1 46736.0 953.800   1
   1   0   0 60277.7 561.499  -2
   1   0   0 60277.7 561.499   1
   1   0   1 100449. 750.829  -2
   1   0   1 100449. 750.829   1
   1   0   2 138012. 655.884  -2
   1   0   2 138012. 655.884   1
   1   0   3 3598.47 426.580  -2
   1   0   3 3598.47 426.580   1
   1   0   4 131029. 1928.16  -2
   1   0   4 131029. 1928.16   1
   1   0   5 66533.0 1673.68  -2
   1   0   5 66533.0 1673.68   1
   1   0   6 20569.2 1305.29  -2
   1   0   6 20569.2 1305.29   1
   1   0   7-126.287 1105.88  -2
   1   0   7-126.287 1105.88   1
   1   0   8 26039.0 1544.35  -2
   1   0   8 26039.0 1544.35   1
   1   0   9 26328.3 1753.63  -2
   1   0   9 26328.3 1753.63   1
   1   0  10 642.879 1173.70   1
   1   1  -1 773666. 3745.78  -2
   1   1  -1 773666. 3745.78   1
   1   1   1 329255. 1183.73   1
   1   1   1 516603. 1879.36  -2
   1   1   1 516603. 1879.36   1
   1   1   2 370116. 1704.12  -2
   1   1   2 370116. 1704.12   1
   1   1   3 245155. 1780.03  -2
   1   1   3 245155. 1780.03   1
   1   1   4 16056.1 851.464  -2
   1   1   4 16056.1 851.464   1
   1   1   5 335716. 3367.86  -2
   1   1   5 335716. 3367.86   1
   1   1   6 256943. 3120.68  -2
   1   1   6 256943. 3120.68   1
   1   1   7 36962.0 1607.10  -2
   1   1   7 36962.0 1607.10   1
   1   1   8 28794.3 1695.94  -2
   1   1   8 28794.3 1695.94   1
   1   1   9 87210.6 2508.36  -2
   1   1   9 87210.6 2508.36   1
   1   1  10 5436.64 1372.08   1
   1   2  -1 95622.1 1201.39  -2
   1   2  -1 95622.1 1201.39   1
   1   2   0 52420.5 897.604  -2
   1   2   0 52420.5 897.604   1
   1   2   1 252108. 1177.54  -2
   1   2   1 252108. 1177.54   1
   1   2   2 640761. 3773.38  -2
   1   2   2 640761. 3773.38   1
   1   2   3 349156. 3036.21  -2
   1   2   3 349156. 3036.21   1
   1   2   4 37652.7 1330.68  -2
   1   2   4 37652.7 1330.68   1
   1   2   5 63791.6 1810.68  -2
   1   2   5 63791.6 1810.68   1
   1   2   6 79872.1 2160.60  -2
   1   2   6 79872.1 2160.60   1
   1   2   7 15097.2 1502.36  -2
   1   2   7 15097.2 1502.36   1
   1   2   8 1164.53 1569.35  -2
   1   2   8 1164.53 1569.35   1
   1   2   9 8798.16 1928.87  -2
   1   2   9 8798.16 1928.87   1
   1   2  10 9710.41 1661.18   1
   1   3  -2 68506.9 1206.92  -2
   1   3  -2 68506.9 1206.92   1
   1   3  -1 14925.2 632.465  -2
   1   3  -1 14925.2 632.465   1
   1   3   0 22627.6 535.267  -2
   1   3   0 22627.6 535.267   1
   1   3   1 17595.3 380.352  -2
   1   3   1 17595.3 380.352   1
   1   3   2 3563.91 462.541  -2
   1   3   2 3563.91 462.541   1
   1   3   3 812.716 620.256  -2
   1   3   3 812.716 620.256   1
   1   3   4 76027.0 1826.05  -2
   1   3   4 76027.0 1826.05   1
   1   3   5 117644. 2306.26  -2
   1   3   5 117644. 2306.26   1
   1   3   6 7076.10 1165.07  -2
   1   3   6 7076.10 1165.07   1
   1   3   7 21417.1 1633.87  -2
   1   3   7 21417.1 1633.87   1
   1   3   8 74759.9 2554.82  -2
   1   3   8 74759.9 2554.82   1
   1   3   9 43005.0 2380.52  -2
   1   3   9 43005.0 2380.52   1
   1   3  10 431.454 1417.07   1
   1   4  -3 104348. 1593.11  -2
   1   4  -3 104348. 1593.11   1
   1   4  -2 239338. 2700.98  -2
   1   4  -2 239338. 2700.98   1
   1   4  -1 198367. 2678.63  -2
   1   4  -1 198367. 2678.63   1
   1   4   0 744.548 231.158  -2
   1   4   0 744.548 231.158   1
   1   4   1 523704. 2691.78  -2
   1   4   1 523704. 2691.78   1
   1   4   2 547929. 2905.21  -2
   1   4   2 547929. 2905.21   1
   1   4   3 86966.4 1601.83  -2
   1   4   3 86966.4 1601.83   1
   1   4   4 22331.5 1530.12  -2
   1   4   4 22331.5 1530.12   1
   1   4   5 134252. 2579.53  -2
   1   4   5 134252. 2579.53   1
   1   4   6 46091.4 1780.33  -2
   1   4   6 46091.4 1780.33   1
   1   4   7 4220.45 1321.20  -2
   1   4   7 4220.45 1321.20   1
   1   4   8 52231.3 2250.90  -2
   1   4   8 52231.3 2250.90   1
   1   4   9 85686.6 2817.85  -2
   1   4   9 85686.6 2817.85   1
   1   5  -3 19672.8 914.045  -2
   1   5  -3 19672.8 914.045   1
   1   5  -2 200072. 2809.53  -2
   1   5  -2 200072. 2809.53   1
   1   5  -1 137736. 2564.90  -2
   1   5  -1 137736. 2564.90   1
   1   5   0 14288.3 548.698  -2
   1   5   0 14288.3 548.698   1
   1   5   1 65298.7 1999.09  -2
   1   5   1 65298.7 1999.09   1
   1   5   2 149945. 1415.56  -2
   1   5   2 149945. 1415.56   1
   1   5   3 72808.1 1466.76  -2
   1   5   3 72808.1 1466.76   1
   1   5   4 14517.0 1607.53  -2
   1   5   4 14517.0 1607.53   1
   1   5   5 8450.21 1469.18  -2
   1   5   5 8450.21 1469.18   1
   1   5   6 50269.8 2471.81  -2
   1   5   6 50269.8 2471.81   1
   1   5   7 7544.48 1628.88  -2
   1   5   7 7544.48 1628.88   1
   1   5   8 390.206 1554.74  -2
   1   5   8 390.206 1554.74   1
   1   5   9 844.098 1813.78  -2
   1   5   9 844.098 1813.78   1
   1   6  -4 538.087 700.896  -2
   1   6  -4 538.087 700.896   1
   1   6  -3 9402.69 872.879  -2
   1   6  -3 9402.69 872.879   1
   1   6  -2 659.169 623.077  -2
   1   6  -2 659.169 623.077   1
   1   6  -1 2183.23 741.720  -2
   1   6  -1 2183.23 741.720   1
   1   6   0 69853.6 2342.54  -2
   1   6   0 69853.6 2342.54   1
   1   6   1 138927. 2318.71  -2
   1   6   1 138927. 2318.71   1
   1   6   2 11995.0 840.092  -2
   1   6   2 11995.0 840.092   1
   1   6   3 17582.1 1549.15  -2
   1   6   3 17582.1 1549.15   1
   1   6   4 51685.6 1984.21  -2
   1   6   4 51685.6 1984.21   1
   1   6   5 60427.4 2669.93  -2
   1   6   5 60427.4 2669.93   1
   1   6   6 1061.53 1702.79  -2
   1   6   6 1061.53 1702.79   1
   1   6   7 23640.5 2305.79  -2
   1   6   7 23640.5 2305.79   1
   1   6   8 76079.1 3253.01  -2
   1   6   8 76079.1 3253.01   1
   1   7  -4 3103.31 828.732  -2
   1   7  -4 3103.31 828.732   1
   1   7  -3 99388.7 2311.03  -2
   1   7  -3 99388.7 2311.03   1
   1   7  -2 169974. 3291.10  -2
   1   7  -2 169974. 3291.10   1
   1   7  -1 32608.1 1213.37  -2
   1   7  -1 32608.1 1213.37   1
   1   7   0 10567.0 905.085  -2
   1   7   0 10567.0 905.085   1
   1   7   1 125710. 2328.64  -2
   1   7   1 125710. 2328.64   1
   1   7   2 103229. 2015.91  -2
   1   7   2 103229. 2015.91   1
   1   7   3-193.693 1227.12  -2
   1   7   3-193.693 1227.12   1
   1   7   4 78766.4 2864.78  -2
   1   7   4 78766.4 2864.78   1
   1   7   5 103490. 2908.32   1
   1   7   6 26374.0 1818.47   1
   1   7   7 13654.0 2529.90  -2
   1   7   7 13654.0 2529.90   1
   1   8  -4 1298.58 898.227  -2
   1   8  -4 1298.58 898.227   1
   1   8  -3 15745.9 1354.28  -2
   1   8  -3 15745.9 1354.28   1
   1   8  -2 78746.6 2548.67  -2
   1   8  -2 78746.6 2548.67   1
   1   8  -1 56324.1 2340.92  -2
   1   8  -1 56324.1 2340.92   1
   1   8   0 11756.2 1439.13  -2
   1   8   0 11756.2 1439.13   1
   1   8   1 3859.70 810.368  -2
   1   8   1 3859.70 810.368   1
   1   8   2 31071.1 2105.26  -2
   1   8   2 31071.1 2105.26   1
   1   8   3 1826.01 1327.70  -2
   1   8   3 1826.01 1327.70   1
   1   8   4 5144.48 1745.63  -2
   1   8   4 5144.48 1745.63   1
   1   8   5 2761.67 1358.25   1
   1   8   6 4012.59 1412.57   1
   1   8   7 1283.63 1358.20   1
   1   9  -4 5932.85 1209.72  -2
   1   9  -4 5932.85 1209.72   1
   1   9  -3 23681.7 1673.06  -2
   1   9  -3 23681.7 1673.06   1
   1   9  -2 4178.19 1203.13  -2
   1   9  -2 4178.19 1203.13   1
   1   9  -1 4675.26 1348.97  -2
   1   9  -1 4675.26 1348.97   1
   1   9   0 20953.7 1991.92  -2
   1   9   0 20953.7 1991.92   1
   1   9   1 49855.4 2943.66  -2
   1   9   1 49855.4 2943.66   1
   1   9   2 14131.2 2038.74  -2
   1   9   2 14131.2 2038.74   1
   1   9   3 18593.7 1955.65  -2
   1   9   3 18593.7 1955.65   1
   1   9   4 71385.4 2849.58  -2
   1   9   4 71385.4 2849.58   1
   1   9   5 46185.7 2545.75   1
   1   9   6 2004.06 1584.66   1
   1  10  -2 60565.3 2755.85  -2
   1  10  -2 60565.3 2755.85   1
   1  10  -1 6983.17 1670.70  -2
   1  10  -1 6983.17 1670.70   1
   1  10   0 29166.8 2481.39  -2
   1  10   0 29166.8 2481.39   1
   1  10   1 78035.4 3602.44  -2
   1  10   1 78035.4 3602.44   1
   1  10   2 31134.5 2839.26  -2
   1  10   2 31134.5 2839.26   1
   1  10   3 11421.9 2315.18  -2
   1  10   3 11421.9 2315.18   1
   2  -9   3 4589.60 2263.22  -2
   2  -9   3 4589.60 2263.22   1
   2  -9   4 13660.9 2762.27  -2
   2  -9   4 13660.9 2762.27   1
   2  -8   2 59776.6 3534.26  -2
   2  -8   2 59776.6 3534.26   1
   2  -8   3 8141.07 2194.02  -2
   2  -8   3 8141.07 2194.02   1
   2  -8   4 914.901 2013.99  -2
   2  -8   4 914.901 2013.99   1
   2  -8   5 3237.10 1322.37  -2
   2  -8   5 3237.10 1322.37   1
   2  -8   6 11969.1 2355.16  -2
   2  -8   6 11969.1 2355.16   1
   2  -7   2 22656.2 2382.75  -2
   2  -7   2 22656.2 2382.75   1
   2  -7   3 2162.08 1638.18  -2
   2  -7   3 2162.08 1638.18   1
   2  -7   4 35191.1 2923.06  -2
   2  -7   4 35191.1 2923.06   1
   2  -7   5 40617.1 1634.25  -2
   2  -7   5 40617.1 1634.25   1
   2  -7   6 3207.94 1529.41  -2
   2  -7   6 3207.94 1529.41   1
   2  -6   1 248655. 5554.25  -2
   2  -6   1 248655. 5554.25   1
   2  -6   2 215840. 5266.16  -2
   2  -6   2 215840. 5266.16   1
   2  -6   3 10104.4 2042.57  -2
   2  -6   3 10104.4 2042.57   1
   2  -6   4 24837.1 2004.54  -2
   2  -6   4 24837.1 2004.54   1
   2  -6   5 88641.6 2427.13  -2
   2  -6   5 88641.6 2427.13   1
   2  -6   6 53346.5 2062.69  -2
   2  -6   6 53346.5 2062.69   1
   2  -6   7 3411.48 1515.63  -2
   2  -6   7 3411.48 1515.63   1
   2  -5   1 25262.0 1953.25  -2
   2  -5   1 25262.0 1953.25   1
   2  -5   2 127208. 4234.31  -2
   2  -5   2 127208. 4234.31   1
   2  -5   3 35530.2 2017.89  -2
   2  -5   3 35530.2 2017.89   1
   2  -5   5 27978.3 1600.37  -2
   2  -5   5 27978.3 1600.37   1
   2  -5   6 32272.5 1732.95  -2
   2  -5   6 32272.5 1732.95   1
   2  -5   7 9363.61 1489.88  -2
   2  -5   7 9363.61 1489.88   1
   2  -4   0 76846.6 2789.48  -2
   2  -4   0 76846.6 2789.48   1
   2  -4   1 121740. 3337.25  -2
   2  -4   1 121740. 3337.25   1
   2  -4   2 55429.1 2357.63  -2
   2  -4   2 55429.1 2357.63   1
   2  -4   4 30952.9 1293.36  -2
   2  -4   4 30952.9 1293.36   1
   2  -4   5 40213.3 1430.90  -2
   2  -4   5 40213.3 1430.90   1
   2  -4   6-748.011 1055.66  -2
   2  -4   6-748.011 1055.66   1
   2  -4   7 82669.8 2258.85  -2
   2  -4   7 82669.8 2258.85   1
   2  -4   8 90030.2 2578.37  -2
   2  -4   8 90030.2 2578.37   1
   2  -3   3 505.714 298.630   1
   2  -3   4 183821. 2204.98  -2
   2  -3   4 183821. 2204.98   1
   2  -3   5 158002. 2294.73  -2
   2  -3   5 158002. 2294.73   1
   2  -3   6 35485.8 1487.72  -2
   2  -3   6 35485.8 1487.72   1
   2  -3   7 10649.5 1366.41  -2
   2  -3   7 10649.5 1366.41   1
   2  -3   8 60988.3 2108.63  -2
   2  -3   8 60988.3 2108.63   1
   2  -2   1 53508.8 771.926  -2
   2  -2   1 53508.8 771.926   1
   2  -2   2 36571.2 693.540   1
   2  -2   3 36043.1 1000.21   1
   2  -2   3 50742.6 977.491  -2
   2  -2   3 50742.6 977.491   1
   2  -2   4-87.7218 486.548  -2
   2  -2   4-87.7218 486.548   1
   2  -2   5 18467.7 981.234  -2
   2  -2   5 18467.7 981.234   1
   2  -2   6 55938.1 1655.24  -2
   2  -2   6 55938.1 1655.24   1
   2  -2   7 46843.5 1695.22  -2
   2  -2   7 46843.5 1695.22   1
   2  -2   8 807.208 1211.64  -2
   2  -2   8 807.208 1211.64   1
   2  -1   0 106570. 1103.81  -2
   2  -1   0 106570. 1103.81   1
   2  -1   1 74254.6 640.092  -2
   2  -1   1 74254.6 640.092   1
   2  -1   2 134.606 95.5440   1
   2  -1   3 170560. 1349.74   1
   2  -1   3 286877. 1923.01  -2
   2  -1   3 286877. 1923.01   1
   2  -1   4 366816. 2179.16  -2
   2  -1   4 366816. 2179.16   1
   2  -1   5 80470.0 1534.50  -2
   2  -1   5 80470.0 1534.50   1
   2  -1   6 173.703 806.624  -2
   2  -1   6 173.703 806.624   1
   2  -1   7 85493.8 1982.88  -2
   2  -1   7 85493.8 1982.88   1
   2  -1   8 127475. 2590.16  -2
   2  -1   8 127475. 2590.16   1
   2  -1   9 12390.2 1464.45  -2
   2  -1   9 12390.2 1464.45   1
   2   0   0 193891. 1208.04  -2
   2   0   0 193891. 1208.04   1
   2   0   1 185519. 2446.51  -2
   2   0   1 185519. 2446.51   1
   2   0   2 28221.5 465.772   1
   2   0   3 9085.82 321.542   1
   2   0   3 13789.3 381.805  -2
   2   0   3 13789.3 381.805   1
   2   0   4 258217. 1711.44  -2
   2   0   4 258217. 1711.44   1
   2   0   5 178914. 2033.14  -2
   2   0   5 178914. 2033.14   1
   2   0   6 9337.32 904.616  -2
   2   0   6 9337.32 904.616   1
   2   0   7 47315.6 1561.46  -2
   2   0   7 47315.6 1561.46   1
   2   0   8 112283. 2347.11  -2
   2   0   8 112283. 2347.11   1
   2   0   9 18901.1 1642.37  -2
   2   0   9 18901.1 1642.37   1
   2   1   2 165284. 2565.76  -2
   2   1   2 165284. 2565.76   1
   2   1   3 62996.3 585.316   1
   2   1   3 118145. 2313.02  -2
   2   1   3 118145. 2313.02   1
   2   1   4 13144.3 560.896  -2
   2   1   4 13144.3 560.896   1
   2   1   5 2168.18 490.214  -2
   2   1   5 2168.18 490.214   1
   2   1   6 637.841 870.514  -2
   2   1   6 637.841 870.514   1
   2   1   7 8115.07 1197.30  -2
   2   1   7 8115.07 1197.30   1
   2   1   8 290.117 1323.02  -2
   2   1   8 290.117 1323.02   1
   2   1   9 15043.1 1770.00  -2
   2   1   9 15043.1 1770.00   1
   2   2   1 60670.1 488.272   1
   2   2   2 42.7993 101.642   1
   2   2   3 206776. 1547.39  -2
   2   2   3 206776. 1547.39   1
   2   2   4 416882. 2292.11  -2
   2   2   4 416882. 2292.11   1
   2   2   5 94547.2 1329.73  -2
   2   2   5 94547.2 1329.73   1
   2   2   6 20729.2 1199.27  -2
   2   2   6 20729.2 1199.27   1
   2   2   7 139190. 2599.88  -2
   2   2   7 139190. 2599.88   1
   2   2   8 112181. 2656.86  -2
   2   2   8 112181. 2656.86   1
   2   2   9 3210.39 1698.63  -2
   2   2   9 3210.39 1698.63   1
   2   3   0 338116. 2290.63  -2
   2   3   0 338116. 2290.63   1
   2   3   1 373874. 1998.38   1
   2   3   1 424334. 2254.82  -2
   2   3   1 424334. 2254.82   1
   2   3   2 22215.7 601.693  -2
   2   3   2 22215.7 601.693   1
   2   3   3 21859.9 1281.77  -2
   2   3   3 21859.9 1281.77   1
   2   3   4 186422. 1864.18  -2
   2   3   4 186422. 1864.18   1
   2   3   5 76449.0 1398.53  -2
   2   3   5 76449.0 1398.53   1
   2   3   6 2193.88 905.059  -2
   2   3   6 2193.88 905.059   1
   2   3   7 48235.8 1767.03  -2
   2   3   7 48235.8 1767.03   1
   2   3   8 82775.6 2301.81  -2
   2   3   8 82775.6 2301.81   1
   2   3   9 19440.1 1509.50   1
   2   4  -1 24230.9 773.190  -2
   2   4  -1 24230.9 773.190   1
   2   4   0 4182.69 423.647  -2
   2   4   0 4182.69 423.647   1
   2   4   1 3974.74 399.272  -2
   2   4   1 3974.74 399.272   1
   2   4   2 9906.18 524.657  -2
   2   4   2 9906.18 524.657   1
   2   4   3 20538.2 828.080  -2
   2   4   3 20538.2 828.080   1
   2   4   4 1335.26 867.660  -2
   2   4   4 1335.26 867.660   1
   2   4   5 26335.2 1049.05  -2
   2   4   5 26335.2 1049.05   1
   2   4   6 37851.9 1866.11  -2
   2   4   6 37851.9 1866.11   1
   2   4   7 7566.92 1392.06  -2
   2   4   7 7566.92 1392.06   1
   2   4   8 115.213 1396.48  -2
   2   4   8 115.213 1396.48   1
   2   4   9 6368.52 1616.23  -2
   2   4   9 6368.52 1616.23   1
   2   5  -2 373.364 453.366  -2
   2   5  -2 373.364 453.366   1
   2   5  -1 118612. 1987.43  -2
   2   5  -1 118612. 1987.43   1
   2   5   0 382811. 3881.36  -2
   2   5   0 382811. 3881.36   1
   2   5   1 148984. 2130.78  -2
   2   5   1 148984. 2130.78   1
   2   5   2 3457.47 588.217  -2
   2   5   2 3457.47 588.217   1
   2   5   3 91658.8 1728.74  -2
   2   5   3 91658.8 1728.74   1
   2   5   4 123552. 1897.09  -2
   2   5   4 123552. 1897.09   1
   2   5   5 18576.0 1477.60  -2
   2   5   5 18576.0 1477.60   1
   2   5   6 39401.6 2114.01  -2
   2   5   6 39401.6 2114.01   1
   2   5   7 99952.2 2836.91  -2
   2   5   7 99952.2 2836.91   1
   2   5   8 62956.1 2700.17  -2
   2   5   8 62956.1 2700.17   1
   2   5   9-121.555 1546.09   1
   2   6  -2 10941.1 801.429  -2
   2   6  -2 10941.1 801.429   1
   2   6  -1 36694.6 1373.51  -2
   2   6  -1 36694.6 1373.51   1
   2   6   0 129420. 2152.10  -2
   2   6   0 129420. 2152.10   1
   2   6   1 122244. 2175.61  -2
   2   6   1 122244. 2175.61   1
   2   6   2 1080.13 661.912  -2
   2   6   2 1080.13 661.912   1
   2   6   3 70951.4 1597.08  -2
   2   6   3 70951.4 1597.08   1
   2   6   4 156520. 2445.79  -2
   2   6   4 156520. 2445.79   1
   2   6   5 51556.4 1863.70   1
   2   6   7 22228.9 2251.63  -2
   2   6   7 22228.9 2251.63   1
   2   6   8 10450.5 2227.45  -2
   2   6   8 10450.5 2227.45   1
   2   6   9 1792.73 2338.01  -2
   2   6   9 1792.73 2338.01   1
   2   7  -3 5266.64 787.104  -2
   2   7  -3 5266.64 787.104   1
   2   7  -2 14839.9 1017.71  -2
   2   7  -2 14839.9 1017.71   1
   2   7  -1 10994.2 828.280  -2
   2   7  -1 10994.2 828.280   1
   2   7   0 2654.96 666.379  -2
   2   7   0 2654.96 666.379   1
   2   7   1 6530.37 824.373  -2
   2   7   1 6530.37 824.373   1
   2   7   2 11171.1 1030.32  -2
   2   7   2 11171.1 1030.32   1
   2   7   3 747.973 695.795  -2
   2   7   3 747.973 695.795   1
   2   7   4 580.917 796.041  -2
   2   7   4 580.917 796.041   1
   2   7   5 8587.21 1247.82   1
   2   7   6 31052.0 1794.61   1
   2   8  -3 47557.2 1586.96  -2
   2   8  -3 47557.2 1586.96   1
   2   8  -2 342.873 821.542  -2
   2   8  -2 342.873 821.542   1
   2   8  -1 30993.6 1308.12  -2
   2   8  -1 30993.6 1308.12   1
   2   8   0 69206.4 1938.75  -2
   2   8   0 69206.4 1938.75   1
   2   8   1 31297.9 1487.70  -2
   2   8   1 31297.9 1487.70   1
   2   8   2 23026.8 1415.88  -2
   2   8   2 23026.8 1415.88   1
   2   8   3 127637. 2537.42  -2
   2   8   3 127637. 2537.42   1
   2   8   4 65169.2 2354.84  -2
   2   8   4 65169.2 2354.84   1
   2   8   5 520.006 973.165   1
   2   9  -3 56653.3 1893.84  -2
   2   9  -3 56653.3 1893.84   1
   2   9  -2 7744.60 1148.15  -2
   2   9  -2 7744.60 1148.15   1
   2   9  -1 22543.0 1638.38  -2
   2   9  -1 22543.0 1638.38   1
   2   9   0 67093.1 2718.31  -2
   2   9   0 67093.1 2718.31   1
   2   9   1 31249.3 2154.89  -2
   2   9   1 31249.3 2154.89   1
   2   9   2 1168.24 927.444  -2
   2   9   2 1168.24 927.444   1
   2   9   3 36718.7 1704.45  -2
   2   9   3 36718.7 1704.45   1
   2   9   4 18330.9 1975.42  -2
   2   9   4 18330.9 1975.42   1
   2  10  -2 1674.58 1159.93  -2
   2  10  -2 1674.58 1159.93   1
   2  10  -1-107.230 1176.24  -2
   2  10  -1-107.230 1176.24   1
   2  10   0 140.135 1078.29  -2
   2  10   0 140.135 1078.29   1
   2  10   1 5517.48 1533.31  -2
   2  10   1 5517.48 1533.31   1
   2  10   2 36725.7 2537.58  -2
   2  10   2 36725.7 2537.58   1
   2  10   3 25840.8 2463.53  -2
   2  10   3 25840.8 2463.53   1
   3  -8   3 32799.9 3228.70  -2
   3  -8   3 32799.9 3228.70   1
   3  -7   2 7284.27 2026.35  -2
   3  -7   2 7284.27 2026.35   1
   3  -7   3 8482.60 2170.27  -2
   3  -7   3 8482.60 2170.27   1
   3  -7   4 21067.9 2822.35  -2
   3  -7   4 21067.9 2822.35   1
   3  -7   5 13875.6 2824.04  -2
   3  -7   5 13875.6 2824.04   1
   3  -6   1 5655.19 1836.30  -2
   3  -6   1 5655.19 1836.30   1
   3  -6   2 32392.5 2549.42  -2
   3  -6   2 32392.5 2549.42   1
   3  -6   3 9435.57 1985.76  -2
   3  -6   3 9435.57 1985.76   1
   3  -6   4 2096.47 1915.80  -2
   3  -6   4 2096.47 1915.80   1
   3  -6   5 2612.16 1450.84  -2
   3  -6   5 2612.16 1450.84   1
   3  -5   1 40658.4 2609.83  -2
   3  -5   1 40658.4 2609.83   1
   3  -5   2 10314.4 1874.07  -2
   3  -5   2 10314.4 1874.07   1
   3  -5   3 143566. 4812.44  -2
   3  -5   3 143566. 4812.44   1
   3  -5   4 88083.6 3426.08  -2
   3  -5   4 88083.6 3426.08   1
   3  -4   1 62343.5 2766.98  -2
   3  -4   1 62343.5 2766.98   1
   3  -4   2 788.876 1332.39  -2
   3  -4   2 788.876 1332.39   1
   3  -4   3 136098. 3875.46  -2
   3  -4   3 136098. 3875.46   1
   3  -3   1 228.361 1051.86  -2
   3  -3   1 228.361 1051.86   1
   3  -3   2 25015.1 2027.93  -2
   3  -3   2 25015.1 2027.93   1
   3  -3   3 15342.1 870.895   1
   3  -3   3 23529.1 1593.40  -2
   3  -3   3 23529.1 1593.40   1
   3  -3   4 480.652 560.802   1
   3  -3   4 592.897 511.522  -2
   3  -3   4 592.897 511.522   1
   3  -2   1 15904.4 595.499  -2
   3  -2   1 15904.4 595.499   1
   3  -2   2 82614.2 858.950   1
   3  -2   2 138239. 3414.97  -2
   3  -2   2 138239. 3414.97   1
   3  -2   3 245794. 1329.77   1
   3  -2   4 107017. 2173.24   1
   3  -2   4 150568. 1597.96  -2
   3  -2   4 150568. 1597.96   1
   3  -2   5 2272.98 601.971   1
   3  -1   1 23385.7 471.286   1
   3  -1   1 29428.0 1595.76  -2
   3  -1   1 29428.0 1595.76   1
   3  -1   2 3612.19 889.301  -2
   3  -1   2 3612.19 889.301   1
   3  -1   3 128707. 2482.40  -2
   3  -1   3 128707. 2482.40   1
   3  -1   4 61582.3 525.467   1
   3  -1   4 170766. 2976.08  -2
   3  -1   4 170766. 2976.08   1
   3  -1   5 28309.3 1483.35  -2
   3  -1   5 28309.3 1483.35   1
   3   0   0 1810.85 365.019   1
   3   0   1 45304.7 1736.55  -2
   3   0   1 45304.7 1736.55   1
   3   0   3 53932.7 1781.89  -2
   3   0   3 53932.7 1781.89   1
   3   0   4 279.792 207.781   1
   3   0   4 695.388 797.283  -2
   3   0   4 695.388 797.283   1
   3   0   5 19262.8 1376.39  -2
   3   0   5 19262.8 1376.39   1
   3   1   1 6475.77 949.654  -2
   3   1   1 6475.77 949.654   1
   3   1   3 271892. 3997.79  -2
   3   1   3 271892. 3997.79   1
   3   1   4 22939.0 392.347   1
   3   1   4 67229.1 2221.39  -2
   3   1   4 67229.1 2221.39   1
   3   1   5 23506.2 622.471   1
   3   1   5 40435.7 1886.21  -2
   3   1   5 40435.7 1886.21   1
   3   1   6 149865. 3223.77  -2
   3   1   6 149865. 3223.77   1
   3   2   1 91155.5 1976.53  -2
   3   2   1 91155.5 1976.53   1
   3   2   3 28401.1 1578.01  -2
   3   2   3 28401.1 1578.01   1
   3   2   4 9634.09 294.511   1
   3   2   4 34275.6 1787.63  -2
   3   2   4 34275.6 1787.63   1
   3   2   5 590.478 981.917  -2
   3   2   5 590.478 981.917   1
   3   2   6 4124.48 1154.01  -2
   3   2   6 4124.48 1154.01   1
   3   3   2 50009.7 1185.85   1
   3   3   2 99670.2 2894.99  -2
   3   3   2 99670.2 2894.99   1
   3   3   3 56187.1 2317.70  -2
   3   3   3 56187.1 2317.70   1
   3   3   4 5614.85 324.297   1
   3   3   4 12095.6 1406.19  -2
   3   3   4 12095.6 1406.19   1
   3   3   5 136145. 3544.28  -2
   3   3   5 136145. 3544.28   1
   3   3   6 92819.6 2859.84  -2
   3   3   6 92819.6 2859.84   1
   3   4   2 89369.2 1483.87   1
   3   4   2 104897. 1055.36  -2
   3   4   2 104897. 1055.36   1
   3   4   3 55581.2 839.668   1
   3   4   3 100798. 3373.76  -2
   3   4   3 100798. 3373.76   1
   3   4   4 3348.01 1271.74  -2
   3   4   4 3348.01 1271.74   1
   3   4   5 74775.3 2891.31  -2
   3   4   5 74775.3 2891.31   1
   3   4   6 158404. 3910.36  -2
   3   4   6 158404. 3910.36   1
   3   5   0 26311.6 797.812  -2
   3   5   0 26311.6 797.812   1
   3   5   1 6075.34 453.987  -2
   3   5   1 6075.34 453.987   1
   3   5   2 8192.02 522.733  -2
   3   5   2 8192.02 522.733   1
   3   5   3 25467.3 766.703  -2
   3   5   3 25467.3 766.703   1
   3   5   4 28346.5 2206.81  -2
   3   5   4 28346.5 2206.81   1
   3   5   5 479.625 1324.83  -2
   3   5   5 479.625 1324.83   1
   3   5   6 6210.29 1566.74  -2
   3   5   6 6210.29 1566.74   1
   3   6   0 35.6450 489.965  -2
   3   6   0 35.6450 489.965   1
   3   6   1 50333.5 1293.12  -2
   3   6   1 50333.5 1293.12   1
   3   6   2 57283.5 1355.90  -2
   3   6   2 57283.5 1355.90   1
   3   6   3 35580.2 2639.19  -2
   3   6   3 35580.2 2639.19   1
   3   6   4-117.744 1362.16  -2
   3   6   4-117.744 1362.16   1
   3   6   5 78236.5 3165.83  -2
   3   6   5 78236.5 3165.83   1
   3   6   6 84179.5 3220.90  -2
   3   6   6 84179.5 3220.90   1
   3   7  -1 41601.6 1247.04  -2
   3   7  -1 41601.6 1247.04   1
   3   7   0 8703.48 783.292  -2
   3   7   0 8703.48 783.292   1
   3   7   1 35699.5 1271.78  -2
   3   7   1 35699.5 1271.78   1
   3   7   2 196913. 5670.51  -2
   3   7   2 196913. 5670.51   1
   3   7   3 107802. 4331.24  -2
   3   7   3 107802. 4331.24   1
   3   7   4 573.139 1376.56  -2
   3   7   4 573.139 1376.56   1
   3   7   5 42408.7 2741.62  -2
   3   7   5 42408.7 2741.62   1
   3   8  -2 4051.72 1635.19  -2
   3   8  -2 4051.72 1635.19   1
   3   8  -1 11132.7 842.533  -2
   3   8  -1 11132.7 842.533   1
   3   8   0 4670.61 763.965  -2
   3   8   0 4670.61 763.965   1
   3   8   1 244.513 1508.59  -2
   3   8   1 244.513 1508.59   1
   3   8   2 10927.7 2151.55  -2
   3   8   2 10927.7 2151.55   1
   3   8   3 5708.95 1889.39  -2
   3   8   3 5708.95 1889.39   1
   3   8   4 3267.19 1638.25  -2
   3   8   4 3267.19 1638.25   1
   3   8   5 3964.53 1709.58  -2
   3   8   5 3964.53 1709.58   1
   3   9   0 814.457 1712.66  -2
   3   9   0 814.457 1712.66   1
   3   9   1 45372.5 3437.22  -2
   3   9   1 45372.5 3437.22   1
   3   9   2 78775.8 4085.85  -2
   3   9   2 78775.8 4085.85   1
   3   9   3 9749.16 2089.49  -2
   3   9   3 9749.16 2089.49   1
   3   9   4 5294.22 1897.13  -2
   3   9   4 5294.22 1897.13   1
   4  -6   2 54275.7 3438.90  -2
   4  -6   2 54275.7 3438.90   1
   4  -6   3 38601.2 3113.21  -2
   4  -6   3 38601.2 3113.21   1
   4  -6   4 1196.52 1835.35  -2
   4  -6   4 1196.52 1835.35   1
   4  -5   2 15423.9 2324.45  -2
   4  -5   2 15423.9 2324.45   1
   4  -5   3 25662.7 2556.96  -2
   4  -5   3 25662.7 2556.96   1
   4  -5   4 9947.51 2366.35  -2
   4  -5   4 9947.51 2366.35   1
   4  -5   5 8021.09 2146.87  -2
   4  -5   5 8021.09 2146.87   1
   4  -4   1 29528.3 2528.21  -2
   4  -4   1 29528.3 2528.21   1
   4  -4   2 67229.5 3209.35  -2
   4  -4   2 67229.5 3209.35   1
   4  -4   3 2747.43 1732.24  -2
   4  -4   3 2747.43 1732.24   1
   4  -4   4 27984.7 2705.71  -2
   4  -4   4 27984.7 2705.71   1
   4  -4   5 88625.0 3478.27  -2
   4  -4   5 88625.0 3478.27   1
   4  -3   1 52368.0 2798.75  -2
   4  -3   1 52368.0 2798.75   1
   4  -3   2 159814. 4328.44  -2
   4  -3   2 159814. 4328.44   1
   4  -3   3 51562.0 3136.17  -2
   4  -3   3 51562.0 3136.17   1
   4  -3   4 2540.94 1425.81  -2
   4  -3   4 2540.94 1425.81   1
   4  -2   1 10347.0 1500.09  -2
   4  -2   1 10347.0 1500.09   1
   4  -2   2-134.302 1133.88  -2
   4  -2   2-134.302 1133.88   1
   4  -2   3 11409.1 1016.47   1
   4  -2   3 22740.0 2177.39  -2
   4  -2   3 22740.0 2177.39   1
   4  -2   4 7735.46 985.279   1
   4  -2   4 8755.08 1404.91  -2
   4  -2   4 8755.08 1404.91   1
   4  -1   1 163139. 3959.02  -2
   4  -1   1 163139. 3959.02   1
   4  -1   2 160353. 3889.75  -2
   4  -1   2 160353. 3889.75   1
   4  -1   3 14045.0 1023.10  -2
   4  -1   3 14045.0 1023.10   1
   4  -1   4 27416.0 1709.27  -2
   4  -1   4 27416.0 1709.27   1
   4  -1   5 90964.7 2790.40  -2
   4  -1   5 90964.7 2790.40   1
   4  -1   6 66936.6 2391.89  -2
   4  -1   6 66936.6 2391.89   1
   4   0   1 87619.5 2858.13  -2
   4   0   1 87619.5 2858.13   1
   4   0   2 150889. 3551.93  -2
   4   0   2 150889. 3551.93   1
   4   0   3 45497.4 1426.87  -2
   4   0   3 45497.4 1426.87   1
   4   0   4 33421.2 1862.89  -2
   4   0   4 33421.2 1862.89   1
   4   0   5 130511. 3378.16  -2
   4   0   5 130511. 3378.16   1
   4   0   6 75685.6 2706.25  -2
   4   0   6 75685.6 2706.25   1
   4   1   2 146.856 911.184  -2
   4   1   2 146.856 911.184   1
   4   1   3 4010.20 752.818  -2
   4   1   3 4010.20 752.818   1
   4   1   4 4899.77 1269.64  -2
   4   1   4 4899.77 1269.64   1
   4   1   5 851.356 1310.81  -2
   4   1   5 851.356 1310.81   1
   4   1   6 3806.15 1373.68  -2
   4   1   6 3806.15 1373.68   1
   4   1   7 46904.3 2319.29  -2
   4   1   7 46904.3 2319.29   1
   4   2   2 107300. 2657.52  -2
   4   2   2 107300. 2657.52   1
   4   2   3-184.404 672.198  -2
   4   2   3-184.404 672.198   1
   4   2   4 117643. 3498.16  -2
   4   2   4 117643. 3498.16   1
   4   2   5 110124. 3478.71  -2
   4   2   5 110124. 3478.71   1
   4   2   6 18241.5 1874.81  -2
   4   2   6 18241.5 1874.81   1
   4   2   7 6428.58 1522.93  -2
   4   2   7 6428.58 1522.93   1
   4   3   2 52852.6 1668.68   1
   4   3   3 15090.3 1071.13  -2
   4   3   3 15090.3 1071.13   1
   4   3   4 15877.9 1865.92  -2
   4   3   4 15877.9 1865.92   1
   4   3   5 70018.1 3049.49  -2
   4   3   5 70018.1 3049.49   1
   4   3   6 34818.0 2352.84  -2
   4   3   6 34818.0 2352.84   1
   4   3   7 3527.17 1456.56  -2
   4   3   7 3527.17 1456.56   1
   4   4   2 11931.3 1740.56  -2
   4   4   2 11931.3 1740.56   1
   4   4   3 46434.3 2614.35  -2
   4   4   3 46434.3 2614.35   1
   4   4   4 43270.4 2689.44  -2
   4   4   4 43270.4 2689.44   1
   4   4   5 4051.21 1638.15  -2
   4   4   5 4051.21 1638.15   1
   4   4   6 496.380 1462.91  -2
   4   4   6 496.380 1462.91   1
   4   4   7 14132.4 1946.19  -2
   4   4   7 14132.4 1946.19   1
   4   5   2 22825.9 2247.17  -2
   4   5   2 22825.9 2247.17   1
   4   5   3 3802.35 1635.15  -2
   4   5   3 3802.35 1635.15   1
   4   5   4 96959.6 4012.25  -2
   4   5   4 96959.6 4012.25   1
   4   5   5 97498.7 4198.87  -2
   4   5   5 97498.7 4198.87   1
   4   5   6 1195.32 1639.28  -2
   4   5   6 1195.32 1639.28   1
   4   5   7 40298.9 2784.81  -2
   4   5   7 40298.9 2784.81   1
   4   6   1 101768. 4174.62  -2
   4   6   1 101768. 4174.62   1
   4   6   2 57842.6 3272.31  -2
   4   6   2 57842.6 3272.31   1
   4   6   3 3356.59 1726.48  -2
   4   6   3 3356.59 1726.48   1
   4   6   4 5829.74 2175.71  -2
   4   6   4 5829.74 2175.71   1
   4   6   5 14063.6 2295.92  -2
   4   6   5 14063.6 2295.92   1
   4   6   6 710.437 1694.12  -2
   4   6   6 710.437 1694.12   1
   4   7   0 16295.6 2368.03  -2
   4   7   0 16295.6 2368.03   1
   4   7   1 2343.90 1875.43  -2
   4   7   1 2343.90 1875.43   1
   4   7   2 880.288 1860.19  -2
   4   7   2 880.288 1860.19   1
   4   7   3 15622.5 2460.80  -2
   4   7   3 15622.5 2460.80   1
   4   7   4 42975.8 3541.03  -2
   4   7   4 42975.8 3541.03   1
   4   7   5 7685.12 2182.76  -2
   4   7   5 7685.12 2182.76   1
   4   8  -1 909.190 2072.38  -2
   4   8  -1 909.190 2072.38   1
   4   8   0 70777.2 4013.48  -2
   4   8   0 70777.2 4013.48   1
   4   8   1 94353.3 4564.60  -2
   4   8   1 94353.3 4564.60   1
   4   8   2 5017.15 2183.72  -2
   4   8   2 5017.15 2183.72   1
   4   8   3 20383.7 3085.66  -2
   4   8   3 20383.7 3085.66   1
   5  -4   2 16975.0 2317.27  -2
   5  -4   3 16975.0 2317.27   1
   5  -3   3 19430.3 2365.57  -2
   5  -3   3 19430.3 2365.57   1
   5  -3   4 10974.0 2215.88  -2
   5  -3   4 10974.0 2215.88   1
   5  -3   5 701.910 2243.27  -2
   5  -3   5 701.910 2243.27   1
   5  -2   2 7730.14 1873.89  -2
   5  -2   2 7730.14 1873.89   1
   5  -2   3 17788.1 2165.33  -2
   5  -2   3 17788.1 2165.33   1
   5  -2   4 50144.8 3142.70  -2
   5  -2   4 50144.8 3142.70   1
   5  -2   5 19943.0 2517.17  -2
   5  -2   5 19943.0 2517.17   1
   5  -2   6 3672.36 1608.81  -2
   5  -2   6 3672.36 1608.81   1
   5  -1   2 20580.8 2140.35  -2
   5  -1   2 20580.8 2140.35   1
   5  -1   3 899.877 925.620  -2
   5  -1   3 899.877 925.620   1
   5  -1   4 16726.6 1449.73  -2
   5  -1   4 16726.6 1449.73   1
   5  -1   5 8180.74 1789.30  -2
   5  -1   5 8180.74 1789.30   1
   5   0   2 4533.86 1541.99  -2
   5   0   2 4533.86 1541.99   1
   5   0   3 47227.6 1717.83  -2
   5   0   3 47227.6 1717.83   1
   5   0   4 30634.8 1599.78  -2
   5   0   4 30634.8 1599.78   1
   5   0   5 566.577 1009.70  -2
   5   0   5 566.577 1009.70   1
   5   0   6 26651.9 2464.32  -2
   5   0   6 26651.9 2464.32   1
   5   1   2 1946.96 1380.35  -2
   5   1   2 1946.96 1380.35   1
   5   1   3 118010. 2462.16  -2
   5   1   3 118010. 2462.16   1
   5   1   4 116491. 2679.43  -2
   5   1   4 116491. 2679.43   1
   5   1   5 10631.9 1861.97  -2
   5   1   5 10631.9 1861.97   1
   5   1   6 1824.83 1828.08  -2
   5   1   6 1824.83 1828.08   1
   5   1   7 41038.2 2722.91  -2
   5   1   7 41038.2 2722.91   1
   5   2   3 1167.87 1504.12  -2
   5   2   3 1167.87 1504.12   1
   5   2   4 9570.32 1795.41  -2
   5   2   4 9570.32 1795.41   1
   5   2   5 7629.05 1865.16  -2
   5   2   5 7629.05 1865.16   1
   5   2   6 597.658 1856.57  -2
   5   2   6 597.658 1856.57   1
   5   2   7 1660.50 1774.06  -2
   5   2   7 1660.50 1774.06   1
   5   3   3 97408.2 3762.94  -2
   5   3   3 97408.2 3762.94   1
   5   3   4 38467.1 2654.26  -2
   5   3   4 38467.1 2654.26   1
   5   3   5 1507.20 1765.32  -2
   5   3   5 1507.20 1765.32   1
   5   3   6 6628.57 2196.34  -2
   5   3   6 6628.57 2196.34   1
   5   3   7 28645.6 2663.47  -2
   5   3   7 28645.6 2663.47   1
   5   4   2 5720.71 1955.88  -2
   5   4   2 5720.71 1955.88   1
   5   4   3 89034.6 3882.20  -2
   5   4   3 89034.6 3882.20   1
   5   4   4 92757.6 4031.70  -2
   5   4   4 92757.6 4031.70   1
   5   4   5 3868.03 2101.37  -2
   5   4   5 3868.03 2101.37   1
   5   4   6 13597.6 2434.98  -2
   5   4   6 13597.6 2434.98   1
   5   5   2 1565.14 1725.13  -2
   5   5   2 1565.14 1725.13   1
   5   5   3 690.831 1844.44  -2
   5   5   3 690.831 1844.44   1
   5   5   4 3799.86 2067.58  -2
   5   5   4 3799.86 2067.58   1
   5   6   1 1780.72 1968.69  -2
   5   6   1 1780.72 1968.69   1
   5   6   2 10340.7 2417.81  -2
   5   6   2 10340.7 2417.81   1
   5   6   3 43985.3 3517.85  -2
   5   6   3 43985.3 3517.85   1
   6  -1   3 13526.9 2509.49  -2
   6  -1   4 13526.9 2509.49   1
   6   0   3 25198.2 2103.13   1
   6   1   3-259.721 1363.34   1
   6   1   4 4525.15 1470.22   1
   6   1   5 10239.2 1956.52   1
   6   2   3 27079.4 2775.37  -2
   6   2   3 27079.4 2775.37   1
  -5   1   2 14504.5 1596.05   2
  -5   1   3 17448.9 1784.25   2
  -5   2   0 32306.7 2071.91   2
  -5   2   1 3208.77 1417.21   2
  -5   2   2 9430.01 1585.02   2
  -5   2   3 29075.1 2113.43   2
  -5   3   1 208.079 1251.39   2
  -5   3   2 50.2831 1340.43   2
  -5   3   3 1004.30 1372.49   2
  -5   4   1-442.076 1275.72   2
  -5   4   2 10361.6 1746.01   2
  -5   4   3 10626.4 1971.77   2
  -4  -2   7 2032.25 1351.11   2
  -4  -1   6 534.653 1033.27   2
  -4  -1   7 489.801 1151.23   2
  -4   0   5 31590.6 1419.70   2
  -4   0   6 16061.4 1336.86   2
  -4   0   7-5.44226 1123.36   2
  -4   1   4 583.380 880.531   2
  -4   1   5 3436.26 1155.44   2
  -4   1   6 5111.54 1333.71   2
  -4   1   7 221.939 1302.98   2
  -4   2   1 7143.24 796.065   2
  -4   3  -8 3319.99 1867.46   2
  -4   3   1 20727.5 1330.94   2
  -4   3   2 21444.3 1547.98   2
  -4   4   0-158.573 707.624   2
  -4   4   1 2996.48 1112.97   2
  -4   4   2 7577.42 1361.87   2
  -4   4   3 2716.08 1354.11   2
  -4   5  -7 550.371 1611.52   2
  -4   5  -1 759.663 991.775   2
  -4   5   0 4876.88 1017.97   2
  -4   5   1 6287.66 1316.24   2
  -4   5   2 2487.88 1499.46   2
  -4   5   3 244.171 1583.81   2
  -4   5   4 4177.31 1693.95   2
  -4   6  -1 748.156 1218.08   2
  -4   6   0 7828.96 1341.60   2
  -4   6   1 20911.4 1656.03   2
  -4   6   2 16511.9 2043.39   2
  -4   6   3-1044.26 1757.78   2
  -4   7   0 826.093 1374.53   2
  -4   7   1 3587.41 1342.36   2
  -4   7   2 2508.82 1393.30   2
  -3  -3   0-394.002 290.052   2
  -3  -2  -2 197.897 174.591   2
  -3  -2   0 108337. 1116.89   2
  -3  -2   8 25760.7 1897.75   2
  -3  -1   0 84377.9 807.178   2
  -3  -1   8 9859.39 1397.25   2
  -3   0  -1 11800.0 378.372   2
  -3   0   8 129.606 1219.98   2
  -3   1  -9-169.581 1290.81   2
  -3   1  -2 1077.80 284.420   2
  -3   1  -1 6622.30 426.552   2
  -3   1   0 52649.5 641.713   2
  -3   1   7 16914.9 1354.44   2
  -3   1   8 7599.72 1412.87   2
  -3   2  -9 4216.56 1780.29   2
  -3   2  -8 1002.20 1407.26   2
  -3   2  -2 34836.9 937.958   2
  -3   2  -1 3120.96 459.147   2
  -3   2   0 73640.5 996.110   2
  -3   2   1 73441.3 1218.37   2
  -3   2   7 7476.78 1438.16   2
  -3   3  -9 1425.24 1670.38   2
  -3   3  -8-115.782 1347.65   2
  -3   3  -2 4905.39 615.426   2
  -3   3  -1 181.707 516.513   2
  -3   3   0 2459.06 763.391   2
  -3   3   1 10326.2 664.039   2
  -3   3   2 24117.5 1026.96   2
  -3   3   5 1838.28 916.031   2
  -3   3   6 6573.67 1169.52   2
  -3   3   7 2327.18 1228.62   2
  -3   4  -8 3333.98 1591.68   2
  -3   4  -7 6028.61 1454.02   2
  -3   4   0 23837.4 1323.98   2
  -3   4   1 6585.56 1159.19   2
  -3   4   2 10529.2 834.234   2
  -3   4   3 43992.4 1768.09   2
  -3   4   4 20058.0 1217.94   2
  -3   4   6 12095.2 1283.10   2
  -3   4   7 26229.1 1657.71   2
  -3   5  -8 5240.26 1669.89   2
  -3   5  -7 29811.0 2152.13   2
  -3   5  -6 19491.7 1870.24   2
  -3   5  -2 3481.85 862.538   2
  -3   5   1 28252.8 1904.93   2
  -3   5   2 1989.52 1214.31   2
  -3   5   3 10516.4 1001.21   2
  -3   5   4 11355.9 1360.32   2
  -3   5   5-627.382 1303.16   2
  -3   5   6 3609.74 1215.60   2
  -3   6   0 656.238 951.007   2
  -3   6   1 1984.51 1157.04   2
  -3   6   2 6875.08 1667.83   2
  -3   6   3 5341.83 1582.73   2
  -3   6   4 782.824 1039.87   2
  -3   6   5-92.8958 1298.69   2
  -3   7   1 3213.64 1295.96   2
  -3   7   2 7350.90 1735.79   2
  -3   7   3 31769.4 2754.18   2
  -3   7   4 4083.50 1870.70   2
  -3   8   1 351.328 1416.41   2
  -3   8   2 1386.14 1419.25   2
  -2  -3   1 5056.92 452.909   2
  -2  -2   1 47426.6 679.096   2
  -2   0  -3 5347.79 304.849   2
  -2   0  -1 48410.3 752.452   2
  -2   0   9 12220.5 1488.45   2
  -2   1  -2-6.88452 175.992   2
  -2   1  -1 17637.9 510.693   2
  -2   1   8 2334.25 1085.10   2
  -2   2  -2 22419.6 698.798   2
  -2   2  -1 15211.2 624.141   2
  -2   2   0 1068.07 279.872   2
  -2   2   8 3528.89 1257.75   2
  -2   3  -7 1429.93 1333.52   2
  -2   3  -1 96023.1 1676.56   2
  -2   3   1 30257.4 997.542   2
  -2   3   8 1967.74 1271.85   2
  -2   4  -9 4556.19 1960.51   2
  -2   4  -8 20527.3 2174.75   2
  -2   4  -7 20538.3 1769.12   2
  -2   4   0 37763.8 1234.29   2
  -2   4   8 3489.52 1261.13   2
  -2   5  -9 31.7379 1624.52   2
  -2   5  -8 247.977 1321.58   2
  -2   5  -7 2013.68 1212.20   2
  -2   5  -6 10978.6 1516.60   2
  -2   5  -3 14851.5 1016.84   2
  -2   5   1 19473.1 944.956   2
  -2   6   3 12912.1 1525.93   2
  -2   7   3 7010.67 1772.65   2
  -2   7   4 4253.75 1547.48   2
  -2   7   5 1466.73 1524.82   2
  -2   8   3-584.786 1674.67   2
  -2   8   4 11905.4 2226.29   2
  -1   0  -1 36032.5 323.541   2
  -1   1  -3 33569.7 879.366   2
  -1   1  -2 36099.8 742.531   2
  -1   1  -1 15475.0 448.551   2
  -1   1   0 169409. 1195.56   2
  -1   1   9 37937.9 1817.27   2
  -1   2  -3 94099.3 1251.94   2
  -1   2   0 5309.80 395.110   2
  -1   2   9 10104.5 1418.03   2
  -1   3  -4 3208.22 436.887   2
  -1   3  -3 281.402 207.478   2
  -1   3  -1 95590.9 1188.73   2
  -1   3   0 180899. 1489.88   2
  -1   3   9 1016.32 1229.18   2
  -1   4  -2 25835.6 747.775   2
  -1   5  -3 48608.2 1228.82   2
  -1   5  -2 92266.5 1310.29   2
  -1   5   1 78133.9 995.409   2
  -1   6  -5 10697.1 1161.56   2
  -1   6  -4 10020.2 934.628   2
  -1   6  -3 3580.83 604.205   2
  -1   7  -6 6096.61 1138.62   2
  -1   7   4 27182.5 1857.74   2
  -1   7   5 11169.7 1562.26   2
  -1   8   4 5797.60 1619.79   2
  -1   8   5 1167.72 1479.27   2
   0  -2  10 2720.23 1431.84   2
   0  -1  10 21190.6 1975.88   2
   0   0  10 15501.5 1677.83   2
   0   1  10 2566.11 1401.48   2
   0   2  10 31462.8 2108.33   2
   0   5  -2 9021.01 605.085   2
   0   6  -2 2162.94 533.203   2
   0   7   5-414.252 1154.68   2
   0   8   5 3447.71 1524.82   2
   0   8   6 21264.6 1959.95   2
   1  -5  -1 65957.7 945.499   2
   1  -5   2 95898.5 1212.38   2
   1  -4   0 151421. 1315.33   2
   1  -4   2 33198.2 787.013   2
   1  -3   0 168001. 1482.55   2
   1  -3   1 106163. 1208.86   2
   1  -3  10 3543.24 1019.42   2
   1  -2  10 16015.1 1344.57   2
   1  -1   1 12286.8 383.378   2
   1  -1   2 38264.5 775.404   2
   1  -1  10 4568.63 1173.68   2
   1   0   1 24166.3 410.642   2
   1   0  10 367.720 1233.26   2
   1   1   0 145.050 167.539   2
   1   1  10 4015.00 1448.36   2
   1   2  10 7206.26 1597.72   2
   1   3  10-259.206 1284.37   2
   1   7   5 33252.9 1760.41   2
   1   7   6 8922.55 1303.47   2
   1   8   5 1067.38 1355.86   2
   1   8   6 478.044 1374.65   2
   1   8   7 158.311 1279.17   2
   1   9   5 14276.2 1896.47   2
   2  -3   2 107054. 1321.87   2
   2  -3   9 5756.79 843.528   2
   2  -2   2 30540.8 891.513   2
   2  -2   3 19974.3 838.976   2
   2  -1   2 45.2795 114.000   2
   2  -1   3 107432. 1878.77   2
   2   0   2 12003.4 330.843   2
   2   0   3 3624.66 254.156   2
   2   0  10 1377.45 1049.53   2
   2   1  10 8042.27 1528.53   2
   2   2   1 54571.3 509.095   2
   2   2   2 47.5653 153.911   2
   2   2  10 6576.88 1586.34   2
   2   3   9 14573.1 1325.74   2
   2   3  10 276.707 1212.17   2
   2   4  10 4101.69 1214.55   2
   2   5   9 248.691 1275.13   2
   2   6   5 13387.3 1132.10   2
   2   7   5 1511.75 1118.67   2
   2   7   6 7194.02 1225.23   2
   2   7   7 3746.66 1173.13   2
   2   8   5 366.654 1117.71   2
   2   8   6 8954.23 1580.83   2
   2   9   5 577.299 1151.09   2
   2  10   4 176.990 1578.81   2
   3  -3   3 9841.51 486.181   2
   3  -3   4 482.749 672.209   2
   3  -2   2 50190.1 572.350   2
   3  -2   3 157153. 998.584   2
   3  -2   4 61365.0 1752.31   2
   3  -1   1 9836.56 244.585   2
   3  -1   3 34533.4 813.156   2
   3  -1   4 50340.4 529.820   2
   3   0   4 6.21391 143.463   2
   3   0   5 6758.32 405.640   2
   3   1   4 11120.1 411.339   2
   3   1   5 14296.1 517.493   2
   3   1   6 47969.5 1055.92   2
   3   2   5 82.5074 452.889   2
   3   2   6 1178.12 627.033   2
   3   3   3 9734.70 304.539   2
   3   3   4 1958.18 362.917   2
   3   3   6 39340.5 1361.31   2
   3   4   3 21075.7 690.565   2
   3   4   4 263.355 331.467   2
   4  -2   3 7477.27 1104.93   2
   4  -2   4 3354.74 992.216   2
   4   3   2 29736.0 1570.13   2
   5  -4   3 402.352 1510.79   2
   5  -3   2 1304.16 1491.23   2
   6  -1   4-314.011 1885.37   2
   6   0   3 19379.8 2314.99   2
   6   1   3-108.197 1739.38   2
   6   1   4 3447.97 1933.90   2
   6   1   5 4301.86 2052.02   2
   6   2   2 24394.9 2486.93   2
   0   0   0 0.00000 0.00000   0
TITL twin_twin1_hklf4 in P1
REM P1 (#1 in standard setting)
CELL 0.71073   4.513476   7.798432   7.840026  89.1412  80.8867  84.0898
ZERR    1.00   0.000792   0.001087   0.001286   0.0123   0.0141   0.0128
LATT -1
SFAC C H O S Zn
UNIT 12.00 10.00 1.00 2.00 1.00
TREF
HKLF 5

BASF 0.37388
END
;
_shelx_hkl_checksum              31671
loop_
_space_group_symop_operation_xyz
'x, y, z'
'-x, -y, -z'
loop_
_atom_site_label
_atom_site_type_symbol
_atom_site_fract_x
_atom_site_fract_y
_atom_site_fract_z
_atom_site_U_iso_or_equiv
_atom_site_adp_type
_atom_site_occupancy
_atom_site_site_symmetry_order
_atom_site_calc_flag
_atom_site_refinement_flags_posn
_atom_site_refinement_flags_adp
_atom_site_refinement_flags_occupancy
_atom_site_disorder_assembly
_atom_site_disorder_group
C1 C 0.0005(13) 0.7256(7) 0.1360(7) 0.0223(12) Uani 1 1 d . . . . .
H1A H 0.069879 0.836544 0.108531 0.033 Uiso 1 1 calc R U . . .
H1B H -0.211610 0.731333 0.131401 0.033 Uiso 1 1 calc R U . . .
H1C H 0.107474 0.641988 0.053908 0.033 Uiso 1 1 calc R U . . .
C2 C 0.5819(14) 0.8709(7) 0.7487(8) 0.0207(12) Uani 1 1 d . . . . .
H2A H 0.708423 0.929935 0.662029 0.031 Uiso 1 1 calc R U . . .
H2B H 0.694305 0.831186 0.838318 0.031 Uiso 1 1 calc R U . . .
H2C H 0.410882 0.948279 0.796929 0.031 Uiso 1 1 calc R U . . .
O1 O 0.3215(9) 0.7803(5) 0.5060(6) 0.0168(8) Uani 1 1 d . . . . .
O2 O 0.7605(8) 0.5923(4) 0.5743(5) 0.0155(8) Uani 1 1 d . . . . .
S1 S 0.4563(3) 0.69224(15) 0.65396(16) 0.0127(4) Uani 1 1 d . . . . .
Zn1 Zn 0.07268(12) 0.65881(6) 0.36661(7) 0.0143(3) Uani 1 1 d . . . . .
loop_
_atom_site_aniso_label
_atom_site_aniso_U_11
_atom_site_aniso_U_22
_atom_site_aniso_U_33
_atom_site_aniso_U_23
_atom_site_aniso_U_13
_atom_site_aniso_U_12
C1 0.030(3) 0.020(3) 0.017(3) -0.001(2) -0.004(2) -0.003(2)
C2 0.030(3) 0.012(3) 0.022(3) -0.003(2) -0.007(2) -0.005(2)
O1 0.0187(18) 0.0085(17) 0.026(2) 0.0009(15) -0.0096(15) -0.0030(15)
O2 0.0172(19) 0.0090(17) 0.022(2) -0.0009(15) -0.0053(15) -0.0043(14)
S1 0.0166(7) 0.0073(7) 0.0146(7) -0.0019(5) -0.0032(5) -0.0011(5)
Zn1 0.0185(5) 0.0098(5) 0.0156(5) -0.0001(3) -0.0057(3) -0.0016(3)
loop_
_atom_type_symbol
_atom_type_description
_atom_type_scat_dispersion_real
_atom_type_scat_dispersion_imag
_atom_type_scat_source
C C 0.0033 0.0016 'International Tables Vol C Tables 4.2.6.8 and 6.1.1.4'
H H 0.0000 0.0000 'International Tables Vol C Tables 4.2.6.8 and 6.1.1.4'
O O 0.0106 0.0060 'International Tables Vol C Tables 4.2.6.8 and 6.1.1.4'
S S 0.1246 0.1234 'International Tables Vol C Tables 4.2.6.8 and 6.1.1.4'
Zn Zn 0.2839 1.4301 'International Tables Vol C Tables 4.2.6.8 and 6.1.1.4'
loop_
_geom_angle_atom_site_label_1
_geom_angle_atom_site_label_2
_geom_angle_atom_site_label_3
_geom_angle
_geom_angle_site_symmetry_1
_geom_angle_site_symmetry_3
_geom_angle_publ_flag
Zn1 C1 H1A 109.5 . . ?
Zn1 C1 H1B 109.5 . . ?
H1A C1 H1B 109.5 . . ?
Zn1 C1 H1C 109.5 . . ?
H1A C1 H1C 109.5 . . ?
H1B C1 H1C 109.5 . . ?
S1 C2 H2A 109.5 . . ?
S1 C2 H2B 109.5 . . ?
H2A C2 H2B 109.5 . . ?
S1 C2 H2C 109.5 . . ?
H2A C2 H2C 109.5 . . ?
H2B C2 H2C 109.5 . . ?
S1 O1 Zn1 121.8(2) . . ?
S1 O2 Zn1 129.1(2) . 1_655 ?
S1 O2 Zn1 127.4(2) . 2_666 ?
Zn1 O2 Zn1 103.20(16) 1_655 2_666 ?
O1 S1 O2 106.9(2) . . ?
O1 S1 C2 100.5(2) . . ?
O2 S1 C2 101.3(3) . . ?
C1 Zn1 O1 124.8(2) . . ?
C1 Zn1 O2 127.8(2) . 1_455 ?
O1 Zn1 O2 95.98(16) . 1_455 ?
C1 Zn1 O2 122.4(2) . 2_666 ?
O1 Zn1 O2 96.44(15) . 2_666 ?
O2 Zn1 O2 76.80(16) 1_455 2_666 ?
loop_
_geom_bond_atom_site_label_1
_geom_bond_atom_site_label_2
_geom_bond_distance
_geom_bond_site_symmetry_2
_geom_bond_publ_flag
C1 Zn1 1.942(6) . ?
C1 H1A 0.9600 . ?
C1 H1B 0.9600 . ?
C1 H1C 0.9600 . ?
C2 S1 1.772(5) . ?
C2 H2A 0.9600 . ?
C2 H2B 0.9600 . ?
C2 H2C 0.9600 . ?
O1 S1 1.517(4) . ?
O1 Zn1 1.998(4) . ?
O2 S1 1.551(4) . ?
O2 Zn1 2.075(4) 1_655 ?
O2 Zn1 2.096(4) 2_666 ?
loop_
_twin_individual_id
_twin_individual_mass_fraction_refined
_oxdiff_twin_reflns_isolated
_oxdiff_twin_reflns_overlapped
_twin_individual_twin_lattice_type
_twin_individual_twin_matrix_11
_twin_individual_twin_matrix_12
_twin_individual_twin_matrix_13
_twin_individual_twin_matrix_21
_twin_individual_twin_matrix_22
_twin_individual_twin_matrix_23
_twin_individual_twin_matrix_31
_twin_individual_twin_matrix_32
_twin_individual_twin_matrix_33
1 0.6261 277 1611 ref 1.0000 0.0000 0.0000 0.0000 1.0000 0.0000 0.0000 0.0000
1.0000
2 0.3739 267 1611 nmt 1.0092 -0.0002 -0.0316 -0.0052 0.9993 0.0151 0.0935
-0.0181 0.9888
