#------------------------------------------------------------------------------
#$Date: 2022-03-23 01:50:33 +0200 (Wed, 23 Mar 2022) $
#$Revision: 273903 $
#$URL: file:///home/coder/svn-repositories/cod/cif/7/70/97/7709791.cif $
#------------------------------------------------------------------------------
#
# This file is available in the Crystallography Open Database (COD),
# http://www.crystallography.net/
#
# All data on this site have been placed in the public domain by the
# contributors.
#
data_7709791
loop_
_publ_author_name
'Zhou, Liang'
'Ruan, Mingming'
'Meng, Wei'
'Wang, Qianping'
'Liu, Bo'
'Xuan, Xiaopeng'
'Zhang, Jun'
_publ_section_title
;
 Two-dimensional coordination polymers with high proton conductivity and
 ultrafast highly efficient molecular sieving constructed by structural
 inductive effect
;
_journal_name_full               'Dalton Transactions'
_journal_paper_doi               10.1039/D2DT00364C
_journal_year                    2022
_chemical_formula_moiety         'C20 H12 Cu2 O16, 4(Cl), 7(H2 O)'
_chemical_formula_sum            'C20 H26 Cl4 Cu2 O23'
_chemical_formula_weight         903.31
_space_group_crystal_system      triclinic
_space_group_IT_number           2
_space_group_name_Hall           '-P 1'
_space_group_name_H-M_alt        'P -1'
_atom_sites_solution_hydrogens   mixed
_atom_sites_solution_primary     dual
_audit_creation_date             2019-05-16
_audit_creation_method
;
Olex2 1.2-beta
(compiled 2018.05.29 svn.r3508 for OlexSys, GUI svn.r5506)
;
_audit_update_record
;
2019-05-17 deposited with the CCDC.	2022-03-21 downloaded from the CCDC.
;
_cell_angle_alpha                112.829(2)
_cell_angle_beta                 90.455(2)
_cell_angle_gamma                104.055(2)
_cell_formula_units_Z            1
_cell_length_a                   7.7389(11)
_cell_length_b                   10.6086(15)
_cell_length_c                   10.6178(15)
_cell_measurement_reflns_used    1698
_cell_measurement_temperature    293(2)
_cell_measurement_theta_max      26.334
_cell_measurement_theta_min      2.731
_cell_volume                     774.27(19)
_computing_cell_refinement       'SAINT v7.68A (Bruker, 2009)'
_computing_data_reduction        'SAINT v7.68A (Bruker, 2009)'
_computing_molecular_graphics    'Olex2 (Dolomanov et al., 2009)'
_computing_publication_material  'Olex2 (Dolomanov et al., 2009)'
_computing_structure_refinement  'ShelXL (Sheldrick, 2015)'
_computing_structure_solution    'ShelXT (Sheldrick, 2015)'
_diffrn_ambient_temperature      293(2)
_diffrn_detector_area_resol_mean 7.9
_diffrn_measured_fraction_theta_full 0.987
_diffrn_measured_fraction_theta_max 0.902
_diffrn_measurement_device_type  'Bruker SMART APEX2 area detector'
_diffrn_measurement_method       '\w and \f scans'
_diffrn_radiation_type           MoK\a
_diffrn_radiation_wavelength     0.71073
_diffrn_reflns_av_R_equivalents  0.0312
_diffrn_reflns_av_unetI/netI     0.0532
_diffrn_reflns_Laue_measured_fraction_full 0.987
_diffrn_reflns_Laue_measured_fraction_max 0.902
_diffrn_reflns_limit_h_max       9
_diffrn_reflns_limit_h_min       -9
_diffrn_reflns_limit_k_max       13
_diffrn_reflns_limit_k_min       -12
_diffrn_reflns_limit_l_max       12
_diffrn_reflns_limit_l_min       -10
_diffrn_reflns_number            6047
_diffrn_reflns_point_group_measured_fraction_full 0.987
_diffrn_reflns_point_group_measured_fraction_max 0.902
_diffrn_reflns_theta_full        25.242
_diffrn_reflns_theta_max         27.098
_diffrn_reflns_theta_min         2.095
_diffrn_source                   'microfocus sealed X-ray tube'
_exptl_absorpt_coefficient_mu    1.817
_exptl_absorpt_correction_T_max  0.7455
_exptl_absorpt_correction_T_min  0.6586
_exptl_absorpt_correction_type   multi-scan
_exptl_crystal_colour            blue
_exptl_crystal_colour_primary    blue
_exptl_crystal_density_diffrn    1.937
_exptl_crystal_description       block
_exptl_crystal_F_000             456
_exptl_crystal_size_max          0.23
_exptl_crystal_size_mid          0.22
_exptl_crystal_size_min          0.14
_refine_diff_density_max         0.761
_refine_diff_density_min         -0.638
_refine_diff_density_rms         0.144
_refine_ls_extinction_method     none
_refine_ls_goodness_of_fit_ref   1.064
_refine_ls_hydrogen_treatment    mixed
_refine_ls_matrix_type           full
_refine_ls_number_parameters     227
_refine_ls_number_reflns         3068
_refine_ls_number_restraints     0
_refine_ls_restrained_S_all      1.064
_refine_ls_R_factor_all          0.0762
_refine_ls_R_factor_gt           0.0574
_refine_ls_shift/su_max          0.000
_refine_ls_shift/su_mean         0.000
_refine_ls_structure_factor_coef Fsqd
_refine_ls_weighting_details
'w=1/[\s^2^(Fo^2^)+(0.0881P)^2^+2.5507P] where P=(Fo^2^+2Fc^2^)/3'
_refine_ls_weighting_scheme      calc
_refine_ls_wR_factor_gt          0.1554
_refine_ls_wR_factor_ref         0.1677
_reflns_Friedel_coverage         0.000
_reflns_number_gt                2402
_reflns_number_total             3068
_reflns_threshold_expression     'I > 2\s(I)'
_cod_data_source_file            d2dt00364c2.cif
_cod_data_source_block           20170327d23_0m
_cod_database_code               7709791
_shelx_shelxl_version_number     2018/3
_shelx_space_group_comment
;
The symmetry employed for this shelxl refinement is uniquely defined
by the following loop, which should always be used as a source of
symmetry information in preference to the above space-group names.
They are only intended as comments.
;
_olex2_refinement_description
;
1. Fixed Uiso
 At 1.2 times of:
  All C(H) groups
 At 1.5 times of:
  All O(H) groups, All O(H,H) groups
2. Others
 Fixed Sof: O12(0.5) H12A(0.5) H12B(0.5)
3.a Riding coordinates:
 O5(H5), O2(H2), O4(H4), O8(H8), O9(H9A,H9B), O10(H10A,H10B), O11(H11A,H11B),
 O12(H12A,H12B)
3.b Aromatic/amide H refined with riding coordinates:
 C5(H5A), C10(H10)
;
_shelx_res_file
;
TITL 20170327d2P -1 R = 0.06
    20170327d23_0m.res
    created by SHELXL-2018/3 at 19:42:30 on 16-May-2019
CELL 0.71073 7.7389 10.6086 10.6178 112.829 90.455 104.055
ZERR 1 0.0011 0.0015 0.0015 0.002 0.002 0.002
LATT 1
SFAC  C 2.310 20.844 1.02 10.208 1.589 0.569 0.865 51.651 0.216 0.003 0.002 =
 11.5 0.68 12.01
SFAC H
SFAC  Cl 11.460 0.01 7.196 1.166 6.256 18.519 1.646 47.778 -9.557 0.148 =
 0.159 678 0.99 35.45
SFAC  Cu 13.338 3.583 7.168 0.247 5.616 11.397 1.674 64.813 1.191 0.32 =
 1.265 5180 1.52 63.55
SFAC  O 3.049 13.277 2.287 5.701 1.546 0.324 0.867 32.909 0.251 0.011 0.006 =
 32.5 0.68 16
UNIT 20 26 4 2 23

EQIV $1 1-X,1-Y,1-Z
EQIV $2 1-X,2-Y,1-Z

L.S. 25
PLAN  -2
TEMP 23
HTAB O5 Cl2
HTAB O2 Cl2_$1
HTAB O4 Cl1_$2
HTAB O10 O4
HTAB O10 O12
HTAB O11 O6
BOND $H
CONF
fmap 2
acta
REM <olex2.extras>
REM <HklSrc "%.\\20170327D23_0m.hkl">
REM </olex2.extras>

WGHT    0.088100    2.550700
FVAR       0.65651
CU1   4    0.497090    0.765972    0.235101    11.00000    0.03524    0.01658 =
         0.01325    0.00882    0.00739    0.01320
O5    5    0.453650    0.732234    1.040228    11.00000    0.03775    0.03082 =
         0.01682    0.01055    0.00460    0.01328
AFIX   3
H5    2    0.369020    0.698594    0.983268    11.00000   -1.50000
AFIX   0
O3    5    0.446386    1.027552    0.725130    11.00000    0.03452    0.02392 =
         0.02858    0.01237    0.00850    0.01502
O7    5    0.566039    0.436393    0.809988    11.00000    0.05762    0.01888 =
         0.02834    0.01594    0.02165    0.01769
O2    5    0.798050    0.727511    0.396203    11.00000    0.05089    0.04767 =
         0.01962    0.01835    0.01578    0.02378
AFIX   3
H2    2    0.758040    0.682641    0.314943    11.00000   -1.50000
AFIX   0
O4    5    0.733827    1.083088    0.695159    11.00000    0.03737    0.02596 =
         0.04946    0.02272    0.00680    0.01176
AFIX   3
H4    2    0.767527    1.168628    0.687529    11.00000    0.74589
AFIX   0
O1    5    0.551150    0.805919    0.427759    11.00000    0.05221    0.03176 =
         0.01894    0.01549    0.01005    0.02633
O6    5    0.733215    0.726916    1.059320    11.00000    0.04380    0.04786 =
         0.02531    0.02069    0.00306    0.01988
O8    5    0.812800    0.439751    0.702007    11.00000    0.04536    0.03165 =
         0.04637    0.02061    0.01926    0.02173
AFIX   3
H8    2    0.906260    0.502941    0.719687    11.00000   -1.50000
AFIX   0
C1    1    0.676313    0.764732    0.464506    11.00000    0.03762    0.01574 =
         0.01813    0.01063    0.00822    0.01235
C7    1    0.600904    0.726565    0.992947    11.00000    0.03835    0.01470 =
         0.01640    0.00727    0.00533    0.00945
C5    1    0.586672    0.844947    0.834558    11.00000    0.03927    0.02024 =
         0.01658    0.00783    0.01221    0.01721
AFIX  43
H5A   2    0.546811    0.911825    0.905860    11.00000   -1.20000
AFIX   0
C10   1    0.695739    0.643257    0.620867    11.00000    0.03225    0.02089 =
         0.01488    0.00747    0.00829    0.01394
AFIX  43
H10   2    0.732064    0.574903    0.548544    11.00000   -1.20000
AFIX   0
C6    1    0.619373    0.730801    0.852548    11.00000    0.02970    0.01894 =
         0.01369    0.01047    0.00656    0.00718
C9    1    0.690734    0.492219    0.753164    11.00000    0.03998    0.02382 =
         0.01736    0.00825    0.00542    0.01409
C4    1    0.595949    0.998342    0.707021    11.00000    0.03164    0.02114 =
         0.01374    0.00737    0.00402    0.01043
C2    1    0.665918    0.758799    0.603732    11.00000    0.02935    0.01877 =
         0.01279    0.00689    0.00441    0.00965
C3    1    0.611881    0.862679    0.712017    11.00000    0.02952    0.01679 =
         0.01562    0.00991    0.00579    0.00822
C8    1    0.672704    0.626316    0.744337    11.00000    0.02673    0.02251 =
         0.02254    0.01182    0.00726    0.01333

CL1   3    0.180230    0.809351    0.508265    11.00000    0.04054    0.03313 =
         0.02888    0.00922    0.01055    0.01459
CL2   3    0.200214    0.483232    0.851939    11.00000    0.04910    0.03672 =
         0.03252    0.00764    0.01021    0.02126
O9    5    0.133586    0.643313    0.678579    11.00000    0.06380    0.10606 =
         0.08869    0.06035    0.01362    0.01855
AFIX   3
H9A   2    0.167446    0.637602    0.756869    11.00000   -1.50000
H9B   2    0.236856    0.686792    0.668729    11.00000   -1.50000
AFIX   0

O10   5    1.053538    1.014724    0.692268    11.00000    0.04134    0.07026 =
         0.13142   -0.01919   -0.00007    0.02162
AFIX   3
H10A  2    0.951088    1.025964    0.678418    11.00000   -1.50000
H10B  2    1.045848    0.964264    0.738698    11.00000   -1.50000
AFIX   0

O11   5    1.062507    0.686190    1.028406    11.00000    0.05831    0.10556 =
         0.14489   -0.03969   -0.00650    0.04005
AFIX   3
H11A  2    0.983197    0.711740    1.059555    11.00000   -1.50000
H11B  2    1.007337    0.595640    0.976846    11.00000   -1.50000
AFIX   0

O12   5    1.109244    0.914960    0.888044    10.50000    0.10886    0.08604 =
         0.09270    0.01558   -0.04235   -0.01746
AFIX   3
H12A  2    1.049354    0.828870    0.860794    10.50000   -1.50000
H12B  2    1.074864    0.949240    0.967154    10.50000   -1.50000
AFIX   0
HKLF 4




REM  20170327d2P -1 R = 0.06
REM wR2 = 0.1677, GooF = S = 1.064, Restrained GooF = 1.064 for all data
REM R1 = 0.0574 for 2402 Fo > 4sig(Fo) and 0.0762 for all 3068 data
REM 227 parameters refined using 0 restraints

END

WGHT      0.0830      2.6268

REM Highest difference peak  0.761,  deepest hole -0.638,  1-sigma level  0.144
Q1    1   0.5000  0.5000  0.5000  10.50000  0.05    0.76
Q2    1   0.4974  0.6291  0.3655  11.00000  0.05    0.75
;
_shelx_res_checksum              59680
_shelx_hkl_file
;
  -1   0   0 3950.53   86.69
  -1   0   0 3904.50   81.51
   1   0   0 3895.86   87.15
  -2   0   0   42.98    4.76
  -2   0   0   41.96    5.12
   2   0   0   38.44    5.88
  -3   0   0 2503.67   59.56
  -3   0   0 2639.12   64.02
   3   0   0 2729.10   66.01
  -4   0   0  329.46   14.60
  -4   0   0  338.15   15.86
   4   0   0  341.40   17.86
  -5   0   0   -9.52    5.18
  -5   0   0    1.02    5.95
   5   0   0   -7.29    7.39
  -6   0   0  292.07   16.84
  -6   0   0  271.77   17.90
   6   0   0  298.38   20.61
  -7   0   0   91.74   12.56
  -7   0   0   84.24   11.59
   7   0   0   92.07   15.23
  -8   0   0   15.65    8.19
   8   0   0   44.69   14.27
  -9   0   0   76.11   14.04
   9   0   0   72.01   17.60
   9  -1   0   17.40   12.50
  -9   1   0   42.63   11.59
   8  -1   0   14.70   11.02
  -8   1   0   10.34    7.69
   7  -1   0    9.77    9.82
  -7   1   0   20.37    8.42
  -7   1   0   13.43    8.06
   6  -1   0   53.93   12.22
  -6   1   0   39.40    8.77
  -6   1   0   45.26    8.80
   5  -1   0   33.20    9.39
  -5   1   0   38.61    7.90
  -5   1   0   29.80    7.15
   4  -1   0  158.34   13.24
  -4   1   0  166.63   10.41
  -4   1   0  161.12   10.75
   3  -1   0    2.10    4.94
  -3   1   0    7.83    4.00
  -3   1   0    3.32    3.59
   2  -1   0  472.95   15.97
  -2   1   0  471.83   14.28
  -2   1   0  498.90   14.33
   1  -1   0   16.35    2.38
  -1   1   0   16.12    2.09
  -1   1   0   15.25    1.98
   0  -1   0   22.04    1.97
   0   1   0   24.30    2.23
  -1  -1   0  776.77   19.00
  -1  -1   0  779.95   20.81
   1   1   0  775.40   20.08
  -2  -1   0 7477.22  157.83
  -2  -1   0 7696.84  168.47
   2   1   0 7424.80  168.25
  -3  -1   0  113.24    9.45
  -3  -1   0  106.82    7.74
   3   1   0  119.37   10.51
  -4  -1   0  122.32    9.41
  -4  -1   0  124.37   11.40
   4   1   0  135.52   13.05
  -5  -1   0    8.98    6.93
  -5  -1   0   -0.08    5.31
   5   1   0   -3.37    7.56
  -6  -1   0  110.23   13.46
  -6  -1   0   87.25   11.64
   6   1   0   99.61   14.90
  -7  -1   0   53.07   10.73
  -7  -1   0   50.75   11.48
   7   1   0   82.89   15.84
  -8  -1   0   11.22    9.46
  -8  -1   0   26.88   10.05
   8   1   0   25.93   13.21
   9  -2   0   47.99   15.25
  -9   2   0   84.78   13.94
   8  -2   0   93.61   17.15
  -8   2   0   92.73   13.66
   7  -2   0   47.45   13.36
  -7   2   0   52.25   10.31
  -7   2   0   51.67   10.26
   6  -2   0  457.78   24.94
  -6   2   0  453.70   20.41
  -6   2   0  491.39   21.44
   5  -2   0  832.65   31.76
  -5   2   0  821.39   27.66
  -5   2   0  855.27   27.05
   4  -2   0  546.92   22.26
  -4   2   0  584.54   19.37
  -4   2   0  541.34   19.17
   3  -2   0 3412.21   85.38
  -3   2   0 3808.28   82.91
  -3   2   0 3488.43   78.70
   2  -2   0 1452.23   36.88
  -2   2   0 1466.56   33.85
  -2   2   0 1418.75   35.20
   1  -2   0 1116.14   26.10
   1  -2   0 1127.14   26.56
  -1   2   0 1079.54   27.14
   0  -2   0 2244.82   49.08
   0   2   0 2239.50   52.23
  -1  -2   0 3560.67   77.26
  -1  -2   0 3613.62   83.04
   1   2   0 3572.93   80.59
  -2  -2   0  162.32    9.11
  -2  -2   0  178.52   11.10
   2   2   0  170.84   10.16
  -3  -2   0   64.76    8.39
  -3  -2   0   71.82    7.53
   3   2   0   59.67    8.33
  -4  -2   0   35.48    7.95
  -4  -2   0   30.57    6.69
   4   2   0   31.39    8.34
  -5  -2   0  139.98   13.15
  -5  -2   0  165.94   15.34
   5   2   0  121.65   14.85
  -6  -2   0  170.43   15.29
  -6  -2   0  211.00   17.15
   6   2   0  222.06   20.78
  -7  -2   0  110.29   13.96
  -7  -2   0  121.86   15.45
   7   2   0  154.69   18.72
  -8  -2   0   64.05   11.92
  -8  -2   0   42.69   12.73
   8   2   0   63.27   15.24
   9  -3   0    9.47   12.28
  -9   3   0   -5.10    8.33
   8  -3   0   -4.87   10.78
  -8   3   0    5.66    8.21
   7  -3   0  205.00   20.39
  -7   3   0  181.71   15.68
  -7   3   0  162.22   15.03
   6  -3   0  263.60   19.48
  -6   3   0  274.60   16.34
  -6   3   0  273.80   16.25
   5  -3   0  164.96   15.54
  -5   3   0  135.94   11.46
  -5   3   0  127.95   11.65
   4  -3   0  155.89   11.90
  -4   3   0  139.07    9.85
  -4   3   0  129.06    9.16
   3  -3   0 2024.24   52.47
  -3   3   0 2065.57   48.42
  -3   3   0 2045.42   50.15
   2  -3   0  676.81   19.90
  -2   3   0  652.15   18.30
  -2   3   0  667.61   19.78
   1  -3   0  172.18    8.39
   1  -3   0  179.61    6.81
  -1   3   0  173.18    9.12
   0  -3   0  331.93   11.87
   0   3   0  340.08   12.78
  -1  -3   0 1190.52   30.52
   1   3   0 1225.05   33.10
   1   3   0 1212.19   30.07
  -2  -3   0   74.72    8.96
  -2  -3   0   51.55    6.41
   2   3   0   54.31    6.99
  -3  -3   0  342.46   17.30
  -3  -3   0  384.48   16.20
   3   3   0  374.79   17.51
  -4  -3   0  -11.39    4.99
  -4  -3   0    2.18    6.85
   4   3   0    2.79    7.20
  -5  -3   0   81.06   11.22
  -5  -3   0   67.09   11.39
   5   3   0   93.81   13.45
  -6  -3   0   75.56   13.02
  -6  -3   0   69.68   11.08
   6   3   0   57.99   13.37
  -7  -3   0    7.64    9.26
  -7  -3   0   -3.83    7.24
   7   3   0    0.90   10.20
  -8  -3   0   -3.16    8.55
  -8  -3   0   11.52   10.74
   8   3   0   15.60   12.75
   9  -4   0   56.01   16.26
  -9   4   0   43.66   11.89
   8  -4   0    3.98   11.65
  -8   4   0   18.26    9.25
   7  -4   0  136.69   17.86
  -7   4   0  128.13   13.96
   6  -4   0  334.70   22.19
  -6   4   0  304.30   17.41
  -6   4   0  355.74   17.85
   5  -4   0  140.61   15.04
  -5   4   0  149.19   11.46
  -5   4   0  151.93   12.65
   4  -4   0  135.11   12.46
  -4   4   0  120.40    9.94
  -4   4   0  120.77    9.04
   3  -4   0 1458.28   39.71
  -3   4   0 1428.64   38.55
  -3   4   0 1494.38   37.15
   2  -4   0  674.62   20.31
   2  -4   0  676.47   19.86
  -2   4   0  700.57   21.54
   1  -4   0  576.24   17.59
   1  -4   0  521.80   13.29
  -1   4   0  551.98   18.51
   0  -4   0 4291.87   94.14
   0   4   0 4314.67  100.47
  -1  -4   0 1794.21   43.80
   1   4   0 1719.78   46.43
   1   4   0 1765.10   41.83
  -2  -4   0  164.51   10.62
   2   4   0  187.02   10.99
  -3  -4   0  414.02   20.03
  -3  -4   0  411.17   17.54
   3   4   0  373.77   17.52
  -4  -4   0  827.59   32.48
  -4  -4   0  878.20   29.96
   4   4   0  845.65   31.18
  -5  -4   0   21.70    7.83
  -5  -4   0    8.12    8.06
   5   4   0   27.16    9.83
  -6  -4   0   41.83    9.99
  -6  -4   0   49.26   12.47
   6   4   0   59.91   13.51
  -7  -4   0  155.02   17.59
  -7  -4   0  166.27   19.73
   7   4   0  201.69   21.62
  -8  -4   0   -9.00   10.39
   9  -5   0    2.93   12.59
  -9   5   0   10.42    9.79
   8  -5   0    9.15   11.36
  -8   5   0    6.35    8.76
   7  -5   0    2.82   10.15
  -7   5   0   11.65    8.15
   6  -5   0  569.29   27.94
  -6   5   0  551.51   23.55
  -6   5   0  576.29   23.01
   5  -5   0  189.68   15.85
  -5   5   0  177.81   12.62
  -5   5   0  186.99   12.91
   4  -5   0   32.40    7.56
  -4   5   0   33.89    6.59
  -4   5   0   13.42    5.85
   3  -5   0  578.60   20.45
  -3   5   0  599.03   19.84
  -3   5   0  627.23   21.41
   2  -5   0 1873.37   43.53
   2  -5   0 1770.81   44.88
  -2   5   0 1762.13   47.01
   1  -5   0  116.88    8.99
  -1   5   0  125.67    9.96
   0  -5   0  142.79    9.72
   0   5   0  151.44   10.89
  -1  -5   0  446.17   17.62
   1   5   0  449.19   13.28
   1   5   0  476.97   19.07
   2   5   0  241.79   12.22
  -3  -5   0   50.33    8.76
   3   5   0   46.28    8.44
   3   5   0   49.93    9.06
  -4  -5   0    2.77    6.32
   4   5   0   -9.35    6.43
  -5  -5   0   -4.13    6.68
  -5  -5   0    8.49    8.68
  -6  -5   0   -2.85    8.90
  -6  -5   0    2.73    6.72
  -7  -5   0    2.97    8.39
   9  -6   0   17.96   13.41
  -9   6   0   16.30   10.71
   8  -6   0  340.42   24.53
  -8   6   0  325.75   20.85
   7  -6   0  226.47   21.56
  -7   6   0  179.72   16.88
   6  -6   0  542.03   26.93
  -6   6   0  539.69   23.42
  -6   6   0  588.16   24.09
   5  -6   0  950.39   34.85
  -5   6   0 1051.81   33.02
  -5   6   0 1000.53   32.12
   4  -6   0   70.47    9.60
  -4   6   0   84.75    9.87
  -4   6   0   71.84    8.97
   3  -6   0  473.67   17.45
  -3   6   0  446.03   19.12
   2  -6   0 1034.66   30.57
  -2   6   0 1010.20   31.90
   1  -6   0  479.26   18.81
  -1   6   0  477.85   20.16
   0  -6   0  125.97   10.82
   0   6   0  120.16   11.61
  -1  -6   0  995.86   30.93
   1   6   0  989.61   33.06
  -2  -6   0   43.85    8.22
   2   6   0   46.83    8.78
  -3  -6   0   -2.01    6.16
   3   6   0    0.29    5.95
  -4  -6   0  318.70   18.72
   4   6   0  338.08   19.94
  -5  -6   0   68.04   11.42
   5   6   0   85.41   12.92
  -6  -6   0   -6.23    6.30
   6   6   0   12.30    8.53
   9  -7   0   13.29   12.55
  -9   7   0    9.26   11.07
   8  -7   0   23.48   12.25
  -8   7   0   38.16   11.37
   7  -7   0   57.39   13.25
  -7   7   0   56.67   10.64
   6  -7   0  916.75   34.90
  -6   7   0  846.49   31.20
  -5   7   0 1323.62   41.05
  -5   7   0 1313.35   39.58
  -4   7   0  655.05   23.99
  -4   7   0  663.89   25.34
   3  -7   0  404.41   18.42
  -3   7   0  396.67   19.36
   2  -7   0   16.82    6.57
  -2   7   0   24.39    7.59
   1  -7   0   45.44    8.00
  -1   7   0   46.95    8.65
   0  -7   0  129.45   11.55
   0   7   0  126.88   13.07
  -1  -7   0   86.71   10.21
   1   7   0   82.54   11.17
  -2  -7   0   22.68    7.05
   2   7   0   21.60    7.49
  -3  -7   0   37.66    8.97
   3   7   0   37.98    9.55
  -4  -7   0   20.57    8.60
   4   7   0   22.25    8.43
  -5  -7   0   24.07    8.61
   5   7   0   25.14    9.14
  -9   8   0    2.78   10.74
  -8   8   0  241.65   21.02
  -7   8   0  374.34   21.38
  -6   8   0  121.41   13.52
  -5   8   0   89.45   12.03
  -5   8   0  126.44   12.76
  -4   8   0   61.39   10.64
  -4   8   0   40.35    8.00
   3  -8   0  101.32   11.90
  -3   8   0   82.03   11.94
   2  -8   0   24.80    7.67
  -2   8   0   35.70    9.17
   1  -8   0  155.74   13.75
  -1   8   0  185.19   15.20
   0  -8   0  313.38   17.21
   0   8   0  314.13   18.76
  -1  -8   0  432.26   20.55
   1   8   0  450.96   23.50
  -2  -8   0  157.53   14.48
   2   8   0  109.68   13.47
  -3  -8   0    5.09    6.40
   3   8   0   18.82    8.40
  -4  -8   0   21.02    9.17
   4   8   0   35.60   10.29
  -5  -8   0   76.73   13.87
   5   8   0   68.83   13.63
  -8   9   0   87.20   14.50
  -7   9   0    4.84    8.20
  -6   9   0  311.39   19.03
  -5   9   0  335.45   18.80
  -4   9   0   27.85    9.82
  -4   9   0   34.66    8.13
   3  -9   0  189.24   14.88
  -3   9   0  188.99   16.87
   2  -9   0  319.52   18.19
  -2   9   0  311.37   19.78
   1  -9   0   88.00   11.53
  -1   9   0  119.05   14.53
   0  -9   0   38.39    9.18
   0   9   0   28.55    9.04
  -1  -9   0  554.05   24.76
   1   9   0  530.29   26.66
  -2  -9   0  188.80   17.18
   2   9   0  180.00   18.56
  -3  -9   0   10.16    8.47
   3   9   0   24.56    9.62
  -4  -9   0   39.99   11.07
  -7  10   0   20.08    9.96
  -6  10   0  117.46   14.51
  -5  10   0   89.74   12.53
  -4  10   0    5.45    6.46
  -4  10   0    2.35    8.79
   3 -10   0    5.60    7.27
  -3  10   0    2.55    8.17
   2 -10   0  113.05   13.75
  -2  10   0  129.83   15.83
   1 -10   0   94.64   12.69
  -1  10   0   85.12   13.99
   0 -10   0   35.04    9.72
   0  10   0   21.87   10.06
  -1 -10   0  156.20   16.16
   1  10   0  137.79   16.52
  -2 -10   0   64.27   11.38
   2  10   0   54.31   12.56
  -6  11   0  117.24   14.83
  -5  11   0  475.66   24.62
   3 -11   0   50.31   11.16
  -3  11   0   80.86   13.95
   2 -11   0  129.36   15.47
  -2  11   0  115.87   16.24
   1 -11   0  106.85   14.45
  -1  11   0  104.09   16.07
   0 -11   0    1.05    7.59
   0  11   0    2.95    9.32
  -1 -11   0   45.06   10.87
   1  11   0   32.00   11.96
  -5  12   0    7.91    8.38
   3 -12   0    0.17    8.93
  -3  12   0   10.46   10.84
   2 -12   0    9.89    9.17
  -2  12   0   17.12   11.48
   1 -12   0   69.32   13.21
  -1  12   0   41.20   13.48
   0  12  -1   84.55   15.63
  -1  12  -1   32.55   11.71
   1 -12   1   25.63   10.19
  -2  12  -1   72.98   14.25
   2 -12   1   68.95   12.86
   3 -12   1  211.20   19.79
  -5  12  -1  394.91   23.16
   1  11  -1   85.42   13.97
  -1 -11   1   64.11   11.82
   0  11  -1   -0.81    7.65
   0 -11   1   -3.59    6.89
  -1  11  -1   47.70   12.07
   1 -11   1   33.10    9.59
  -2  11  -1  170.47   17.97
   2 -11   1  132.63   15.43
  -3  11  -1   -7.02    8.03
   3 -11   1    9.51    8.31
  -4  11  -1    4.68    6.44
  -5  11  -1  158.86   15.89
  -6  11  -1   12.63    8.79
  -7  11  -1   11.01    9.39
   3  10  -1   53.58   12.37
  -3 -10   1   92.70   14.39
   2  10  -1  203.36   20.29
  -2 -10   1  230.42   17.71
   1  10  -1  270.09   19.86
  -1 -10   1  234.33   17.60
   0  10  -1  221.82   17.60
   0 -10   1  229.25   16.86
  -1  10  -1  155.89   16.20
   1 -10   1  162.52   15.55
  -2  10  -1  596.41   27.52
   2 -10   1  606.53   26.65
  -3  10  -1  448.61   23.48
   3 -10   1  421.34   22.23
  -4  10  -1  193.26   14.55
  -5  10  -1  170.13   16.31
  -6  10  -1  138.48   15.35
  -7  10  -1   61.04   12.46
  -8  10  -1   67.32   14.11
   4   9  -1   94.39   14.50
  -4  -9   1  122.43   15.30
   3   9  -1   35.90    9.93
  -3  -9   1   17.19    8.12
   2   9  -1   13.28    7.42
  -2  -9   1   23.14    8.61
   1   9  -1  235.76   17.74
  -1  -9   1  241.73   16.23
   0   9  -1  155.42   15.32
   0  -9   1  163.20   14.95
  -1   9  -1    1.65    6.23
   1  -9   1   -0.89    6.37
  -2   9  -1  191.05   15.67
   2  -9   1  182.24   13.87
  -3   9  -1  330.94   18.88
   3  -9   1  350.34   19.27
  -4   9  -1    3.91    7.77
  -4   9  -1    9.97    6.25
  -5   9  -1   40.46    8.82
  -6   9  -1   80.06   12.15
  -7   9  -1   30.26    9.57
  -8   9  -1   -4.47    9.18
   5   8  -1    7.48    7.74
  -5  -8   1    6.47    8.67
   4   8  -1   57.50   11.73
  -4  -8   1   51.96   11.17
   3   8  -1  259.13   17.79
  -3  -8   1  233.60   16.30
   2   8  -1    7.25    7.17
  -2  -8   1    7.00    6.99
   1   8  -1  161.96   15.25
  -1  -8   1  136.99   13.77
   0   8  -1  634.55   26.43
   0  -8   1  636.36   25.07
  -1   8  -1  186.74   13.58
   1  -8   1  169.83   13.24
  -2   8  -1   79.95   10.94
   2  -8   1   69.16   10.07
  -3   8  -1  982.31   33.04
   3  -8   1  954.07   32.52
  -4   8  -1  300.38   16.50
  -4   8  -1  296.58   17.56
  -5   8  -1   43.16    8.80
  -6   8  -1  154.36   14.95
  -7   8  -1  176.41   16.96
  -8   8  -1   99.55   14.46
   6   7  -1   40.44   11.32
  -6  -7   1   33.96   10.15
   5   7  -1   27.83    9.64
  -5  -7   1   34.10    9.52
   4   7  -1    9.10    7.00
  -4  -7   1    9.90    7.66
   3   7  -1   29.10    8.58
  -3  -7   1   24.76    8.32
   2   7  -1   44.66    8.91
  -2  -7   1   31.71    8.23
   1   7  -1  624.17   25.24
  -1  -7   1  664.63   24.53
   0   7  -1  181.97   13.37
   0  -7   1  168.71   12.23
  -1   7  -1  240.52   14.48
   1  -7   1  277.24   15.09
  -2   7  -1  559.49   22.17
   2  -7   1  595.07   22.59
  -3   7  -1  814.82   27.18
   3  -7   1  788.82   27.04
  -4   7  -1  657.23   23.73
  -4   7  -1  634.63   23.63
  -5   7  -1  685.59   25.75
   5  -7   1  651.09   26.35
  -6   7  -1    2.37    6.52
   6  -7   1   12.18    9.08
  -7   7  -1  191.19   17.36
   7  -7   1  193.26   19.59
  -8   7  -1   50.08   12.17
   8  -7   1   36.35   13.50
  -9   7  -1   88.34   15.22
   9  -7   1  100.45   18.25
  -6  -6   1    3.73    7.93
  -6  -6   1  -14.57    8.44
  -5  -6   1   10.20    7.60
  -5  -6   1   11.79    9.81
  -4  -6   1   15.22    7.11
  -4  -6   1   43.34   11.33
  -3  -6   1  121.05   12.07
   2   6  -1 1742.91   50.91
  -2  -6   1 1784.08   47.97
   1   6  -1  309.87   16.25
  -1  -6   1  310.81   15.49
   0   6  -1  119.83   10.67
   0  -6   1  121.08    9.15
  -1   6  -1 1487.53   40.95
   1  -6   1 1464.19   39.70
  -2   6  -1  479.22   18.27
   2  -6   1  465.13   18.58
   2  -6   1  470.18   14.19
  -3   6  -1  220.46   11.78
  -3   6  -1  209.11   12.32
   3  -6   1  196.49   11.01
  -4   6  -1  633.45   22.64
  -4   6  -1  641.87   22.34
   4  -6   1  648.36   23.70
  -5   6  -1  165.87   13.87
  -5   6  -1  178.03   12.63
   5  -6   1  192.10   14.50
  -6   6  -1   12.01    7.79
   6  -6   1   11.18    9.21
  -7   6  -1   85.80   13.01
   7  -6   1   81.81   14.58
  -8   6  -1  249.84   19.01
   8  -6   1  276.48   25.15
  -9   6  -1  136.78   16.67
   9  -6   1   99.76   18.60
  -7  -5   1   74.09   13.46
  -7  -5   1   68.79   15.25
  -6  -5   1   74.99   14.73
  -6  -5   1   64.65   11.93
   5   5  -1   14.57    9.24
  -5  -5   1    0.65    5.97
  -5  -5   1   12.16    9.44
   4   5  -1  417.95   21.30
  -4  -5   1  449.25   23.71
  -4  -5   1  400.13   19.52
   3   5  -1  759.52   26.74
  -3  -5   1  770.94   30.48
  -3  -5   1  823.75   27.42
   2   5  -1    6.16    4.80
  -2  -5   1    8.23    5.28
  -2  -5   1    6.78    6.48
   1   5  -1  919.38   24.33
   1   5  -1  921.26   29.33
  -1  -5   1  968.74   27.88
   0   5  -1 9999.00  222.72
   0  -5   1 9897.86  210.19
  -1   5  -1  553.87   18.54
   1  -5   1  531.73   13.42
   1  -5   1  508.87   18.09
  -2   5  -1  317.33   13.32
   2  -5   1  307.81   13.74
   2  -5   1  303.92   11.29
  -3   5  -1 2118.88   50.53
  -3   5  -1 2077.25   51.42
   3  -5   1 1976.35   51.88
  -4   5  -1   15.83    4.99
  -4   5  -1    5.64    4.99
   4  -5   1    7.21    4.81
  -5   5  -1   89.17    9.07
  -5   5  -1  100.13   10.95
   5  -5   1   85.92   12.15
  -6   5  -1  343.21   18.25
   6  -5   1  353.74   21.56
  -7   5  -1   -8.63    6.61
   7  -5   1    7.73   10.08
  -8   5  -1  104.51   13.99
   8  -5   1  134.54   18.88
  -9   5  -1  111.59   15.83
   9  -5   1  126.97   20.30
   8   4  -1    2.37   12.30
  -8  -4   1   -2.14   10.91
   7   4  -1    6.53   10.83
  -7  -4   1    1.10    7.96
  -7  -4   1    5.51    9.82
   6   4  -1   34.52   11.67
  -6  -4   1   39.61    9.58
  -6  -4   1   26.50   10.82
   5   4  -1  103.82   14.17
  -5  -4   1   87.33   11.56
  -5  -4   1  102.29   14.36
   4   4  -1    0.99    6.87
  -4  -4   1   -2.32    7.18
  -4  -4   1    2.56    6.01
   3   4  -1  233.05   14.21
  -3  -4   1  255.73   13.82
  -3  -4   1  231.07   16.12
   2   4  -1  723.24   22.47
  -2  -4   1  722.20   25.92
  -2  -4   1  714.34   22.77
   1   4  -1  387.78   12.69
  -1  -4   1  410.00   14.81
  -1  -4   1  412.12   16.93
   0   4  -1 1053.82   29.42
   0  -4   1 1050.15   24.83
   0  -4   1 1115.48   28.40
  -1   4  -1  257.07   10.61
   1  -4   1  236.29    7.88
   1  -4   1  253.75   11.11
  -2   4  -1  413.87   14.15
   2  -4   1  425.84   14.84
   2  -4   1  429.95   14.06
  -3   4  -1 1167.38   29.47
  -3   4  -1 1163.36   30.09
   3  -4   1 1000.68   31.49
  -4   4  -1  192.12   11.76
  -4   4  -1  202.77   10.45
   4  -4   1  180.15   13.74
  -5   4  -1  154.78   12.92
  -5   4  -1  144.36   10.17
   5  -4   1  122.80   14.53
  -6   4  -1   21.06    7.80
   6  -4   1   26.19   10.85
  -7   4  -1  108.41   13.40
   7  -4   1  101.29   16.14
  -8   4  -1   14.51    9.37
   8  -4   1   16.64   12.05
  -9   4  -1    0.16    8.87
   9  -4   1   11.62   12.26
   8   3  -1   34.46   14.17
  -8  -3   1   52.37   13.61
  -8  -3   1   56.30   12.02
   7   3  -1  105.72   17.21
  -7  -3   1  123.41   14.55
  -7  -3   1  115.26   16.10
   6   3  -1  406.93   24.46
  -6  -3   1  367.05   22.17
  -6  -3   1  379.13   20.25
   5   3  -1  409.52   21.83
  -5  -3   1  402.90   19.06
  -5  -3   1  417.45   22.71
   4   3  -1  118.21   12.75
  -4  -3   1  119.91   13.26
  -4  -3   1  116.97   10.89
   3   3  -1 1002.20   31.96
  -3  -3   1 1066.45   30.76
  -3  -3   1 1116.45   34.84
   2   3  -1 1120.27   30.78
  -2  -3   1 1102.68   33.26
  -2  -3   1 1138.14   30.06
   1   3  -1  632.21   17.62
  -1  -3   1  656.10   18.91
  -1  -3   1  628.34   20.81
   0  -3   1  988.99   25.03
   0  -3   1  983.82   23.28
  -1   3  -1  532.81   15.07
   1  -3   1  530.67   15.69
   1  -3   1  531.91   14.35
  -2   3  -1 1173.65   28.56
  -2   3  -1 1153.81   28.74
   2  -3   1 1129.52   30.47
   3  -3   1   89.98    9.42
  -4   3  -1  285.41   13.96
  -4   3  -1  302.85   12.35
   4  -3   1  282.54   16.52
  -5   3  -1  204.53   12.17
  -5   3  -1  205.72   13.04
   5  -3   1  229.39   16.63
  -6   3  -1  117.78   12.15
  -6   3  -1  171.21   12.50
   6  -3   1  106.26   15.06
  -7   3  -1   25.41    8.92
   7  -3   1   37.09   11.74
  -8   3  -1   25.61    9.65
   8  -3   1   11.54   10.70
  -9   3  -1   42.91   11.88
   9  -3   1   36.60   14.92
   8   2  -1   15.73   12.42
  -8  -2   1   20.28    9.27
  -8  -2   1   31.19   11.64
   7   2  -1   85.82   15.98
  -7  -2   1  118.87   13.96
  -7  -2   1   89.37   14.33
   6   2  -1   -1.66    8.58
  -6  -2   1    3.18    7.63
  -6  -2   1   -1.44    6.00
   5   2  -1  342.80   19.85
  -5  -2   1  324.82   16.35
  -5  -2   1  275.13   18.39
   4   2  -1   21.69    7.29
  -4  -2   1   19.04    5.73
  -4  -2   1   32.66    7.50
   3   2  -1  461.87   18.16
  -3  -2   1  459.50   18.91
  -3  -2   1  474.15   16.61
   2   2  -1  982.80   27.47
  -2  -2   1  969.37   25.56
  -2  -2   1  967.84   28.92
   1   2  -1  100.33    5.91
  -1  -2   1  104.41    5.97
  -1  -2   1  104.05    7.92
   0  -2   1   30.55    2.58
   0  -2   1   25.86    3.19
   0  -2   1   27.61    3.10
  -1   2  -1  573.00   14.38
   1  -2   1  579.12   15.68
   1  -2   1  596.09   15.55
  -2   2  -1  402.34   11.53
  -2   2  -1  401.89   13.16
   2  -2   1  408.05   15.16
  -3   2  -1  178.37    8.57
  -3   2  -1  189.65   10.18
   3  -2   1  190.33   11.68
  -4   2  -1  307.17   13.17
  -4   2  -1  304.56   14.27
   4  -2   1  349.44   18.10
  -5   2  -1  931.54   29.64
  -5   2  -1  970.52   29.73
   5  -2   1  945.99   35.10
  -6   2  -1  191.79   14.18
  -6   2  -1  212.55   14.75
   6  -2   1  191.44   18.60
  -7   2  -1   35.08    9.25
   7  -2   1   25.44   10.93
  -8   2  -1  181.69   17.36
   8  -2   1  110.75   17.78
  -9   2  -1   20.23   10.25
   9  -2   1    4.79   11.59
  -9  -1   1   21.14   10.46
   8   1  -1   51.52   14.97
  -8  -1   1   65.13   12.00
  -8  -1   1   83.52   14.39
   7   1  -1   49.53   12.79
  -7  -1   1   75.57   11.58
  -7  -1   1   72.08   12.46
   6   1  -1  123.26   16.20
  -6  -1   1  110.55   11.96
  -6  -1   1  111.27   13.69
   5   1  -1  142.20   15.02
  -5  -1   1  137.10   12.07
  -5  -1   1  157.43   14.46
   4   1  -1 1379.81   41.43
  -4  -1   1 1332.11   40.41
  -4  -1   1 1334.90   36.11
   3   1  -1 1856.51   49.52
  -3  -1   1 1894.54   49.98
  -3  -1   1 1911.15   45.19
   2   1  -1 1013.17   27.65
  -2  -1   1  959.15   24.78
  -2  -1   1  988.38   28.06
  -1  -1   1  876.86   23.41
  -1  -1   1  895.89   20.84
  -1  -1   1  892.81   22.60
  -1   1  -1 1500.27   32.21
  -1   1  -1 1416.27   31.92
   1  -1   1 1439.90   34.49
  -2   1  -1  348.14   11.94
  -2   1  -1  346.03   10.91
   2  -1   1  332.56   13.92
  -3   1  -1 2547.31   61.69
  -3   1  -1 2583.31   59.65
   3  -1   1 2697.86   66.05
  -4   1  -1 2012.90   51.61
  -4   1  -1 2057.93   50.18
   4  -1   1 2014.83   56.29
  -5   1  -1   15.46    6.10
  -5   1  -1    7.66    5.68
   5  -1   1    4.72    7.59
  -6   1  -1  154.76   13.94
  -6   1  -1  143.82   13.24
   6  -1   1  146.14   16.93
  -7   1  -1  245.42   16.91
  -7   1  -1  242.53   17.07
   7  -1   1  225.08   22.16
  -8   1  -1   -4.80    7.69
   8  -1   1   14.01   10.98
  -9   1  -1   34.35   10.91
   9  -1   1   25.02   13.11
   9   0  -1    1.86   11.02
  -9   0   1    7.25    9.70
   8   0  -1   51.73   14.20
  -8   0   1   73.18   13.38
  -8   0   1   42.72   10.33
   7   0  -1    8.84   10.70
  -7   0   1   27.54    8.74
  -7   0   1   26.61    9.08
   6   0  -1  279.46   19.90
  -6   0   1  316.81   19.49
  -6   0   1  298.49   16.83
   5   0  -1   25.36    9.18
  -5   0   1   23.28    6.77
  -5   0   1   51.65    8.96
   4   0  -1  174.86   12.85
  -4   0   1  174.41   10.61
  -4   0   1  185.05   12.44
   3   0  -1  116.37    9.28
  -3   0   1  105.34    7.07
  -3   0   1  114.30    9.35
   2   0  -1  828.08   23.89
  -2   0   1  839.72   20.86
  -2   0   1  830.99   23.64
  -1   0   1   14.84    2.81
  -1   0   1   18.79    2.01
  -1   0   1   15.43    2.76
   0   0  -1   20.11    1.11
   0   0   1   14.74    1.69
   0   0   1   22.40    2.12
  -1   0  -1  428.11   11.49
   1   0   1  423.24   12.88
  -2   0  -1 6322.47  131.99
  -2   0  -1 6222.32  139.32
   2   0   1 6252.06  141.47
  -3   0  -1    6.02    4.07
  -3   0  -1    2.40    3.58
   3   0   1    5.20    5.08
  -4   0  -1    6.81    4.71
  -4   0  -1    5.05    4.49
   4   0   1   14.34    6.51
  -5   0  -1    0.29    6.23
  -5   0  -1    9.50    6.10
   5   0   1    7.44    8.49
  -6   0  -1   61.40   10.07
  -6   0  -1   41.90    8.94
   6   0   1   67.06   13.78
  -7   0  -1   -1.80    7.05
  -7   0  -1   13.36    7.59
   7   0   1   12.41   10.72
  -8   0  -1    7.66    7.57
   8   0   1   17.43   11.51
   9   0   1    9.80   12.72
   9  -1  -1   44.29   15.58
  -9   1   1   42.67   11.25
   8  -1  -1  355.69   26.71
  -8   1   1  377.05   23.73
  -8   1   1  358.76   20.37
   7  -1  -1  533.95   28.90
  -7   1   1  597.93   27.12
  -7   1   1  524.68   23.61
   6  -1  -1  728.24   32.00
  -6   1   1  750.73   29.62
  -6   1   1  707.06   25.91
   5  -1  -1 1811.90   53.20
  -5   1   1 1742.38   45.75
  -5   1   1 1739.12   49.78
   4  -1  -1  235.78   14.28
  -4   1   1  266.70   12.20
  -4   1   1  247.32   13.39
   3  -1  -1 4472.46  106.98
  -3   1   1 4605.33   98.33
  -3   1   1 4641.49  105.63
   2  -1  -1 3544.23   80.34
  -2   1   1 3379.40   79.63
  -1   1   1  384.23   12.00
  -1   1   1  396.62    9.87
  -1   1   1  398.11   11.63
   0  -1  -1    9.27    2.06
   0   1   1    9.09    2.76
   0   1   1   11.79    2.23
  -1  -1  -1 1492.33   34.56
   1   1   1 1533.14   36.98
   1   1   1 1528.31   36.60
  -2  -1  -1  101.23    6.97
  -2  -1  -1  114.27    8.66
   2   1   1   98.84    8.86
  -3  -1  -1   14.23    4.83
  -3  -1  -1   11.13    4.93
   3   1   1   14.46    6.27
  -4  -1  -1 2615.38   62.18
  -4  -1  -1 2521.99   65.70
   4   1   1 2489.89   67.66
  -5  -1  -1  158.94   14.12
  -5  -1  -1  129.42   12.21
   5   1   1  124.45   15.36
  -6  -1  -1   -2.10    6.38
  -6  -1  -1   13.02    7.93
   6   1   1    4.80    9.75
  -7  -1  -1   19.70    8.90
  -7  -1  -1   -1.01    8.09
   7   1   1   23.29   11.61
  -8  -1  -1    9.11    8.34
   8   1   1    0.34   10.96
   9  -2  -1  -11.01   11.47
  -9   2   1   -3.38    8.28
   8  -2  -1    0.06   10.11
  -8   2   1    4.10    8.40
  -8   2   1   17.02    8.73
   7  -2  -1   13.26    9.57
  -7   2   1   17.69    8.39
  -7   2   1   11.43    7.78
   6  -2  -1  268.18   20.39
  -6   2   1  259.64   15.47
  -6   2   1  270.23   17.08
   5  -2  -1  125.51   14.23
  -5   2   1  121.71   11.28
  -5   2   1  123.83   10.79
   4  -2  -1   37.52    7.89
  -4   2   1   34.87    6.22
  -4   2   1   26.19    5.78
   3  -2  -1  899.97   26.45
  -3   2   1  881.62   24.93
  -3   2   1  699.00   21.53
  -2   2   1  824.17   20.58
  -2   2   1  811.95   23.26
   1  -2  -1  422.14   12.10
  -1   2   1  422.97   12.47
  -1   2   1  434.91   14.46
   0  -2  -1  206.39    7.92
   0   2   1  210.06    9.75
   0   2   1  207.08    6.71
  -1  -2  -1   -1.91    3.07
   1   2   1    0.79    3.06
   1   2   1   -1.81    3.43
  -2  -2  -1  582.29   17.95
   2   2   1  558.41   19.12
  -3  -2  -1   13.50    4.94
  -3  -2  -1    6.43    5.24
   3   2   1   17.59    6.30
  -4  -2  -1   -2.42    6.00
  -4  -2  -1    7.52    5.96
   4   2   1    9.03    7.10
  -5  -2  -1    7.49    6.22
  -5  -2  -1    3.62    6.98
   5   2   1    2.34    7.77
  -6  -2  -1  265.55   17.14
  -6  -2  -1  213.93   17.26
   6   2   1  258.74   20.48
  -7  -2  -1    3.56    7.41
  -7  -2  -1    5.23    9.49
   7   2   1    2.21   10.10
  -8  -2  -1   72.79   13.42
   8   2   1   47.75   14.70
   9  -3  -1    1.58   11.39
  -9   3   1    3.27    8.90
   8  -3  -1  431.83   28.72
  -8   3   1  431.01   22.41
   7  -3  -1  339.23   23.79
  -7   3   1  339.73   18.75
  -7   3   1  353.31   20.32
   6  -3  -1  131.40   16.15
  -6   3   1  125.03   12.17
  -6   3   1  123.40   12.63
   5  -3  -1  492.17   23.73
  -5   3   1  517.17   19.69
  -5   3   1  499.69   20.38
   4  -3  -1  595.01   23.50
  -4   3   1  643.89   20.74
  -4   3   1  659.60   22.51
   3  -3  -1   -0.21    1.93
  -3   3   1   -1.23    2.00
  -3   3   1   15.19    4.90
   2  -3  -1  609.76   18.65
  -2   3   1  625.90   20.35
   1  -3  -1  650.27   18.15
  -1   3   1  651.98   20.87
   0  -3  -1   29.80    4.44
   0   3   1   31.76    5.29
   0   3   1   33.26    2.88
  -1  -3  -1  346.46   12.88
   1   3   1  337.87   14.47
   1   3   1  355.46   11.59
  -2  -3  -1  511.57   18.18
   2   3   1  526.34   17.98
   2   3   1  503.64   19.04
  -3  -3  -1  553.11   20.41
   3   3   1  579.96   22.19
  -4  -3  -1  187.44   14.99
  -4  -3  -1  198.39   13.07
   4   3   1  175.16   14.73
  -5  -3  -1  348.07   20.87
  -5  -3  -1  373.83   18.86
   5   3   1  361.22   21.39
  -6  -3  -1   80.51   11.67
  -6  -3  -1   89.53   13.80
   6   3   1  103.20   15.10
  -7  -3  -1   35.72   11.43
  -7  -3  -1   14.68    8.75
   7   3   1   17.70   11.01
   8   3   1   -9.09   10.01
   9  -4  -1   80.29   17.42
  -9   4   1   63.76   12.65
   8  -4  -1   -0.80   10.87
  -8   4   1   -0.78    7.96
   7  -4  -1   29.30   11.57
  -7   4   1   15.84    7.72
  -7   4   1   37.54    9.29
   6  -4  -1  837.36   34.31
  -6   4   1  856.24   29.06
  -6   4   1  838.15   29.99
   5  -4  -1    1.97    7.61
  -5   4   1    1.24    5.75
  -5   4   1    7.89    6.47
  -4   4   1  299.43   15.05
  -4   4   1  296.65   13.52
   3  -4  -1  587.33   19.78
  -3   4   1  488.31   16.99
  -3   4   1  560.03   20.33
   2  -4  -1 1641.97   40.69
   2  -4  -1 1648.28   40.30
  -2   4   1 1677.28   44.27
   1  -4  -1  709.39   17.98
   1  -4  -1  726.19   21.12
  -1   4   1  743.75   23.97
   0  -4  -1   12.60    4.22
   0   4   1   12.93    2.06
   0   4   1   14.18    4.94
  -1  -4  -1  717.46   21.99
   1   4   1  692.01   19.07
   1   4   1  699.40   23.90
  -2  -4  -1  143.41   10.28
   2   4   1  132.20   11.07
   2   4   1  146.58    9.15
  -3  -4  -1   -1.15    5.22
   3   4   1   -0.75    5.48
   3   4   1    0.41    5.23
  -4  -4  -1   50.23    9.14
   4   4   1   36.82    9.49
   4   4   1   63.68    9.72
  -5  -4  -1   19.35    8.41
   5   4   1   30.59    9.57
  -6  -4  -1   -4.35    6.27
   6   4   1  -10.24    7.59
  -7  -4  -1   85.93   13.96
   7   4   1   97.26   13.76
   9  -5  -1   34.02   14.31
  -9   5   1   54.00   12.87
   8  -5  -1   87.78   16.87
  -8   5   1  111.48   13.93
   7  -5  -1  121.76   16.97
  -7   5   1  124.20   13.92
  -7   5   1  150.87   14.76
   6  -5  -1  337.72   21.86
  -6   5   1  351.24   18.34
  -6   5   1  339.78   18.62
  -5   5   1  462.51   21.20
  -5   5   1  467.03   19.23
   4  -5  -1  256.60   15.63
  -4   5   1  284.71   15.43
  -4   5   1  265.68   13.35
   3  -5  -1 1016.96   29.28
  -3   5   1  933.42   30.67
  -3   5   1 1004.51   27.79
   2  -5  -1  650.99   19.12
   2  -5  -1  694.88   21.57
  -2   5   1  655.13   23.74
   1  -5  -1  672.42   21.49
  -1   5   1  660.72   23.72
   0  -5  -1  338.62   14.37
   0   5   1  338.43   16.01
  -1  -5  -1  854.11   26.56
   1   5   1  862.19   29.81
   1   5   1  855.80   22.10
  -2  -5  -1  172.07   11.67
   2   5   1  175.35   13.60
   2   5   1  188.02   10.37
  -3  -5  -1   41.84    8.30
   3   5   1   20.17    7.89
  -4  -5  -1  269.91   16.56
   4   5   1  308.97   18.41
  -5  -5  -1  104.46   13.32
   5   5   1  118.06   13.82
  -6  -5  -1    9.63    7.82
   6   5   1   -3.30    6.69
   7   5   1    6.53    8.15
   9  -6  -1   65.08   16.36
  -9   6   1   13.96   10.32
   8  -6  -1  167.04   20.52
  -8   6   1  168.20   16.74
   7  -6  -1  154.39   18.32
  -7   6   1  146.25   14.84
   6  -6  -1    0.10    3.92
  -6   6   1    7.81    7.06
  -6   6   1    6.33    7.31
   5  -6  -1  376.84   20.93
  -5   6   1  403.11   18.32
  -5   6   1  362.04   19.95
   4  -6  -1  184.79   14.10
  -4   6   1  173.30   14.23
  -4   6   1  207.22   12.31
   3  -6  -1   -2.07    4.74
  -3   6   1    3.81    6.60
   2  -6  -1  549.44   20.44
  -2   6   1  596.83   23.42
   1  -6  -1  472.28   18.81
  -1   6   1  494.19   21.42
   0  -6  -1   12.90    5.27
   0   6   1   12.10    7.10
  -1  -6  -1   -2.25    4.56
   1   6   1    1.25    6.48
  -2  -6  -1   70.34    9.96
   2   6   1   66.56   10.46
  -3  -6  -1   14.93    6.63
   3   6   1    0.12    6.01
  -4  -6  -1   28.34    8.38
   4   6   1   13.43    7.77
  -5  -6  -1   -5.84    6.63
   5   6   1    1.28    6.46
  -6  -6  -1    4.33    7.94
   6   6   1   15.25    9.00
  -8   7   1  170.99   17.87
  -7   7   1  263.34   17.90
  -6   7   1    1.96    7.24
  -6   7   1    2.88    6.97
  -5   7   1    4.58    7.48
  -5   7   1    5.35    5.78
  -4   7   1 1990.77   56.39
  -4   7   1 1960.93   51.57
   3  -7  -1  370.05   17.45
  -3   7   1  347.60   19.38
   2  -7  -1   27.06    7.32
  -2   7   1   45.46    9.67
   1  -7  -1  330.98   16.61
  -1   7   1  339.93   19.53
   0  -7  -1   95.44   10.64
   0   7   1   61.69   10.91
  -1  -7  -1   50.61    8.62
   1   7   1   59.32   10.96
  -2  -7  -1  203.72   14.91
   2   7   1  231.70   17.28
  -3  -7  -1   77.38   11.19
   3   7   1   74.86   11.69
  -4  -7  -1    0.89    7.48
   4   7   1    6.00    7.57
  -5  -7  -1  101.46   14.53
   5   7   1   90.92   14.36
  -7   8   1   41.77   10.61
  -6   8   1  132.35   14.08
  -5   8   1   67.86   11.82
  -5   8   1   39.38    8.47
  -4   8   1   67.17    9.51
  -4   8   1   90.86   12.97
   3  -8  -1   31.48    8.40
  -3   8   1   27.45    9.43
   2  -8  -1  928.03   31.04
  -2   8   1  879.74   33.92
   1  -8  -1  139.63   13.17
  -1   8   1  114.91   13.81
   0  -8  -1   50.81    9.06
   0   8   1   36.60    9.70
  -1  -8  -1  100.61   12.26
   1   8   1  140.69   15.35
  -2  -8  -1   42.26    9.49
   2   8   1   67.35   12.17
  -3  -8  -1   36.76    9.19
   3   8   1   55.77   12.18
  -4  -8  -1   95.26   14.00
   4   8   1  118.97   16.30
  -6   9   1  210.50   15.92
  -5   9   1    2.12    8.50
  -5   9   1    7.85    7.00
  -4   9   1   40.45    8.45
  -4   9   1   34.44   10.79
   3  -9  -1  414.09   20.88
  -3   9   1  360.91   22.39
   2  -9  -1  196.96   14.93
  -2   9   1  213.78   17.81
   1  -9  -1   14.28    7.33
  -1   9   1   16.75    9.59
   0  -9  -1   -4.34    6.07
   0   9   1    0.86    7.29
  -1  -9  -1    8.28    7.32
   1   9   1    2.42    8.51
  -2  -9  -1   69.77   11.86
   2   9   1   50.30   11.81
  -3  -9  -1  187.46   18.30
   3   9   1  186.34   19.80
  -5  10   1  268.50   18.18
  -5  10   1  228.70   21.72
  -4  10   1  199.13   14.67
  -4  10   1  206.56   20.50
   3 -10  -1   25.00    9.02
  -3  10   1   10.15    9.97
   2 -10  -1  205.00   17.77
  -2  10   1  230.94   19.32
   1 -10  -1  543.75   25.28
  -1  10   1  510.34   27.99
   0 -10  -1   37.99   10.12
   0  10   1   45.41   11.31
  -1 -10  -1   10.12    7.47
   1  10   1   10.18    9.67
  -2 -10  -1   44.87   11.17
   2  10   1   27.30   10.96
  -4  11   1   91.39   16.20
   3 -11  -1   43.72   11.22
  -3  11   1   80.69   15.16
   2 -11  -1   21.55    9.15
  -2  11   1  -10.04    8.50
   1 -11  -1   43.70   11.19
  -1  11   1   36.51   12.83
   0 -11  -1    4.03    8.45
   0  11   1   -0.57   10.06
  -1 -11  -1   31.24   10.84
  -3  12   1   23.92   12.96
   2 -12  -1   39.38   11.38
  -1  13  -2  116.65   17.09
   0  12  -2    2.03    8.96
   0 -12   2    3.93    8.50
  -1  12  -2    5.55    9.69
   1 -12   2   16.22    9.21
  -2  12  -2   24.82   10.83
   2 -12   2   24.26    9.68
   3 -12   2    7.58    7.79
  -4  12  -2   26.95    8.99
  -5  12  -2   59.19   11.60
   2  11  -2  168.96   18.70
  -2 -11   2  137.45   16.13
   1  11  -2   46.12   11.72
  -1 -11   2   39.29   10.26
   0  11  -2  159.29   16.64
   0 -11   2  159.65   16.27
  -1  11  -2  539.24   26.72
   1 -11   2  515.36   25.78
  -2  11  -2  285.46   19.56
   2 -11   2  277.40   19.36
   3 -11   2  253.12   18.54
  -4  11  -2  503.54   24.20
  -5  11  -2  121.72   14.44
  -6  11  -2   34.62   10.59
  -7  11  -2  134.24   16.91
   3  10  -2  114.51   15.22
  -3 -10   2  107.95   14.64
   2  10  -2    2.99    7.72
  -2 -10   2    0.73    7.31
   1  10  -2   14.92    8.58
  -1 -10   2   21.36    8.34
   0  10  -2   89.37   12.63
   0 -10   2   77.79   11.64
  -1  10  -2    9.58    7.51
   1 -10   2   24.86    7.90
  -2  10  -2   31.62    9.37
   2 -10   2   27.89    9.02
  -3  10  -2  345.83   19.60
   3 -10   2  344.78   19.90
  -4  10  -2    4.61    6.33
  -5  10  -2    9.74    7.09
  -6  10  -2  152.84   16.06
  -7  10  -2   10.70    9.02
   4   9  -2   40.27   11.15
  -4  -9   2   58.16   11.36
   3   9  -2  192.56   18.65
  -3  -9   2  190.50   17.72
   2   9  -2  179.57   16.91
  -2  -9   2  171.87   16.03
   1   9  -2  161.41   15.38
  -1  -9   2  169.59   15.37
   0   9  -2  717.24   29.24
   0  -9   2  727.12   28.09
  -1   9  -2  375.34   19.19
   1  -9   2  339.03   18.39
  -2   9  -2   38.36    9.12
   2  -9   2   48.20    9.71
  -3   9  -2  557.53   22.77
   3  -9   2  484.15   22.67
  -4   9  -2  265.99   16.14
  -5   9  -2   39.43    9.06
  -6   9  -2   43.71   10.13
  -7   9  -2   89.10   13.33
  -8   9  -2   19.00   11.00
   5   8  -2   64.48   12.37
  -5  -8   2   34.26   10.24
   4   8  -2   17.84    8.39
  -4  -8   2   11.54    7.34
   3   8  -2  110.05   13.68
  -3  -8   2   77.52   11.27
   2   8  -2  108.62   13.00
  -2  -8   2   95.34   11.90
   1   8  -2   29.14    8.14
  -1  -8   2   32.41    7.60
   0   8  -2   98.96   11.16
   0  -8   2  104.39   11.69
  -1   8  -2  136.36   12.67
   1  -8   2  130.71   12.40
  -2   8  -2   82.16   10.27
   2  -8   2   67.16    9.67
  -3   8  -2    8.89    5.97
   3  -8   2   12.02    7.11
  -4   8  -2  169.02   13.03
  -5   8  -2   97.74   11.76
  -6   8  -2    0.80    7.16
  -7   8  -2    7.95    7.98
  -8   8  -2   24.85   11.55
  -6  -7   2   34.25   12.49
  -6  -7   2   85.74   13.66
  -5  -7   2  167.41   17.03
  -5  -7   2  176.12   20.09
  -4  -7   2   54.22   12.10
  -4  -7   2   37.91    9.48
  -3  -7   2   28.89   10.45
  -3  -7   2   56.91    9.58
   2   7  -2  204.48   14.19
  -2  -7   2  232.53   14.73
   1   7  -2   -3.48    4.96
  -1  -7   2    0.92    4.78
   0   7  -2   87.74    9.94
   0  -7   2   81.18    9.98
  -1   7  -2 1928.91   51.79
   1  -7   2 1890.89   50.31
  -2   7  -2  171.90   11.57
   2  -7   2  202.78   13.54
  -3   7  -2    0.81    5.19
   3  -7   2   -3.15    4.24
  -4   7  -2  881.13   29.54
  -4   7  -2  930.38   28.13
   4  -7   2  888.41   28.82
  -5   7  -2 1016.88   33.83
   5  -7   2 1085.54   34.85
  -6   7  -2    8.69    7.37
   6  -7   2    2.25    7.09
  -7   7  -2  100.66   13.85
   7  -7   2  128.20   15.73
  -8   7  -2  100.19   14.97
   8  -7   2   94.70   15.80
  -9   7  -2   19.24   11.54
   9  -7   2   11.06   11.82
  -7  -6   2   18.50   12.47
  -6  -6   2   21.86    9.26
  -6  -6   2   10.35   10.85
  -5  -6   2   12.42   10.11
  -5  -6   2   56.21   10.04
  -4  -6   2  326.48   18.05
  -4  -6   2  373.44   23.25
   3   6  -2  626.99   23.29
  -3  -6   2  565.64   26.50
  -3  -6   2  559.38   23.08
   2   6  -2  362.91   14.91
  -2  -6   2  316.57   18.60
  -2  -6   2  351.40   16.59
   1   6  -2   15.32    3.91
  -1  -6   2   11.37    5.10
   0   6  -2  169.81   11.29
   0  -6   2  225.95    8.16
   0  -6   2  219.22   11.88
  -1   6  -2  525.94   18.98
   1  -6   2  520.56   15.06
   1  -6   2  557.95   20.01
  -2   6  -2  201.69   10.92
   2  -6   2  183.42   11.42
   2  -6   2  202.97    9.24
  -3   6  -2  774.80   23.49
  -3   6  -2  774.80   24.56
   3  -6   2  752.66   23.73
  -4   6  -2  426.29   16.26
  -4   6  -2  456.07   18.89
   4  -6   2  475.00   19.34
  -5   6  -2   81.13   10.29
   5  -6   2   84.41   11.13
  -6   6  -2  200.71   15.32
   6  -6   2  172.40   17.05
  -7   6  -2  151.61   15.74
   7  -6   2  156.74   17.77
  -8   6  -2   -0.59    8.73
   8  -6   2   27.72   11.63
  -9   6  -2   43.59   12.93
   9  -6   2   45.81   14.22
  -7  -5   2   18.56   11.19
  -7  -5   2   23.67    9.43
   6   5  -2   -4.10    8.84
  -6  -5   2    5.70    7.40
  -6  -5   2  -11.55    8.47
   5   5  -2  202.06   16.83
  -5  -5   2  151.98   17.36
  -5  -5   2  163.38   14.92
   4   5  -2  235.26   16.67
  -4  -5   2  269.58   15.49
  -4  -5   2  253.11   18.43
   3   5  -2   55.84    8.56
  -3  -5   2   41.85   10.15
  -3  -5   2   47.38    8.20
   2   5  -2  491.09   17.61
  -2  -5   2  474.57   21.30
  -2  -5   2  476.61   18.88
   1   5  -2  543.43   16.44
  -1  -5   2  521.65   20.70
  -1  -5   2  544.27   18.90
   0   5  -2  119.74    8.25
   0  -5   2  118.86    6.63
   0  -5   2  120.47    8.44
  -1   5  -2 1694.16   42.69
   1  -5   2 1680.48   40.47
   1  -5   2 1727.66   42.95
  -2   5  -2 3620.67   83.36
   2  -5   2 3603.29   82.33
   2  -5   2 3643.59   83.57
  -3   5  -2   42.91    5.30
  -3   5  -2   45.16    6.34
   3  -5   2   39.30    6.43
  -4   5  -2   44.80    7.19
  -4   5  -2   48.54    5.77
   4  -5   2   53.15    8.29
  -5   5  -2    4.90    5.95
   5  -5   2    8.34    7.60
  -6   5  -2   45.24    9.44
   6  -5   2   26.93    9.77
  -7   5  -2   19.47    9.08
   7  -5   2   38.73   11.95
  -8   5  -2    7.43    8.16
   8  -5   2    9.41   10.87
  -9   5  -2   -7.39    9.17
   9  -5   2  -13.04   10.07
   8   4  -2   35.87   14.78
  -8  -4   2   28.53   12.70
  -8  -4   2   30.64   11.78
   7   4  -2   56.40   14.16
  -7  -4   2   75.90   14.55
  -7  -4   2   49.76   10.84
   6   4  -2  190.29   19.41
  -6  -4   2  187.83   16.79
  -6  -4   2  213.50   20.82
   5   4  -2  501.75   25.23
  -5  -4   2  492.98   26.29
  -5  -4   2  537.90   22.81
   4   4  -2   89.44   11.52
  -4  -4   2   84.45   10.43
  -4  -4   2   77.64   12.40
   3   4  -2 1281.87   37.95
  -3  -4   2 1316.92   41.21
  -3  -4   2 1296.71   36.19
   2   4  -2 2458.97   60.82
  -2  -4   2 2527.73   59.16
  -2  -4   2 2504.08   65.01
  -1  -4   2    3.68    4.86
  -1  -4   2    7.62    3.63
  -1  -4   2    7.56    3.90
   0  -4   2    9.19    3.66
  -1   4  -2 1275.66   31.34
   1  -4   2 1236.31   30.89
   1  -4   2 1220.99   31.75
  -2   4  -2  256.94    9.14
  -2   4  -2  254.20   10.51
   2  -4   2  246.96   11.08
  -3   4  -2   17.31    3.42
  -3   4  -2   21.29    4.87
   3  -4   2   19.50    5.72
  -4   4  -2  984.78   28.81
  -4   4  -2  914.59   25.06
   4  -4   2  936.76   30.77
  -5   4  -2   18.12    5.12
  -5   4  -2    6.41    6.88
   5  -4   2    6.63    7.89
  -6   4  -2   18.32    8.08
   6  -4   2   21.97    9.98
  -7   4  -2   20.48    9.08
   7  -4   2   13.07    9.92
  -8   4  -2    0.71    8.13
   8  -4   2  -10.81    9.19
  -9   4  -2   23.29   10.98
   9  -4   2   33.51   13.54
   8   3  -2  -15.84   10.77
  -8  -3   2   25.29   11.38
  -8  -3   2   -9.70    7.86
   7   3  -2    2.59   10.36
  -7  -3   2    7.16    8.13
  -7  -3   2    2.70    9.11
   6   3  -2   71.35   13.43
  -6  -3   2   44.01   11.34
  -6  -3   2   51.51   10.16
   5   3  -2  293.34   19.66
  -5  -3   2  262.25   15.80
  -5  -3   2  296.69   19.60
   4   3  -2  314.77   17.43
  -4  -3   2  299.59   15.37
  -4  -3   2  299.01   17.85
   3   3  -2   13.43    5.46
  -3  -3   2   27.71    6.71
  -3  -3   2    9.51    5.19
   2   3  -2  205.17   10.52
  -2  -3   2  217.30   10.38
  -2  -3   2  228.98   13.35
  -1  -3   2   -2.16    3.28
  -1  -3   2    4.41    4.00
  -1  -3   2    1.66    3.04
   0  -3   2   -0.01    1.01
  -1   3  -2  632.85   15.88
   1  -3   2  598.50   17.43
   1  -3   2  592.83   17.31
  -2   3  -2    4.91    2.12
  -2   3  -2    2.45    3.37
   2  -3   2    2.98    3.96
  -3   3  -2   56.10    6.48
  -3   3  -2   55.74    4.59
   3  -3   2   50.54    6.94
  -4   3  -2  287.75   13.77
  -4   3  -2  266.65   11.17
   4  -3   2  302.84   16.71
  -5   3  -2  258.24   12.71
  -5   3  -2  262.39   15.12
   5  -3   2  252.50   17.18
  -6   3  -2  120.25   12.91
   6  -3   2   98.83   14.64
  -7   3  -2   36.71    9.21
   7  -3   2   41.98   11.80
  -8   3  -2  181.13   17.28
   8  -3   2  178.02   20.79
  -9   3  -2   12.38    9.75
   9  -3   2   11.58   11.17
  -9  -2   2   14.44   11.77
   8   2  -2  283.07   26.56
  -8  -2   2  321.18   20.42
  -8  -2   2  258.11   20.94
   7   2  -2   62.40   13.84
  -7  -2   2   77.92   11.76
  -7  -2   2   69.43   12.91
   6   2  -2   27.84   10.47
  -6  -2   2   38.99    8.87
  -6  -2   2   34.48    9.78
   5   2  -2  878.98   34.23
  -5  -2   2  946.16   30.19
  -5  -2   2  947.15   34.54
   4   2  -2  395.67   18.70
  -4  -2   2  402.14   20.29
  -4  -2   2  373.78   16.22
   3   2  -2   15.14    5.17
  -3  -2   2   21.09    6.66
  -3  -2   2   13.86    4.59
  -2  -2   2 1107.51   27.66
  -2  -2   2 1055.72   31.39
  -1  -2   2 1142.16   29.26
  -1  -2   2 1140.87   26.97
  -1  -2   2 1114.94   30.25
   0  -2   2  580.10   15.69
   0  -2   2  544.75   14.48
   0  -2   2  535.20   15.53
  -1   2  -2   32.12    3.65
   1  -2   2   32.99    2.43
   1  -2   2   30.75    4.27
  -2   2  -2 1482.14   33.94
  -2   2  -2 1563.60   36.54
   2  -2   2 1535.17   39.33
  -3   2  -2  652.80   21.07
  -3   2  -2  728.26   19.06
   3  -2   2  739.96   23.97
  -4   2  -2  144.98    8.77
  -4   2  -2  178.81   11.23
   4  -2   2  150.19   13.34
  -5   2  -2  548.43   19.69
  -5   2  -2  518.46   21.02
   5  -2   2  531.51   24.68
  -6   2  -2  174.44   13.60
   6  -2   2  233.46   18.94
  -7   2  -2   47.49   10.34
   7  -2   2   32.04   11.23
  -8   2  -2   90.62   13.66
   8  -2   2  116.85   17.21
  -9   2  -2   28.87   11.34
   9  -2   2   11.35   12.45
  -9  -1   2   -8.84    9.42
  -9  -1   2    7.78    9.40
   8   1  -2   41.69   14.25
  -8  -1   2   45.28   10.67
  -8  -1   2   33.94   11.27
   7   1  -2  109.23   16.44
  -7  -1   2   91.60   11.92
  -7  -1   2  107.10   14.37
   6   1  -2  282.83   20.71
  -6  -1   2  307.11   20.40
  -6  -1   2  224.67   15.19
   5   1  -2   86.13   12.12
  -5  -1   2  130.89   13.98
  -5  -1   2  100.73   10.20
   4   1  -2  639.04   24.59
  -4  -1   2  653.62   25.21
  -4  -1   2  633.32   20.81
   3   1  -2  191.32   11.59
  -3  -1   2  196.55    9.37
  -3  -1   2  161.23   11.76
  -2  -1   2    3.78    2.41
  -2  -1   2    9.40    4.86
  -2  -1   2   16.68    4.84
  -1  -1   2  696.05   19.91
  -1  -1   2  716.84   16.75
  -1  -1   2  700.46   20.16
   0  -1   2   20.15    3.28
   0  -1   2   20.82    2.27
   0  -1   2   19.20    2.84
  -1   1  -2   -4.37    2.30
   1  -1   2    0.43    2.73
   1  -1   2    3.67    1.68
  -2   1  -2 2022.37   46.34
   2  -1   2 2034.71   50.61
  -3   1  -2  104.16    7.76
  -3   1  -2   92.47    6.74
   3  -1   2  104.89    9.73
  -4   1  -2   23.99    5.19
  -4   1  -2   21.79    5.61
   4  -1   2   20.20    6.85
  -5   1  -2  262.63   14.80
  -5   1  -2  282.46   14.70
   5  -1   2  271.15   18.02
  -6   1  -2   61.96    9.72
  -6   1  -2   61.62    9.59
   6  -1   2   65.00   12.56
  -7   1  -2   85.71   12.26
   7  -1   2  103.66   15.50
  -8   1  -2    6.81    8.88
   8  -1   2   -4.64    9.72
   9  -1   2   56.21   14.49
   9   0  -2   74.09   17.70
  -9   0   2   45.96   11.56
  -9   0   2   50.25   12.95
   8   0  -2   96.54   17.03
  -8   0   2  111.55   15.81
  -8   0   2   83.63   12.42
   7   0  -2   74.75   14.51
  -7   0   2  103.29   12.24
  -7   0   2   96.64   14.09
   6   0  -2  196.76   19.34
  -6   0   2  165.36   16.16
  -6   0   2  144.40   12.99
   5   0  -2  573.19   25.33
  -5   0   2  616.23   21.45
  -5   0   2  554.50   24.33
   4   0  -2  707.40   26.27
  -4   0   2  768.12   22.47
  -4   0   2  704.45   25.43
   3   0  -2 2519.59   62.29
  -3   0   2 2512.97   62.20
  -3   0   2 2394.19   55.52
  -2   0   2 1806.53   45.43
  -2   0   2 1849.64   40.16
  -2   0   2 1784.07   45.43
  -1   0   2  776.44   16.91
  -1   0   2  773.46   21.44
  -1   0   2  784.69   21.62
   0   0  -2 1970.58   41.41
   0   0   2 2026.22   46.51
   0   0   2 1964.15   46.22
  -1   0  -2 3884.03   81.93
   1   0   2 3861.92   86.63
   1   0   2 3880.88   88.22
  -2   0  -2  407.65   13.83
   2   0   2  407.38   13.16
   2   0   2  398.23   15.23
  -3   0  -2  247.74   11.74
  -3   0  -2  241.12   11.61
   3   0   2  224.82   13.28
  -4   0  -2   77.26    9.00
  -4   0  -2   57.40    7.83
   4   0   2   68.72   10.32
  -5   0  -2  104.93   11.21
  -5   0  -2  110.16   11.10
   5   0   2  127.06   14.76
  -6   0  -2   30.59    8.75
  -6   0  -2   38.08    9.14
   6   0   2   26.33   10.77
  -7   0  -2   36.29    9.33
   7   0   2   43.59   12.31
  -8   0  -2   81.36   13.16
   8   0   2   94.06   16.64
   9  -1  -2  -17.84   10.87
  -9   1   2   -0.53    8.28
   8  -1  -2   72.11   15.66
  -8   1   2   61.14   13.17
  -8   1   2   44.11   10.10
   7  -1  -2   -2.39    8.57
  -7   1   2   22.04    8.02
  -7   1   2    7.65    8.31
   6  -1  -2  238.99   19.14
  -6   1   2  237.74   14.38
  -6   1   2  203.53   16.49
   5  -1  -2  -11.26    5.80
  -5   1   2   13.51    5.61
  -5   1   2    3.78    6.03
   4  -1  -2   16.32    6.11
  -4   1   2   10.39    5.53
   3  -1  -2  827.14   26.33
  -3   1   2  894.83   26.55
  -3   1   2  810.23   22.03
  -2   1   2  803.42   23.27
  -2   1   2  768.87   18.99
  -2   1   2  751.24   23.03
  -1   1   2  509.31   15.77
  -1   1   2  520.50   16.59
   0  -1  -2   50.79    3.67
   0   1   2   50.72    4.58
   0   1   2   61.60    5.79
  -1  -1  -2    9.21    3.11
   1   1   2    8.72    3.87
   1   1   2    6.26    3.69
  -2  -1  -2  233.83   10.10
   2   1   2  234.29   10.58
   2   1   2  220.98   11.51
  -3  -1  -2   57.71    7.44
   3   1   2   64.95    8.32
  -4  -1  -2   -3.65    4.73
  -4  -1  -2   -1.42    5.14
   4   1   2    1.65    6.25
  -5  -1  -2  109.46   11.57
  -5  -1  -2  117.73   12.55
   5   1   2  132.62   14.44
  -6  -1  -2  161.57   15.56
  -6  -1  -2  156.10   14.39
   6   1   2  197.95   18.88
  -7  -1  -2   -3.97    6.52
   7   1   2   -0.80    8.93
  -8  -1  -2   -0.66    8.08
   8   1   2  -10.82    9.38
   9  -2  -2  -10.95    9.82
  -9   2   2   -6.55    8.00
   8  -2  -2  445.03   28.02
  -8   2   2  461.62   23.06
  -8   2   2  395.71   24.33
   7  -2  -2  546.46   28.81
  -7   2   2  549.48   26.47
  -7   2   2  549.73   23.19
   6  -2  -2   28.31   10.60
  -6   2   2   36.06    8.24
  -6   2   2   34.08    8.88
   5  -2  -2  222.82   16.63
  -5   2   2  224.21   14.71
   4  -2  -2 3941.63   96.49
  -4   2   2 3901.84   95.09
  -4   2   2 3955.16   87.00
   3  -2  -2  239.39   12.56
  -3   2   2  242.10   12.58
  -3   2   2  280.09   10.67
  -2   2   2   91.41    7.46
  -2   2   2  104.50    5.44
  -2   2   2  113.98    8.95
   1  -2  -2 3598.70   76.97
  -1   2   2 3706.92   82.73
  -1   2   2 3600.03   85.09
   0  -2  -2 6859.05  142.58
   0   2   2 6816.91  150.67
   0   2   2 6832.45  153.79
  -1  -2  -2  493.05   15.50
   1   2   2  523.73   16.18
   1   2   2  488.60   17.54
  -2  -2  -2 1971.89   47.77
   2   2   2 1980.67   51.06
   2   2   2 2015.32   50.36
  -3  -2  -2  112.51    9.85
   3   2   2  129.46   10.64
   3   2   2  117.30    9.57
  -4  -2  -2  307.87   15.61
   4   2   2  272.20   16.70
   4   2   2  288.07   15.24
  -5  -2  -2  411.93   19.92
   5   2   2  428.21   22.42
  -6  -2  -2  433.70   22.07
   6   2   2  400.31   23.48
  -7  -2  -2  142.17   15.60
   7   2   2  132.94   17.23
  -8  -2  -2  215.89   20.49
   8   2   2  226.97   22.92
   9  -3  -2   17.73   13.00
  -9   3   2    1.48    8.57
   8  -3  -2   17.33   11.82
  -8   3   2   13.98    8.58
  -8   3   2    6.33    9.25
   7  -3  -2   -4.40    8.06
  -7   3   2   -3.17    7.26
  -7   3   2    2.29    6.85
   6  -3  -2   56.46   12.52
  -6   3   2   57.25    9.20
  -6   3   2   64.41   10.50
   5  -3  -2   -3.32    7.06
  -5   3   2   -0.59    3.74
  -5   3   2    3.39    6.07
   4  -3  -2  230.89   13.78
  -4   3   2  243.56   13.75
  -4   3   2  252.04   12.23
  -3   3   2   12.87    3.85
  -3   3   2   17.17    5.64
  -2   3   2 1559.14   39.70
  -2   3   2 1586.50   42.57
   1  -3  -2   30.98    4.20
  -1   3   2   18.44    3.62
  -1   3   2   18.46    5.35
   0  -3  -2   14.82    3.72
   0   3   2    9.23    4.64
   0   3   2   19.76    3.56
  -1  -3  -2  434.45   15.30
   1   3   2  442.94   14.59
   1   3   2  442.42   17.66
  -2  -3  -2  592.80   20.45
   2   3   2  647.09   20.95
   2   3   2  653.02   22.99
  -3  -3  -2   83.31    9.65
   3   3   2   73.33    9.26
   3   3   2   76.49    9.52
  -4  -3  -2   99.84   11.36
   4   3   2   77.24   11.26
   4   3   2   90.73   10.80
  -5  -3  -2    8.29    7.22
   5   3   2   11.49    6.60
   5   3   2   13.78    8.35
  -6  -3  -2   41.57    9.49
   6   3   2   74.65   11.21
   6   3   2   73.95   13.16
  -7  -3  -2   15.51    9.17
   7   3   2   17.36   10.66
   7   3   2   12.38    8.23
   8   3   2   18.18   11.44
   9  -4  -2   47.76   15.58
   8  -4  -2   -9.81    9.67
  -8   4   2   -1.00    7.59
   7  -4  -2  188.50   19.65
  -7   4   2  198.01   14.66
  -7   4   2  212.68   16.96
   6  -4  -2  111.14   14.41
  -6   4   2  135.08   13.92
   5  -4  -2    8.59    7.63
  -5   4   2    7.59    5.76
  -5   4   2    2.52    6.68
  -4   4   2  454.60   17.04
  -4   4   2  456.51   20.24
   3  -4  -2  370.29   15.42
  -3   4   2  375.13   17.76
  -3   4   2  401.38   14.22
   2  -4  -2  482.24   16.00
   2  -4  -2  504.59   16.50
  -2   4   2  495.58   19.55
   1  -4  -2  390.13   14.34
  -1   4   2  432.80   18.12
  -1   4   2  404.76   12.99
   0  -4  -2  517.49   17.04
   0   4   2  512.90   20.50
   0   4   2  491.06   14.65
  -1  -4  -2   49.24    6.79
   1   4   2   71.60    9.23
   1   4   2   64.60    5.87
  -2  -4  -2  497.08   19.24
   2   4   2  486.79   21.40
   2   4   2  504.29   17.95
  -3  -4  -2  621.94   23.53
   3   4   2  609.57   24.61
   3   4   2  607.71   22.74
  -4  -4  -2  236.82   15.82
   4   4   2  239.90   15.59
   4   4   2  243.16   16.30
  -5  -4  -2  128.24   14.50
   5   4   2  141.82   14.52
   5   4   2  115.30   13.63
  -6  -4  -2   57.38   11.72
   6   4   2   92.16   13.08
  -7  -4  -2  101.03   15.38
   7   4   2   77.46   12.89
   9  -5  -2    8.75   11.55
   8  -5  -2   36.21   13.32
   7  -5  -2   78.84   14.70
  -7   5   2   69.38   10.89
  -7   5   2   93.45   12.81
   6  -5  -2   43.95   11.17
  -6   5   2   35.28    9.36
   5  -5  -2  158.63   13.27
  -5   5   2  169.68   11.85
  -5   5   2  177.09   15.56
   4  -5  -2   91.80   10.40
  -4   5   2   93.06   11.18
  -4   5   2   85.56    8.90
   3  -5  -2  134.09   10.24
  -3   5   2  130.76    8.81
  -3   5   2  119.82   12.50
   2  -5  -2  466.59   17.03
   2  -5  -2  469.57   15.39
  -2   5   2  467.25   20.38
   1  -5  -2  997.23   29.06
  -1   5   2 1038.44   25.96
  -1   5   2 1070.32   34.13
   0  -5  -2   45.72    6.59
   0   5   2   40.79    8.66
  -1  -5  -2  232.79   13.11
   1   5   2  235.20   14.94
  -2  -5  -2  276.98   14.55
   2   5   2  242.93   16.89
  -3  -5  -2    1.25    5.61
   3   5   2    8.81    6.89
  -4  -5  -2    2.35    6.70
   4   5   2   -1.90    5.72
  -5  -5  -2   17.45    8.81
   5   5   2   30.78    9.01
  -6  -5  -2   -7.01    7.27
   6   5   2   -2.50    7.27
   7   5   2    2.08    8.75
   9  -6  -2   21.84   14.01
   8  -6  -2   73.54   15.98
   7  -6  -2  336.49   23.47
  -7   6   2  281.68   19.46
   6  -6  -2  149.61   16.49
  -6   6   2  156.54   15.44
  -6   6   2  153.80   13.48
   5  -6  -2   87.73   12.37
  -5   6   2   99.82   10.78
  -5   6   2   73.05   12.00
  -4   6   2  871.01   27.54
  -4   6   2  871.48   32.30
   3  -6  -2  266.64   13.75
  -3   6   2  263.82   17.46
   2  -6  -2   52.11    7.53
  -2   6   2   46.86    9.85
   1  -6  -2  420.39   17.38
  -1   6   2  380.18   20.47
   0  -6  -2   54.12    8.00
   0   6   2   49.22   10.24
  -1  -6  -2   20.98    6.82
   1   6   2    5.67    7.32
  -2  -6  -2   94.11   11.01
   2   6   2  131.18   14.66
  -3  -6  -2  336.23   18.58
   3   6   2  330.66   20.41
  -4  -6  -2  -13.56    5.45
   4   6   2    7.12    7.71
  -5  -6  -2  101.04   13.45
   5   6   2   71.66   12.38
   6   6   2  120.42   16.32
  -6   7   2   76.28   13.02
  -5   7   2   67.99   11.91
  -5   7   2   85.51   10.13
  -4   7   2  259.69   13.88
  -4   7   2  211.64   16.65
   3  -7  -2   52.59    8.56
  -3   7   2   67.16   11.87
   2  -7  -2   98.18   10.57
  -2   7   2   98.44   13.30
   1  -7  -2    9.76    6.24
  -1   7   2   -6.46    7.40
   0  -7  -2   36.29    7.57
   0   7   2   24.27    9.54
  -1  -7  -2    4.25    5.83
   1   7   2   -5.70    6.84
  -2  -7  -2    8.37    7.21
   2   7   2   17.93    8.55
  -3  -7  -2   19.78    8.48
   3   7   2   22.43    9.52
  -4  -7  -2   31.12   10.11
   4   7   2   19.00    9.38
  -5  -7  -2   29.19   10.75
   5   7   2   35.52   10.77
  -6   8   2  100.57   14.61
  -5   8   2   20.64    9.44
  -4   8   2   -5.52    7.87
  -4   8   2   12.97    5.00
   3  -8  -2  147.19   13.58
  -3   8   2  139.53   15.85
   2  -8  -2    5.88    6.31
  -2   8   2    6.75    8.68
   1  -8  -2    7.06    6.32
  -1   8   2    1.22    8.16
   0  -8  -2  695.05   26.97
   0   8   2  742.30   32.37
  -1  -8  -2  169.70   15.28
   1   8   2  159.54   17.50
  -2  -8  -2  123.19   14.15
   2   8   2  122.02   15.68
  -3  -8  -2  125.86   14.66
   3   8   2  130.56   16.59
  -4  -8  -2   42.99   11.26
   4   8   2   17.42   10.81
  -6   9   2    3.02    9.83
  -5   9   2   -5.27    8.53
  -4   9   2    1.84    9.17
   3  -9  -2   31.07    8.46
  -3   9   2   29.27   10.96
   2  -9  -2   67.14   10.37
  -2   9   2   54.74   11.95
   1  -9  -2  115.09   13.26
  -1   9   2  104.06   15.32
   0  -9  -2   26.94    8.45
   0   9   2   36.84   11.46
  -1  -9  -2   73.81   11.05
   1   9   2   73.34   13.67
  -2  -9  -2  382.06   22.13
   2   9   2  415.19   26.06
  -3  -9  -2  155.29   17.21
  -5  10   2   98.64   16.81
  -4  10   2   21.15   11.84
  -3  10   2  220.50   21.62
   2 -10  -2  221.16   16.80
  -2  10   2  228.10   21.73
   1 -10  -2   70.26   11.80
  -1  10   2   80.48   15.38
   0 -10  -2   67.79   12.42
   0  10   2   93.90   15.56
  -1 -10  -2  113.25   14.70
   1  10   2   98.97   15.92
  -2 -10  -2   50.63   12.64
  -5  11   2   -8.54   11.08
  -4  11   2   44.66   14.14
  -3  11   2  212.40   22.97
  -2  11   2   39.51   13.96
   1 -11  -2  138.54   16.34
   0 -11  -2  163.76   17.42
   1  12  -3   27.29   10.97
   0  12  -3   75.86   13.17
   0 -12   3   60.99   12.05
  -1  12  -3  371.47   22.74
   1 -12   3  369.05   22.57
   2 -12   3  101.63   14.07
   3 -12   3   98.95   14.90
  -4  12  -3  359.94   21.16
  -5  12  -3  298.91   20.55
   2  11  -3    5.28    7.69
  -2 -11   3   16.83    9.33
   1  11  -3    6.52    8.30
  -1 -11   3   21.58    8.54
   0  11  -3   10.38    8.62
   0 -11   3  -11.29    5.39
  -1  11  -3   18.02    8.73
   1 -11   3   19.22    8.61
   2 -11   3   -2.82    6.85
   3 -11   3   17.69    9.04
  -4  11  -3    3.91    6.73
  -5  11  -3    2.61    7.32
  -6  11  -3   19.62    9.37
   3  10  -3   59.55   11.99
  -3 -10   3   69.46   12.72
   2  10  -3  413.05   23.32
  -2 -10   3  379.79   21.22
   1  10  -3  523.45   25.39
  -1 -10   3  537.06   25.18
   0  10  -3  179.47   16.44
   0 -10   3  187.50   16.61
  -1  10  -3  295.41   18.02
   1 -10   3  268.79   17.19
  -2  10  -3  253.74   16.67
   2 -10   3  267.72   17.82
   3 -10   3   88.47   12.28
  -4  10  -3  166.26   15.32
  -5  10  -3   67.39   11.31
  -6  10  -3   13.42    7.75
  -7  10  -3   57.15   11.89
   4   9  -3    3.07    7.10
  -4  -9   3   -1.76    6.74
   3   9  -3   83.32   12.43
  -3  -9   3   78.56   11.92
   2   9  -3  228.25   16.64
  -2  -9   3  195.76   14.94
   1   9  -3   10.40    6.83
  -1  -9   3    8.75    6.61
   0   9  -3   65.35    9.99
   0  -9   3   89.19   11.67
  -1   9  -3  249.63   15.65
   1  -9   3  223.74   15.72
  -2   9  -3   -0.82    5.76
   2  -9   3   16.34    7.13
   3  -9   3    9.03    7.29
  -4   9  -3  119.17   12.79
  -5   9  -3   13.13    6.92
  -6   9  -3   -1.20    7.10
  -7   9  -3   99.00   13.91
  -8   9  -3   -2.88    8.71
  -5  -8   3  103.13   17.02
  -5  -8   3  104.62   14.79
  -4  -8   3  203.24   20.68
  -4  -8   3  225.72   17.04
  -3  -8   3  105.98   12.58
  -3  -8   3  114.29   15.64
  -2  -8   3   26.13    7.37
   1   8  -3   11.84    6.30
  -1  -8   3   15.59    6.57
   0   8  -3  143.56   12.03
   0  -8   3  141.41   12.95
  -1   8  -3  471.20   19.73
   1  -8   3  435.65   20.40
  -2   8  -3    4.82    5.20
   2  -8   3    1.75    5.70
  -3   8  -3    1.07    5.29
   3  -8   3   -1.87    6.12
  -4   8  -3  397.77   19.13
  -5   8  -3  301.36   17.55
  -6   8  -3   34.20    9.68
   6  -8   3   22.97    8.57
  -7   8  -3  144.89   15.79
   7  -8   3  147.45   17.00
  -8   8  -3   98.77   14.94
   8  -8   3  141.61   18.03
   9  -8   3   18.55   12.49
  -6  -7   3    7.32    8.56
  -6  -7   3    2.62   10.16
  -5  -7   3  129.28   14.80
  -5  -7   3  157.89   19.70
  -4  -7   3   30.58    8.71
  -4  -7   3    4.50    9.31
  -3  -7   3   -1.88    8.01
  -3  -7   3   11.79    7.05
  -2  -7   3  227.14   14.61
  -2  -7   3  232.37   17.36
  -1  -7   3   94.91   10.52
   0   7  -3   24.98    6.26
   0  -7   3   42.50    7.60
  -1   7  -3  294.73   14.10
   1  -7   3  286.07   15.56
  -2   7  -3  337.59   14.76
   2  -7   3  384.11   14.15
   2  -7   3  347.82   16.93
  -3   7  -3    1.38    4.56
  -3   7  -3   -1.97    4.65
   3  -7   3   -3.76    4.64
  -4   7  -3  122.42   11.74
   4  -7   3  104.66   10.65
  -6   7  -3   -1.10    6.27
   6  -7   3   -1.55    7.01
  -7   7  -3    8.28    8.64
   7  -7   3   -3.73    7.75
  -8   7  -3   52.85   11.98
   8  -7   3   48.59   13.19
   9  -7   3   -1.19   10.53
  -7  -6   3   64.42   13.31
  -7  -6   3   63.46   15.77
  -6  -6   3   -0.96    9.16
  -6  -6   3   -2.87    7.33
  -5  -6   3   55.20   12.68
  -5  -6   3   48.38    9.62
   4   6  -3  273.59   17.55
  -4  -6   3  267.81   19.58
  -4  -6   3  235.93   15.79
   3   6  -3    8.87    6.62
  -3  -6   3   30.07    7.82
  -3  -6   3   11.17    7.77
   2   6  -3  588.01   21.13
  -2  -6   3  641.06   26.27
  -2  -6   3  624.21   22.58
  -1  -6   3  759.06   25.21
  -1  -6   3  744.20   22.93
  -1  -6   3  776.04   27.80
   0  -6   3  160.75    8.99
   0  -6   3  143.47   10.11
  -1   6  -3  118.18    8.27
   1  -6   3  140.10   10.34
   1  -6   3  137.97    8.32
  -2   6  -3 1275.20   33.31
   2  -6   3 1280.54   35.88
   2  -6   3 1265.39   34.21
  -3   6  -3   25.32    4.81
  -3   6  -3   21.38    5.41
   3  -6   3   29.26    6.10
  -4   6  -3   -4.82    4.51
   4  -6   3   -0.18    2.17
  -5   6  -3  737.65   27.56
   5  -6   3  758.34   28.71
  -6   6  -3  150.74   14.45
   6  -6   3  162.18   15.98
  -7   6  -3    1.51    8.25
   7  -6   3   10.13    9.24
  -8   6  -3   60.20   12.49
   8  -6   3  110.64   16.81
  -9   6  -3  124.14   16.81
   9  -6   3  135.94   19.45
   7   5  -3   42.32   13.28
  -7  -5   3   35.31   13.18
  -7  -5   3   22.49   10.00
   6   5  -3   90.15   14.80
  -6  -5   3  103.09   13.68
  -6  -5   3   95.83   15.22
   5   5  -3  117.15   14.64
  -5  -5   3  145.97   16.85
  -5  -5   3  128.29   13.64
   4   5  -3   74.43   10.62
  -4  -5   3   71.71    9.43
  -4  -5   3   80.51   13.05
   3   5  -3  787.89   27.59
  -3  -5   3  813.62   27.09
  -3  -5   3  842.06   32.09
   2   5  -3 1318.08   36.36
  -2  -5   3 1290.00   36.17
  -2  -5   3 1322.97   40.59
  -1  -5   3   11.06    5.75
  -1  -5   3   23.52    4.88
  -1  -5   3   15.25    4.74
   0  -5   3    4.52    1.96
  -1   5  -3 2050.16   50.04
   1  -5   3 2067.62   50.58
   1  -5   3 2115.98   50.72
  -2   5  -3  431.18   13.58
   2  -5   3  449.72   16.73
   2  -5   3  459.17   16.17
  -3   5  -3  441.91   16.86
  -3   5  -3  410.82   12.42
  -4   5  -3    0.97    4.87
   4  -5   3   -5.04    5.19
  -5   5  -3   26.13    7.53
   5  -5   3   28.28    8.04
  -6   5  -3   25.06    9.27
   6  -5   3   20.98    8.86
  -7   5  -3  256.45   17.81
   7  -5   3  245.88   19.79
  -8   5  -3   71.65   13.05
   8  -5   3   75.06   14.44
  -9   5  -3   -0.04    9.52
   9  -5   3   -1.60   10.65
   8   4  -3   14.89   13.39
  -8  -4   3   19.01    9.92
  -8  -4   3   21.86   12.40
   7   4  -3  109.52   16.85
  -7  -4   3   86.24   13.18
  -7  -4   3   66.87   14.62
   6   4  -3  184.02   18.99
  -6  -4   3  169.48   15.93
  -6  -4   3  164.49   18.73
   5   4  -3   33.73    9.76
  -5  -4   3   19.63    9.55
  -5  -4   3   12.57    6.62
   4   4  -3  140.37   13.67
  -4  -4   3  160.53   15.77
  -4  -4   3  146.47   12.49
   3   4  -3  955.51   30.61
  -3  -4   3  978.70   33.99
  -3  -4   3  946.19   28.59
  -2  -4   3   34.86    6.04
  -2  -4   3   34.48    7.13
  -2  -4   3   34.09    5.86
  -1  -4   3   33.89    5.46
  -1  -4   3   24.60    5.94
  -1  -4   3   28.79    4.90
   0  -4   3  634.68   19.50
   0  -4   3  621.89   19.04
   0  -4   3  649.20   19.90
   1  -4   3    5.33    3.46
   1  -4   3   -0.18    3.66
   1  -4   3    0.17    2.89
  -2   4  -3  442.37   15.20
  -2   4  -3  450.79   11.89
   2  -4   3  465.96   16.67
  -3   4  -3   20.70    5.05
   3  -4   3   21.19    5.74
  -4   4  -3  136.05   10.37
  -4   4  -3  155.12    6.76
   4  -4   3  172.02   12.99
  -5   4  -3  112.04   11.61
   5  -4   3  102.75   12.93
  -6   4  -3  329.18   18.76
   6  -4   3  364.53   21.70
  -7   4  -3  119.29   13.71
   7  -4   3  136.60   16.29
  -8   4  -3   36.47   10.93
   8  -4   3   29.20   11.83
  -9   4  -3   -9.71    7.93
   9  -4   3    6.21   10.81
   8   3  -3  200.77   23.01
  -8  -3   3  192.44   18.91
  -8  -3   3  120.58   18.06
   7   3  -3  284.63   22.86
  -7  -3   3  249.56   20.84
  -7  -3   3  254.68   17.99
   6   3  -3   92.05   14.11
  -6  -3   3  100.65   12.45
  -6  -3   3   96.59   13.98
   5   3  -3  537.77   24.79
  -5  -3   3  497.39   21.38
  -5  -3   3  514.23   25.75
   4   3  -3  334.62   18.05
  -4  -3   3  346.82   19.98
  -4  -3   3  302.26   14.73
   3   3  -3  366.90   16.56
  -3  -3   3  338.62   14.26
  -3  -3   3  341.68   17.76
  -2  -3   3  220.88    9.87
  -2  -3   3  218.36   12.97
  -2  -3   3  222.93   11.94
  -1  -3   3 3660.82   79.53
  -1  -3   3 3736.93   85.21
  -1  -3   3 3561.38   86.36
   0  -3   3 5817.84  129.07
   0  -3   3 5617.81  121.59
   0  -3   3 5826.54  129.45
   1  -3   3   63.79    6.64
   1  -3   3   70.59    4.76
  -2   3  -3 2887.07   64.63
   2  -3   3 2857.70   69.46
  -3   3  -3   -2.97    3.66
   3  -3   3    9.24    5.06
  -4   3  -3   91.09    9.45
  -4   3  -3   80.79    5.86
   4  -3   3   98.80   10.83
  -5   3  -3  466.63   19.84
   5  -3   3  471.58   23.18
  -6   3  -3  252.32   15.88
   6  -3   3  278.64   19.37
  -7   3  -3   36.47    9.50
   7  -3   3   41.35   10.91
  -8   3  -3  330.93   21.02
   8  -3   3  350.43   24.71
  -9   3  -3   27.80   11.30
   9  -3   3   51.53   14.49
  -9  -2   3   14.66   11.53
  -9  -2   3    0.63    9.44
   8   2  -3   -0.55   10.80
  -8  -2   3   -5.54    7.40
  -8  -2   3   11.48    9.42
   7   2  -3   50.09   12.83
  -7  -2   3   38.36   11.31
  -7  -2   3   55.47   10.38
   6   2  -3   16.75    8.92
  -6  -2   3   20.30    7.67
  -6  -2   3   31.23    9.37
   5   2  -3   24.51    8.65
  -5  -2   3   23.35    9.13
  -5  -2   3   12.06    6.42
   4   2  -3  120.43   12.11
  -4  -2   3  141.69   13.81
  -4  -2   3  125.89    9.58
   3   2  -3  118.51    9.82
  -3  -2   3  129.65   11.69
  -2  -2   3  263.46   13.68
  -2  -2   3  229.16   11.70
  -2  -2   3  239.66    9.71
  -1  -2   3  235.52   11.49
  -1  -2   3  239.04    8.68
  -1  -2   3  252.98   11.80
   0  -2   3  478.22   14.72
   0  -2   3  475.66   13.26
   0  -2   3  473.50   16.03
  -1   2  -3  316.10   10.48
   1  -2   3  336.45   13.22
   1  -2   3  315.94    9.29
  -2   2  -3 1244.20   31.71
   2  -2   3 1297.89   34.95
   2  -2   3 1268.80   28.65
  -3   2  -3   10.60    4.75
   3  -2   3   15.57    5.32
  -4   2  -3    6.73    5.10
  -4   2  -3   -2.28    3.37
   4  -2   3    3.14    5.86
  -5   2  -3  687.55   25.23
  -5   2  -3  723.29   22.83
   5  -2   3  667.61   27.91
  -6   2  -3  381.13   19.95
   6  -2   3  427.72   23.44
  -7   2  -3    3.02    7.67
   7  -2   3   -6.48    7.85
  -8   2  -3   14.70    9.41
   8  -2   3    8.59    9.82
  -9  -1   3   42.34   13.17
  -9  -1   3   29.66   10.76
   8   1  -3    1.97   10.24
  -8  -1   3    0.38    7.83
  -8  -1   3    0.45    8.90
   7   1  -3   90.76   15.20
  -7  -1   3  111.43   15.75
  -7  -1   3  118.23   13.32
   6   1  -3   29.07    9.77
  -6  -1   3   29.37    8.06
  -6  -1   3   29.98    9.44
   5   1  -3   37.87    9.67
  -5  -1   3   18.79    6.15
  -5  -1   3   26.37    8.15
   4   1  -3  609.64   23.87
  -4  -1   3  567.91   24.12
  -3  -1   3   95.59    9.55
  -3  -1   3   92.24    6.68
  -2  -1   3  408.72   15.78
  -2  -1   3  391.24   15.38
  -2  -1   3  383.12   11.69
  -1  -1   3 1135.88   30.45
  -1  -1   3 1093.36   24.62
  -1  -1   3 1114.57   29.96
   0   1  -3  728.92   16.80
   0  -1   3  713.19   19.81
   0  -1   3  746.07   21.22
  -1   1  -3 1083.08   25.78
   1  -1   3 1079.69   26.40
   1  -1   3 1051.51   29.15
  -2   1  -3  878.32   23.75
   2  -1   3  888.91   22.71
   2  -1   3  906.51   27.03
  -3   1  -3  489.17   17.27
   3  -1   3  518.11   15.71
   3  -1   3  515.63   20.41
  -4   1  -3  242.27   13.55
   4  -1   3  258.81   15.60
  -5   1  -3  252.40   15.33
  -5   1  -3  214.57   13.49
   5  -1   3  220.56   16.40
  -6   1  -3  131.80   13.44
   6  -1   3  121.85   15.43
  -7   1  -3  174.01   16.35
   7  -1   3  161.60   18.29
  -8   1  -3  117.37   14.89
   8  -1   3  101.64   16.79
   9   0  -3   17.22   12.06
  -9   0   3   19.73   11.13
  -9   0   3    9.50    8.92
   8   0  -3   10.86   10.73
  -8   0   3    0.58    7.36
  -8   0   3   -2.46    9.39
   7   0  -3   31.19   11.77
  -7   0   3   28.92   10.49
  -7   0   3   22.53    7.96
   6   0  -3  226.61   18.65
  -6   0   3  246.94   14.39
  -6   0   3  228.04   17.79
   5   0  -3  104.82   12.82
  -5   0   3  101.64   12.40
   4   0  -3   88.03   10.28
  -4   0   3   75.60    9.84
  -4   0   3   80.26    7.54
  -3   0   3 1746.21   40.39
  -3   0   3 1722.28   47.19
  -3   0   3 1765.03   47.18
  -2   0   3   26.59    5.31
  -2   0   3   38.45    3.48
  -2   0   3   35.26    6.03
  -1   0   3  692.68   20.87
  -1   0   3  702.22   21.08
   0   0  -3   16.94    2.21
   0   0   3   12.04    4.05
   0   0   3    9.39    3.88
  -1   0  -3 1819.33   40.38
   1   0   3 1779.08   45.06
   1   0   3 1790.02   43.52
  -2   0  -3   60.39    6.16
   2   0   3   49.85    7.06
   2   0   3   81.09    6.61
  -3   0  -3  148.46    9.82
   3   0   3  136.42   10.74
   3   0   3  144.15    8.82
  -4   0  -3   98.29   10.16
   4   0   3  105.36    8.68
   4   0   3  100.25   11.71
  -5   0  -3   58.33    9.35
   5   0   3   48.93   10.34
  -6   0  -3   96.63   11.98
   6   0   3  106.87   14.85
  -7   0  -3   27.00    9.53
   7   0   3   58.59   12.81
  -8   0  -3    2.74    7.72
   8   0   3    4.15    9.42
   9  -1  -3   17.77   12.78
  -9   1   3   22.89   12.16
   8  -1  -3  149.24   19.65
  -8   1   3  151.23   18.16
  -8   1   3  158.47   15.18
   7  -1  -3  363.70   24.62
  -7   1   3  374.54   18.81
  -7   1   3  391.97   23.05
   6  -1  -3  376.09   22.74
  -6   1   3  378.71   21.50
   5  -1  -3  367.81   20.44
  -5   1   3  363.55   19.09
  -5   1   3  389.51   15.62
   4  -1  -3  464.45   19.84
  -4   1   3  424.28   19.35
  -4   1   3  473.36   15.71
  -3   1   3   91.18    9.51
  -3   1   3   78.77    5.96
  -3   1   3   81.45    8.75
  -2   1   3  301.97    9.00
  -2   1   3  318.89   13.68
  -2   1   3  308.94   13.63
   1  -1  -3  879.39   19.58
  -1   1   3  891.22   26.22
  -1   1   3  901.91   25.10
   0  -1  -3   11.01    2.64
   0   1   3   15.99    4.66
   0   1   3   14.32    4.29
  -1  -1  -3    8.51    3.23
   1   1   3    4.77    3.98
   1   1   3    9.11    4.02
  -2  -1  -3  816.10   23.07
   2   1   3  807.08   25.51
  -3  -1  -3  774.31   24.13
   3   1   3  777.52   26.67
  -4  -1  -3   11.65    5.78
   4   1   3   -0.02    4.44
   4   1   3    5.45    6.34
  -5  -1  -3  462.82   21.14
   5   1   3  506.73   24.36
   5   1   3  519.24   21.03
  -6  -1  -3  342.34   19.02
   6   1   3  350.68   21.03
   6   1   3  347.92   18.33
  -7  -1  -3   -3.52    7.17
   7   1   3   -8.57    8.29
  -8  -1  -3   14.50   10.18
   8   1   3   41.14   12.83
   9  -2  -3   13.71   11.84
  -9   2   3    1.47   10.22
   8  -2  -3   -1.76    9.01
  -8   2   3    9.48    9.68
   7  -2  -3  106.10   15.85
  -7   2   3   86.39   13.34
   6  -2  -3   32.25   10.62
  -6   2   3   53.83   10.23
  -6   2   3   45.66    8.30
   5  -2  -3   -0.78    6.24
  -5   2   3    0.01    6.52
  -5   2   3    5.07    5.28
   4  -2  -3  458.81   19.78
  -4   2   3  431.85   15.23
  -4   2   3  430.19   19.72
  -3   2   3   23.87    6.28
  -3   2   3   22.46    4.13
  -2   2   3 1399.99   31.69
  -2   2   3 1352.06   37.34
  -2   2   3 1459.44   39.57
   1  -2  -3    3.98    2.31
  -1   2   3   10.58    3.66
  -1   2   3    3.47    4.73
   0  -2  -3   39.61    4.42
   0   2   3   54.67    5.78
   0   2   3   46.51    6.74
  -1  -2  -3  195.13    9.21
   1   2   3  192.67   10.41
   1   2   3  189.85   11.61
  -2  -2  -3  225.62   11.24
   2   2   3  200.67   11.88
   2   2   3  240.41   13.24
  -3  -2  -3    2.62    4.49
   3   2   3   17.98    6.39
   3   2   3    5.75    5.03
  -4  -2  -3   29.48    7.37
   4   2   3   22.07    8.20
   4   2   3   19.04    6.62
  -5  -2  -3    6.19    7.33
   5   2   3   17.93    6.62
   5   2   3   12.44    7.95
  -6  -2  -3   11.55    7.71
   6   2   3    7.10    8.50
   6   2   3    8.76    4.95
  -7  -2  -3   -1.98    7.97
   7   2   3    4.72    9.50
   8   2   3    4.17   11.25
   9  -3  -3   49.12   16.23
   8  -3  -3   -5.58    9.27
  -8   3   3   -2.96    8.35
   7  -3  -3  107.70   15.79
  -7   3   3  137.08   13.06
  -7   3   3  124.53   14.97
   6  -3  -3  182.31   17.61
  -6   3   3  213.38   13.82
  -6   3   3  196.16   15.63
   5  -3  -3   25.69    8.71
  -5   3   3   27.04    6.27
  -5   3   3   40.95    9.02
   4  -3  -3  199.04   13.08
  -4   3   3  172.50   10.35
  -4   3   3  153.33   12.75
   3  -3  -3    5.23    2.59
  -3   3   3   12.89    3.91
  -3   3   3   21.39    6.56
   2  -3  -3    0.85    2.92
  -2   3   3    1.52    3.72
  -2   3   3    3.07    4.71
   1  -3  -3  372.15   12.59
  -1   3   3  393.80   14.25
  -1   3   3  398.65   17.19
   0  -3  -3 2865.44   66.15
   0   3   3 3027.14   74.33
   0   3   3 3021.28   70.01
  -1  -3  -3  236.15   11.19
   1   3   3  227.38   10.91
   1   3   3  215.20   13.62
  -2  -3  -3  870.49   26.79
   2   3   3  906.00   30.22
   2   3   3  874.34   27.52
  -3  -3  -3 1609.80   43.44
   3   3   3 1521.67   46.12
   3   3   3 1592.29   44.78
  -4  -3  -3   52.84    9.27
   4   3   3   59.84   10.45
   4   3   3   70.03   10.48
  -5  -3  -3   76.89   11.29
   5   3   3   77.40   12.06
   5   3   3   62.65   10.18
  -6  -3  -3  261.06   18.40
   6   3   3  269.78   18.31
   6   3   3  297.26   20.47
  -7  -3  -3  135.42   16.26
   7   3   3  165.19   18.64
   9  -4  -3   16.26   11.95
   8  -4  -3   12.31   10.53
  -8   4   3    7.91    9.46
   7  -4  -3   28.21   11.17
  -7   4   3    7.95    8.37
   6  -4  -3    2.73    7.20
  -6   4   3   -5.20    7.37
  -6   4   3    1.55    6.72
   5  -4  -3    1.18    7.04
  -5   4   3    3.57    5.81
  -5   4   3    1.90    6.87
   4  -4  -3   66.26    8.93
  -4   4   3   73.93    7.96
  -4   4   3   59.68   10.39
   3  -4  -3   61.64    7.84
  -3   4   3   59.31    6.49
  -3   4   3   70.01    9.82
   2  -4  -3   12.72    4.37
  -2   4   3   11.71    6.80
  -2   4   3   12.54    4.59
   1  -4  -3  185.47    9.66
  -1   4   3  182.18    9.46
  -1   4   3  147.21   13.06
   0  -4  -3    6.22    4.03
   0   4   3    5.84    5.93
   0   4   3    4.28    3.46
  -1  -4  -3   58.41    7.40
   1   4   3   57.87    9.79
   1   4   3   62.67    6.75
  -2  -4  -3  337.38   16.04
   2   4   3  343.02   15.49
   2   4   3  307.60   18.03
  -3  -4  -3   66.47    9.59
   3   4   3   47.16    8.63
   3   4   3   58.79   10.31
  -4  -4  -3   -3.49    5.24
   4   4   3   -5.90    5.84
  -5  -4  -3   -4.31    6.25
   5   4   3    9.55    7.34
  -6  -4  -3    6.43    8.44
   6   4   3    9.59    7.97
   9  -5  -3  125.48   20.59
   8  -5  -3   41.52   13.62
  -8   5   3   33.78   11.81
   7  -5  -3   -2.61    9.07
  -7   5   3    1.12    8.05
   6  -5  -3  293.21   19.76
  -6   5   3  246.76   18.18
   5  -5  -3  513.17   23.61
  -5   5   3  510.46   24.89
  -5   5   3  520.12   19.76
   4  -5  -3   35.14    7.73
  -4   5   3   34.89    9.14
  -4   5   3   31.36    6.23
   3  -5  -3  383.38   15.89
  -3   5   3  362.58   14.40
  -3   5   3  392.44   20.17
   2  -5  -3  623.36   20.46
  -2   5   3  639.65   26.38
   1  -5  -3  660.03   21.65
  -1   5   3  636.42   26.43
   0  -5  -3  848.05   26.05
   0   5   3  834.79   31.04
  -1  -5  -3  613.34   22.27
   1   5   3  616.57   26.56
  -2  -5  -3  346.99   17.07
   2   5   3  316.66   18.97
  -3  -5  -3  124.73   12.69
   3   5   3  133.11   15.12
  -4  -5  -3   96.01   12.50
   4   5   3   93.05   13.62
  -5  -5  -3   22.10    9.13
   5   5   3   25.37    9.17
  -6  -5  -3   26.59   10.66
   6   5   3   46.43   11.42
  -7   6   3  218.15   20.22
  -6   6   3   -8.79    7.29
  -5   6   3   11.46    8.60
  -4   6   3  346.99   20.81
  -3   6   3  276.58   18.06
   2  -6  -3  578.87   20.74
  -2   6   3  536.14   25.13
   1  -6  -3  149.72   11.06
  -1   6   3  164.98   15.94
   0  -6  -3  339.72   16.43
   0   6   3  339.38   20.04
  -1  -6  -3   26.67    7.28
   1   6   3   34.39    9.61
  -2  -6  -3    3.16    6.42
   2   6   3   19.03    8.79
  -3  -6  -3  277.09   17.32
   3   6   3  260.46   18.41
  -4  -6  -3   16.65    8.50
   4   6   3   28.54    9.54
  -5  -6  -3   36.96   10.49
   5   6   3   27.47   10.32
  -7   7   3  104.64   15.41
  -6   7   3   66.84   13.17
  -5   7   3   -1.42    8.54
  -4   7   3  221.14   18.11
   3  -7  -3  388.96   17.64
  -3   7   3  380.97   22.69
   2  -7  -3  113.55   11.06
  -2   7   3  103.60   14.61
   1  -7  -3   48.84    8.40
  -1   7   3   66.35   11.87
   0  -7  -3  411.70   18.58
   0   7   3  364.63   21.98
  -1  -7  -3   96.22   11.38
   1   7   3   89.72   13.70
  -2  -7  -3   59.77   10.24
   2   7   3   90.58   13.97
  -3  -7  -3  145.49   15.48
   3   7   3  171.26   18.12
  -4  -7  -3   50.80   11.25
   4   7   3   46.53   12.26
  -7   8   3    1.97    9.37
  -6   8   3   64.72   13.33
  -5   8   3   10.90    9.22
  -4   8   3    7.17    9.49
  -3   8   3   95.74   14.45
   2  -8  -3  111.87   12.10
  -2   8   3  113.47   15.67
   1  -8  -3   45.81    9.04
  -1   8   3   45.92   11.91
   0  -8  -3  184.82   14.10
   0   8   3  203.93   19.42
  -1  -8  -3  111.05   13.22
   1   8   3  124.58   16.77
  -2  -8  -3    3.65    7.20
   2   8   3   12.73    9.57
  -3  -8  -3   20.61    8.71
   3   8   3   19.29   11.07
  -6   9   3  117.72   17.96
  -5   9   3  438.43   26.50
  -4   9   3   -0.84    9.50
  -3   9   3   11.97   10.54
  -2   9   3  435.67   26.72
  -1   9   3  169.90   19.34
   0  -9  -3   18.58    8.42
   0   9   3   24.66   11.42
  -1  -9  -3  162.69   15.79
   1   9   3  168.30   20.02
  -2  -9  -3   75.26   12.98
  -6  10   3  152.52   20.55
  -5  10   3   48.20   14.79
  -4  10   3  234.99   23.43
  -3  10   3  407.98   27.30
  -2  10   3   19.92   11.88
  -1  10   3    6.96   10.92
   0  13  -4   20.88   10.07
   1  12  -4    3.91    9.11
   0  12  -4   33.86   10.51
   0 -12   4   33.05   10.37
   1 -12   4   14.07    8.23
   2 -12   4   16.58    9.02
   3 -12   4   48.59   11.11
  -4  12  -4    4.71    7.50
  -5  12  -4    2.63    7.78
   2  11  -4   88.81   13.54
  -2 -11   4   88.27   13.48
   1  11  -4  216.03   17.33
  -1 -11   4  235.93   17.87
   0  11  -4   61.02   11.06
   0 -11   4   43.83    9.88
  -1  11  -4  133.34   14.11
   1 -11   4  155.35   15.64
   2 -11   4  577.51   26.84
   3 -11   4   99.56   13.66
  -4  11  -4    4.36    6.34
  -5  11  -4  327.25   20.15
  -6  11  -4  131.65   15.59
  -4 -10   4    6.59    8.72
   3  10  -4   71.83   12.32
  -3 -10   4   85.36   13.31
   2  10  -4   77.45   12.06
  -2 -10   4   83.18   12.08
   1  10  -4   18.84    8.11
  -1 -10   4   29.86    8.97
   0  10  -4   16.24    7.09
   0 -10   4    7.36    7.21
  -1  10  -4    3.31    6.41
   1 -10   4   -0.69    6.75
   2 -10   4    0.16    6.06
   3 -10   4   -7.04    6.81
  -4  10  -4   41.96    8.99
  -5  10  -4   32.83    8.53
  -6  10  -4    4.87    7.75
  -7  10  -4  143.43   16.46
  -5  -9   4   10.40    9.19
  -4  -9   4  145.22   18.68
  -4  -9   4  159.13   16.35
  -3  -9   4  223.20   16.86
  -3  -9   4  263.89   19.88
   2   9  -4   25.86    7.49
   1   9  -4   32.90    8.34
  -1  -9   4   48.49    9.46
   0   9  -4  346.32   18.23
   0  -9   4  396.83   19.48
  -1   9  -4   59.66    9.14
   1  -9   4   50.75    9.09
  -2   9  -4   25.48    7.03
   2  -9   4   32.41    9.04
   3  -9   4  244.85   16.49
  -4   9  -4   53.69    9.43
  -5   9  -4   21.65    8.26
  -6   9  -4  160.73   16.09
  -7   9  -4  123.77   15.20
  -8   9  -4   81.72   14.13
  -5  -8   4   80.38   13.19
  -5  -8   4   78.37   16.53
  -4  -8   4   16.33   10.55
  -4  -8   4   13.19    7.31
  -3  -8   4   85.60   13.97
  -3  -8   4   74.24   10.78
  -2  -8   4   37.13    8.67
  -2  -8   4   42.34   10.29
  -1  -8   4  336.28   17.23
  -1  -8   4  329.27   19.10
   0   8  -4   74.71    9.31
   0  -8   4   82.81   10.73
  -1   8  -4   14.76    5.65
   1  -8   4   16.61    6.68
  -2   8  -4  377.66   15.80
   2  -8   4  398.78   19.36
  -3   8  -4   14.44    6.40
  -4   8  -4    8.60    6.68
   4  -8   4    4.45    6.54
  -5   8  -4  155.66   14.70
   5  -8   4  163.09   14.53
  -6   8  -4   -3.70    7.03
   6  -8   4    2.51    7.44
  -7   8  -4   25.44   10.20
   7  -8   4    5.85    8.75
  -8   8  -4   59.72   12.99
   8  -8   4  103.08   15.96
  -6  -7   4   41.16   12.75
  -6  -7   4   34.96   10.62
  -5  -7   4   -2.31    8.90
  -5  -7   4    7.92    7.69
  -4  -7   4  130.65   13.96
  -4  -7   4  144.28   17.91
  -3  -7   4   74.53   13.40
  -3  -7   4  123.23   12.48
   2   7  -4    1.17    5.03
  -2  -7   4    5.11    7.76
  -2  -7   4   -1.07    5.64
  -1  -7   4  186.73   12.16
  -1  -7   4  187.66   11.77
  -1  -7   4  174.59   14.50
   0  -7   4  152.90   12.95
   0  -7   4  156.18   10.40
  -1   7  -4   24.69    5.47
   1  -7   4   18.54    6.76
   1  -7   4   14.30    5.11
  -2   7  -4  965.39   27.69
   2  -7   4  995.77   31.65
   2  -7   4  998.34   29.61
  -3   7  -4  265.59   14.39
   3  -7   4  250.30   14.04
  -4   7  -4   46.15    8.04
   4  -7   4   44.41    8.66
  -5   7  -4  912.88   31.82
   5  -7   4  899.08   32.50
  -6   7  -4  679.41   28.24
   6  -7   4  711.23   29.65
  -7   7  -4   66.51   12.17
   7  -7   4   62.81   12.34
  -8   7  -4   65.69   12.81
   8  -7   4   51.40   12.99
   9  -7   4  142.70   19.47
  -7  -6   4   -1.03    8.74
  -7  -6   4    4.83    9.96
   6   6  -4    2.17    8.89
  -6  -6   4    0.70    7.62
  -6  -6   4    6.07   10.19
   5   6  -4   16.76    8.42
  -5  -6   4   -2.61    6.52
  -5  -6   4    5.96    9.44
   4   6  -4  218.32   15.70
  -4  -6   4  194.39   18.84
  -4  -6   4  180.95   14.22
   3   6  -4  169.86   12.43
  -3  -6   4  145.39   15.57
  -3  -6   4  203.44   13.55
  -2  -6   4  119.55   13.47
  -2  -6   4  121.92   11.01
  -2  -6   4  120.70   11.13
  -1  -6   4  121.18    9.50
  -1  -6   4  130.14   12.45
  -1  -6   4  128.12    9.98
   0  -6   4   62.50    7.03
   0  -6   4   51.23    7.53
   0  -6   4   63.30    8.03
  -1   6  -4  305.34   12.46
   1  -6   4  311.40   13.68
   1  -6   4  320.45   14.78
  -2   6  -4  134.19    7.66
   2  -6   4  126.11   10.05
   2  -6   4  129.09   11.11
  -3   6  -4  143.71   11.66
  -4   6  -4  122.56   11.70
   4  -6   4  106.84   11.54
  -5   6  -4   50.53    9.08
   5  -6   4   43.39    9.52
  -6   6  -4   69.68   11.30
   6  -6   4   71.69   12.09
  -7   6  -4  103.36   14.15
   7  -6   4   92.68   14.74
  -8   6  -4   49.60   11.39
   8  -6   4   37.79   12.21
   8   5  -4   -5.31   11.73
   7   5  -4   76.30   15.99
  -7  -5   4   72.35   12.07
  -7  -5   4   88.87   16.16
   6   5  -4  207.63   20.26
  -6  -5   4  174.91   20.23
  -6  -5   4  217.81   16.25
   5   5  -4    5.33    7.77
  -5  -5   4   15.93    7.03
  -5  -5   4   -5.51    7.80
   4   5  -4   84.89   11.44
  -4  -5   4   76.80   10.08
  -4  -5   4   86.44   13.54
   3   5  -4  869.08   29.80
  -3  -5   4  871.96   28.06
  -3  -5   4  852.25   32.94
  -2  -5   4   22.15    6.04
  -2  -5   4   20.43    5.47
  -2  -5   4   18.43    7.30
  -1  -5   4   68.35    7.65
  -1  -5   4   74.06    7.55
  -1  -5   4   85.70    9.45
   0  -5   4  934.51   27.23
   0  -5   4  904.18   27.49
   0  -5   4  927.28   26.86
   1  -5   4  220.15   10.26
   1  -5   4  247.66   12.38
   1  -5   4  231.03   11.59
  -2   5  -4  173.27    6.95
  -2   5  -4  178.46    9.99
   2  -5   4  164.03   10.13
  -3   5  -4 1046.43   30.51
   3  -5   4 1080.18   33.12
  -4   5  -4  248.70   14.03
   4  -5   4  252.43   15.13
  -5   5  -4  120.32   12.75
   5  -5   4   98.09   12.53
  -6   5  -4  262.98   17.57
   6  -5   4  237.59   18.45
  -7   5  -4  248.09   17.55
   7  -5   4  162.41   17.83
  -8   5  -4    9.93    9.53
   8  -5   4   -0.34    9.26
   8   4  -4   15.80   13.58
  -8  -4   4   10.78   10.94
  -8  -4   4   18.35   10.31
   7   4  -4   44.47   12.98
  -7  -4   4   35.01    9.87
  -7  -4   4   18.97    9.79
   6   4  -4   93.92   14.41
  -6  -4   4   78.54   11.57
  -6  -4   4   87.17   14.85
   5   4  -4  177.49   17.06
  -5  -4   4  205.02   19.49
  -5  -4   4  141.94   13.33
   4   4  -4  143.28   13.86
  -4  -4   4  109.50   13.77
  -4  -4   4  121.74   11.10
  -3  -4   4  210.60   16.45
  -3  -4   4  202.50   13.30
  -3  -4   4  224.65   12.08
  -2  -4   4  378.73   16.55
  -2  -4   4  362.03   18.43
  -2  -4   4  391.14   14.85
  -1  -4   4  553.12   17.96
  -1  -4   4  563.98   21.12
  -1  -4   4  618.15   20.51
   0  -4   4   -0.48    3.63
   0  -4   4    3.60    3.74
   0  -4   4    7.64    3.63
   1  -4   4   -4.99    3.42
   1  -4   4    2.51    3.69
   1  -4   4    0.32    2.71
  -2   4  -4  785.55   23.04
   2  -4   4  795.39   25.57
  -3   4  -4  472.84   17.59
   3  -4   4  500.67   19.90
  -4   4  -4   24.85    7.31
   4  -4   4   32.95    7.79
  -5   4  -4  275.52   16.52
   5  -4   4  251.67   16.87
  -6   4  -4  163.27   14.80
   6  -4   4  179.74   17.58
  -7   4  -4   11.42    8.52
   7  -4   4   11.93    9.52
  -8   4  -4   47.10   11.11
   8  -4   4   70.16   14.27
   8   3  -4    3.90   11.40
  -8  -3   4   -0.01    9.51
  -8  -3   4   -5.75    7.88
   7   3  -4    0.81    9.26
  -7  -3   4   11.96    9.77
  -7  -3   4    0.02    7.40
   6   3  -4  246.45   19.56
  -6  -3   4  250.50   19.36
  -6  -3   4  249.93   16.30
   5   3  -4  185.30   15.56
  -5  -3   4  229.48   17.77
  -5  -3   4  221.54   14.04
   4   3  -4    6.96    6.53
  -4  -3   4   10.53    7.83
  -4  -3   4    7.76    4.91
  -3  -3   4  230.85   15.91
  -3  -3   4  249.98   15.06
  -2  -3   4   38.49    7.41
  -2  -3   4   36.91    5.03
  -2  -3   4   36.66    6.72
  -1  -3   4  706.88   22.62
  -1  -3   4  659.23   18.72
  -1  -3   4  648.89   21.81
   0  -3   4  119.05    8.34
   0  -3   4  142.89    9.26
   0  -3   4  136.44    7.25
  -1   3  -4  946.88   24.34
   1  -3   4  928.87   27.64
   1  -3   4  951.82   23.96
  -2   3  -4  290.32   12.15
   2  -3   4  317.24   14.26
  -3   3  -4  357.45   15.15
   3  -3   4  351.78   16.87
  -4   3  -4  648.85   23.29
   4  -3   4  636.58   25.17
  -5   3  -4  164.02   13.95
   5  -3   4  161.32   15.65
  -6   3  -4  226.68   16.20
   6  -3   4  236.68   18.47
  -7   3  -4  130.07   14.77
   7  -3   4  151.86   17.15
  -8   3  -4   45.79   11.05
   8  -3   4   68.41   14.42
   8   2  -4    2.40   11.28
  -8  -2   4   10.34    8.52
  -8  -2   4    3.05    9.33
   7   2  -4   25.37   11.32
  -7  -2   4   49.52   11.86
  -7  -2   4   12.20    7.44
   6   2  -4   65.17   12.93
  -6  -2   4   73.51   10.22
  -6  -2   4   65.90   12.68
   5   2  -4   10.84    7.41
  -5  -2   4    4.74    7.18
  -5  -2   4    1.10    2.38
   4   2  -4  347.12   18.56
  -4  -2   4  329.29   18.63
  -4  -2   4  354.12   14.92
  -3  -2   4  384.94   13.79
  -3  -2   4  427.69   19.55
  -3  -2   4  382.22   17.87
  -2  -2   4   10.90    3.14
  -2  -2   4   14.81    5.50
  -2  -2   4   21.77    5.95
  -1  -2   4  406.57   15.87
  -1  -2   4  421.45   11.97
  -1  -2   4  406.48   15.80
   0  -2   4 1555.76   39.51
   0  -2   4 1632.47   42.12
  -1   2  -4   36.50    4.53
   1  -2   4   42.30    4.36
   1  -2   4   41.80    6.25
  -2   2  -4  336.26   12.94
   2  -2   4  325.05   10.26
   2  -2   4  316.19   14.93
  -3   2  -4 3242.22   75.06
   3  -2   4 3317.72   74.00
  -4   2  -4  178.43   12.41
   4  -2   4  202.83   14.04
   4  -2   4  182.04    8.65
  -5   2  -4  210.48   14.66
   5  -2   4  233.17   16.36
  -6   2  -4  299.32   18.00
   6  -2   4  263.53   19.34
  -7   2  -4  127.51   14.13
   7  -2   4  120.03   16.13
  -8   2  -4    2.84    8.26
   8  -2   4   35.19   12.11
  -9  -1   4   27.59   12.57
   8   1  -4   13.03   11.03
  -8  -1   4    9.91   10.72
   7   1  -4   16.71    9.37
  -7  -1   4   27.14    8.26
  -7  -1   4   12.14    9.44
   6   1  -4   38.39   10.24
  -6  -1   4   19.42    6.48
  -6  -1   4   26.27    9.20
   5   1  -4   12.05    7.77
  -5  -1   4   23.83    8.95
  -5  -1   4   16.26    6.26
   4   1  -4   42.72    7.97
  -4  -1   4   31.92    7.80
  -4  -1   4   39.93    5.93
  -3  -1   4  753.06   26.47
  -3  -1   4  797.57   20.90
  -3  -1   4  759.98   27.00
  -2  -1   4   27.40    6.08
  -2  -1   4   26.33    3.11
  -2  -1   4   22.53    5.65
  -1  -1   4   98.40    8.72
  -1  -1   4  110.77    4.14
  -1  -1   4  108.99    8.68
   0   1  -4  578.75   13.84
   0  -1   4  511.62   18.56
  -1   1  -4 1246.67   29.41
   1  -1   4 1231.49   31.53
   1  -1   4 1228.11   34.38
  -2   1  -4  325.11   12.62
   2  -1   4  285.15   14.99
   2  -1   4  310.21   11.44
  -3   1  -4  658.80   21.61
   3  -1   4  669.48   19.72
   3  -1   4  663.92   24.31
  -4   1  -4  194.14   12.42
   4  -1   4  222.53   10.86
   4  -1   4  217.52   15.39
  -5   1  -4    0.83    6.41
   5  -1   4    8.42    8.16
  -6   1  -4  105.00   12.34
   6  -1   4  108.42   14.63
  -7   1  -4   63.49   11.80
   7  -1   4   49.28   12.27
  -8   1  -4    4.73    8.66
   8  -1   4   -3.54    9.28
  -9   0   4  143.33   20.36
   8   0  -4   -2.21   10.20
  -8   0   4    5.72    9.83
   7   0  -4   16.77   10.25
  -7   0   4  -11.31    7.46
  -7   0   4   -0.06    6.28
   6   0  -4  462.38   25.19
  -6   0   4  419.34   23.18
  -6   0   4  482.75   19.37
   5   0  -4  341.77   19.55
  -5   0   4  381.64   20.56
  -5   0   4  370.43   15.55
   4   0  -4    6.98    5.79
  -4   0   4    7.47    4.18
  -4   0   4   11.37    6.40
  -3   0   4  910.64   30.14
  -3   0   4  929.49   22.72
  -3   0   4  885.42   29.38
  -2   0   4 1529.38   32.32
  -2   0   4 1531.09   41.56
  -2   0   4 1447.61   40.96
  -1   0   4  429.20   16.32
  -1   0   4  405.47   16.16
   0   0  -4 1641.64   35.89
   0   0   4 1688.72   42.64
   0   0   4 1678.39   43.55
  -1   0  -4 2174.52   49.04
   1   0   4 2218.90   53.76
   1   0   4 2195.68   55.52
  -2   0  -4  754.90   21.65
   2   0   4  728.25   22.63
   2   0   4  746.45   25.43
  -3   0  -4  105.13    9.73
   3   0   4  138.05    8.96
   3   0   4  132.85   12.22
  -4   0  -4  551.71   22.06
   4   0   4  615.21   20.99
   4   0   4  563.19   24.77
  -5   0  -4  187.10   14.37
   5   0   4  186.60   12.36
   5   0   4  205.19   16.67
  -6   0  -4   52.10   10.02
   6   0   4   50.07   11.82
  -7   0  -4   45.85   10.43
   7   0   4   34.97   11.39
  -8   0  -4    9.81    9.39
   8   0   4   17.11   11.10
  -9   1   4    2.22   10.87
   8  -1  -4   -5.24    9.87
  -8   1   4   14.07    9.72
   7  -1  -4  167.98   18.59
  -7   1   4  161.73   17.47
   6  -1  -4  225.61   20.31
  -6   1   4  265.03   18.48
  -6   1   4  227.15   13.84
   5  -1  -4  186.06   16.47
  -5   1   4  195.95   15.29
  -5   1   4  181.81   10.94
   4  -1  -4  415.24   19.60
  -4   1   4  413.27   20.13
  -4   1   4  434.83   14.52
  -3   1   4   -0.36    4.46
  -3   1   4    2.80    5.36
  -3   1   4    2.53    2.92
  -2   1   4 2058.65   43.44
  -2   1   4 2106.04   54.29
  -2   1   4 2024.49   53.11
  -1   1   4  244.92   12.15
  -1   1   4  213.08   12.61
   0  -1  -4  237.39    8.02
   0   1   4  248.65   12.58
   0   1   4  210.42   11.00
  -1  -1  -4  753.42   20.63
   1   1   4  746.79   24.18
   1   1   4  792.22   24.44
   2   1   4    2.37    2.39
  -3  -1  -4   52.22    7.34
   3   1   4   48.47    7.45
   3   1   4   50.72    8.40
  -4  -1  -4   94.51   10.55
   4   1   4   89.90   10.12
   4   1   4   96.63   12.10
  -5  -1  -4  117.45   12.43
   5   1   4  120.13   13.97
   5   1   4  137.42   12.54
  -6  -1  -4   -1.01    7.17
   6   1   4   -2.65    7.42
  -7  -1  -4  116.72   14.88
   7   1   4  113.18   16.00
   8   1   4   27.16   12.30
  -9   2   4   89.06   16.12
   8  -2  -4   15.51   10.47
  -8   2   4   20.91   10.70
   7  -2  -4  103.57   15.47
  -7   2   4   98.85   14.38
   6  -2  -4  201.45   18.59
  -6   2   4  189.82   17.32
   5  -2  -4   46.52    9.31
  -5   2   4   38.39    6.59
  -5   2   4   47.82    9.43
   4  -2  -4  256.05   14.71
  -4   2   4  246.89   10.87
  -4   2   4  239.17   16.15
  -3   2   4  354.79   17.55
  -3   2   4  318.53   16.43
  -3   2   4  344.07   11.24
  -2   2   4  353.42   16.42
  -2   2   4  328.33   15.09
  -2   2   4  349.76    9.93
   1  -2  -4  441.14   12.30
  -1   2   4  435.75   16.77
  -1   2   4  451.38   19.07
   0  -2  -4  739.63   19.66
   0   2   4  756.26   23.65
   0   2   4  697.31   24.88
  -1  -2  -4   58.33    6.14
   1   2   4   52.51    7.73
   1   2   4   38.95    6.43
  -2  -2  -4  422.63   16.47
   2   2   4  440.84   18.52
   2   2   4  479.14   19.71
  -3  -2  -4 1178.92   34.38
   3   2   4 1182.18   37.23
   3   2   4 1174.06   36.62
  -4  -2  -4  305.22   16.38
   4   2   4  300.05   17.06
   4   2   4  309.13   18.09
  -5  -2  -4   47.14    9.86
   5   2   4   55.57   11.26
  -6  -2  -4  130.57   14.95
   6   2   4  178.64   18.29
  -7  -2  -4  194.57   18.56
   7   2   4  188.17   20.18
   9  -3  -4   21.18   13.81
  -9   3   4   30.54   13.01
   8  -3  -4   -1.81    9.44
  -8   3   4   10.98    9.20
   7  -3  -4   36.93   11.57
  -7   3   4   14.02    9.08
   6  -3  -4   58.84   11.56
  -6   3   4   63.20   11.79
   5  -3  -4   -2.13    6.36
  -5   3   4    8.26    7.75
   4  -3  -4   70.70    9.73
  -4   3   4   68.78   11.30
  -3   3   4   59.93    8.61
  -3   3   4   82.01   10.32
  -3   3   4   74.13    6.21
  -2   3   4    7.05    4.85
  -2   3   4   -0.42    5.26
   1  -3  -4   42.27    4.86
  -1   3   4   54.89    8.35
  -1   3   4   36.53    6.18
   0  -3  -4   -0.64    3.24
   0   3   4    6.00    4.06
   0   3   4   -7.29    4.61
  -1  -3  -4    9.78    4.48
   1   3   4    9.32    4.82
   1   3   4   -1.57    6.13
  -2  -3  -4  164.93   11.21
   2   3   4  167.82   13.68
   2   3   4  151.83   12.00
  -3  -3  -4   66.67    9.60
   3   3   4   50.99    9.48
   3   3   4   84.27   10.74
  -4  -3  -4   29.19    8.32
   4   3   4    9.55    7.53
   4   3   4   26.85    8.45
  -5  -3  -4   -4.72    6.06
   5   3   4    5.47    7.13
   5   3   4   -5.27    7.13
  -6  -3  -4    7.22    7.89
  -7  -3  -4   -1.58    9.32
   9  -4  -4  166.00   22.18
  -9   4   4  201.51   22.28
   8  -4  -4   42.22   13.70
  -8   4   4   45.15   12.71
   7  -4  -4  131.17   16.90
  -7   4   4   98.72   14.44
   6  -4  -4   44.40   11.02
  -6   4   4   70.39   12.23
   5  -4  -4 1312.72   42.24
  -5   4   4 1250.87   43.15
   4  -4  -4   15.18    6.65
  -4   4   4   21.32    7.88
  -3   4   4  173.23   14.23
  -3   4   4  168.13   12.73
   2  -4  -4 2683.11   60.22
  -2   4   4 2705.19   65.83
  -2   4   4 2536.25   70.77
   1  -4  -4  592.49   18.68
  -1   4   4  540.62   20.11
  -1   4   4  565.09   24.25
   0  -4  -4 1017.82   28.73
   0   4   4 1024.88   35.04
   0   4   4 1056.41   29.84
  -1  -4  -4 1991.17   50.69
   1   4   4 2019.67   51.98
   1   4   4 2081.94   58.33
  -2  -4  -4  448.07   18.64
   2   4   4  399.41   21.03
  -3  -4  -4   81.82   10.50
   3   4   4   81.62   11.93
  -4  -4  -4  910.35   32.58
   4   4   4  877.12   34.37
  -5  -4  -4  160.49   16.50
   5   4   4  124.48   15.37
  -6  -4  -4    6.80    8.58
   9  -5  -4   28.47   14.01
   8  -5  -4   38.32   14.06
  -8   5   4   31.15   11.65
   7  -5  -4   70.53   13.85
  -7   5   4   82.96   14.12
   6  -5  -4    2.70    8.25
  -6   5   4    7.27    8.90
   5  -5  -4   26.78    8.70
  -5   5   4   42.08   10.61
   4  -5  -4   57.39    9.18
  -4   5   4   55.84   10.72
  -3   5   4  198.71   15.54
   2  -5  -4  207.38   11.54
  -2   5   4  206.28   17.79
   1  -5  -4   25.92    5.97
  -1   5   4   42.85    9.90
   0  -5  -4  380.63   16.08
   0   5   4  344.24   19.97
  -1  -5  -4   41.88    7.86
   1   5   4   64.64   11.67
  -2  -5  -4   10.73    6.34
   2   5   4   15.36    7.80
  -3  -5  -4  134.34   13.25
   3   5   4  127.65   15.04
  -4  -5  -4    2.48    7.29
   4   5   4    0.20    7.12
  -5  -5  -4   37.06   10.43
   5   5   4   34.11   10.48
   6   5   4   43.72   12.02
  -8   6   4  217.91   22.23
  -7   6   4   47.06   12.97
  -6   6   4   47.41   12.04
  -5   6   4  418.17   24.45
  -4   6   4  505.37   25.35
  -3   6   4  267.50   19.39
  -2   6   4  340.95   21.56
   1  -6  -4  485.45   19.61
  -1   6   4  510.21   25.96
   0  -6  -4  171.06   12.36
   0   6   4  170.88   17.48
  -1  -6  -4  147.24   13.22
   1   6   4  184.87   18.23
  -2  -6  -4   83.24   11.06
   2   6   4   72.65   12.98
  -3  -6  -4   68.35   11.28
   3   6   4   80.69   13.82
  -4  -6  -4   95.64   12.80
   4   6   4   86.76   14.29
  -5  -6  -4   57.75   12.18
   5   6   4   70.78   13.57
  -7   7   4   -0.92    9.72
  -6   7   4  113.55   16.79
  -5   7   4   37.11   11.90
  -4   7   4    6.84    9.29
  -3   7   4   99.85   14.92
  -2   7   4   58.13   11.86
  -1   7   4   18.50   10.04
   0  -7  -4    1.10    6.02
   0   7   4   19.61    9.84
  -1  -7  -4  241.63   15.61
   1   7   4  232.69   21.77
  -2  -7  -4   17.99    7.90
   2   7   4   16.36   10.31
  -3  -7  -4   -1.63    7.35
   3   7   4   -2.01    8.72
  -4  -7  -4   28.02   10.52
   4   7   4   26.54   11.41
  -7   8   4    8.40   11.05
  -6   8   4   19.45   11.84
  -5   8   4  232.76   19.31
  -4   8   4   13.45   10.83
  -3   8   4   20.05   10.17
  -2   8   4  257.81   20.42
  -1   8   4  208.19   20.63
   0   8   4  108.17   16.55
   1   8   4  389.79   25.22
  -2  -8  -4  293.47   19.09
   2   8   4  291.13   23.28
  -3  -8  -4   13.63    9.12
  -6   9   4   -0.13   11.40
  -5   9   4   45.73   13.68
  -4   9   4   18.95   11.46
  -3   9   4   64.39   15.09
  -2   9   4  145.24   19.12
  -1   9   4   42.23   12.63
   0   9   4    8.49   10.55
   2  12  -5   48.11   12.07
   1  12  -5  143.37   16.63
  -1 -12   5  155.35   17.50
   0 -12   5   30.57   10.59
   1 -12   5   34.08    9.90
   2 -12   5  253.42   18.91
   3 -12   5  128.50   16.05
  -4  12  -5   54.65   11.37
  -5  12  -5  470.57   26.03
   3  11  -5   -0.41    8.16
   2  11  -5   -6.46    6.66
  -2 -11   5    2.97    8.05
   1  11  -5   19.81    8.54
  -1 -11   5   23.15    9.27
   0  11  -5    4.98    6.68
   0 -11   5    6.95    7.42
   1 -11   5    1.72    6.68
   2 -11   5   10.22    7.47
   3 -11   5  -15.98    6.32
  -4  11  -5   50.01   10.47
  -5  11  -5   27.05    9.37
  -6  11  -5    3.48    8.34
  -4 -10   5   99.07   14.72
  -4 -10   5  120.75   18.94
  -3 -10   5  150.96   16.19
   2  10  -5  146.17   15.50
  -2 -10   5  102.17   12.91
   1  10  -5  449.34   22.47
  -1 -10   5  464.14   23.00
   0  10  -5  482.54   22.33
   0 -10   5  486.83   23.29
   1 -10   5   15.30    7.78
   2 -10   5   11.45    7.32
  -4  10  -5  133.56   13.90
  -5  10  -5   38.78    9.57
  -6  10  -5  333.59   21.15
  -7  10  -5  149.34   17.08
  -5  -9   5    2.15    8.52
  -4  -9   5   27.03   12.43
  -4  -9   5   27.16    9.00
  -3  -9   5    2.69    7.22
  -3  -9   5   13.77    9.81
  -2  -9   5   -7.16    7.99
  -2  -9   5    8.17    6.71
  -1  -9   5  112.27   12.78
   0   9  -5  107.94   11.48
   0  -9   5   97.55   12.47
  -1   9  -5    4.31    5.49
   1  -9   5   16.70    7.46
   2  -9   5   37.86    8.81
  -3   9  -5   -8.94    4.05
  -4   9  -5   91.74   11.32
  -5   9  -5   18.17    7.94
  -6   9  -5   -5.96    6.46
  -7   9  -5    6.85    8.96
  -6  -8   5  103.50   15.76
  -5  -8   5   90.73   13.75
  -5  -8   5   98.08   17.30
  -4  -8   5   34.18   12.34
  -4  -8   5   37.03    9.82
  -3  -8   5  139.56   13.80
  -3  -8   5  164.50   18.37
  -2  -8   5   24.26    9.76
  -2  -8   5   11.99    7.15
  -1  -8   5   35.00    8.53
  -1  -8   5   44.45   10.04
   0  -8   5  191.94   13.58
   0  -8   5  167.60   12.86
  -1   8  -5  317.12   14.85
   1  -8   5  322.35   17.61
   2  -8   5   39.23    8.45
   2  -8   5   35.94    7.11
  -3   8  -5  357.34   17.68
   3  -8   5  374.69   17.91
  -4   8  -5  505.53   22.06
   4  -8   5  555.91   23.65
  -5   8  -5  464.28   21.78
   5  -8   5  417.96   21.21
  -6   8  -5  810.08   31.61
   6  -8   5  789.35   32.42
  -7   8  -5  325.71   21.15
   7  -8   5  318.71   21.60
  -8   8  -5   32.90   12.32
   8  -8   5   56.89   13.45
  -6  -7   5   21.50   11.88
  -6  -7   5    8.19    7.78
  -5  -7   5   11.01   10.37
  -5  -7   5   -1.04    7.42
  -4  -7   5  145.46   17.84
  -4  -7   5  148.34   14.46
   3   7  -5  114.57   12.36
  -3  -7   5  126.53   15.49
  -3  -7   5  122.22   12.52
  -2  -7   5   77.42   10.10
  -2  -7   5   70.24    9.90
  -2  -7   5   72.71   11.60
  -1  -7   5  154.98   12.28
  -1  -7   5  146.82   11.72
  -1  -7   5  164.77   14.80
   0  -7   5  400.50   17.37
   0  -7   5  424.80   18.92
   0  -7   5  415.77   18.33
   1  -7   5   73.81    9.95
   1  -7   5  100.75    9.89
   2  -7   5   17.09    6.91
   2  -7   5    7.67    5.96
  -3   7  -5  597.98   22.74
   3  -7   5  625.78   23.78
  -4   7  -5    0.14    5.28
   4  -7   5   -6.12    5.49
  -5   7  -5   26.28    8.12
   5  -7   5   13.88    8.24
  -6   7  -5  117.12   14.26
   6  -7   5  115.56   14.34
  -7   7  -5   -2.49    8.57
   7  -7   5    5.93    8.05
  -8   7  -5   19.07   10.22
   8  -7   5   -8.50    8.55
  -7  -6   5   13.90    9.50
   6   6  -5   41.87   12.23
  -6  -6   5   23.09    9.13
  -6  -6   5    6.21    9.57
   5   6  -5    5.18    7.92
  -5  -6   5   12.91   10.26
  -5  -6   5   -0.32    6.39
   4   6  -5    2.08    6.99
  -4  -6   5    1.91    7.68
  -4  -6   5    3.90    6.08
  -3  -6   5  303.13   19.48
  -3  -6   5  329.12   16.58
  -2  -6   5  404.08   18.55
  -2  -6   5  400.16   17.59
  -2  -6   5  386.29   20.83
  -1  -6   5  742.90   27.49
  -1  -6   5  759.87   25.91
  -1  -6   5  732.55   24.65
   0  -6   5 1123.79   32.33
   0  -6   5 1083.61   32.96
   0  -6   5 1087.36   32.79
   1  -6   5  411.06   15.74
   1  -6   5  398.19   16.95
   1  -6   5  416.54   17.39
  -2   6  -5  864.34   26.83
  -2   6  -5  895.03   23.08
  -3   6  -5 1851.38   48.38
   3  -6   5 1849.18   51.58
  -4   6  -5  290.84   15.74
   4  -6   5  342.52   18.42
  -5   6  -5   13.03    7.52
   5  -6   5   36.53    9.28
  -6   6  -5  465.09   22.82
   6  -6   5  487.62   24.61
  -7   6  -5  183.31   17.28
   7  -6   5  178.91   18.71
  -8   6  -5    5.15    8.69
   8  -6   5    7.50    9.18
   7   5  -5   30.85   12.55
  -7  -5   5    8.75    8.50
  -7  -5   5   44.09   13.25
   6   5  -5  305.81   21.96
  -6  -5   5  318.56   18.87
  -6  -5   5  297.65   23.07
   5   5  -5   22.90    9.10
  -5  -5   5   26.50    9.92
  -5  -5   5   25.11    7.72
   4   5  -5    5.79    7.14
  -4  -5   5    7.00    5.76
  -4  -5   5    0.98    7.18
  -3  -5   5  370.49   16.63
  -3  -5   5  359.53   20.96
  -3  -5   5  375.03   19.21
  -2  -5   5  223.55   14.83
  -2  -5   5  235.93   14.47
  -2  -5   5  239.86   12.48
  -1  -5   5   13.90    5.92
  -1  -5   5    9.80    5.22
  -1  -5   5   11.59    4.50
   0  -5   5  953.10   28.96
   0  -5   5  976.16   29.74
   0  -5   5  972.99   27.79
   1  -5   5 1066.12   29.89
   1  -5   5 1009.06   31.56
   1  -5   5 1064.57   28.42
  -2   5  -5   37.43    3.19
  -2   5  -5   38.13    5.84
   2  -5   5   42.18    7.61
  -3   5  -5  102.52   10.00
   3  -5   5  110.02   11.11
  -4   5  -5  215.55   14.01
   4  -5   5  236.80   15.64
  -5   5  -5    1.22    7.02
   5  -5   5   -6.64    6.72
  -6   5  -5   25.01    9.38
   6  -5   5   23.62    8.94
  -7   5  -5  105.94   13.58
   7  -5   5   85.15   14.24
  -8   5  -5   -4.56    8.52
   8  -5   5    4.99    9.66
   8   4  -5   33.66   14.50
   7   4  -5   26.72   11.21
  -7  -4   5    2.94    7.83
  -7  -4   5    9.90   10.39
   6   4  -5  182.30   18.90
  -6  -4   5  171.56   15.46
  -6  -4   5  184.12   19.95
   5   4  -5  107.83   13.77
  -5  -4   5  112.17   11.63
  -5  -4   5  132.59   16.39
   4   4  -5   54.71    9.97
  -4  -4   5   88.51   12.98
  -3  -4   5  414.12   20.70
  -3  -4   5  380.30   15.99
  -3  -4   5  400.89   21.04
  -2  -4   5 1009.74   33.38
  -2  -4   5 1037.85   32.72
  -2  -4   5  982.93   27.78
  -1  -4   5  207.43   12.09
  -1  -4   5  212.08   10.18
  -1  -4   5  213.30   12.84
   0  -4   5  286.72   14.25
   0  -4   5  254.61   11.45
   0  -4   5  284.15   12.72
  -1   4  -5 1061.21   27.67
   1  -4   5 1016.13   31.52
   1  -4   5 1061.79   27.59
  -2   4  -5    8.76    4.11
   2  -4   5   14.08    5.63
  -3   4  -5  159.66   11.10
   3  -4   5  174.26   12.90
  -4   4  -5  946.62   30.60
   4  -4   5  960.76   33.60
  -5   4  -5  233.15   15.06
   5  -4   5  205.35   15.94
  -6   4  -5   39.51    9.84
   6  -4   5   42.13   10.82
  -7   4  -5  387.91   21.68
   7  -4   5  355.27   23.49
  -8   4  -5   94.90   14.33
   8  -4   5  116.91   17.23
   8   3  -5   -7.04   10.44
  -8  -3   5   22.03   10.90
   7   3  -5  119.17   17.10
  -7  -3   5   95.74   15.72
   6   3  -5  304.68   20.87
  -6  -3   5  301.65   21.48
   5   3  -5   75.79   12.06
  -5  -3   5   61.91    8.88
  -5  -3   5   64.06   12.33
  -4  -3   5   62.70    8.00
  -4  -3   5   64.81   11.17
  -3  -3   5   23.74    7.46
  -3  -3   5   20.53    7.63
  -3  -3   5   28.88    5.41
  -2  -3   5  183.23    8.93
  -2  -3   5  169.12   13.08
  -2  -3   5  197.08   13.20
  -1  -3   5  687.53   23.47
  -1  -3   5  679.13   18.69
  -1  -3   5  637.11   22.54
   0  -3   5 2520.81   63.14
   0  -3   5 2478.07   55.19
   0  -3   5 2408.78   59.89
  -1   3  -5  279.70   10.84
   1  -3   5  301.27   14.45
   1  -3   5  301.69   11.07
  -2   3  -5   49.86    6.43
   2  -3   5   59.89    8.29
   2  -3   5   57.49    4.24
  -3   3  -5 1751.07   45.07
   3  -3   5 1743.49   50.06
  -4   3  -5  623.96   22.89
   4  -3   5  560.25   24.56
  -5   3  -5   23.25    8.41
   5  -3   5   28.57    9.12
  -6   3  -5  184.79   14.41
   6  -3   5  156.11   16.72
  -7   3  -5  136.75   15.20
   7  -3   5  142.83   17.37
  -8   3  -5    4.93    8.32
   8  -3   5    9.30    9.56
   8   2  -5    4.80   10.50
  -8  -2   5   -2.21    9.76
   7   2  -5   13.03    9.99
  -7  -2   5   26.22   11.07
  -6  -2   5   28.80    9.42
  -6  -2   5   27.32    7.54
   5   2  -5   17.86    7.75
  -5  -2   5    7.02    7.48
  -5  -2   5   20.03    6.51
  -4  -2   5   64.55    7.38
  -4  -2   5   77.31   11.17
  -4  -2   5   64.51   10.32
  -3  -2   5    9.75    3.73
  -3  -2   5    6.28    6.04
  -3  -2   5    8.83    6.13
  -2  -2   5  500.69   20.61
  -2  -2   5  499.49   20.31
  -2  -2   5  504.71   14.31
  -1  -2   5 3286.18   78.69
  -1  -2   5 3220.76   69.14
   0   2  -5 1727.47   38.47
   0  -2   5 1720.30   46.90
   0  -2   5 1717.94   43.76
  -1   2  -5  168.90    8.96
   1  -2   5  182.35   11.36
   1  -2   5  187.70    8.88
  -2   2  -5  593.76   19.23
   2  -2   5  581.99   22.46
   2  -2   5  593.15   17.43
  -3   2  -5  551.19   19.36
   3  -2   5  521.06   16.04
   3  -2   5  508.86   22.19
  -4   2  -5  220.42   13.97
   4  -2   5  203.75   15.17
  -5   2  -5  246.58   15.88
   5  -2   5  198.41   16.20
  -6   2  -5   94.95   12.54
   6  -2   5   85.91   13.68
  -7   2  -5   71.11   12.20
   7  -2   5   68.57   13.69
  -8   2  -5   -3.17    7.83
   8  -2   5   26.67   11.15
   8   1  -5   10.27   10.24
  -8  -1   5   14.53   10.82
   7   1  -5   47.33   12.56
  -7  -1   5   41.54   11.23
   6   1  -5   87.86   13.90
  -6  -1   5   61.46   12.44
   5   1  -5  478.03   23.54
  -5  -1   5  443.71   17.42
  -5  -1   5  470.43   23.54
  -4  -1   5   14.60    7.03
  -4  -1   5   -1.90    5.78
  -4  -1   5   -0.60    4.10
  -3  -1   5  542.59   22.32
  -3  -1   5  565.91   22.83
  -3  -1   5  538.75   15.53
  -2  -1   5 2328.39   49.05
  -2  -1   5 2305.00   59.88
  -2  -1   5 2278.56   60.23
  -1  -1   5   15.12    5.09
  -1  -1   5    0.66    4.50
   0   1  -5 4675.33   96.12
   0  -1   5 4555.70  108.94
  -1   1  -5 7248.39  149.87
   1  -1   5 7263.49  160.53
   1  -1   5 6962.19  163.83
  -2   1  -5  263.92   11.87
   2  -1   5  260.47   11.56
   2  -1   5  261.59   14.51
  -3   1  -5    8.96    5.51
   3  -1   5   10.63    4.53
   3  -1   5    1.26    6.37
  -4   1  -5 1019.94   31.50
   4  -1   5  955.66   34.61
  -5   1  -5   65.94   10.65
   5  -1   5   79.59   12.48
  -6   1  -5   -8.46    7.04
   6  -1   5    8.60    7.68
  -7   1  -5  107.32   14.20
   7  -1   5  104.94   15.39
  -8   1  -5   27.88   10.67
   8  -1   5   20.58   11.45
   8   0  -5   13.10   11.32
  -8   0   5   -9.31    8.30
   7   0  -5    4.20    8.63
  -7   0   5    0.64    8.57
   6   0  -5   39.74   10.71
  -6   0   5   39.35   10.54
   5   0  -5  179.46   15.12
  -5   0   5  221.02   16.47
  -4   0   5   77.19   10.55
  -4   0   5   89.66   11.04
  -3   0   5    4.61    2.58
  -3   0   5   12.85    6.44
  -3   0   5    4.32    5.83
  -2   0   5 1481.39   43.13
  -2   0   5 1562.17   43.65
  -1   0   5  493.33   18.94
  -1   0   5  481.09   18.93
   0   0  -5   22.86    2.81
   0   0   5   20.65    5.74
   0   0   5   28.41    5.96
  -1   0  -5  888.89   23.20
   1   0   5  889.94   26.85
   1   0   5  919.36   28.84
  -2   0  -5   84.23    7.66
   2   0   5   73.55    8.05
   2   0   5   72.02    9.65
  -3   0  -5    8.73    5.53
   3   0   5    6.13    7.09
   3   0   5    7.33    5.36
  -4   0  -5  120.90   11.93
   4   0   5  103.95   12.80
   4   0   5  133.18   10.75
  -5   0  -5   91.66   12.00
   5   0   5   73.62   11.72
  -6   0  -5  -14.73    6.09
   6   0   5   -2.30    8.15
  -7   0  -5   42.16   11.11
   7   0   5   44.98   12.31
   8   0   5   40.18   13.59
  -9   1   5    8.09   11.61
   8  -1  -5  161.74   19.94
  -8   1   5  192.01   21.05
   7  -1  -5  128.14   16.76
  -7   1   5  126.35   16.21
   6  -1  -5  245.20   18.56
  -6   1   5  197.04   18.40
   5  -1  -5  717.92   30.02
  -5   1   5  802.05   30.85
  -4   1   5  291.49   17.87
  -4   1   5  269.32   17.85
  -3   1   5  511.86   22.22
  -3   1   5  482.01   20.92
  -2   1   5  931.26   31.06
  -2   1   5  932.19   30.26
  -1   1   5  689.45   24.72
  -1   1   5  670.57   23.62
   0  -1  -5  418.42   12.28
   0   1   5  419.84   17.65
   0   1   5  474.10   18.94
  -1  -1  -5  736.03   20.43
   1   1   5  732.91   25.02
   1   1   5  726.30   25.21
  -2  -1  -5  292.07   13.41
   2   1   5  300.70   16.21
  -3  -1  -5  210.30   13.40
   3   1   5  189.19   14.03
   3   1   5  223.61   14.16
  -4  -1  -5  266.76   15.80
   4   1   5  286.17   15.64
   4   1   5  257.07   17.93
  -5  -1  -5  102.71   12.75
   5   1   5   92.57   13.59
  -6  -1  -5   66.55   11.41
   6   1   5   56.32   12.07
  -7  -1  -5   37.17   10.92
   7   1   5   30.89   11.96
  -9   2   5   -4.49   10.64
   8  -2  -5    1.50   10.09
  -8   2   5    7.40    9.99
   7  -2  -5   58.41   13.21
  -7   2   5   47.68   12.33
   6  -2  -5   49.98   11.41
  -6   2   5   67.32   11.96
   5  -2  -5   -2.12    6.45
  -5   2   5   -6.01    6.24
  -4   2   5  141.99   13.81
  -4   2   5  164.81   15.22
  -3   2   5  135.81   12.71
  -3   2   5  147.59   13.73
  -2   2   5   29.16    7.37
  -2   2   5   22.84    6.50
   1  -2  -5 1014.95   23.55
  -1   2   5 1006.20   33.01
  -1   2   5  955.23   30.61
   0  -2  -5  369.11   12.44
   0   2   5  367.16   17.68
   0   2   5  348.73   16.41
  -1  -2  -5  280.02   12.12
   1   2   5  300.61   15.55
   1   2   5  296.36   16.38
  -2  -2  -5  172.28   11.61
   2   2   5  172.70   13.91
   2   2   5  209.44   13.86
  -3  -2  -5  100.88   10.61
   3   2   5   88.77   11.21
   3   2   5  101.29   11.88
  -4  -2  -5    1.08    6.31
   4   2   5   -7.42    6.84
   4   2   5   -2.11    2.91
  -5  -2  -5   19.19    8.12
   5   2   5   29.40   10.12
  -6  -2  -5   26.14    9.53
   6   2   5    0.21    8.72
  -7  -2  -5    0.43    8.17
   7   2   5   -6.23    8.96
  -9   3   5   36.10   13.73
   8  -3  -5   66.00   14.92
  -8   3   5   81.85   15.11
   7  -3  -5   57.76   13.22
  -7   3   5   28.31   10.25
   6  -3  -5  128.44   15.64
  -6   3   5  135.60   15.92
   5  -3  -5  524.05   24.40
  -5   3   5  501.50   24.86
  -4   3   5  157.71   15.70
  -3   3   5  193.17   14.90
  -3   3   5  180.85   13.82
  -2   3   5  914.57   32.45
  -2   3   5  873.12   29.16
  -1   3   5  711.72   27.95
  -1   3   5  743.30   25.48
   0  -3  -5  772.78   22.15
   0   3   5  770.22   28.91
   0   3   5  788.79   26.23
  -1  -3  -5 1564.67   40.34
   1   3   5 1589.64   44.10
   1   3   5 1581.98   47.78
  -2  -3  -5  728.94   24.20
   2   3   5  678.31   27.97
   2   3   5  660.32   25.41
  -3  -3  -5   35.27    7.74
   3   3   5   27.26    8.32
   3   3   5   20.27    8.16
  -4  -3  -5  302.55   18.16
   4   3   5  339.23   19.82
   4   3   5  332.89   19.61
  -5  -3  -5   96.93   13.51
   5   3   5  114.99   13.91
  -6  -3  -5    7.53    9.05
   8  -4  -5   15.98   11.38
  -8   4   5   13.07   10.32
   7  -4  -5   59.69   13.21
  -7   4   5   62.19   13.32
   6  -4  -5   -6.69    7.29
  -6   4   5   18.52    9.71
   5  -4  -5  140.00   14.55
  -5   4   5  105.61   14.24
   4  -4  -5    1.71    5.88
  -4   4   5   -9.66    7.49
  -3   4   5  106.86   11.61
  -3   4   5   97.31   12.87
  -2   4   5  101.41   12.83
  -2   4   5  106.36   10.66
  -1   4   5   -2.39    4.85
  -1   4   5    1.31    6.88
   0  -4  -5  108.12    9.00
   0   4   5   94.30   12.96
   0   4   5  115.47   10.35
  -1  -4  -5    3.16    5.06
   1   4   5    1.52    7.99
  -2  -4  -5    6.29    5.41
   2   4   5   12.75    8.87
  -3  -4  -5    6.02    6.40
   3   4   5    8.52    8.33
  -4  -4  -5   -3.93    6.03
   4   4   5    1.85    7.85
  -5  -4  -5   13.63    8.68
   5   4   5   15.88    8.97
  -6  -4  -5    0.38    9.06
   8  -5  -5  376.16   27.46
  -8   5   5  286.82   23.55
   7  -5  -5  285.80   21.78
  -7   5   5  306.01   22.61
   6  -5  -5  229.17   17.88
  -6   5   5  196.31   19.93
  -5   5   5 1224.01   44.62
  -4   5   5  997.30   37.91
  -3   5   5  114.76   14.44
  -2   5   5  424.91   23.97
  -1   5   5 1378.99   46.33
   0   5   5   85.36   13.42
  -1  -5  -5  292.52   15.07
   1   5   5  255.91   18.50
  -2  -5  -5  301.14   17.10
   2   5   5  277.51   20.24
  -3  -5  -5    8.17    7.18
   3   5   5   22.40    9.96
  -4  -5  -5   21.88    8.84
   4   5   5   21.21   10.10
  -5  -5  -5   83.54   14.00
   5   5   5   98.36   15.24
  -8   6   5   10.71   11.68
  -7   6   5    3.57    9.88
  -6   6   5   27.68   10.83
  -5   6   5  151.29   17.49
  -4   6   5  100.86   14.98
  -3   6   5   56.59   11.67
  -2   6   5    7.07    9.45
  -1   6   5  114.17   15.62
   0   6   5    7.15    9.36
   1   6   5   83.64   14.31
   2   6   5   -8.11    7.77
  -3  -6  -5    3.69    7.31
   3   6   5   18.99   10.35
  -4  -6  -5    8.78    8.66
   4   6   5   12.32   10.52
  -7   7   5  215.52   23.15
  -6   7   5  194.77   21.55
  -5   7   5   61.61   14.01
  -4   7   5  253.87   22.94
  -3   7   5  138.41   17.89
  -2   7   5   30.59   11.61
  -1   7   5   84.33   15.09
   0   7   5  164.59   18.84
   1   7   5  192.51   20.59
   2   7   5  108.03   17.01
   3   7   5   45.74   13.54
  -6   8   5   34.66   13.52
  -5   8   5  126.80   18.96
  -4   8   5  111.42   17.35
  -3   8   5   16.56   11.46
  -2   8   5  136.03   18.55
  -1   8   5   96.50   16.86
   0   8   5    3.14    9.44
   1   8   5    0.75   10.57
  -3   9   5    3.75   10.82
  -2   9   5   48.76   13.91
   2  12  -6   25.79   10.07
   1  12  -6   16.24    8.81
  -1 -12   6   12.31    9.15
   0 -12   6   16.11    9.03
   1 -12   6  125.34   15.91
   2 -12   6   11.23    7.90
  -4  12  -6  103.97   13.84
  -5  12  -6    6.88    8.36
   3  11  -6   57.55   12.28
  -3 -11   6   32.88   10.87
   2  11  -6  170.53   17.44
  -2 -11   6  164.50   17.04
   1  11  -6  324.34   19.82
  -1 -11   6  338.37   20.42
   0 -11   6  323.36   20.23
   1 -11   6  141.66   15.86
   2 -11   6  413.79   23.15
  -4  11  -6  216.81   16.10
  -5  11  -6   36.59    9.96
  -6  11  -6  177.42   18.39
  -4 -10   6   11.94   12.24
  -4 -10   6    8.38    8.89
  -3 -10   6   -1.24    7.19
  -3 -10   6   -3.04    9.84
  -2 -10   6   -6.00    8.66
  -2 -10   6    7.69    7.49
  -1 -10   6    6.44    6.96
   0  10  -6   18.98    6.74
   0 -10   6   25.88    8.54
   1 -10   6   20.28    8.11
   2 -10   6   72.73   11.95
  -3  10  -6   41.35    9.03
  -4  10  -6   81.70   11.76
  -5  10  -6    4.82    7.43
  -6  10  -6   13.58    8.69
  -7  10  -6    6.25    8.88
  -5  -9   6   18.98    9.93
  -4  -9   6    7.93   10.66
  -4  -9   6   14.79    8.05
  -3  -9   6  166.18   19.25
  -3  -9   6  136.95   14.87
  -2  -9   6  452.42   25.20
  -2  -9   6  449.87   22.35
  -1  -9   6  101.89   12.59
  -1  -9   6   85.63   12.85
   0  -9   6  166.54   14.88
   1  -9   6  692.71   27.73
   2  -9   6  220.35   16.16
  -3   9  -6  286.45   16.40
  -4   9  -6  835.72   31.18
  -5   9  -6   84.93   12.44
  -6   9  -6   13.93    8.70
   6  -9   6   -4.54    7.87
  -7   9  -6  192.33   18.89
   7  -9   6  166.02   18.71
   8  -9   6  128.67   18.12
  -6  -8   6   30.28   10.79
  -5  -8   6    4.10    7.41
  -5  -8   6   11.49   10.74
  -4  -8   6   -1.33    6.92
  -4  -8   6    1.57    9.28
  -3  -8   6  110.89   12.88
  -3  -8   6  124.20   16.51
  -2  -8   6  241.57   18.37
  -2  -8   6  270.32   16.17
  -1  -8   6  105.18   13.06
  -1  -8   6   91.12   11.12
   0  -8   6  540.83   23.37
   0  -8   6  553.87   22.65
   0  -8   6  537.33   22.39
   1  -8   6    8.35    7.18
   1  -8   6   -3.72    5.51
   2  -8   6   60.19    9.34
   2  -8   6   39.92    8.84
  -3   8  -6  224.29   14.29
   3  -8   6  199.04   14.50
  -4   8  -6   46.36    8.89
   4  -8   6   51.58    9.68
  -5   8  -6   -6.73    6.43
   5  -8   6    2.34    6.90
  -6   8  -6   28.45    9.32
   6  -8   6   30.79   10.42
  -7   8  -6   52.23   12.11
   7  -8   6   40.64   11.84
   8  -8   6   61.60   14.23
  -6  -7   6   -3.15    7.70
  -6  -7   6   18.63   11.94
   5   7  -6   14.64    9.21
  -5  -7   6    2.08    7.17
  -5  -7   6    6.00    9.40
   4   7  -6   23.61    8.47
  -4  -7   6   10.05    7.31
  -4  -7   6    6.55    9.30
  -3  -7   6    0.22    6.01
  -3  -7   6   11.14    8.94
  -3  -7   6   18.28    8.01
  -2  -7   6  707.61   27.03
  -2  -7   6  707.09   25.43
  -2  -7   6  691.25   29.74
  -1  -7   6 1958.63   56.21
  -1  -7   6 2004.73   52.68
  -1  -7   6 1981.80   54.49
   0  -7   6  697.65   25.84
   0  -7   6  722.25   25.93
   0  -7   6  749.89   25.78
   1  -7   6  472.68   19.98
   1  -7   6  418.67   20.21
   1  -7   6  443.54   17.98
  -3   7  -6  726.31   26.12
   3  -7   6  757.27   28.50
  -4   7  -6  402.63   19.46
   4  -7   6  409.38   21.26
  -5   7  -6  375.58   19.70
   5  -7   6  359.06   20.69
  -6   7  -6  244.56   17.71
   6  -7   6  222.62   17.76
  -7   7  -6   51.14   12.36
   7  -7   6   67.15   13.35
  -8   7  -6   37.73   12.16
   8  -7   6   41.89   12.69
   7   6  -6    3.96   10.78
   6   6  -6   55.94   13.29
  -6  -6   6   37.50   10.19
  -6  -6   6   53.09   14.14
   5   6  -6   32.91    9.88
  -5  -6   6   35.06    8.90
  -5  -6   6   11.39    9.52
   4   6  -6   -2.57    6.19
  -4  -6   6    2.11    5.94
  -4  -6   6    5.94    7.74
  -3  -6   6  283.25   15.30
  -3  -6   6  273.58   18.06
  -3  -6   6  235.36   18.41
  -2  -6   6  229.91   13.25
  -2  -6   6  241.11   16.91
  -2  -6   6  250.00   16.10
  -1  -6   6  133.25   12.33
  -1  -6   6  113.17   10.52
  -1  -6   6  122.08   12.19
   0  -6   6  753.39   24.86
   0  -6   6  757.45   25.58
   0  -6   6  730.67   26.39
   1  -6   6 1230.03   35.45
   1  -6   6 1308.51   38.80
   1  -6   6 1231.40   34.14
  -2   6  -6   36.88    6.75
   2  -6   6   17.22    6.88
  -3   6  -6   36.86    7.37
   3  -6   6   25.42    7.89
  -4   6  -6  298.82   16.36
   4  -6   6  325.06   19.12
  -5   6  -6   -2.67    6.07
   5  -6   6    2.39    7.46
  -6   6  -6    7.08    7.82
   6  -6   6    7.72    8.45
  -7   6  -6   98.76   14.64
   7  -6   6   79.50   13.60
  -8   6  -6    3.05    9.69
   8  -6   6    2.49   10.05
   7   5  -6   23.61   12.10
  -7  -5   6    8.98   11.27
   6   5  -6   67.59   13.91
  -6  -5   6   49.17   13.15
   5   5  -6  337.44   20.96
  -5  -5   6  388.06   24.48
  -4  -5   6  248.30   14.14
  -4  -5   6  234.64   18.51
  -3  -5   6  125.71   11.02
  -3  -5   6  155.74   15.71
  -3  -5   6  161.39   15.13
  -2  -5   6 1236.29   39.11
  -2  -5   6 1231.18   40.44
  -2  -5   6 1295.03   34.58
  -1  -5   6 1279.24   34.89
  -1  -5   6 1355.66   40.17
   0  -5   6  327.63   16.37
   0  -5   6  294.57   14.87
   0  -5   6  278.03   13.28
  -1   5  -6 1218.67   32.26
   1  -5   6 1213.99   32.34
   1  -5   6 1188.28   36.93
  -2   5  -6  428.94   16.28
   2  -5   6  400.26   18.94
  -3   5  -6  344.60   16.34
   3  -5   6  348.48   18.59
  -4   5  -6  528.31   21.56
   4  -5   6  508.88   23.85
  -5   5  -6   67.28   10.59
   5  -5   6   79.72   12.26
  -6   5  -6    8.83    8.44
   6  -5   6   11.54    7.96
  -7   5  -6   54.45   11.29
   7  -5   6   81.55   14.03
  -8   5  -6   81.42   14.12
   8  -5   6  115.05   17.32
   7   4  -6   38.82   13.18
  -7  -4   6   24.15   11.54
   6   4  -6  100.83   15.35
  -6  -4   6   93.39   15.54
   5   4  -6  270.57   18.91
  -5  -4   6  231.19   19.17
  -5  -4   6  290.49   15.56
  -4  -4   6   58.30   11.51
  -4  -4   6   70.74    8.82
  -4  -4   6   68.42   11.82
  -3  -4   6  185.56   11.05
  -3  -4   6  184.95   15.40
  -3  -4   6  148.96   15.24
  -2  -4   6  294.02   16.62
  -2  -4   6  298.78   12.71
  -2  -4   6  308.33   17.64
  -1  -4   6  128.33    8.68
  -1  -4   6   96.61   10.06
  -1  -4   6  123.37   11.66
   0  -4   6  353.96   17.46
   0  -4   6  340.54   15.31
   0  -4   6  365.22   13.63
  -1   4  -6   85.57    7.48
   1  -4   6   81.81    7.10
   1  -4   6   78.14    9.56
  -2   4  -6   12.42    5.01
   2  -4   6    8.38    5.97
  -3   4  -6  326.45   15.80
   3  -4   6  320.58   18.67
  -4   4  -6  263.72   14.99
   4  -4   6  214.50   16.78
  -5   4  -6   46.99    9.33
   5  -4   6   34.89    9.83
  -6   4  -6   19.30    8.94
   6  -4   6    2.08    7.71
  -7   4  -6  -21.63    7.19
   7  -4   6   -3.44    8.72
  -8   4  -6    1.65    8.57
   8  -4   6    5.00   10.31
   8   3  -6  112.55   17.93
   7   3  -6   77.22   15.38
  -7  -3   6   82.13   15.08
   5   3  -6  184.71   17.84
  -5  -3   6  180.10   18.43
  -4  -3   6  738.28   23.65
  -4  -3   6  797.02   32.21
  -4  -3   6  758.10   30.19
  -3  -3   6    0.98    6.81
  -3  -3   6   11.26    4.62
  -3  -3   6    8.64    6.75
  -2  -3   6   55.69    9.40
  -2  -3   6   54.35    5.59
  -2  -3   6   26.39    7.03
  -1  -3   6  913.36   23.53
  -1  -3   6  889.61   29.06
  -1  -3   6  939.68   30.78
   0   3  -6  318.87   10.97
   0  -3   6  322.86   16.70
   0  -3   6  318.34   14.04
  -1   3  -6   81.96    6.95
   1  -3   6   76.96    6.86
   1  -3   6   63.35    9.30
  -2   3  -6 1219.36   32.76
   2  -3   6 1199.53   38.26
   2  -3   6 1222.77   30.90
  -3   3  -6  737.68   24.88
   3  -3   6  742.53   28.99
  -4   3  -6  103.32   11.58
   4  -3   6  122.87   13.92
  -5   3  -6  335.26   18.62
   5  -3   6  348.82   21.55
  -6   3  -6   70.49   11.72
   6  -3   6   78.05   12.59
  -7   3  -6   -0.04    8.34
   7  -3   6   -1.55    8.51
  -8   3  -6   27.92   11.25
   8  -3   6   47.45   13.39
   8   2  -6   42.70   14.28
  -8  -2   6   37.19   13.28
   7   2  -6  124.93   17.62
  -7  -2   6   72.36   13.96
   6   2  -6  114.43   15.32
  -6  -2   6  142.77   17.12
   5   2  -6  184.76   17.35
  -5  -2   6  148.75   16.71
  -4  -2   6  233.87   17.62
  -4  -2   6  263.73   17.94
  -3  -2   6  699.88   28.06
  -3  -2   6  719.53   28.33
  -2  -2   6  874.71   30.43
  -2  -2   6  831.93   20.80
  -2  -2   6  826.70   28.99
   1   2  -6  297.44    8.91
  -1  -2   6  321.51   16.47
  -1  -2   6  307.06   15.20
   0   2  -6  650.38   16.94
   0  -2   6  606.17   23.75
   0  -2   6  652.55   21.82
  -1   2  -6  501.84   16.10
   1  -2   6  494.02   21.27
   1  -2   6  534.00   17.77
  -2   2  -6   24.92    5.72
   2  -2   6   29.44    5.46
   2  -2   6   26.14    7.13
  -3   2  -6  106.68   10.31
   3  -2   6   95.75   11.89
  -4   2  -6 1047.64   33.00
   4  -2   6 1057.26   37.79
  -5   2  -6  255.59   16.66
   5  -2   6  280.47   19.14
  -6   2  -6   11.78    8.39
   6  -2   6    5.40    8.72
  -7   2  -6   42.56   10.83
   7  -2   6   26.42   11.06
  -8   2  -6   29.24   11.54
   8   1  -6   76.45   16.13
  -8  -1   6   91.11   16.88
   7   1  -6  327.82   23.44
  -7  -1   6  333.77   23.60
   6   1  -6   24.86    9.38
  -6  -1   6   15.05    9.37
   5   1  -6   69.14   11.22
  -5  -1   6   35.51   10.09
  -4  -1   6  324.25   19.83
  -4  -1   6  346.88   20.55
  -3  -1   6  618.86   25.62
  -3  -1   6  649.31   26.17
  -2  -1   6   45.58    8.21
  -2  -1   6   31.63    7.61
  -1  -1   6  901.20   30.05
  -1  -1   6  845.09   28.52
   0   1  -6 1041.09   23.93
   0  -1   6 1029.32   33.42
  -1   1  -6   39.23    5.11
   1  -1   6   49.62    8.21
   1  -1   6   40.31    6.84
  -2   1  -6 1151.69   30.97
   2  -1   6 1184.54   33.08
   2  -1   6 1121.91   37.05
  -3   1  -6 1066.38   31.35
   3  -1   6 1121.18   31.59
   3  -1   6 1049.88   36.68
  -4   1  -6   67.29    9.71
   4  -1   6   49.70   10.94
  -5   1  -6   -2.40    6.13
   5  -1   6   -0.19    7.90
  -6   1  -6    8.26    8.13
   6  -1   6   10.13    9.03
  -7   1  -6   10.43    8.45
   7  -1   6   10.61    9.88
   8   0  -6  135.91   19.89
  -8   0   6  173.22   20.90
   7   0  -6  389.69   25.47
  -7   0   6  402.80   25.49
   6   0  -6  260.34   19.03
  -6   0   6  259.24   18.69
   5   0  -6 1034.55   38.01
  -5   0   6 1038.56   38.51
  -4   0   6  717.26   29.78
  -4   0   6  760.01   29.99
  -3   0   6  153.68   14.15
  -3   0   6  135.54   13.90
  -2   0   6  671.38   25.41
  -2   0   6  577.56   24.01
  -1   0   6 1339.13   38.82
  -1   0   6 1243.02   38.85
   0   0  -6   38.64    3.62
   0   0   6   30.01    7.12
   0   0   6   19.73    7.41
  -1   0  -6  490.28   15.24
   1   0   6  455.62   18.79
   1   0   6  498.96   21.23
  -2   0  -6  461.36   16.84
   2   0   6  474.77   18.92
   2   0   6  465.92   21.13
  -3   0  -6   32.22    7.23
   3   0   6   24.85    8.51
   3   0   6   29.32    7.19
  -4   0  -6  195.10   14.36
   4   0   6  187.02   17.36
  -5   0  -6  358.60   19.49
   5   0   6  355.79   21.58
  -6   0  -6   18.20    8.51
   6   0   6   15.48    9.83
  -7   0  -6   28.01   10.38
   7   0   6   12.17   10.88
   8  -1  -6   29.95   12.49
  -8   1   6    9.82   10.56
   7  -1  -6   70.98   13.91
  -7   1   6   61.73   13.17
   6  -1  -6    9.24    7.46
  -6   1   6    1.30    8.02
   5  -1  -6    2.79    6.97
  -5   1   6   28.50    8.99
  -4   1   6  256.76   18.49
  -4   1   6  272.86   17.75
  -3   1   6    0.80    6.51
  -3   1   6    8.41    6.97
  -2   1   6   19.73    7.12
  -2   1   6   28.11    8.36
  -1   1   6  840.46   29.87
  -1   1   6  856.68   29.33
   0   1   6  166.07   12.47
   0   1   6  190.60   13.77
  -1  -1  -6  140.04    8.65
   1   1   6  148.10   12.34
   1   1   6  124.61   12.12
  -2  -1  -6  117.59    9.77
   2   1   6  105.13   11.64
  -3  -1  -6  135.09   11.96
   3   1   6  146.12   13.39
   3   1   6  143.79   14.77
  -4  -1  -6   -6.56    6.37
   4   1   6   -0.92    7.51
  -5  -1  -6   32.09    9.36
   5   1   6   28.53   10.27
  -6  -1  -6   15.28    9.05
   6   1   6   24.27   10.57
  -7  -1  -6  -17.69    7.70
   7   1   6    9.61   10.97
   8  -2  -6   39.96   13.71
  -8   2   6   31.87   11.69
   7  -2  -6  385.65   24.86
  -7   2   6  397.57   25.35
   6  -2  -6  268.23   19.48
  -6   2   6  255.74   19.61
   5  -2  -6   21.60    8.58
  -5   2   6   27.28    9.95
  -4   2   6  684.33   28.66
  -4   2   6  726.45   30.22
  -3   2   6  590.55   26.08
  -3   2   6  570.89   24.75
  -2   2   6  109.16   12.45
  -2   2   6  110.44   12.09
  -1   2   6  258.35   15.33
  -1   2   6  247.42   16.39
   0   2   6  348.59   17.47
   0   2   6  345.32   19.14
  -1  -2  -6  124.90    9.18
   1   2   6  101.84   12.11
   1   2   6  138.12   12.68
  -2  -2  -6   59.69    8.09
   2   2   6   49.03    9.99
   2   2   6   45.37    8.96
  -3  -2  -6  235.03   14.17
   3   2   6  209.97   16.12
   3   2   6  213.60   15.71
  -4  -2  -6   97.63   11.79
   4   2   6   74.20   10.79
   4   2   6   90.97   13.17
  -5  -2  -6   74.19   12.16
   5   2   6   87.95   13.94
  -6  -2  -6   79.82   13.23
   6   2   6   36.70   12.31
   8  -3  -6   23.24   12.07
  -8   3   6   15.89   11.79
   7  -3  -6   40.14   12.38
  -7   3   6   56.04   12.60
   6  -3  -6   63.63   11.91
  -6   3   6   62.71   12.88
   5  -3  -6   98.34   13.18
  -5   3   6   85.27   13.18
  -4   3   6   53.79   10.40
  -4   3   6   51.23   10.79
  -3   3   6  518.72   25.66
  -3   3   6  545.96   23.79
  -2   3   6  320.66   20.42
  -2   3   6  353.96   18.38
  -1   3   6   10.27    6.38
  -1   3   6   15.90    8.10
   0   3   6  513.44   21.79
   0   3   6  578.17   25.04
   1   3   6   -3.30    7.58
   1   3   6   -3.59    5.89
  -2  -3  -6   10.76    6.00
   2   3   6    5.24    7.89
   2   3   6    2.75    6.61
  -3  -3  -6  269.08   15.66
   3   3   6  262.83   18.43
   3   3   6  228.56   17.21
  -4  -3  -6  121.94   13.83
   4   3   6  120.49   14.65
  -5  -3  -6   24.49    9.62
  -6  -3  -6   10.78    9.64
   8  -4  -6  138.38   19.79
  -8   4   6  147.75   19.67
   7  -4  -6  121.80   16.95
  -7   4   6   94.65   16.09
   6  -4  -6   46.29   11.02
  -6   4   6   59.17   13.48
   5  -4  -6  358.60   20.73
  -5   4   6  351.16   22.30
  -4   4   6  707.74   28.79
  -4   4   6  689.93   31.32
  -3   4   6  333.24   19.26
  -3   4   6  369.09   21.71
  -2   4   6  427.73   20.70
  -2   4   6  435.26   23.57
  -1   4   6  812.39   33.11
   0   4   6  136.32   15.89
   1   4   6  133.91   15.33
   2   4   6  203.63   18.97
   3   4   6   30.77   11.11
  -4  -4  -6   21.13    8.51
   4   4   6   34.24   11.03
  -5  -4  -6  115.30   15.05
  -7   5   6   53.42   13.92
  -6   5   6   14.23    9.50
  -5   5   6   47.17   12.43
  -4   5   6   23.16   10.52
  -3   5   6   12.46    8.49
  -2   5   6   -5.74    7.68
  -1   5   6   30.61   10.58
   0   5   6   12.48    9.43
   1   5   6   12.33    9.42
   2   5   6   16.22   10.17
   3   5   6   -1.18    8.92
   4   5   6  -13.30    8.28
  -7   6   6  363.86   26.67
  -6   6   6  397.25   26.68
  -5   6   6   19.94   10.80
  -4   6   6  385.00   24.20
  -3   6   6 1205.25   46.46
  -2   6   6  181.08   19.85
  -1   6   6   22.13   10.31
   0   6   6  156.17   18.02
   1   6   6    9.10    9.75
   2   6   6   18.13   10.16
   3   6   6   92.20   16.44
  -6   7   6   17.22   12.33
  -5   7   6   25.97   11.34
  -4   7   6   18.98   10.69
  -3   7   6   86.61   15.71
  -2   7   6   37.47   13.05
  -1   7   6  202.41   21.85
   0   7   6   -2.05    9.31
   1   7   6   -4.42    9.98
   2   7   6   26.42   12.95
  -3   8   6   88.96   17.05
  -2   8   6  152.14   21.03
  -1   8   6   59.40   15.66
   2  12  -7  124.24   16.32
  -1 -12   7  206.16   19.92
   0 -12   7   91.14   14.61
   1 -12   7  187.91   19.00
   2 -12   7  360.94   23.01
  -3  12  -7  327.59   20.18
  -4  12  -7  245.31   18.61
  -3 -11   7   19.45   10.09
  -3 -11   7   16.10   12.21
  -2 -11   7   15.62    8.93
  -1 -11   7   88.67   13.69
   0 -11   7   44.98   10.59
   1 -11   7   24.50    9.84
   2 -11   7  155.27   16.67
  -3  11  -7   11.62    7.38
  -4  11  -7    0.96    6.79
  -5  11  -7   26.67    9.17
  -4 -10   7  155.52   21.14
  -4 -10   7  181.82   18.28
  -3 -10   7   91.09   16.17
  -3 -10   7   86.13   13.12
  -2 -10   7  249.93   18.09
  -2 -10   7  232.30   21.57
  -1 -10   7  184.71   17.22
  -1 -10   7  205.81   18.71
   0 -10   7  118.20   13.70
   1 -10   7  590.10   26.87
   2 -10   7  207.87   18.05
  -3  10  -7  142.10   14.29
  -4  10  -7  441.02   22.83
  -5  10  -7  109.64   14.21
  -6  10  -7   11.90    8.83
  -5  -9   7   -1.02    8.42
  -4  -9   7    5.39   11.13
  -4  -9   7   18.15    9.25
  -3  -9   7   57.97   10.67
  -3  -9   7   52.88   13.10
  -2  -9   7   53.44   11.94
  -2  -9   7   57.79   10.49
  -1  -9   7   -2.87    6.13
  -1  -9   7   -0.17    6.32
   0  -9   7   16.71    7.85
   1  -9   7   27.36    8.11
  -3   9  -7    2.61    6.05
  -4   9  -7   -5.49    5.56
   4  -9   7   -0.35    3.41
  -5   9  -7   12.09    7.66
   5  -9   7    4.03    7.83
  -6   9  -7   14.89    8.16
   6  -9   7    3.88    8.84
  -7   9  -7   -2.75    9.03
   7  -9   7    8.31    9.71
  -5  -8   7  287.78   19.92
  -5  -8   7  327.19   25.52
  -4  -8   7  454.40   27.82
  -4  -8   7  457.09   22.75
  -3  -8   7   71.55   10.50
  -3  -8   7   58.11   12.38
  -2  -8   7   62.40   11.87
  -2  -8   7   59.46   10.03
  -1  -8   7   25.15    7.68
  -1  -8   7   32.91    8.76
   1  -8   7  610.78   24.89
   1  -8   7  631.69   25.47
  -2   8  -7 1507.37   43.04
  -3   8  -7  546.78   23.13
   3  -8   7  570.16   25.28
  -4   8  -7  175.15   13.48
   4  -8   7  176.57   17.00
  -5   8  -7  523.24   25.20
   5  -8   7  637.93   28.51
  -6   8  -7  211.05   19.00
   6  -8   7  195.44   19.32
  -7   8  -7   47.62   12.31
   7  -8   7   43.62   12.05
  -6  -7   7  -14.13   10.38
   5   7  -7    7.87    8.38
  -5  -7   7   -1.65    9.38
   4   7  -7   89.26   13.40
  -4  -7   7   91.46   14.73
  -4  -7   7   80.00   11.04
  -3  -7   7  225.72   18.52
  -3  -7   7  211.72   17.28
  -3  -7   7  214.65   14.66
  -2  -7   7  214.83   16.08
  -2  -7   7  212.02   13.57
  -2  -7   7  207.58   16.67
  -1  -7   7   -7.29    5.19
  -1  -7   7    0.18    5.35
  -1  -7   7   -0.25    3.62
   0  -7   7   79.41   10.13
   0  -7   7   80.62   10.33
   0  -7   7   89.65   11.21
   1  -7   7   94.86   10.91
   1  -7   7  116.05   12.85
  -2   7  -7   69.27    9.00
   2  -7   7   84.25   11.58
  -3   7  -7   23.91    7.30
   3  -7   7   10.67    7.56
  -4   7  -7  309.38   16.86
   4  -7   7  285.01   18.92
  -5   7  -7   87.86   12.29
   5  -7   7   95.91   14.05
  -6   7  -7   11.56    8.96
   6  -7   7   27.88   10.53
  -7   7  -7    8.65    9.91
   7  -7   7    2.47    8.86
   7   6  -7   92.16   17.73
   6   6  -7   63.11   13.55
  -6  -6   7   66.53   15.13
   5   6  -7   83.72   13.66
  -5  -6   7   62.34   14.28
  -4  -6   7  461.77   25.06
  -4  -6   7  492.40   21.16
  -4  -6   7  419.13   24.86
  -3  -6   7  466.98   25.69
  -3  -6   7  485.54   20.49
  -3  -6   7  520.33   24.90
  -2  -6   7  276.26   18.03
  -2  -6   7  252.46   14.12
  -2  -6   7  244.86   17.98
  -1  -6   7 1130.52   37.42
  -1  -6   7 1093.06   32.57
   0  -6   7  751.35   28.29
   0  -6   7  774.64   26.16
   0  -6   7  712.31   24.62
  -1   6  -7  246.26   12.46
   1  -6   7  252.59   16.92
  -2   6  -7 1623.53   44.15
   2  -6   7 1741.68   50.68
  -3   6  -7 1189.67   36.56
   3  -6   7 1321.69   42.04
  -4   6  -7  113.74   11.98
   4  -6   7  137.34   15.25
  -5   6  -7   18.79    8.95
   5  -6   7    2.23    7.09
  -6   6  -7    1.36    8.68
   6  -6   7   10.70    9.16
  -7   6  -7  -12.82    8.31
   7  -6   7   -5.36    8.18
   7   5  -7   50.99   14.30
   6   5  -7   11.84    8.64
  -6  -5   7   17.41    9.98
   5   5  -7  189.78   19.36
  -5  -5   7  204.34   20.72
  -4  -5   7  138.42   15.32
  -4  -5   7  101.00   14.69
  -3  -5   7   11.15    5.57
  -3  -5   7   13.80    8.05
  -3  -5   7   10.85    7.65
  -2  -5   7  404.56   16.27
  -2  -5   7  387.44   21.10
  -2  -5   7  369.64   20.62
  -1  -5   7  330.47   18.51
  -1  -5   7  292.89   13.70
   0  -5   7  138.05   11.67
   0  -5   7  168.12   10.78
   0  -5   7  181.51   14.01
  -1   5  -7   84.28    8.12
   1  -5   7   75.28   11.04
  -2   5  -7  358.26   15.50
   2  -5   7  357.16   19.76
  -3   5  -7   47.81    8.39
   3  -5   7   67.72   11.29
  -4   5  -7   69.72   10.64
   4  -5   7   65.64   11.66
  -5   5  -7  175.32   16.00
   5  -5   7  210.19   19.30
  -6   5  -7    5.52    8.57
   6  -5   7   -4.17    8.13
  -7   5  -7   15.74    9.05
   7  -5   7    7.06    9.83
   7   4  -7   31.41   12.91
  -7  -4   7   56.87   13.33
   6   4  -7   84.46   14.32
  -6  -4   7   74.61   14.21
   5   4  -7  381.40   22.41
  -5  -4   7  359.17   23.20
  -4  -4   7  818.51   34.63
  -4  -4   7  838.02   34.10
  -3  -4   7   86.90   12.32
  -3  -4   7  108.86   14.01
  -2  -4   7  104.21   12.82
  -2  -4   7  110.55   12.38
  -1  -4   7  652.36   19.63
  -1  -4   7  618.18   25.93
   0   4  -7  116.80    7.34
   0  -4   7  131.41   10.92
   0  -4   7  123.80   12.58
  -1   4  -7   16.01    4.86
   1  -4   7    5.96    6.62
   1  -4   7    8.66    4.90
  -2   4  -7  468.85   17.40
   2  -4   7  427.49   21.70
  -3   4  -7   79.90   10.10
   3  -4   7   81.56   11.87
  -4   4  -7   23.16    8.25
   4  -4   7   19.45    8.93
  -5   4  -7  342.98   19.26
   5  -4   7  348.86   21.62
  -6   4  -7   55.35   10.62
   6  -4   7   45.72   11.46
  -7   4  -7    8.20    9.44
   7  -4   7    4.32    8.70
   7   3  -7  114.59   17.23
  -7  -3   7  116.23   17.67
   6   3  -7    6.67    8.77
  -6  -3   7   -4.00    7.39
  -5  -3   7    1.50    7.51
  -4  -3   7  522.34   26.19
  -4  -3   7  462.94   24.10
  -3  -3   7  202.08   15.64
  -3  -3   7  203.77   17.67
  -2  -3   7    3.27    6.24
  -2  -3   7    8.09    6.56
  -1  -3   7  266.83   16.77
  -1  -3   7  292.76   15.21
   0   3  -7  397.09   12.94
   0  -3   7  388.11   16.99
   0  -3   7  381.48   19.25
  -1   3  -7    6.50    4.44
   1  -3   7   -7.79    4.86
   1  -3   7   -3.62    4.61
  -2   3  -7   24.28    6.48
   2  -3   7   45.20    9.42
  -3   3  -7  196.83   13.64
   3  -3   7  217.58   16.76
  -4   3  -7   33.75    8.76
   4  -3   7   21.54    9.17
  -5   3  -7   30.84    8.89
   5  -3   7   21.10    9.17
  -6   3  -7   56.89   11.54
   6  -3   7   27.52   10.07
  -7   3  -7    0.86    8.48
   7  -3   7   -3.71    8.99
   7   2  -7   35.08   11.70
  -7  -2   7   52.25   13.29
   6   2  -7   77.21   13.92
  -6  -2   7   78.91   13.76
  -5  -2   7    9.14    8.90
  -5  -2   7    2.66    8.58
  -4  -2   7  709.58   29.98
  -4  -2   7  633.09   28.47
  -3  -2   7  858.95   32.41
  -3  -2   7  847.35   32.29
  -2  -2   7   17.30    6.66
  -2  -2   7    5.38    6.61
  -1  -2   7  520.39   23.03
  -1  -2   7  463.68   20.69
   0  -2   7 1723.58   47.36
   0  -2   7 1788.94   51.54
  -1   2  -7  101.46    7.93
   1  -2   7  114.40    9.78
   1  -2   7   85.39   11.65
   2  -2   7  175.62   14.35
  -3   2  -7  399.40   17.72
   3  -2   7  367.62   21.30
  -4   2  -7   75.63   10.48
   4  -2   7   95.84   13.22
  -5   2  -7   10.60    7.65
   5  -2   7   -1.69    7.82
  -6   2  -7  175.47   16.69
   6  -2   7  172.68   18.69
  -7   2  -7   17.39   10.40
   7  -2   7   -2.66    9.64
   7   1  -7   54.30   13.07
  -7  -1   7   29.86   11.50
   6   1  -7   69.25   12.99
  -6  -1   7   85.20   14.03
  -5  -1   7   39.31   10.20
  -5  -1   7   23.53    9.49
  -4  -1   7  727.49   30.99
  -4  -1   7  740.05   30.36
  -3  -1   7  900.01   33.28
  -3  -1   7  876.07   33.02
  -2  -1   7  816.96   30.15
  -2  -1   7  807.97   30.60
  -1  -1   7  736.10   27.04
  -1  -1   7  712.07   27.91
   0  -1   7  124.53   12.79
   1  -1   7  353.76   18.57
   1  -1   7  337.34   16.55
  -2   1  -7  670.57   21.58
   2  -1   7  713.08   28.45
   2  -1   7  645.54   23.54
  -3   1  -7    3.51    6.06
   3  -1   7    2.63    7.33
  -4   1  -7   66.74   10.61
   4  -1   7   82.80   13.17
  -5   1  -7   38.94    9.64
   5  -1   7   37.29   10.93
  -6   1  -7   28.13   10.35
   6  -1   7   39.78   11.76
  -7   1  -7    7.39    9.28
   7  -1   7   -3.45    9.79
  -8   0   7    4.14   10.91
   7   0  -7   11.63    9.29
  -7   0   7   25.85   10.36
   6   0  -7  128.33   16.56
  -6   0   7  125.39   16.57
  -5   0   7  810.75   33.31
  -5   0   7  748.53   32.37
  -4   0   7  850.48   33.96
  -4   0   7  862.42   34.14
  -3   0   7  387.29   21.20
  -3   0   7  455.76   22.25
  -2   0   7  107.94   12.66
  -2   0   7   95.36   12.56
  -1   0   7   30.39    8.27
  -1   0   7   10.64    6.56
   0   0   7   32.07    8.23
   0   0   7   12.23    6.90
   1   0   7   51.53    7.94
   1   0   7   48.53    9.73
  -2   0  -7   19.91    5.97
   2   0   7   48.07   10.13
   2   0   7   21.79    7.41
  -3   0  -7    7.91    6.09
   3   0   7   -1.28    6.83
  -4   0  -7    6.11    6.41
   4   0   7   16.89    9.05
  -5   0  -7   54.79   10.42
   5   0   7   47.85   11.76
  -6   0  -7  104.75   14.36
   6   0   7  121.04   17.21
  -7   0  -7   45.40   12.85
   7   0   7   32.48   12.87
   7  -1  -7  359.25   25.11
  -7   1   7  397.11   25.27
   6  -1  -7  215.77   20.49
  -6   1   7  213.92   17.94
  -5   1   7   65.34   12.49
  -5   1   7   73.66   12.84
  -4   1   7  459.11   24.26
  -4   1   7  533.41   25.74
  -3   1   7 1792.64   55.40
  -3   1   7 1897.23   55.50
  -2   1   7   93.40   12.64
  -2   1   7  142.06   14.66
  -1   1   7  201.93   15.07
  -1   1   7  176.01   13.86
   0   1   7  155.58   14.27
   0   1   7  142.69   13.83
   1   1   7  236.42   16.26
   1   1   7  228.60   15.92
   2   1   7    8.41    7.08
   2   1   7    3.21    4.13
  -3  -1  -7  381.58   17.99
   3   1   7  383.18   21.95
   3   1   7  414.63   20.73
  -4  -1  -7    0.62    6.71
   4   1   7   -9.06    7.27
  -5  -1  -7    1.21    7.57
   5   1   7   -1.59    8.09
  -6  -1  -7   86.53   13.84
   6   1   7   86.15   15.19
   7  -2  -7    7.35    9.38
  -7   2   7   12.46   10.13
   6  -2  -7   38.38   10.66
  -6   2   7   25.03   10.26
  -5   2   7   30.31   10.18
  -4   2   7  100.97   14.15
  -4   2   7   79.75   12.22
  -3   2   7  317.21   19.84
  -3   2   7  311.90   19.41
  -2   2   7   80.47   12.87
  -2   2   7   72.26   11.00
  -1   2   7  157.83   14.67
  -1   2   7  152.10   15.17
   0   2   7  200.34   17.45
   0   2   7  183.80   14.26
   1   2   7    9.54    8.07
   1   2   7    9.16    7.62
   2   2   7   -3.68    6.44
   2   2   7   -3.44    6.93
   3   2   7  108.82   12.88
   4   2   7  103.83   14.65
  -5  -2  -7    0.84    7.97
   5   2   7    6.41    9.80
  -6  -2  -7   19.63   10.22
   7  -3  -7   53.14   12.92
  -7   3   7   42.20   12.08
   6  -3  -7  191.23   19.49
  -6   3   7  151.35   18.28
  -5   3   7   24.39    9.98
  -4   3   7   76.71   12.79
  -4   3   7   83.72   13.37
  -3   3   7  491.67   23.89
  -3   3   7  467.94   24.91
  -2   3   7  335.18   19.13
  -2   3   7  286.22   19.29
  -1   3   7  137.72   13.69
  -1   3   7  132.56   15.21
   0   3   7  231.32   18.44
   0   3   7  279.03   17.07
   1   3   7   88.83   13.59
   1   3   7   77.90   11.68
   2   3   7  102.56   14.03
   3   3   7   99.80   14.32
   7  -4  -7   16.37   10.66
  -7   4   7   -5.72    9.82
   6  -4  -7   14.06    9.05
  -6   4   7    8.46   10.16
   5  -4  -7   58.19   11.55
  -5   4   7   51.43   12.53
  -4   4   7    2.39    9.03
  -4   4   7    3.76    7.55
  -3   4   7   32.81   10.05
  -2   4   7   57.21   12.45
  -1   4   7   41.89   10.71
   0   4   7   40.90   11.55
   1   4   7  190.96   19.32
   2   4   7   -2.19    8.42
   3   4   7    1.50    9.64
  -6   5   7  328.08   24.72
  -5   5   7   75.15   14.94
  -4   5   7  177.90   20.06
  -3   5   7  383.10   24.61
  -2   5   7   55.35   12.35
  -1   5   7   14.66   10.91
   0   5   7  166.53   19.05
   1   5   7   21.43   10.70
   2   5   7   -4.91    8.45
   3   5   7  104.98   16.89
  -5   6   7   15.85   11.00
  -4   6   7   -4.05    9.67
  -3   6   7   26.28   12.02
  -2   6   7    2.58    9.36
  -1   6   7   14.26   10.58
   0   6   7   12.60   11.06
   1   6   7   -9.25    9.40
   2   6   7   10.41   11.75
  -3   7   7  138.03   20.46
  -2   7   7  181.31   21.56
  -1   7   7   15.37   12.40
  -1 -12   8   48.61   11.83
   0 -12   8  121.11   16.10
   1 -12   8   88.53   14.41
   2 -12   8   74.14   13.87
  -3  12  -8   81.73   13.17
  -4  12  -8   21.99    9.64
  -3 -11   8   88.12   14.73
  -3 -11   8  106.93   18.04
  -2 -11   8  109.33   15.39
  -1 -11   8  419.93   23.30
   0 -11   8  340.94   21.60
   1 -11   8  117.68   15.20
  -3  11  -8  158.33   16.10
  -4  11  -8   85.46   13.07
  -5  11  -8   73.75   13.23
  -3 -10   8   53.30   13.77
  -3 -10   8   62.81   11.96
  -2 -10   8    6.25    7.78
  -2 -10   8   -4.06    9.80
  -1 -10   8    6.95    7.48
   0 -10   8  173.09   16.62
   1 -10   8   29.61    8.94
  -2  10  -8   58.54    9.79
  -3  10  -8   97.99   12.50
  -4  10  -8    6.53    6.98
  -5  10  -8    4.42    7.27
  -6  10  -8   45.53   11.33
  -4  -9   8  117.98   18.43
  -3  -9   8   85.67   12.77
  -3  -9   8  106.18   16.12
  -2  -9   8  159.87   17.54
  -2  -9   8  175.94   15.77
  -1  -9   8  257.48   16.85
   0  -9   8  113.18   13.23
   1  -9   8  243.83   16.56
  -2   9  -8  208.32   14.23
   2  -9   8  191.42   15.80
  -3   9  -8   35.27    8.62
   3  -9   8   29.30    9.12
  -4   9  -8   51.76   10.26
   4  -9   8   55.90   11.41
  -5   9  -8  356.63   21.11
   5  -9   8  351.99   22.62
  -6   9  -8   48.01   11.76
   6  -9   8   39.14   11.37
   7  -9   8    0.68    9.38
  -5  -8   8    8.49   10.24
  -4  -8   8   31.41   12.03
  -3  -8   8   55.57   12.95
  -3  -8   8   34.79   10.68
  -2  -8   8  118.64   15.06
  -2  -8   8   94.54   12.49
  -1  -8   8    8.87    7.42
  -1  -8   8    4.53    5.34
  -1  -8   8    8.85    6.12
   0  -8   8   97.36   11.63
   0  -8   8   98.50   12.47
   1  -8   8   80.94   11.75
   1  -8   8   69.50   10.27
  -2   8  -8   97.85   11.09
   2  -8   8   85.65   12.57
  -3   8  -8   28.45    7.77
   3  -8   8   14.12    8.15
  -4   8  -8  117.08   13.44
   4  -8   8  125.11   15.23
  -5   8  -8   15.21    7.63
   5  -8   8   12.48    9.27
  -6   8  -8   17.79    9.64
   6  -8   8   17.60   10.14
  -7   8  -8    6.67   10.26
   7  -8   8   16.60   11.07
   6   7  -8   86.05   15.93
   5   7  -8   33.06   10.91
  -5  -7   8   52.05   13.91
  -4  -7   8  286.13   22.12
  -4  -7   8  285.19   21.36
  -3  -7   8  382.40   23.01
  -3  -7   8  433.48   24.62
  -2  -7   8  174.33   16.88
  -2  -7   8  169.03   13.31
  -2  -7   8  195.57   17.56
  -1  -7   8  837.87   32.58
  -1  -7   8  825.60   31.04
  -1  -7   8  818.29   27.88
   0  -7   8 1697.57   45.90
   0  -7   8 1638.99   50.95
  -1   7  -8  182.10   12.39
   1  -7   8  193.02   17.82
  -2   7  -8    5.28    5.54
   2  -7   8    5.30    7.33
  -3   7  -8   70.87    9.93
   3  -7   8   53.48   11.00
  -4   7  -8   16.43    7.02
   4  -7   8   -0.73    7.29
  -5   7  -8  110.80   13.64
   5  -7   8   91.51   14.03
  -6   7  -8  411.40   23.03
   6  -7   8  490.17   27.38
  -7   7  -8   72.52   14.08
   7  -7   8   98.78   15.68
   6   6  -8   64.52   13.54
  -6  -6   8   40.84   13.85
   5   6  -8   10.55    8.54
  -5  -6   8   -1.53    9.60
  -4  -6   8   25.80   10.44
  -4  -6   8   13.39    9.64
  -3  -6   8   52.48   11.45
  -3  -6   8   29.13   10.87
  -2  -6   8  182.81   17.65
  -2  -6   8  201.39   18.40
  -1  -6   8   73.74   11.25
  -1  -6   8   82.09    9.36
  -1  -6   8   74.83   12.01
   0  -6   8   37.46    9.25
  -1   6  -8  157.03   10.82
   1  -6   8  169.22   16.11
  -2   6  -8  725.01   25.03
   2  -6   8  782.55   31.06
  -3   6  -8   60.91    9.39
   3  -6   8   60.65   11.20
  -4   6  -8  419.27   20.82
   4  -6   8  442.61   24.51
  -5   6  -8   -1.62    7.74
   5  -6   8    3.74    8.61
  -6   6  -8   -7.38    7.64
   6  -6   8   -9.77    6.87
  -7   6  -8    0.97    9.08
   7  -6   8    3.92    8.89
   6   5  -8  206.56   21.63
  -6  -5   8  207.73   22.24
  -5  -5   8  490.95   28.18
  -4  -5   8  376.73   23.52
  -4  -5   8  345.90   23.64
  -3  -5   8  438.99   24.59
  -3  -5   8  430.17   23.99
  -2  -5   8  397.18   21.73
  -2  -5   8  377.39   21.84
  -1  -5   8   29.06    9.17
  -1  -5   8   53.59    9.75
   0   5  -8   96.72    8.33
   0  -5   8  104.74   11.03
   0  -5   8   79.14   11.27
  -1   5  -8  255.95   12.48
   1  -5   8  227.70   17.26
  -2   5  -8   -7.25    4.72
   2  -5   8   19.75    8.34
  -3   5  -8   34.62    8.36
   3  -5   8   16.95    8.06
  -4   5  -8   31.49    9.41
   4  -5   8   12.64    8.23
  -5   5  -8  166.07   15.67
   5  -5   8  177.57   18.67
  -6   5  -8  221.37   18.99
   6  -5   8  187.19   20.19
  -7   5  -8   95.34   14.94
   7  -5   8  117.75   17.53
   7   4  -8   86.34   16.13
   6   4  -8   44.54   12.36
  -6  -4   8   20.98   11.08
  -5  -4   8    9.88    9.42
  -5  -4   8    4.94    8.76
  -4  -4   8  180.68   18.31
  -4  -4   8  165.12   17.67
  -3  -4   8   93.13   13.09
  -3  -4   8  113.89   14.72
  -2  -4   8   61.05   11.63
  -2  -4   8   58.40   10.82
   0  -4   8  160.36   12.62
   0  -4   8  172.37   15.88
  -1   4  -8  135.25    9.74
   1  -4   8  145.23   15.22
  -2   4  -8  106.32   10.15
   2  -4   8   77.42   11.75
  -3   4  -8  310.03   16.42
   3  -4   8  326.98   19.87
  -4   4  -8   67.54   10.54
   4  -4   8   74.76   13.13
  -5   4  -8   20.76    9.30
   5  -4   8   45.51   11.62
  -6   4  -8   67.21   12.68
   6  -4   8   51.80   12.32
  -7   4  -8    1.69    8.49
   7  -4   8    6.52   10.32
   7   3  -8   43.32   13.00
  -7  -3   8   22.68   11.49
   6   3  -8   81.09   14.60
  -6  -3   8   89.30   14.70
  -5  -3   8   46.57   11.53
  -5  -3   8   52.31   12.59
  -4  -3   8   56.83   11.43
  -4  -3   8   54.35   11.24
  -3  -3   8  352.39   20.94
  -3  -3   8  374.47   21.28
  -2  -3   8    8.87    7.47
  -2  -3   8   27.67    8.55
   0  -3   8  617.57   23.33
   0  -3   8  587.74   25.85
   1  -3   8  202.35   13.05
   1  -3   8  184.66   14.95
  -2   3  -8   32.78    6.89
   2  -3   8   37.92    9.76
  -3   3  -8  137.99   12.39
   3  -3   8  125.19   15.04
  -4   3  -8  131.80   13.15
   4  -3   8  147.91   16.37
  -5   3  -8  103.72   12.95
   5  -3   8   98.62   15.05
  -6   3  -8  278.49   19.14
   6  -3   8  247.16   23.24
  -7   3  -8   97.74   15.37
   7  -3   8  104.45   17.30
   7   2  -8   60.01   14.17
  -7  -2   8   26.14   11.70
   6   2  -8   89.08   14.57
  -6  -2   8   75.72   14.50
  -5  -2   8   -1.15    7.49
  -5  -2   8   -0.73    7.17
  -4  -2   8  100.06   14.23
  -4  -2   8  112.77   14.37
  -3  -2   8  242.26   17.01
  -3  -2   8  235.75   18.12
  -2  -2   8   40.96    9.27
  -2  -2   8   41.14    9.75
  -1  -2   8  112.50   12.51
  -1  -2   8  136.63   13.96
   0  -2   8  152.60   14.85
   0  -2   8  153.03   12.26
   1  -2   8   51.63    8.57
   1  -2   8   49.16   10.28
   2  -2   8  155.88   16.26
  -3   2  -8   63.29    9.41
   3  -2   8   77.29   12.70
  -4   2  -8   -2.15    6.11
   4  -2   8   -0.27    7.14
  -5   2  -8   31.07    9.50
   5  -2   8   21.09   10.46
  -6   2  -8   30.36   10.40
   6  -2   8   31.53   11.64
  -7   2  -8   -3.58    9.27
   7   1  -8   44.37   13.16
  -7  -1   8   21.52   11.48
   6   1  -8  151.58   18.33
  -6  -1   8  202.59   20.33
  -5  -1   8   89.52   14.23
  -5  -1   8   90.13   13.87
  -4  -1   8   80.94   12.60
  -4  -1   8   85.00   13.32
  -3  -1   8  171.22   16.97
  -3  -1   8  160.08   16.20
  -2  -1   8  712.83   28.72
  -2  -1   8  663.74   28.68
  -1  -1   8   77.49   11.02
  -1  -1   8   86.76   11.70
   0  -1   8   42.96   10.09
   1  -1   8  591.96   23.56
   1  -1   8  587.37   26.31
   2  -1   8   82.04   12.94
   3  -1   8   -9.99    6.14
   4  -1   8  103.40   15.09
  -5   1  -8   37.01    9.85
   5  -1   8   56.87   13.22
  -6   1  -8    9.06    9.46
   6  -1   8   25.65   10.89
  -7   1  -8   17.44   11.45
   7   0  -8  212.99   21.96
  -7   0   8  182.34   20.83
   6   0  -8  376.81   23.89
  -6   0   8  375.60   24.35
  -5   0   8  167.21   18.43
  -5   0   8  177.35   18.78
  -4   0   8  178.37   17.95
  -4   0   8  127.91   15.35
  -3   0   8   43.22   10.39
  -3   0   8   30.45    9.81
  -2   0   8   98.13   13.48
  -2   0   8  106.33   13.73
  -1   0   8   26.45    8.63
  -1   0   8   17.32    8.08
   0   0   8  301.10   18.32
   0   0   8  300.07   18.37
   1   0   8  203.87   15.72
   1   0   8  148.96   13.76
   2   0   8  179.99   14.90
   2   0   8  191.24   15.84
   3   0   8  275.07   19.64
   4   0   8   -2.20    8.05
   5   0   8   -1.22    8.91
   6   0   8  114.29   17.38
   7  -1  -8   21.52   11.02
  -7   1   8    7.05   10.15
   6  -1  -8    2.08    8.20
  -6   1   8    2.17    8.11
  -5   1   8  112.52   15.74
  -5   1   8   94.79   14.16
  -4   1   8   -0.97    7.30
  -4   1   8    1.58    7.48
  -3   1   8  174.37   17.13
  -3   1   8  161.09   16.55
  -2   1   8  134.07   14.68
  -2   1   8   96.21   13.07
  -1   1   8  616.82   27.38
  -1   1   8  601.99   27.24
   0   1   8  156.43   15.38
   0   1   8  119.55   13.97
   1   1   8  126.31   14.19
   1   1   8  132.63   14.88
   2   1   8   -4.14    5.57
   2   1   8    6.60    7.78
   3   1   8   24.12    9.83
   4   1   8    6.25    8.85
   5   1   8   97.55   16.21
   6   1   8   50.36   14.13
   7  -2  -8   12.26   10.41
  -7   2   8    3.86   10.06
   6  -2  -8  138.98   17.93
  -6   2   8  139.14   17.96
  -5   2   8   28.14   11.31
  -5   2   8   21.40   10.74
  -4   2   8   35.65   11.11
  -4   2   8   34.35   10.56
  -3   2   8   86.51   13.33
  -3   2   8  100.66   14.80
  -2   2   8   82.07   12.77
  -2   2   8   94.45   14.06
  -1   2   8   62.59   11.02
  -1   2   8   46.62   11.08
   0   2   8  326.54   20.05
   0   2   8  295.11   18.63
   1   2   8  795.88   32.79
   1   2   8  837.29   33.64
   2   2   8  154.28   16.52
   2   2   8  163.18   16.28
   3   2   8  151.62   16.93
   7  -3  -8   -0.94    9.52
   6  -3  -8    5.46    9.07
  -6   3   8    0.34    8.60
  -5   3   8   20.21   11.03
  -4   3   8   -8.81    6.82
  -4   3   8   -0.04    8.23
  -3   3   8   -0.88    7.84
  -3   3   8   -3.98    8.41
  -2   3   8  177.56   16.67
  -2   3   8  147.58   16.59
  -1   3   8   45.51   10.19
  -1   3   8   34.05   11.09
   0   3   8   17.20    9.82
   1   3   8  370.74   23.21
   2   3   8   14.63   10.19
  -6   4   8    0.26   10.14
  -5   4   8  237.49   23.26
  -4   4   8  143.21   18.32
  -3   4   8   54.55   12.85
  -2   4   8  105.23   15.55
  -1   4   8  186.43   19.43
   0   4   8  158.03   18.97
   1   4   8  184.56   20.02
   2   4   8  203.87   21.33
   3   4   8   75.54   15.18
  -5   5   8    7.42   11.48
  -4   5   8  132.79   18.67
  -3   5   8   69.07   14.05
  -2   5   8   12.47    9.83
  -1   5   8  165.09   19.53
   0   5   8   -4.82   10.09
   1   5   8   -7.22    9.39
   2   5   8   46.87   14.13
  -3   6   8  108.87   17.88
  -2   6   8  240.66   24.54
  -1   6   8    4.29   11.76
   0   6   8   12.59   12.78
  -1 -12   9  286.83   22.10
   0 -12   9  425.78   25.35
   1 -12   9   37.41   12.05
  -2  12  -9    8.95    7.30
  -3  12  -9   63.02   12.28
  -1 -11   9   10.36    8.98
   0 -11   9  141.13   16.56
   1 -11   9   11.70    9.00
  -2  11  -9   54.51   10.35
  -3  11  -9   62.77   11.76
  -4  11  -9   74.35   12.90
  -5  11  -9    7.13    8.88
  -3 -10   9  201.79   22.05
  -1 -10   9   51.05   10.77
   0 -10   9  187.37   17.43
   1 -10   9  168.01   16.71
  -2  10  -9   14.54    7.20
  -3  10  -9   41.02    9.33
  -4  10  -9   57.89   10.67
  -5  10  -9   90.18   14.35
  -4  -9   9   10.16   11.17
  -3  -9   9    3.09    9.81
   0  -9   9   35.44    9.07
   0  -9   9   12.14    6.29
   1  -9   9   24.29    9.09
  -2   9  -9   23.97    7.72
   2  -9   9   20.63    9.10
  -3   9  -9   23.40    7.72
   3  -9   9    6.26    8.73
  -4   9  -9  136.90   14.87
   4  -9   9  112.79   15.48
  -5   9  -9    9.35    8.37
   5  -9   9   25.96   10.45
  -6   9  -9    0.09    9.03
   6  -9   9   -4.98    9.04
  -4  -8   9   26.08   12.06
  -4  -8   9   16.43   11.10
  -3  -8   9  244.39   20.20
  -3  -8   9  242.77   21.78
  -2  -8   9   67.33   12.72
  -2  -8   9   70.15   12.87
  -1  -8   9   -0.17    7.70
   0  -8   9  276.82   19.61
  -1   8  -9  225.21   13.80
   1  -8   9  207.41   16.39
  -2   8  -9  158.39   12.39
   2  -8   9  156.05   17.22
  -3   8  -9  322.75   17.79
   3  -8   9  301.29   20.81
  -4   8  -9  159.72   15.44
   4  -8   9  161.93   17.94
  -5   8  -9   94.98   13.41
   5  -8   9   79.98   14.20
  -6   8  -9  249.43   19.76
   6  -8   9  244.09   23.10
   5   7  -9    4.72    9.09
  -5  -7   9   -3.34    9.64
  -4  -7   9   -1.18    9.08
  -4  -7   9    6.52    9.48
  -3  -7   9   34.44   11.79
  -3  -7   9   11.06    9.75
  -2  -7   9    6.81    8.62
  -2  -7   9    2.59    8.29
  -1  -7   9    9.76    8.26
   0  -7   9   45.85   10.44
  -1   7  -9   51.64    7.98
   1  -7   9   38.31   10.62
  -2   7  -9    9.30    6.20
   2  -7   9   -3.71    6.48
  -3   7  -9    5.94    6.13
   3  -7   9    1.89    7.38
  -4   7  -9    7.72    7.56
   4  -7   9   11.04    9.15
  -5   7  -9   32.82   10.41
   5  -7   9   54.24   12.89
  -6   7  -9   15.88   10.62
   6  -7   9   26.28   10.98
  -7   7  -9    1.77   10.40
   6   6  -9  221.77   23.48
  -5  -6   9   41.83   13.51
  -4  -6   9   14.65    9.49
  -4  -6   9   12.69   10.35
  -3  -6   9  280.56   20.82
  -3  -6   9  280.34   21.50
  -2  -6   9  597.54   28.05
  -2  -6   9  552.43   27.87
  -1  -6   9  142.91   16.02
  -1  -6   9  147.40   14.73
   0  -6   9  300.75   19.99
   1  -6   9  540.20   27.26
  -2   6  -9  122.54   11.59
   2  -6   9  105.15   14.21
  -3   6  -9  202.02   14.76
   3  -6   9  172.18   18.36
  -4   6  -9  437.87   21.97
   4  -6   9  448.75   25.53
  -5   6  -9   30.06   10.12
   5  -6   9   25.08   10.72
  -6   6  -9   -6.87    8.27
   6  -6   9    4.15    8.91
  -7   6  -9   30.84   11.72
   6   5  -9   55.94   13.81
  -6  -5   9   39.03   13.29
  -5  -5   9   44.62   12.67
  -5  -5   9   50.22   13.09
  -4  -5   9   15.21   10.06
  -4  -5   9    1.17    8.62
  -3  -5   9   13.36    8.79
  -3  -5   9   25.45   10.05
  -2  -5   9   23.52    9.04
  -2  -5   9   18.35    8.65
  -1  -5   9   27.92    9.82
  -1  -5   9   55.23   10.43
   0  -5   9   55.16   10.48
   1  -5   9    2.42    7.48
   2  -5   9   69.16   11.96
  -3   5  -9  155.98   13.62
   3  -5   9  124.43   15.64
  -4   5  -9   -5.47    7.22
   4  -5   9    1.31    8.15
  -5   5  -9   -7.16    7.76
   5  -5   9   20.06   10.21
  -6   5  -9   49.13   11.99
   6  -5   9   44.23   12.51
  -7   5  -9   -4.11    9.70
   6   4  -9   15.75   11.14
  -6  -4   9   21.12   10.78
  -5  -4   9  142.03   18.42
  -5  -4   9  142.17   17.80
  -4  -4   9   31.83   10.85
  -4  -4   9   16.13    9.87
  -3  -4   9    1.28    8.30
  -3  -4   9   -3.34    7.90
  -2  -4   9  219.14   17.47
  -2  -4   9  243.27   17.83
  -1  -4   9  127.34   15.29
  -1  -4   9  145.78   14.35
   0  -4   9   32.51    8.91
   1  -4   9  392.66   22.31
   2  -4   9  128.48   15.22
   3  -4   9   -0.86    7.75
  -4   4  -9  186.97   15.85
   4  -4   9  193.20   19.47
  -5   4  -9  276.58   18.36
   5  -4   9  265.63   20.81
  -6   4  -9  106.69   15.18
   6  -4   9  119.89   17.69
  -7   4  -9   73.50   14.63
   6   3  -9  139.74   17.85
  -6  -3   9  115.90   17.30
  -5  -3   9   29.00   11.35
  -5  -3   9   44.13   12.37
  -4  -3   9   31.09    9.93
  -4  -3   9   12.41    9.26
  -3  -3   9   59.65   12.04
  -3  -3   9   77.92   13.10
  -2  -3   9   64.89   11.43
  -2  -3   9   61.12   11.57
  -1  -3   9   70.82   11.90
   0  -3   9  184.46   14.51
   0  -3   9  188.95   17.71
   1  -3   9  205.33   19.11
   2  -3   9   15.31    8.70
   3  -3   9  101.02   14.91
   4  -3   9   91.43   14.89
   5  -3   9    8.40    9.50
  -6   3  -9   -6.81    8.35
   6  -3   9    5.20    9.98
  -7   3  -9   43.74   13.57
   6   2  -9   43.73   12.39
  -6  -2   9   66.46   14.08
  -5  -2   9   54.19   12.94
  -5  -2   9   31.62   10.56
  -4  -2   9   46.75   11.62
  -4  -2   9   34.82   10.02
  -3  -2   9   96.23   14.39
  -3  -2   9  104.62   14.36
  -2  -2   9  626.25   27.83
  -2  -2   9  643.01   29.10
  -1  -2   9  117.66   13.65
  -1  -2   9  138.83   14.99
   0  -2   9  132.41   13.37
   0  -2   9  145.71   15.52
   1  -2   9 1090.79   40.70
   2  -2   9  243.40   18.72
   3  -2   9   33.33   10.19
   4  -2   9  231.42   21.37
   5  -2   9   86.35   15.49
   6  -2   9    3.16    9.62
   6   1  -9    9.51    8.44
  -6  -1   9    2.40    8.36
  -5  -1   9  152.94   18.48
  -5  -1   9  144.48   17.60
  -4  -1   9   85.31   14.12
  -4  -1   9   59.96   12.63
  -3  -1   9    4.31    8.03
  -3  -1   9    1.41    8.06
  -2  -1   9  249.66   18.27
  -2  -1   9  244.67   18.19
  -1  -1   9  228.02   17.94
  -1  -1   9  232.32   17.09
   0  -1   9   23.23    8.69
   1  -1   9  147.47   16.63
   1  -1   9  107.32   12.69
   2  -1   9  281.46   19.67
   3  -1   9   71.48   13.47
   4  -1   9    7.40    9.34
   5  -1   9   16.35   10.15
   6   0  -9   -0.90    8.53
  -6   0   9    9.37    9.14
  -5   0   9  235.63   22.19
  -5   0   9  259.63   21.40
  -4   0   9  298.92   21.36
  -4   0   9  313.35   22.18
  -3   0   9   -8.66    7.31
  -3   0   9  -10.06    6.30
  -2   0   9  193.77   18.16
  -2   0   9  196.59   18.74
  -1   0   9  245.89   18.10
  -1   0   9  257.36   18.23
   0   0   9   68.79   12.10
   0   0   9   99.60   12.86
   1   0   9    6.97    8.31
   1   0   9   17.93    7.66
   2   0   9  451.64   25.38
   3   0   9   96.67   15.31
   4   0   9   16.05   10.07
   5   0   9  158.02   19.74
   6  -1  -9  224.62   22.01
  -6   1   9  161.50   20.01
  -5   1   9  150.49   18.66
  -5   1   9  168.47   18.96
  -4   1   9    6.57    8.50
  -4   1   9    9.33    9.44
  -3   1   9   41.90   11.06
  -3   1   9   64.03   12.53
  -2   1   9  468.10   25.10
  -2   1   9  497.70   26.29
  -1   1   9  125.23   15.26
  -1   1   9  135.42   15.76
   0   1   9   21.03    9.17
   0   1   9   30.68    9.84
   1   1   9   38.49   10.98
   1   1   9   28.28    9.59
   2   1   9   -5.71    7.67
   3   1   9   37.49   11.51
   4   1   9  341.06   24.07
   5   1   9   92.94   16.24
   6  -2  -9   13.61    9.67
  -6   2   9   15.51   11.17
  -5   2   9    8.63   10.17
  -5   2   9   15.64   10.80
  -4   2   9    0.09    8.00
  -4   2   9    7.71    9.31
  -3   2   9   10.41    9.01
  -3   2   9   -3.95    8.45
  -2   2   9   48.85   11.30
  -2   2   9   45.16   12.13
  -1   2   9   37.72   10.57
  -1   2   9   41.99   11.17
   0   2   9   28.25   10.56
   0   2   9   23.79    9.18
   1   2   9   69.80   12.61
   1   2   9   56.89   11.96
   6  -3  -9   11.88    9.66
  -5   3   9  384.85   25.87
  -5   3   9  361.54   25.26
  -4   3   9  255.37   22.73
  -4   3   9  246.42   23.79
  -3   3   9   32.93   10.51
  -3   3   9   19.76   10.11
  -2   3   9  140.66   17.77
  -1   3   9  508.95   27.67
   0   3   9   75.30   13.98
   1   3   9  131.36   17.46
   2   3   9  222.85   21.87
  -4   4   9   31.15   12.93
  -3   4   9    0.81   10.26
  -2   4   9   44.31   13.27
  -1   4   9  201.79   22.15
   0   4   9   10.51    9.55
   1   4   9  -10.32    9.68
   2   4   9   96.07   17.77
  -2   5   9   18.14   12.30
  -1   5   9  123.16   19.08
   0   5   9   52.87   15.52
   1 -12  10  123.77   16.75
  -2  12 -10   96.39   13.97
  -3  12 -10    8.69    9.14
  -2  11 -10   20.47    8.64
  -3  11 -10  124.69   15.00
  -4  11 -10  205.13   19.15
  -2  10 -10   11.52    7.00
  -3  10 -10    0.77    6.78
  -4  10 -10   33.08   10.08
   4 -10  10   27.65   11.48
  -5  10 -10   39.67   11.44
   5 -10  10   21.84   11.57
  -4  -9  10   35.86   14.08
  -1  -9  10   -2.19    8.73
   0  -9  10   24.61    9.67
   1  -9  10  245.93   19.91
  -2   9 -10  216.27   14.94
   2  -9  10  222.06   21.33
  -3   9 -10  116.72   13.47
   3  -9  10  134.40   17.44
  -4   9 -10  181.29   17.17
   4  -9  10  167.50   19.20
  -5   9 -10  126.92   15.83
   5  -9  10  163.53   19.85
  -6   9 -10  115.84   16.86
  -4  -8  10   32.02   13.00
  -4  -8  10   -0.95   10.31
  -3  -8  10   45.97   12.50
  -3  -8  10   40.42   12.52
  -2  -8  10    3.04    9.03
  -1  -8  10   79.49   14.37
   0  -8  10   29.96   10.45
   1  -8  10    2.78    7.56
   2  -8  10  190.02   20.11
   3  -8  10   -1.55    8.60
  -4   8 -10    2.05    7.25
   4  -8  10   -4.26    8.44
  -5   8 -10   75.55   13.20
   5  -8  10   75.13   14.77
  -6   8 -10   12.56   10.99
  -4  -7  10   -5.03    9.97
  -4  -7  10   21.75   12.09
  -3  -7  10  119.69   17.58
  -3  -7  10  163.97   19.05
  -2  -7  10  407.85   24.56
  -1  -7  10  166.36   18.33
   0  -7  10  299.87   21.33
   1  -7  10  638.71   30.21
   2  -7  10  128.79   16.41
   3  -7  10  165.84   18.73
   4  -7  10  368.96   24.11
  -5   7 -10   75.46   13.34
   5  -7  10   46.83   13.33
  -6   7 -10   71.10   13.79
  -5  -6  10    8.18   11.27
  -5  -6  10    0.68   11.05
  -4  -6  10   27.61   12.10
  -4  -6  10    4.60    9.25
  -3  -6  10   -1.69    7.87
  -3  -6  10    1.90    8.97
  -2  -6  10  123.44   16.84
  -2  -6  10  140.75   16.84
  -1  -6  10   24.12    9.99
   0  -6  10   59.66   12.32
   1  -6  10    5.00    8.23
   2  -6  10   22.07    9.60
   3  -6  10    3.01    8.58
   4  -6  10   15.36   10.28
   5  -6  10   34.03   11.77
  -5  -5  10  201.78   21.91
  -5  -5  10  174.18   21.17
  -4  -5  10  245.83   23.35
  -4  -5  10  223.74   21.82
  -3  -5  10   38.48   11.50
  -3  -5  10   43.01   11.94
  -2  -5  10  172.85   18.55
  -2  -5  10  216.51   19.61
  -1  -5  10  194.84   19.08
   0  -5  10   12.49    8.59
   1  -5  10   89.50   14.14
   2  -5  10  710.29   32.60
   3  -5  10  215.01   20.99
   4  -5  10  122.78   16.80
   5  -5  10  272.93   22.45
  -5  -4  10   84.20   15.87
  -5  -4  10   67.37   15.16
  -4  -4  10   13.18   10.11
  -4  -4  10   12.54    9.47
  -3  -4  10    5.85    8.12
  -3  -4  10    2.02    8.23
  -2  -4  10   94.76   15.00
  -2  -4  10  130.85   15.34
  -1  -4  10   -1.21    7.15
  -1  -4  10    2.67    7.18
   0  -4  10   10.47    8.44
   1  -4  10    2.32    7.42
   2  -4  10  112.67   15.29
   3  -4  10   -5.58    8.13
   4  -4  10  208.26   21.63
   5  -4  10    9.25   10.16
  -5  -3  10   -0.23    9.85
  -5  -3  10    9.34    9.30
  -4  -3  10   13.99    9.74
  -4  -3  10   18.95    9.45
  -3  -3  10  175.09   18.74
  -3  -3  10  138.82   17.08
  -2  -3  10  136.91   15.50
  -2  -3  10  138.99   16.51
   0  -3  10  312.05   21.11
   1  -3  10  355.39   23.35
   2  -3  10  490.04   27.46
   3  -3  10  496.54   28.42
   4  -3  10  306.69   23.45
   5  -3  10  134.40   18.51
  -6  -2  10    3.63   10.06
  -5  -2  10  117.03   16.75
  -5  -2  10  111.27   17.21
  -4  -2  10   47.42   11.88
  -4  -2  10   60.25   12.61
  -3  -2  10   20.76    9.47
  -3  -2  10    5.43    8.89
  -2  -2  10  243.02   18.79
  -2  -2  10  256.78   19.93
  -1  -2  10  213.77   17.33
  -1  -2  10  255.15   19.48
   0  -2  10    8.03    8.15
   1  -2  10   53.65   12.58
   2  -2  10  134.73   16.80
   3  -2  10    1.92    9.02
   4  -2  10   17.75   10.23
   5  -2  10  132.06   19.02
  -5  -1  10   69.98   14.58
  -5  -1  10   73.71   15.09
  -4  -1  10  169.25   18.68
  -4  -1  10  159.67   18.36
  -3  -1  10   66.75   13.01
  -3  -1  10   84.07   13.53
  -2  -1  10  327.90   21.78
  -2  -1  10  295.84   21.03
  -1  -1  10  564.08   26.66
  -1  -1  10  494.40   26.75
   0  -1  10   62.60   13.22
   1  -1  10   63.09   12.61
   2  -1  10  476.27   27.26
   3  -1  10  256.41   21.45
   4  -1  10   30.60   12.33
   5  -1  10   75.78   16.09
  -5   0  10  127.26   18.03
  -5   0  10  133.26   18.42
  -4   0  10  137.19   17.05
  -4   0  10  121.48   16.58
  -3   0  10    9.85    8.40
  -3   0  10   -1.31    8.95
  -2   0  10   24.80   10.54
  -2   0  10   18.54    9.63
  -1   0  10  118.53   15.53
  -1   0  10  114.53   15.66
   0   0  10   57.09   12.29
   0   0  10   41.38   10.88
   1   0  10   73.94   13.88
   2   0  10  121.59   17.59
   3   0  10   26.02   11.39
   4   0  10   56.71   14.70
  -5   1  10   15.62   10.93
  -5   1  10   10.54   10.23
  -4   1  10   91.81   15.33
  -4   1  10   70.12   14.50
  -3   1  10  114.76   16.84
  -3   1  10   91.59   15.21
  -2   1  10   15.53   10.17
  -2   1  10   25.75   10.81
  -1   1  10  160.32   18.30
  -1   1  10  198.07   19.79
   0   1  10  489.87   26.59
   0   1  10  479.26   27.01
   1   1  10   87.73   14.67
   2   1  10   32.58   11.69
   3   1  10   96.41   16.34
  -5   2  10   58.21   15.02
  -4   2  10   83.63   16.04
  -4   2  10  107.36   16.96
  -3   2  10   17.13   11.80
  -3   2  10   30.43   11.12
  -2   2  10  324.02   22.66
  -2   2  10  251.57   21.36
  -1   2  10  418.58   26.28
  -1   2  10  427.63   26.06
   0   2  10   69.68   13.79
  -3   3  10  227.49   23.31
  -2   3  10  158.99   19.91
  -1   3  10    3.87   10.36
   0   3  10   26.53   11.84
   1   3  10   27.74   12.39
  -1   4  10  409.48   27.32
   0   4  10  179.22   22.87
   2 -10  11  256.27   23.49
   3 -10  11  117.72   17.92
   4 -10  11   99.67   17.21
  -2  -9  11   25.39   11.88
  -1  -9  11  113.05   17.14
   0  -9  11   -0.76    8.88
   1  -9  11    7.79   10.09
   2  -9  11  221.66   22.33
   3  -9  11   66.09   14.30
   4  -9  11   -3.67    9.60
  -4  -8  11   53.14   14.64
  -4  -8  11   47.62   14.41
  -3  -8  11   77.57   14.87
  -2  -8  11  119.95   17.71
  -1  -8  11  274.81   24.86
   0  -8  11  271.25   21.94
   1  -8  11  176.31   19.97
   2  -8  11  325.14   24.16
   3  -8  11  378.22   25.80
   4  -8  11  179.74   21.24
  -4  -7  11   -4.73   11.43
  -4  -7  11    5.06   11.03
  -3  -7  11    8.82   10.36
  -3  -7  11    8.13   11.41
  -2  -7  11   -3.17    9.49
  -1  -7  11    5.08    8.55
   0  -7  11  151.56   18.56
   1  -7  11   -2.72    8.68
   2  -7  11   43.57   12.73
   3  -7  11  128.85   18.06
   4  -7  11   -3.35    9.29
  -4  -6  11  201.00   22.34
  -4  -6  11  186.32   22.18
  -3  -6  11   85.56   16.13
  -3  -6  11   83.52   14.88
  -2  -6  11  239.27   22.52
  -1  -6  11  636.24   32.23
   0  -6  11  239.11   19.68
   1  -6  11  149.39   18.43
   2  -6  11  378.38   24.92
   3  -6  11  340.17   24.01
   4  -6  11  130.94   17.99
  -5  -5  11   27.94   14.05
  -4  -5  11   17.43   10.03
  -4  -5  11    5.11   10.64
  -3  -5  11   23.41   11.18
  -3  -5  11   50.70   12.97
  -2  -5  11   20.59    9.59
  -1  -5  11   -1.85    8.19
   0  -5  11   10.41    9.39
   1  -5  11   13.42    8.87
   2  -5  11    6.73    9.16
   3  -5  11   -8.95    8.61
   4  -5  11   -3.01    9.62
  -5  -4  11    8.24   10.15
  -4  -4  11  251.06   24.19
  -4  -4  11  250.81   21.07
  -3  -4  11  220.35   21.94
  -3  -4  11  218.38   21.89
  -2  -4  11   22.75    9.82
  -2  -4  11   10.34    8.73
  -1  -4  11  330.31   22.51
   0  -4  11  620.45   30.79
   1  -4  11  141.66   17.82
   2  -4  11  149.46   18.66
   3  -4  11  304.81   22.94
   4  -4  11   72.18   15.55
  -5  -3  11   79.80   16.75
  -4  -3  11    6.42   10.09
  -4  -3  11   13.38   10.20
  -3  -3  11   -2.43    9.00
  -3  -3  11   17.44    9.49
  -2  -3  11   62.34   13.11
  -2  -3  11   81.43   13.70
  -1  -3  11   47.08   11.73
   0  -3  11   -6.39    7.78
   1  -3  11   27.96   11.07
   2  -3  11   23.53   11.13
   3  -3  11   13.71   10.80
   4  -3  11   17.44   11.55
  -5  -2  11   56.63   13.88
  -4  -2  11   33.25   11.33
  -4  -2  11   63.41   14.24
  -3  -2  11  349.64   24.35
  -3  -2  11  373.13   24.28
  -2  -2  11  436.77   25.44
  -2  -2  11  348.85   23.90
  -1  -2  11  200.92   20.95
  -1  -2  11  230.49   18.72
   0  -2  11  437.39   25.72
   1  -2  11  271.23   21.98
   2  -2  11  116.99   17.74
   3  -2  11  195.54   21.76
   4  -2  11   78.99   16.50
  -4  -1  11  213.02   22.47
  -4  -1  11  216.72   22.79
  -3  -1  11   34.51   12.10
  -3  -1  11   57.77   13.77
  -2  -1  11   13.35    9.51
  -2  -1  11  -13.68    7.92
  -1  -1  11  143.85   16.95
  -1  -1  11  142.11   18.29
   0  -1  11   87.93   15.16
   1  -1  11    1.42    9.17
   2  -1  11   36.37   12.87
   3  -1  11   17.49   11.69
  -4   0  11  191.79   21.44
  -4   0  11  189.95   21.86
  -3   0  11  329.62   24.35
  -3   0  11  311.17   24.20
  -2   0  11   48.29   12.33
  -2   0  11   72.58   14.64
  -1   0  11   34.57   11.65
  -1   0  11   46.16   12.78
   0   0  11  270.90   22.01
   1   0  11  -11.50    8.56
   2   0  11    8.56   10.75
   3   0  11  166.53   20.78
  -4   1  11   18.89   11.69
  -4   1  11    9.44    9.97
  -3   1  11   78.86   15.88
  -3   1  11   93.96   16.19
  -2   1  11  133.69   18.58
  -2   1  11  127.31   18.23
  -1   1  11   79.82   15.49
  -1   1  11   62.92   14.00
   0   1  11   50.27   13.19
   1   1  11   32.15   11.83
  -4   2  11   12.51   11.75
  -3   2  11   74.76   15.75
  -3   2  11   89.61   17.09
  -2   2  11  190.78   22.25
  -1   2  11    7.26   11.26
   0   2  11   63.03   14.39
   1 -10  12   57.34   15.16
   2 -10  12  104.90   17.73
  -2  -9  12   41.27   14.31
  -1  -9  12   69.68   16.00
   0  -9  12   45.37   13.95
   1  -9  12    3.85   10.65
   2  -9  12  302.76   24.47
   3  -9  12  452.30   30.56
  -2  -8  12   -4.77   10.58
  -1  -8  12   35.34   13.43
   0  -8  12  121.73   18.35
   1  -8  12  121.11   18.19
   2  -8  12  169.14   21.09
   3  -8  12  155.21   20.40
  -2  -7  12  229.88   23.74
  -1  -7  12  325.87   24.17
   0  -7  12  383.82   26.33
   1  -7  12  166.72   20.09
   2  -7  12   96.87   17.20
   3  -7  12  277.53   26.31
  -4  -6  12   17.78   13.00
  -3  -6  12    9.63   11.00
  -2  -6  12   76.36   15.42
  -1  -6  12   29.74   11.33
   0  -6  12   -2.15    7.91
   1  -6  12   82.01   15.16
   2  -6  12   18.09   10.86
   3  -6  12  -14.57    9.16
  -4  -5  12  426.81   29.83
  -3  -5  12  345.18   24.95
  -2  -5  12   26.85   11.39
  -1  -5  12  124.22   18.07
   0  -5  12  268.48   21.52
   1  -5  12    3.44    8.54
   2  -5  12   39.41   12.91
   3  -5  12  291.21   24.42
  -4  -4  12   -5.74    9.93
  -3  -4  12   63.72   14.40
  -3  -4  12   18.24   11.67
  -2  -4  12    7.61    9.93
  -1  -4  12    0.89    9.23
   0  -4  12   10.79    9.12
   1  -4  12   -4.88    8.01
   2  -4  12   46.53   13.67
   3  -4  12   20.69   11.95
  -4  -3  12  115.83   18.26
  -3  -3  12  396.56   26.91
  -3  -3  12  391.86   26.74
  -2  -3  12  231.43   23.64
  -1  -3  12   85.94   14.98
   0  -3  12  288.63   22.88
   1  -3  12  355.21   25.56
   2  -3  12   23.32   12.10
  -4  -2  12   12.17   12.21
  -3  -2  12  177.80   21.40
  -3  -2  12  139.94   18.81
  -2  -2  12    4.02    9.96
  -2  -2  12    5.91    9.83
  -1  -2  12   15.88   10.96
   0  -2  12   59.64   14.39
   1  -2  12   -6.13    8.95
   2  -2  12   -2.87   10.22
  -3  -1  12  329.48   25.65
  -3  -1  12  329.34   25.01
  -2  -1  12  146.48   19.87
  -2  -1  12  156.35   19.65
  -1  -1  12   64.83   14.29
   0  -1  12   53.90   13.92
   1  -1  12   21.30   11.86
   2  -1  12   22.08   12.57
  -3   0  12  131.84   19.84
  -2   0  12   72.31   15.28
  -2   0  12   84.97   16.48
  -1   0  12    5.69   10.89
   0   0  12   30.28   12.86
   1   0  12   47.47   13.88
  -2   1  12   72.70   16.11
  -1   1  12    8.48   11.32
   0   0   0    0.00    0.00

_computing_structure_solution     'SHELXT 2014/5 (Sheldrick, 2014)'
;
_shelx_hkl_checksum              88984
_olex2_submission_special_instructions 'No special instructions were received'
loop_
_space_group_symop_operation_xyz
'x, y, z'
'-x, -y, -z'
loop_
_atom_site_label
_atom_site_type_symbol
_atom_site_fract_x
_atom_site_fract_y
_atom_site_fract_z
_atom_site_U_iso_or_equiv
_atom_site_adp_type
_atom_site_occupancy
_atom_site_site_symmetry_order
_atom_site_calc_flag
_atom_site_refinement_flags_posn
_atom_site_refinement_flags_adp
_atom_site_refinement_flags_occupancy
_atom_site_disorder_assembly
_atom_site_disorder_group
Cu1 Cu 0.49709(9) 0.76597(7) 0.23510(6) 0.0196(2) Uani 1 1 d . . . . .
O5 O 0.4536(6) 0.7322(4) 1.0402(4) 0.0274(9) Uani 1 1 d . . . . .
H5 H 0.369020 0.698594 0.983268 0.041 Uiso 1 1 d R . . . .
O3 O 0.4464(5) 1.0276(4) 0.7251(4) 0.0270(9) Uani 1 1 d . . . . .
O7 O 0.5660(6) 0.4364(4) 0.8100(4) 0.0314(10) Uani 1 1 d . . . . .
O2 O 0.7981(6) 0.7275(5) 0.3962(4) 0.0358(11) Uani 1 1 d . . . . .
H2 H 0.758040 0.682641 0.314943 0.054 Uiso 1 1 d R . . . .
O4 O 0.7338(6) 1.0831(4) 0.6952(5) 0.0346(10) Uani 1 1 d . . . . .
H4 H 0.767527 1.168628 0.687529 0.7(4) Uiso 1 1 d R . . . .
O1 O 0.5512(6) 0.8059(4) 0.4278(4) 0.0297(10) Uani 1 1 d . . . . .
O6 O 0.7332(6) 0.7269(5) 1.0593(4) 0.0356(10) Uani 1 1 d . . . . .
O8 O 0.8128(6) 0.4398(5) 0.7020(5) 0.0373(11) Uani 1 1 d . . . . .
H8 H 0.906260 0.502941 0.719687 0.056 Uiso 1 1 d R . . . .
C1 C 0.6763(8) 0.7647(5) 0.4645(6) 0.0216(12) Uani 1 1 d . . . . .
C7 C 0.6009(8) 0.7266(5) 0.9929(6) 0.0224(12) Uani 1 1 d . . . . .
C5 C 0.5867(8) 0.8449(6) 0.8346(6) 0.0234(12) Uani 1 1 d . . . . .
H5A H 0.546811 0.911825 0.905860 0.028 Uiso 1 1 calc R . . . .
C10 C 0.6957(8) 0.6433(6) 0.6209(5) 0.0213(11) Uani 1 1 d . . . . .
H10 H 0.732064 0.574903 0.548544 0.026 Uiso 1 1 calc R . . . .
C6 C 0.6194(7) 0.7308(6) 0.8525(5) 0.0194(11) Uani 1 1 d . . . . .
C9 C 0.6907(8) 0.4922(6) 0.7532(6) 0.0260(12) Uani 1 1 d . . . . .
C4 C 0.5959(7) 0.9983(6) 0.7070(5) 0.0214(11) Uani 1 1 d . . . . .
C2 C 0.6659(7) 0.7588(6) 0.6037(5) 0.0195(11) Uani 1 1 d . . . . .
C3 C 0.6119(7) 0.8627(5) 0.7120(5) 0.0192(11) Uani 1 1 d . . . . .
C8 C 0.6727(7) 0.6263(6) 0.7443(6) 0.0217(11) Uani 1 1 d . . . . .
Cl1 Cl 0.1802(2) 0.80935(16) 0.50827(16) 0.0343(4) Uani 1 1 d . . . . .
Cl2 Cl 0.2002(2) 0.48323(17) 0.85194(17) 0.0396(4) Uani 1 1 d . . . . .
O9 O 0.1336(8) 0.6433(7) 0.6786(7) 0.080(2) Uani 1 1 d . . . . .
H9A H 0.167446 0.637602 0.756869 0.120 Uiso 1 1 d R . . . .
H9B H 0.236856 0.686792 0.668729 0.120 Uiso 1 1 d R . . . .
O10 O 1.0535(8) 1.0147(7) 0.6923(9) 0.099(3) Uani 1 1 d . . . . .
H10A H 0.951088 1.025964 0.678418 0.148 Uiso 1 1 d R . . . .
H10B H 1.045848 0.964264 0.738698 0.148 Uiso 1 1 d R . . . .
O11 O 1.0625(9) 0.6862(9) 1.0284(9) 0.128(4) Uani 1 1 d . . . . .
H11A H 0.983197 0.711740 1.059555 0.192 Uiso 1 1 d R . . . .
H11B H 1.007337 0.595640 0.976846 0.192 Uiso 1 1 d R . . . .
O12 O 1.109(2) 0.9150(17) 0.8880(17) 0.111(6) Uani 0.5 1 d . . P . .
H12A H 1.049354 0.828870 0.860794 0.166 Uiso 0.5 1 d R . P . .
H12B H 1.074864 0.949240 0.967154 0.166 Uiso 0.5 1 d R . P . .
loop_
_atom_site_aniso_label
_atom_site_aniso_U_11
_atom_site_aniso_U_22
_atom_site_aniso_U_33
_atom_site_aniso_U_23
_atom_site_aniso_U_13
_atom_site_aniso_U_12
Cu1 0.0352(4) 0.0166(3) 0.0133(3) 0.0088(3) 0.0074(3) 0.0132(3)
O5 0.038(2) 0.031(2) 0.017(2) 0.0105(17) 0.0046(17) 0.0133(18)
O3 0.035(2) 0.024(2) 0.029(2) 0.0124(18) 0.0085(18) 0.0150(18)
O7 0.058(3) 0.0189(19) 0.028(2) 0.0159(18) 0.022(2) 0.0177(19)
O2 0.051(3) 0.048(3) 0.020(2) 0.018(2) 0.016(2) 0.024(2)
O4 0.037(2) 0.026(2) 0.049(3) 0.023(2) 0.007(2) 0.0118(19)
O1 0.052(3) 0.032(2) 0.019(2) 0.0155(18) 0.0101(19) 0.026(2)
O6 0.044(3) 0.048(3) 0.025(2) 0.021(2) 0.0031(19) 0.020(2)
O8 0.045(3) 0.032(2) 0.046(3) 0.021(2) 0.019(2) 0.022(2)
C1 0.038(3) 0.016(3) 0.018(3) 0.011(2) 0.008(2) 0.012(2)
C7 0.038(3) 0.015(2) 0.016(3) 0.007(2) 0.005(2) 0.009(2)
C5 0.039(3) 0.020(3) 0.017(3) 0.008(2) 0.012(2) 0.017(2)
C10 0.032(3) 0.021(3) 0.015(3) 0.007(2) 0.008(2) 0.014(2)
C6 0.030(3) 0.019(3) 0.014(3) 0.010(2) 0.007(2) 0.007(2)
C9 0.040(3) 0.024(3) 0.017(3) 0.008(2) 0.005(2) 0.014(3)
C4 0.032(3) 0.021(3) 0.014(3) 0.007(2) 0.004(2) 0.010(2)
C2 0.029(3) 0.019(3) 0.013(3) 0.007(2) 0.004(2) 0.010(2)
C3 0.030(3) 0.017(2) 0.016(3) 0.010(2) 0.006(2) 0.008(2)
C8 0.027(3) 0.023(3) 0.023(3) 0.012(2) 0.007(2) 0.013(2)
Cl1 0.0405(8) 0.0331(8) 0.0289(8) 0.0092(7) 0.0105(6) 0.0146(7)
Cl2 0.0491(10) 0.0367(9) 0.0325(9) 0.0076(7) 0.0102(7) 0.0213(7)
O9 0.064(4) 0.106(6) 0.089(5) 0.060(5) 0.014(4) 0.019(4)
O10 0.041(3) 0.070(4) 0.131(7) -0.019(4) 0.000(4) 0.022(3)
O11 0.058(4) 0.106(6) 0.145(8) -0.040(6) -0.006(5) 0.040(4)
O12 0.109(13) 0.086(11) 0.093(12) 0.016(9) -0.042(10) -0.017(10)
loop_
_atom_type_symbol
_atom_type_description
_atom_type_scat_dispersion_real
_atom_type_scat_dispersion_imag
_atom_type_scat_source
C C 0.0030 0.0020 'International Tables Vol C Tables 4.2.6.8 and 6.1.1.4'
H H 0.0000 0.0000 'International Tables Vol C Tables 4.2.6.8 and 6.1.1.4'
Cl Cl 0.1480 0.1590 'International Tables Vol C Tables 4.2.6.8 and 6.1.1.4'
Cu Cu 0.3200 1.2650 'International Tables Vol C Tables 4.2.6.8 and 6.1.1.4'
O O 0.0110 0.0060 'International Tables Vol C Tables 4.2.6.8 and 6.1.1.4'
loop_
_geom_angle_atom_site_label_1
_geom_angle_atom_site_label_2
_geom_angle_atom_site_label_3
_geom_angle
_geom_angle_site_symmetry_1
_geom_angle_site_symmetry_3
_geom_angle_publ_flag
O5 Cu1 O3 86.54(17) 1_554 2_676 ?
O5 Cu1 O4 91.88(16) 1_554 2_676 ?
O5 Cu1 O6 54.93(15) 1_554 1_554 ?
O5 Cu1 C7 27.59(17) 1_554 1_554 ?
O5 Cu1 C4 86.67(16) 1_554 2_676 ?
O3 Cu1 O4 55.71(15) 2_676 2_676 ?
O3 Cu1 O6 91.87(15) 2_676 1_554 ?
O3 Cu1 C7 87.50(16) 2_676 1_554 ?
O3 Cu1 C4 27.99(17) 2_676 2_676 ?
O7 Cu1 O5 91.41(17) 2_666 1_554 ?
O7 Cu1 O3 177.45(18) 2_666 2_676 ?
O7 Cu1 O4 122.93(16) 2_666 2_676 ?
O7 Cu1 O1 90.50(17) 2_666 . ?
O7 Cu1 O6 88.17(16) 2_666 1_554 ?
O7 Cu1 C7 91.37(16) 2_666 1_554 ?
O7 Cu1 C4 150.42(19) 2_666 2_676 ?
O4 Cu1 O6 136.78(14) 2_676 1_554 ?
O4 Cu1 C4 27.92(15) 2_676 2_676 ?
O1 Cu1 O5 177.15(18) . 1_554 ?
O1 Cu1 O3 91.61(17) . 2_676 ?
O1 Cu1 O4 88.86(15) . 2_676 ?
O1 Cu1 O6 123.04(16) . 1_554 ?
O1 Cu1 C7 150.23(19) . 1_554 ?
O1 Cu1 C4 92.71(16) . 2_676 ?
O6 Cu1 C4 114.13(16) 1_554 2_676 ?
C7 Cu1 O4 114.58(16) 1_554 2_676 ?
C7 Cu1 O6 27.43(16) 1_554 1_554 ?
C7 Cu1 C4 100.05(16) 1_554 2_676 ?
Cu1 O5 H5 136.1 1_556 . ?
C7 O5 Cu1 105.8(4) . 1_556 ?
C7 O5 H5 114.4 . . ?
C4 O3 Cu1 104.3(3) . 2_676 ?
C9 O7 Cu1 120.6(4) . 2_666 ?
C1 O2 H2 109.5 . . ?
Cu1 O4 H4 65.1 2_676 . ?
C4 O4 Cu1 76.4(3) . 2_676 ?
C4 O4 H4 140.1 . . ?
C1 O1 Cu1 119.9(4) . . ?
C7 O6 Cu1 76.1(3) . 1_556 ?
C9 O8 H8 109.4 . . ?
O2 C1 O1 126.4(5) . . ?
O2 C1 C2 119.5(5) . . ?
O1 C1 C2 114.1(5) . . ?
O5 C7 Cu1 46.7(3) . 1_556 ?
O5 C7 C6 117.8(5) . . ?
O6 C7 Cu1 76.5(3) . 1_556 ?
O6 C7 O5 122.9(5) . . ?
O6 C7 C6 119.2(5) . . ?
C6 C7 Cu1 161.7(4) . 1_556 ?
C6 C5 H5A 119.2 . . ?
C6 C5 C3 121.6(5) . . ?
C3 C5 H5A 119.2 . . ?
C2 C10 H10 119.2 . . ?
C2 C10 C8 121.6(5) . . ?
C8 C10 H10 119.2 . . ?
C5 C6 C7 117.5(5) . . ?
C5 C6 C8 119.9(5) . . ?
C8 C6 C7 122.5(5) . . ?
O7 C9 C8 114.7(5) . . ?
O8 C9 O7 124.8(5) . . ?
O8 C9 C8 120.4(5) . . ?
O3 C4 Cu1 47.7(3) . 2_676 ?
O3 C4 C3 118.1(5) . . ?
O4 C4 Cu1 75.7(3) . 2_676 ?
O4 C4 O3 122.7(5) . . ?
O4 C4 C3 119.0(5) . . ?
C3 C4 Cu1 160.7(4) . 2_676 ?
C10 C2 C1 119.2(5) . . ?
C10 C2 C3 119.7(5) . . ?
C3 C2 C1 120.8(5) . . ?
C5 C3 C4 118.1(5) . . ?
C5 C3 C2 118.7(5) . . ?
C2 C3 C4 122.9(5) . . ?
C10 C8 C6 118.5(5) . . ?
C10 C8 C9 119.3(5) . . ?
C6 C8 C9 122.0(5) . . ?
H9A O9 H9B 96.0 . . ?
H10A O10 H10B 109.5 . . ?
H11A O11 H11B 99.8 . . ?
H12A O12 H12B 100.3 . . ?
loop_
_geom_bond_atom_site_label_1
_geom_bond_atom_site_label_2
_geom_bond_distance
_geom_bond_site_symmetry_2
_geom_bond_publ_flag
Cu1 O5 1.969(4) 1_554 ?
Cu1 O3 1.995(4) 2_676 ?
Cu1 O7 1.941(4) 2_666 ?
Cu1 O4 2.607(4) 2_676 ?
Cu1 O1 1.941(4) . ?
Cu1 O6 2.611(5) 1_554 ?
Cu1 C7 2.606(5) 1_554 ?
Cu1 C4 2.615(5) 2_676 ?
O5 H5 0.7967 . ?
O5 C7 1.254(7) . ?
O3 C4 1.267(7) . ?
O7 C9 1.286(7) . ?
O2 H2 0.8200 . ?
O2 C1 1.240(7) . ?
O4 H4 0.9168 . ?
O4 C4 1.260(7) . ?
O1 C1 1.270(7) . ?
O6 C7 1.237(7) . ?
O8 H8 0.8200 . ?
O8 C9 1.235(7) . ?
C1 C2 1.506(7) . ?
C7 C6 1.516(7) . ?
C5 H5A 0.9300 . ?
C5 C6 1.376(7) . ?
C5 C3 1.394(7) . ?
C10 H10 0.9300 . ?
C10 C2 1.378(7) . ?
C10 C8 1.398(8) . ?
C6 C8 1.400(8) . ?
C9 C8 1.501(7) . ?
C4 C3 1.495(7) . ?
C2 C3 1.400(7) . ?
O9 H9A 0.8981 . ?
O9 H9B 0.8498 . ?
O10 H10A 0.8498 . ?
O10 H10B 0.8502 . ?
O11 H11A 0.7577 . ?
O11 H11B 0.8909 . ?
O12 H12A 0.8484 . ?
O12 H12B 0.8498 . ?
loop_
_geom_hbond_atom_site_label_D
_geom_hbond_atom_site_label_H
_geom_hbond_atom_site_label_A
_geom_hbond_distance_DH
_geom_hbond_distance_HA
_geom_hbond_distance_DA
_geom_hbond_angle_DHA
_geom_hbond_site_symmetry_A
_geom_hbond_publ_flag
O5 H5 Cl2 0.80 2.22 2.854(4) 137.1 . yes
O2 H2 Cl2 0.82 2.05 2.717(5) 138.2 2_666 yes
O4 H4 Cl1 0.92 2.21 2.824(5) 123.8 2_676 yes
O10 H10A O4 0.85 1.91 2.739(7) 165.5 . yes
O10 H10B O12 0.85 1.95 2.75(2) 156.5 . yes
O11 H11A O6 0.76 1.98 2.688(8) 155.6 . yes
loop_
_geom_torsion_atom_site_label_1
_geom_torsion_atom_site_label_2
_geom_torsion_atom_site_label_3
_geom_torsion_atom_site_label_4
_geom_torsion
_geom_torsion_site_symmetry_1
_geom_torsion_site_symmetry_2
_geom_torsion_site_symmetry_3
_geom_torsion_site_symmetry_4
_geom_torsion_publ_flag
Cu1 O5 C7 O6 7.2(6) 1_556 . . . ?
Cu1 O5 C7 C6 -168.0(4) 1_556 . . . ?
Cu1 O3 C4 O4 -10.7(6) 2_676 . . . ?
Cu1 O3 C4 C3 164.0(4) 2_676 . . . ?
Cu1 O7 C9 O8 -22.6(8) 2_666 . . . ?
Cu1 O7 C9 C8 153.6(4) 2_666 . . . ?
Cu1 O4 C4 O3 8.1(5) 2_676 . . . ?
Cu1 O4 C4 C3 -166.5(5) 2_676 . . . ?
Cu1 O1 C1 O2 17.2(8) . . . . ?
Cu1 O1 C1 C2 -161.0(4) . . . . ?
Cu1 O6 C7 O5 -5.4(5) 1_556 . . . ?
Cu1 O6 C7 C6 169.8(5) 1_556 . . . ?
Cu1 C7 C6 C5 28.0(15) 1_556 . . . ?
Cu1 C7 C6 C8 -153.9(10) 1_556 . . . ?
Cu1 C4 C3 C5 -24.1(15) 2_676 . . . ?
Cu1 C4 C3 C2 161.6(9) 2_676 . . . ?
O5 C7 C6 C5 56.7(7) . . . . ?
O5 C7 C6 C8 -125.2(6) . . . . ?
O3 C4 C3 C5 -62.2(7) . . . . ?
O3 C4 C3 C2 123.5(6) . . . . ?
O7 C9 C8 C10 -133.9(6) . . . . ?
O7 C9 C8 C6 40.9(8) . . . . ?
O2 C1 C2 C10 -42.0(8) . . . . ?
O2 C1 C2 C3 143.4(6) . . . . ?
O4 C4 C3 C5 112.7(6) . . . . ?
O4 C4 C3 C2 -61.6(8) . . . . ?
O1 C1 C2 C10 136.3(6) . . . . ?
O1 C1 C2 C3 -38.3(7) . . . . ?
O6 C7 C6 C5 -118.8(6) . . . . ?
O6 C7 C6 C8 59.3(8) . . . . ?
O8 C9 C8 C10 42.5(9) . . . . ?
O8 C9 C8 C6 -142.6(6) . . . . ?
C1 C2 C3 C5 173.5(5) . . . . ?
C1 C2 C3 C4 -12.2(8) . . . . ?
C7 C6 C8 C10 -176.5(5) . . . . ?
C7 C6 C8 C9 8.7(9) . . . . ?
C5 C6 C8 C10 1.6(8) . . . . ?
C5 C6 C8 C9 -173.2(5) . . . . ?
C10 C2 C3 C5 -1.1(8) . . . . ?
C10 C2 C3 C4 173.2(5) . . . . ?
C6 C5 C3 C4 -172.4(5) . . . . ?
C6 C5 C3 C2 2.2(9) . . . . ?
C2 C10 C8 C6 -0.5(9) . . . . ?
C2 C10 C8 C9 174.5(5) . . . . ?
C3 C5 C6 C7 175.7(5) . . . . ?
C3 C5 C6 C8 -2.5(9) . . . . ?
C8 C10 C2 C1 -174.4(5) . . . . ?
C8 C10 C2 C3 0.2(9) . . . . ?
