#------------------------------------------------------------------------------
#$Date: 2022-02-15 01:54:55 +0200 (Tue, 15 Feb 2022) $
#$Revision: 272955 $
#$URL: file:///home/coder/svn-repositories/cod/cif/7/70/94/7709480.cif $
#------------------------------------------------------------------------------
#
# This file is available in the Crystallography Open Database (COD),
# http://www.crystallography.net/
#
# All data on this site have been placed in the public domain by the
# contributors.
#
data_7709480
loop_
_publ_author_name
'Li, Gang-Mei'
'Liang, Zhen-Gang'
'Xue, Zhenzhen'
'Han, Song-De'
'Pan, Jie'
'Wang, Guo-Ming'
_publ_section_title
;
 Inserting protonated phenanthroline derivatives to interchain voids of
 anionic halometallate units to generate hybrid materials with tunable
 photochromic performance
;
_journal_name_full               'Dalton Transactions'
_journal_paper_doi               10.1039/D2DT00190J
_journal_year                    2022
_chemical_formula_moiety         'Bi Cl4, C12 H10 Cl N2 O'
_chemical_formula_sum            'C12 H10 Bi Cl5 N2 O'
_chemical_formula_weight         584.43
_space_group_crystal_system      triclinic
_space_group_IT_number           2
_space_group_name_Hall           '-P 1'
_space_group_name_H-M_alt        'P -1'
_atom_sites_solution_hydrogens   geom
_atom_sites_solution_primary     dual
_audit_creation_date             2021-08-26
_audit_creation_method
;
Olex2 1.2
(compiled 2018.05.29 svn.r3508 for OlexSys, GUI svn.r5506)
;
_audit_update_record
;
2021-12-13 deposited with the CCDC.	2022-02-14 downloaded from the CCDC.
;
_cell_angle_alpha                95.177(8)
_cell_angle_beta                 106.785(8)
_cell_angle_gamma                106.916(9)
_cell_formula_units_Z            2
_cell_length_a                   7.2646(7)
_cell_length_b                   10.5090(12)
_cell_length_c                   12.2616(9)
_cell_measurement_reflns_used    3818
_cell_measurement_temperature    293(2)
_cell_measurement_theta_max      29.3140
_cell_measurement_theta_min      3.0000
_cell_volume                     841.78(16)
_computing_cell_refinement       'CrysAlisPro 1.171.39.16b (Rigaku OD, 2015)'
_computing_data_collection       'CrysAlisPro 1.171.39.16b (Rigaku OD, 2015)'
_computing_data_reduction        'CrysAlisPro 1.171.39.16b (Rigaku OD, 2015)'
_computing_molecular_graphics    'Olex2 (Dolomanov et al., 2009)'
_computing_publication_material  'Olex2 (Dolomanov et al., 2009)'
_computing_structure_refinement  'ShelXL (Sheldrick, 2015)'
_computing_structure_solution    'ShelXT (Sheldrick, 2015)'
_diffrn_ambient_temperature      293(2)
_diffrn_measured_fraction_theta_full 0.999
_diffrn_measured_fraction_theta_max 0.914
_diffrn_measurement_device_type  'XtaLAB Mini (ROW)'
_diffrn_measurement_method       'phi and omega scans'
_diffrn_radiation_monochromator  graphite
_diffrn_radiation_type           'Mo K\a'
_diffrn_radiation_wavelength     0.71073
_diffrn_reflns_av_R_equivalents  0.1060
_diffrn_reflns_av_unetI/netI     0.1282
_diffrn_reflns_Laue_measured_fraction_full 0.999
_diffrn_reflns_Laue_measured_fraction_max 0.914
_diffrn_reflns_limit_h_max       10
_diffrn_reflns_limit_h_min       -10
_diffrn_reflns_limit_k_max       15
_diffrn_reflns_limit_k_min       -14
_diffrn_reflns_limit_l_max       18
_diffrn_reflns_limit_l_min       -17
_diffrn_reflns_number            12179
_diffrn_reflns_point_group_measured_fraction_full 0.999
_diffrn_reflns_point_group_measured_fraction_max 0.914
_diffrn_reflns_theta_full        25.242
_diffrn_reflns_theta_max         32.573
_diffrn_reflns_theta_min         2.962
_exptl_absorpt_coefficient_mu    11.255
_exptl_absorpt_correction_T_max  1.00000
_exptl_absorpt_correction_T_min  0.02998
_exptl_absorpt_correction_type   multi-scan
_exptl_crystal_colour            yellow
_exptl_crystal_colour_primary    yellow
_exptl_crystal_density_diffrn    2.235
_exptl_crystal_description       acicular
_exptl_crystal_F_000             524
_exptl_crystal_size_max          0.25
_exptl_crystal_size_mid          0.06
_exptl_crystal_size_min          0.04
_refine_diff_density_max         6.007
_refine_diff_density_min         -2.245
_refine_diff_density_rms         0.340
_refine_ls_extinction_method     none
_refine_ls_goodness_of_fit_ref   1.035
_refine_ls_hydrogen_treatment    constr
_refine_ls_matrix_type           full
_refine_ls_number_parameters     157
_refine_ls_number_reflns         5593
_refine_ls_number_restraints     232
_refine_ls_restrained_S_all      1.026
_refine_ls_R_factor_all          0.1261
_refine_ls_R_factor_gt           0.0780
_refine_ls_shift/su_max          0.000
_refine_ls_shift/su_mean         0.000
_refine_ls_structure_factor_coef Fsqd
_refine_ls_weighting_details
'w=1/[\s^2^(Fo^2^)+(0.1242P)^2^+0.6633P] where P=(Fo^2^+2Fc^2^)/3'
_refine_ls_weighting_scheme      calc
_refine_ls_wR_factor_gt          0.1994
_refine_ls_wR_factor_ref         0.2447
_reflns_Friedel_coverage         0.000
_reflns_number_gt                3471
_reflns_number_total             5593
_reflns_threshold_expression     'I > 2\s(I)'
_cod_data_source_file            d2dt00190j2.cif
_cod_data_source_block           1_sq
_cod_original_cell_volume        841.78(15)
_cod_database_code               7709480
_shelx_shelxl_version_number     2018/3
_shelx_space_group_comment
;
The symmetry employed for this shelxl refinement is uniquely defined
by the following loop, which should always be used as a source of
symmetry information in preference to the above space-group names.
They are only intended as comments.
;
_shelx_estimated_absorpt_t_max   1.00000
_shelx_estimated_absorpt_t_min   0.02998
_olex2_refinement_description
;
1. Fixed Uiso
 At 1.2 times of:
  All C(H) groups, All N(H) groups
2. Restrained distances
 C11-C3 \\sim C11-C5
 with sigma of 0.01
 C12-C6 \\sim C12-C8
 with sigma of 0.01
3. Restrained planarity
 Cl5, N1, N2, C1, C2, C3, C4, C5, C6, C7, C8, C9, C10, C11, C12
 with sigma of 0.01
4. Rigid bond restraints
 C1, C2, C3, C4, C5, C6, C7, C8, C9, C10, C11, C12, N1, N2
 with sigma for 1-2 distances of 0.01 and sigma for 1-3 distances of 0.01
5. Uiso/Uaniso restraints and constraints
C1 \\sim C2 \\sim C3 \\sim C4 \\sim C5 \\sim C6 \\sim C7 \\sim C8 \\sim C9
\\sim C10 \\sim C11 \\sim C12 \\sim N1 \\sim N2: within 2A with sigma of 0.01
and sigma for terminal atoms of 0.02
Uanis(C1) \\sim Ueq, Uanis(C2) \\sim Ueq, Uanis(C3) \\sim Ueq, Uanis(C4) \\sim
Ueq, Uanis(C5) \\sim Ueq, Uanis(C6) \\sim Ueq, Uanis(C7) \\sim Ueq, Uanis(C8)
\\sim Ueq, Uanis(C9) \\sim Ueq, Uanis(C10) \\sim Ueq, Uanis(C11) \\sim Ueq,
Uanis(C12) \\sim Ueq, Uanis(N1) \\sim Ueq, Uanis(N2) \\sim Ueq: with sigma of
0.01 and sigma for terminal atoms of 0.02
6.a Aromatic/amide H refined with riding coordinates:
 C1(H1), C2(H2), C3(H3), N1(H1A), C8(H8), C9(H9), C10(H10), C11(H11)
6.b Fitted hexagon refined as free rotating group:
 C1(C2,C3,C4,C5,N1), C6(C7,C8,C9,C10,N2)
;
_shelx_res_file
;
TITL 1 in P-1
    1_sq.res
    created by SHELXL-2018/3 at 11:20:56 on 26-Aug-2021
CELL 0.71073 7.2646 10.509 12.2616 95.177 106.785 106.916
ZERR 2 0.0007 0.0012 0.0009 0.008 0.008 0.009
LATT 1
SFAC C H Bi Cl N
UNIT 24 16 2 10 4
SADI 0.01 C11 C3 C11 C5
SADI 0.01 C12 C6 C12 C8
FLAT 0.01 Cl5 N1 N2 C1 C2 C3 C4 C5 C6 C7 C8 C9 C10 C11 C12
DELU $C $N
SIMU 0.01 0.02 2 $C $N
ISOR 0.01 0.02 $C $N

L.S. 20 0 16
PLAN  0
BOND $H
CONF
ABIN
fmap 2
acta
REM <olex2.extras>
REM <HklSrc "%.\\1_sq.hkl">
REM </olex2.extras>

WGHT    0.124200    0.663300
FVAR       0.17839
BI1   3    0.754630    0.427820    0.065163    11.00000    0.03767    0.04411 =
         0.04213    0.00648    0.01191    0.01530
CL1   4    1.029728    0.683499    0.038011    11.00000    0.06547    0.04743 =
         0.06717    0.00618    0.02818    0.02406
CL2   4    1.002965    0.461997    0.265007    11.00000    0.07239    0.08655 =
         0.05084    0.00997    0.00367    0.03332
CL3   4    0.540426    0.559544    0.154488    11.00000    0.05288    0.07954 =
         0.04821   -0.00794    0.01188    0.02727
CL4   4    0.537326    0.196266    0.074828    11.00000    0.06945    0.05364 =
         0.08290    0.01684    0.02921    0.00704
CL5   4    0.024125   -0.296661    0.526319    11.00000    0.13924    0.08376 =
         0.15221    0.04446    0.07892    0.04620
AFIX  66
C1    1    0.147588    0.170489    0.201349    11.00000    0.09082    0.08965 =
         0.08310    0.01603    0.02865    0.03451
AFIX  43
H1    2    0.180456    0.244694    0.166035    11.00000   -1.20000
AFIX  65
C2    1   -0.004018    0.050543    0.137354    11.00000    0.09721    0.09607 =
         0.07357    0.01999    0.02345    0.03213
AFIX  43
H2    2   -0.072586    0.044495    0.059224    11.00000   -1.20000
AFIX  65
C3    1   -0.053144   -0.060364    0.190134    11.00000    0.08667    0.09096 =
         0.07158    0.00870    0.02497    0.03235
AFIX  43
H3    2   -0.154579   -0.140616    0.147316    11.00000   -1.20000
AFIX  65
C4    1    0.049338   -0.051326    0.306908    11.00000    0.07844    0.07764 =
         0.06897    0.00134    0.02808    0.03651
C5    1    0.200945    0.068620    0.370904    11.00000    0.06853    0.07692 =
         0.07144    0.00233    0.03776    0.03428
N1    5    0.250072    0.179528    0.318126    11.00000    0.06826    0.07629 =
         0.07226    0.00459    0.03337    0.03653
AFIX  43
H1A   2    0.343873    0.253739    0.357720    11.00000   -1.20000
AFIX  66
C6    1    0.295310    0.072088    0.483400    11.00000    0.05676    0.07924 =
         0.07787    0.00673    0.02933    0.03334
C7    1    0.246844   -0.038475    0.536658    11.00000    0.06069    0.07349 =
         0.07771    0.00665    0.03318    0.03870
C8    1    0.349827   -0.028821    0.653466    11.00000    0.06498    0.08221 =
         0.08588    0.00894    0.02859    0.03195
AFIX  43
H8    2    0.317399   -0.102795    0.689098    11.00000   -1.20000
AFIX  65
C9    1    0.501277    0.091397    0.717018    11.00000    0.07113    0.07862 =
         0.10750   -0.00458    0.02527    0.03409
AFIX  43
H9    2    0.570179    0.097855    0.795170    11.00000   -1.20000
AFIX  65
C10   1    0.549745    0.201961    0.663762    11.00000    0.06628    0.07431 =
         0.09266   -0.00817    0.03339    0.02967
AFIX  43
H10   2    0.651075    0.282394    0.706283    11.00000   -1.20000
AFIX  65
N2    5    0.446763    0.192308    0.546954    11.00000    0.05532    0.08008 =
         0.09413   -0.00532    0.03074    0.02716
AFIX   0
C11   1    0.001117   -0.160070    0.358622    11.00000    0.07976    0.08102 =
         0.07686   -0.00077    0.02848    0.04322
AFIX  43
H11   2   -0.101029   -0.238780    0.313369    11.00000   -1.20000
AFIX   0
C12   1    0.092172   -0.161025    0.471560    11.00000    0.07111    0.08255 =
         0.07670    0.01014    0.03131    0.04074
HKLF 4




REM  1 in P-1
REM wR2 = 0.2447, GooF = S = 1.035, Restrained GooF = 1.026 for all data
REM R1 = 0.0780 for 3471 Fo > 4sig(Fo) and 0.1261 for all 5593 data
REM 157 parameters refined using 232 restraints

END

WGHT      0.1241      0.6633

REM Highest difference peak  6.007,  deepest hole -2.245,  1-sigma level  0.340
Q1    1   0.5134  0.0586  0.7890  11.00000  0.05    6.01
Q2    1   0.2594  0.2825  0.1999  11.00000  0.05    2.93
Q3    1   0.3034  0.1463  0.4182  11.00000  0.05    2.41
Q4    1   0.4495  0.2398  0.4944  11.00000  0.05    1.97
Q5    1   0.2015 -0.0024  0.4455  11.00000  0.05    1.87
Q6    1   0.2011 -0.1448  0.5833  11.00000  0.05    1.78
Q7    1   0.4248  0.0858  0.6390  11.00000  0.05    1.72
Q8    1   0.0836 -0.0829  0.3612  11.00000  0.05    1.66
Q9    1   0.3082  0.2840  0.2845  11.00000  0.05    1.44
Q10   1   0.0042 -0.2020  0.3602  11.00000  0.05    1.40
Q11   1   0.5173  0.2053  0.6210  11.00000  0.05    1.38
Q12   1   0.9034  0.4412  0.0477  11.00000  0.05    1.35
Q13   1   0.5922  0.4065  0.0773  11.00000  0.05    1.25
Q14   1  -0.0250  0.0808  0.0712  11.00000  0.05    1.21
Q15   1   0.2739 -0.0278  0.5656  11.00000  0.05    1.19
Q16   1   0.7575  0.5567  0.0728  11.00000  0.05    1.16
Q17   1   0.6437  0.4512  0.1049  11.00000  0.05    1.04
Q18   1   0.9206  0.4016  0.2632  11.00000  0.05    1.01
Q19   1   0.5607  0.2139  0.8086  11.00000  0.05    0.99
Q20   1   1.0646  0.4174  0.2118  11.00000  0.05    0.94
;
_shelx_res_checksum              97459
_shelx_hkl_file
;
 -10   0   1   12.26    5.77
 -10   0   2    6.99    4.59
 -10   0   3    5.29    4.00
 -10   1   0    5.24    3.30
 -10   1   1    9.25    4.64
 -10   1   2   10.84    5.17
 -10   1   3    7.03    4.45
 -10   2  -1    0.08    0.87
 -10   2   0    0.95    1.57
 -10   2   1    1.86    2.00
 -10   2   2    7.82    4.19
 -10   2   3   15.66    5.79
 -10   2   4   14.83    5.93
 -10   3  -1   -2.70    3.29
 -10   3   0   -2.43    3.08
 -10   3   1   -0.95    2.11
 -10   3   2    3.52    2.56
 -10   3   3   10.31    4.61
 -10   3   4   17.01    6.10
 -10   4  -1    3.45    2.12
 -10   4   0   -1.30    2.44
 -10   4   1    0.41    1.45
 -10   4   2   -1.58    1.85
 -10   4   3    9.16    4.60
 -10   4   4   19.66    6.30
  -9  -3   0    5.40    4.14
  -9  -3   1   10.62    5.30
  -9  -3   6    0.35    0.43
  -9  -2  -1   -2.75    2.50
  -9  -2   0    1.59    2.53
  -9  -2   1    9.61    5.05
  -9  -2   2   12.18    5.49
  -9  -2   5    0.05    3.46
  -9  -1  -2   -0.01    1.08
  -9  -1  -1    0.09    1.48
  -9  -1   0   -2.41    2.48
  -9  -1   1    4.47    3.35
  -9  -1   2   21.59    6.59
  -9  -1   3   17.33    6.11
  -9  -1  12   -1.20    1.66
  -9  -1  13    0.43    1.28
  -9   0  -3    6.21    3.97
  -9   0  -2    5.63    3.68
  -9   0  -1    3.63    2.09
  -9   0   0    1.89    1.88
  -9   0   1   -0.47    1.68
  -9   0   2    3.77    2.57
  -9   0   3   22.09    6.55
  -9   0   4   17.05    5.97
  -9   1  -4    1.06    0.76
  -9   1  -3    1.36    1.56
  -9   1  -2   10.34    4.68
  -9   1  -1   12.12    4.97
  -9   1   0   13.00    5.20
  -9   1   1    1.46    1.62
  -9   1   2   -0.05    1.47
  -9   1   3    6.34    3.11
  -9   1   4    9.22    4.31
  -9   1   9   -0.04    0.71
  -9   2  -5    1.92    1.14
  -9   2  -4   -5.04    4.71
  -9   2  -3    3.11    2.16
  -9   2  -2    8.38    3.83
  -9   2  -1   18.53    5.83
  -9   2   0   10.97    4.55
  -9   2   1    5.85    3.19
  -9   2   2    0.24    1.70
  -9   2   3   -0.33    0.72
  -9   2   4    3.11    2.59
  -9   2   7    0.23    0.72
  -9   3  -5    5.11    3.94
  -9   3  -4    2.43    3.15
  -9   3  -3   -1.58    2.72
  -9   3  -2    7.82    3.79
  -9   3  -1    7.43    3.44
  -9   3   0   23.14    6.20
  -9   3   1   17.85    5.67
  -9   3   2    5.87    3.04
  -9   3   3    0.07    1.77
  -9   3   4   -0.85    1.41
  -9   3   5    5.31    2.85
  -9   4  -5    5.82    3.97
  -9   4  -4    7.14    4.32
  -9   4  -3    0.60    2.12
  -9   4  -2    1.52    1.68
  -9   4  -1    7.52    3.33
  -9   4   0    9.20    3.77
  -9   4   1   20.08    5.80
  -9   4   2   20.06    5.96
  -9   4   3   13.71    4.67
  -9   4   4    8.97    3.94
  -9   4   5   -0.58    0.32
  -9   5  -5   12.31    6.06
  -9   5  -4    6.28    3.99
  -9   5  -3    3.38    2.85
  -9   5  -2    2.12    2.52
  -9   5  -1    1.15    0.53
  -9   5   0    4.83    2.82
  -9   5   1   14.41    4.98
  -9   5   2   26.86    6.36
  -9   5   3   27.62    6.57
  -9   5   4   24.82    5.99
  -9   5   5    9.61    3.56
  -9   6  -4    8.77    4.94
  -9   6  -3   11.19    5.01
  -9   6  -2    6.20    3.60
  -9   6  -1    2.61    2.36
  -9   6   0   -4.97    4.07
  -9   6   1    2.41    1.16
  -9   6   2   16.45    4.76
  -9   6   3   29.99    6.49
  -9   7  -3    7.59    4.49
  -9   7  -2    8.85    4.35
  -9   7  -1   11.12    4.91
  -9   7   0    3.64    2.54
  -9   7   1   -1.36    2.49
  -9   8   4   11.69    4.79
  -9   8   5   17.10    5.87
  -9   8   6   12.48    4.91
  -9   9   2   -0.25    0.23
  -9   9   3    1.48    2.28
  -9   9   4   -0.19    1.23
  -9   9   5    4.71    3.38
  -9   9   6    9.87    4.23
  -9  10   1   13.70    5.63
  -9  10   2    9.40    4.32
  -9  10   3    3.87    2.62
  -9  10   4    1.06    1.09
  -9  10   5    0.19    1.11
  -9  11   0    6.55    3.82
  -9  11   1    9.77    4.61
  -9  11   2    5.35    3.54
  -9  11   3    7.46    4.11
  -9  11   4    2.96    1.91
  -9  12   0    0.78    1.24
  -9  12   1    3.05    2.58
  -9  12   2    4.81    3.31
  -8  -6   5    0.24    0.64
  -8  -6   9    0.54    1.15
  -8  -5   7    0.07    0.67
  -8  -4  -2    6.64    3.95
  -8  -4  -1    1.95    1.99
  -8  -4   0    0.92    1.48
  -8  -4   4   -0.17    0.82
  -8  -4   8    0.31    0.58
  -8  -3  -3   10.21    5.08
  -8  -3  -2    6.30    3.42
  -8  -3  -1    6.34    3.61
  -8  -3   0    4.39    3.27
  -8  -3   1   -0.44    0.82
  -8  -3   2    4.85    3.56
  -8  -3   3   -0.94    1.58
  -8  -3   7   -0.17    0.65
  -8  -3  13    0.90    1.41
  -8  -3  14    1.69    2.87
  -8  -2  -4    2.16    2.18
  -8  -2  -3   11.12    4.87
  -8  -2  -2   10.79    4.83
  -8  -2  -1   14.68    5.41
  -8  -2   0    6.17    3.64
  -8  -2   1    4.29    2.73
  -8  -2   2    0.65    1.74
  -8  -2   2   -0.12    0.65
  -8  -2   3    3.11    2.72
  -8  -2   6    0.15    0.65
  -8  -2  12    0.13    0.92
  -8  -2  14    0.49    1.78
  -8  -1  -5   -2.69    3.09
  -8  -1  -4   -2.12    3.27
  -8  -1  -3    3.48    2.21
  -8  -1  -2    8.41    3.65
  -8  -1  -1   17.82    5.75
  -8  -1   0   21.38    6.41
  -8  -1   1   18.78    5.83
  -8  -1   2    9.20    3.90
  -8  -1   3    0.44    0.87
  -8  -1  12   -0.12    0.72
  -8  -1  13   -0.78    1.92
  -8   0  -6    9.51    4.80
  -8   0  -5    3.49    3.23
  -8   0  -4   -1.49    3.43
  -8   0  -3   -1.88    2.53
  -8   0  -2   -0.87    2.97
  -8   0  -1   10.43    3.74
  -8   0   0   22.96    6.41
  -8   0   1   36.00    7.69
  -8   0   2   34.68    7.45
  -8   0   3   16.87    5.05
  -8   0   4    4.51    2.95
  -8   0  11    0.97    1.57
  -8   1  -7    6.77    4.67
  -8   1  -6   11.53    6.23
  -8   1  -5   11.99    5.57
  -8   1  -4    3.92    3.21
  -8   1  -3    0.69    1.24
  -8   1  -2   -5.06    4.35
  -8   1  -1   -0.92    2.66
  -8   1   0   26.46    6.51
  -8   1   1   39.63    7.95
  -8   1   2   54.71    8.83
  -8   1   3   32.65    7.22
  -8   1   4   17.08    4.85
  -8   1   8    0.72    1.22
  -8   2  -7    2.70    2.80
  -8   2  -6    8.83    4.84
  -8   2  -5   11.80    5.76
  -8   2  -4   12.55    5.37
  -8   2  -3   11.39    5.09
  -8   2  -2    5.64    3.64
  -8   2  -1   -0.66    2.31
  -8   2   0   10.16    3.63
  -8   2   1   33.66    7.01
  -8   2   2   44.31    8.12
  -8   2   3   37.34    7.44
  -8   2   4   39.30    7.45
  -8   2   5    8.22    3.57
  -8   2   9   15.06    4.84
  -8   2  10   42.94    7.43
  -8   2  11   24.91    5.61
  -8   2  12   13.23    4.19
  -8   3  -7    0.99    1.84
  -8   3  -6    4.31    3.03
  -8   3  -5   11.12    5.11
  -8   3  -4   22.58    6.76
  -8   3  -3   18.93    6.30
  -8   3  -2   33.41    7.92
  -8   3  -1    9.99    4.27
  -8   3   0   -3.18    2.90
  -8   3   1   11.83    3.54
  -8   3   2   16.66    4.86
  -8   3   3   55.93    8.77
  -8   3   4   27.68    6.17
  -8   3   5   31.29    6.40
  -8   3   9   23.24    4.96
  -8   3  10   24.96    6.67
  -8   3  11   36.36    7.18
  -8   3  12   12.04    3.85
  -8   3  13    6.97    3.43
  -8   4  -8    2.38    2.60
  -8   4  -7    0.08    0.60
  -8   4  -6   -1.30    1.11
  -8   4  -5    4.01    2.85
  -8   4  -4   15.65    5.64
  -8   4  -3   28.39    7.24
  -8   4  -2   35.50    7.66
  -8   4  -1   31.63    6.86
  -8   4   0   11.78    4.14
  -8   4   1   -2.25    3.25
  -8   4   2    0.12    1.53
  -8   4   3    6.80    3.06
  -8   4   4   39.35    6.91
  -8   4   5   53.89    8.01
  -8   4   9    1.47    1.85
  -8   4  10    6.09    3.46
  -8   4  11   16.38    5.81
  -8   4  12    9.97    4.15
  -8   4  13    7.35    3.55
  -8   4  14    1.31    0.33
  -8   5  -8   -0.09    1.11
  -8   5  -7    5.18    3.69
  -8   5  -6   -0.20    1.63
  -8   5  -5   -0.96    1.34
  -8   5  -4    7.21    3.58
  -8   5  -3   25.08    6.59
  -8   5  -2   27.83    6.98
  -8   5  -1   41.90    8.13
  -8   5   0   19.24    5.21
  -8   5   1    5.70    2.45
  -8   5   2    0.03    2.21
  -8   5   3   -0.94    1.75
  -8   5   4   21.00    4.92
  -8   5   5   38.05    6.28
  -8   5   9    4.27    2.70
  -8   5  10    0.04    0.79
  -8   5  11    3.91    2.74
  -8   5  12    4.89    3.16
  -8   5  13    7.21    3.34
  -8   5  14    3.76    2.76
  -8   6  -8   -0.12    1.44
  -8   6  -7    6.73    4.20
  -8   6  -6    3.56    3.11
  -8   6  -5   -2.16    2.65
  -8   6  -4    0.56    1.16
  -8   6  -3    5.45    3.41
  -8   6  -2   21.18    5.88
  -8   6  -1   33.86    7.08
  -8   6   0   18.34    5.14
  -8   6   1   26.53    5.89
  -8   6   2    6.00    2.42
  -8   6   3   -0.33    1.40
  -8   6   4    4.65    2.16
  -8   6   5   19.78    5.15
  -8   6   5   19.19    4.30
  -8   6   6   84.16   10.43
  -8   6   7   22.28    5.38
  -8   6   8   29.26    6.08
  -8   6  10   -0.41    0.34
  -8   6  11    0.33    1.04
  -8   6  12    2.08    1.86
  -8   6  13    5.56    4.49
  -8   6  14    7.61    5.03
  -8   7  -7    9.92    5.03
  -8   7  -6   12.10    5.56
  -8   7  -5    2.97    2.38
  -8   7  -4   -0.78    1.34
  -8   7  -3    0.54    0.98
  -8   7  -2    2.02    1.90
  -8   7  -1   12.92    4.58
  -8   7   0   31.73    6.66
  -8   7   1   25.07    5.66
  -8   7   2   30.63    6.06
  -8   7   2   33.24    7.18
  -8   7   3   17.62    4.23
  -8   7   3   19.66    5.52
  -8   7   4    1.19    1.19
  -8   7   5   12.93    4.51
  -8   7   6    2.67    2.27
  -8   7   7   48.14    8.17
  -8   7   8   16.79    4.84
  -8   7  11    4.44    3.47
  -8   7  12    2.39    2.82
  -8   7  13    0.31    1.18
  -8   8  -6    8.53    4.24
  -8   8  -5    8.22    4.00
  -8   8  -4    8.42    4.27
  -8   8  -3    1.93    0.53
  -8   8  -2   -0.43    1.02
  -8   8  -1    2.48    2.21
  -8   8   0   17.66    5.35
  -8   8   0   15.77    4.76
  -8   8   1   29.03    6.28
  -8   8   1   38.33    7.82
  -8   8   2   59.71    9.55
  -8   8   3   42.67    8.13
  -8   8   4   17.20    5.36
  -8   8   5    2.03    1.82
  -8   8   6    1.74    1.96
  -8   8   7    1.97    1.93
  -8   8   8    7.53    3.43
  -8   8  12    6.03    3.66
  -8   8  13    1.47    2.00
  -8   9  -4    6.41    3.75
  -8   9  -3    8.93    4.06
  -8   9  -1   -0.70    1.29
  -8   9   0    1.75    0.88
  -8   9   1   13.85    4.71
  -8   9   2   35.06    7.70
  -8   9   3   40.58    8.33
  -8   9   4   26.32    6.68
  -8   9   5    6.98    3.38
  -8   9   6    1.85    2.10
  -8   9   7   -0.70    1.53
  -8  10  -2   10.34    4.35
  -8  10  -1    0.86    1.53
  -8  10   0    0.51    1.36
  -8  10   1    4.85    2.51
  -8  10   2   10.71    4.23
  -8  10   3   15.87    5.38
  -8  10   4   18.10    5.53
  -8  10   5    9.35    3.79
  -8  10   6    3.93    1.50
  -8  10   7   -1.08    2.57
  -8  11  -3   10.33    4.32
  -8  11  -2   19.82    6.12
  -8  11  -1   10.50    4.26
  -8  11   0    3.08    2.46
  -8  11   1    0.18    1.65
  -8  11   2   -0.32    1.18
  -8  11   3    5.79    3.11
  -8  11   4    6.33    3.55
  -8  11   5    8.33    3.50
  -8  11   6    8.22    4.04
  -8  12  -4    0.17    1.24
  -8  12  -3    7.82    4.01
  -8  12  -2    9.85    4.57
  -8  12  -1   13.27    4.91
  -8  12   0    7.00    3.70
  -8  12   1    2.87    2.11
  -8  12   2    1.58    0.84
  -8  12   3   -0.54    1.06
  -8  12   4    1.60    1.17
  -8  12   5    6.18    3.33
  -8  13  -2    8.46    4.02
  -8  13  -1    4.64    3.08
  -8  13   0    7.84    4.08
  -8  13   1    4.29    2.69
  -8  13   2    1.67    2.12
  -8  13   3    0.13    0.87
  -8  13   4   -2.26    2.67
  -7  -8   7    0.41    1.00
  -7  -7   9   -0.48    0.77
  -7  -7  10   -0.97    1.56
  -7  -6   0  -18.00    8.28
  -7  -5  -3    3.88    3.25
  -7  -5  -2    7.69    4.26
  -7  -5  -1   11.13    5.03
  -7  -5  -1  -19.29   10.48
  -7  -5   0   14.76    5.63
  -7  -5   8    0.11    0.55
  -7  -5   9   -0.11    0.43
  -7  -4  -4    1.39    2.03
  -7  -4  -3   -0.81    1.56
  -7  -4  -2    4.26    2.60
  -7  -4  -1   15.72    5.73
  -7  -4  -1  -19.77   10.00
  -7  -4   0   30.86    7.33
  -7  -4   1   22.42    6.18
  -7  -4   5   -0.44    0.67
  -7  -3  -5    2.73    1.96
  -7  -3  -4    0.74    0.79
  -7  -3  -3   -0.64    1.51
  -7  -3  -2    1.50    1.83
  -7  -3  -1   14.21    4.54
  -7  -3   0   36.85    7.86
  -7  -3   1   24.55    5.94
  -7  -3   2   24.06    5.87
  -7  -3  14    0.82    1.39
  -7  -2  -6   11.19    4.49
  -7  -2  -5   19.73    6.43
  -7  -2  -4   11.28    4.79
  -7  -2  -3    1.67    5.47
  -7  -2  -2   -0.97    2.18
  -7  -2  -1    1.84    0.82
  -7  -2   0   11.45    4.42
  -7  -2   1   39.67    7.80
  -7  -2   2   32.25    6.58
  -7  -2   3   39.78    7.72
  -7  -2  13    0.65    1.22
  -7  -1  -7    3.63    3.39
  -7  -1  -6   15.52    6.01
  -7  -1  -5   17.56    6.33
  -7  -1  -4   24.38    7.19
  -7  -1  -3   27.32    7.32
  -7  -1  -2   16.20    5.37
  -7  -1  -1   -0.93    2.22
  -7  -1   0    1.26    1.30
  -7  -1   1    8.67    3.52
  -7  -1   2   23.39    5.50
  -7  -1   3   45.55    8.21
  -7  -1   4   78.06   10.28
  -7  -1  10   16.74    4.55
  -7  -1  11   23.23    5.18
  -7  -1  12    8.40    3.75
  -7  -1  12    1.17    1.87
  -7   0  -8   -0.53    1.38
  -7   0  -7    0.25    1.04
  -7   0  -6    7.92    4.38
  -7   0  -5   19.98    6.50
  -7   0  -4   31.37    7.71
  -7   0  -3   38.02    8.35
  -7   0  -2   19.57    5.25
  -7   0  -1   12.36    3.88
  -7   0   0   -2.16    2.78
  -7   0   1    0.75    0.87
  -7   0   2   17.91    4.57
  -7   0   3   39.48    6.91
  -7   0   4   93.39   10.96
  -7   0   4   -0.04    0.20
  -7   0   7    5.15    2.63
  -7   0   8    0.81    0.63
  -7   0   9    3.76    2.05
  -7   0  10   10.63    3.38
  -7   0  11   12.41    4.10
  -7   0  12   13.60    4.55
  -7   0  13   17.87    6.20
  -7   0  14    4.40    3.48
  -7   1  -9    5.15    3.76
  -7   1  -8    4.13    2.97
  -7   1  -7    3.31    2.44
  -7   1  -6    2.79    1.86
  -7   1  -5   10.71    4.46
  -7   1  -4   15.92    5.52
  -7   1  -3   19.64    5.89
  -7   1  -2   51.39    9.36
  -7   1  -1   29.31    6.55
  -7   1   0    5.71    1.63
  -7   1   1   -0.21    0.50
  -7   1   1    0.95    1.12
  -7   1   2    0.93    1.01
  -7   1   3   31.66    6.53
  -7   1   4   82.68    9.84
  -7   1   7   16.06    4.78
  -7   1   8    6.35    2.03
  -7   1   9    0.44    1.28
  -7   1   9   -0.49    1.05
  -7   1  10    4.05    2.05
  -7   1  10   -0.11    0.71
  -7   1  11    9.95    3.68
  -7   1  12   26.82    6.20
  -7   1  13   16.92    5.32
  -7   1  14   21.51    6.17
  -7   1  15    2.41    1.88
  -7   2  -9    3.89    3.22
  -7   2  -8   15.57    6.29
  -7   2  -7   12.87    5.45
  -7   2  -6    2.68    2.60
  -7   2  -5    0.87    1.05
  -7   2  -4    1.00    1.21
  -7   2  -3   23.11    5.92
  -7   2  -2   22.06    6.10
  -7   2  -1   69.98    9.90
  -7   2   0   60.39    8.92
  -7   2   1   40.23    6.90
  -7   2   2    8.06    2.67
  -7   2   3    0.78    0.32
  -7   2   4   43.64    7.06
  -7   2   5   76.80    8.90
  -7   2   7   55.79    7.27
  -7   2   7   -0.28    0.92
  -7   2   8   19.98    4.05
  -7   2   9    6.38    2.19
  -7   2  10   -0.71    1.72
  -7   2  11    1.68    1.30
  -7   2  12   12.94    4.58
  -7   2  13   19.07    5.45
  -7   2  14   18.72    5.86
  -7   2  15    6.88    3.89
  -7   3 -10   -0.70    2.93
  -7   3  -9    4.64    3.66
  -7   3  -8   13.80    5.52
  -7   3  -7   18.18    6.19
  -7   3  -6   10.81    4.67
  -7   3  -5    2.05    1.58
  -7   3  -4    0.91    1.21
  -7   3  -3   -0.56    1.52
  -7   3  -2   31.93    6.95
  -7   3  -1   64.12    9.44
  -7   3   0   95.25   11.16
  -7   3   1   93.51   10.73
  -7   3   2   85.80   10.00
  -7   3   3   15.00    4.03
  -7   3   3   -0.43    0.69
  -7   3   4   -2.17    1.95
  -7   3   5   20.24    4.37
  -7   3   7   28.57    6.53
  -7   3   8   52.95    7.40
  -7   3   9   42.32    6.64
  -7   3  10   16.82    4.49
  -7   3  11    0.07    0.63
  -7   3  12    0.22    1.08
  -7   3  13   10.11    4.11
  -7   3  14    9.43    4.12
  -7   3  15    4.85    3.37
  -7   4 -10   -4.07    3.94
  -7   4  -9    0.76    2.31
  -7   4  -8    7.85    4.42
  -7   4  -7   16.67    6.40
  -7   4  -6   14.52    5.28
  -7   4  -5   10.31    4.02
  -7   4  -4    9.87    4.00
  -7   4  -3    3.06    1.70
  -7   4  -2    3.79    2.05
  -7   4  -1   38.23    6.98
  -7   4   0   75.51    9.59
  -7   4   1  108.42   11.25
  -7   4   2  106.22   10.86
  -7   4   3   39.22    6.28
  -7   4   4    5.57    2.17
  -7   4   5    0.70    1.09
  -7   4   7   21.85    4.62
  -7   4   8   52.13    6.69
  -7   4   8   64.73    8.27
  -7   4   9   48.99    9.08
  -7   4  10   43.34    7.49
  -7   4  11   16.53    5.04
  -7   4  12    4.04    2.47
  -7   4  13   -0.78    0.55
  -7   4  14    1.00    1.42
  -7   4  15    1.91    1.96
  -7   5 -10   -1.39    2.58
  -7   5  -9   -2.46    2.82
  -7   5  -8   -0.40    1.73
  -7   5  -7   12.11    4.80
  -7   5  -6   11.66    4.28
  -7   5  -5   17.62    5.49
  -7   5  -4   20.53    5.74
  -7   5  -3   20.49    5.49
  -7   5  -2    0.53    0.52
  -7   5  -1   15.54    4.57
  -7   5   0   42.66    6.98
  -7   5   1   53.08    7.79
  -7   5   2   61.73    8.07
  -7   5   3   62.02    7.89
  -7   5   3   60.49    8.27
  -7   5   4   15.87    4.05
  -7   5   4   16.17    3.75
  -7   5   5    5.86    2.31
  -7   5   5    5.08    2.10
  -7   5   6    0.69    0.14
  -7   5   7    8.03    2.95
  -7   5   8   43.05    6.47
  -7   5   8   39.57    7.72
  -7   5   9   43.66    6.40
  -7   5   9   62.93    8.84
  -7   5  10   45.89    9.64
  -7   5  11   26.03    6.14
  -7   5  12    5.56    3.16
  -7   5  13   -0.70    2.07
  -7   5  14   -2.41    2.84
  -7   5  15   -0.59    1.36
  -7   6 -10    1.25    1.89
  -7   6  -9    0.91    0.96
  -7   6  -8   -1.94    2.75
  -7   6  -7   -1.40    3.35
  -7   6  -6    9.40    3.73
  -7   6  -5   26.56    6.83
  -7   6  -4   41.28    8.18
  -7   6  -3   38.18    7.80
  -7   6  -2   18.51    4.92
  -7   6  -1   -0.51    0.58
  -7   6   0    3.07    1.96
  -7   6   1   24.96    5.61
  -7   6   1   26.48    5.51
  -7   6   2   33.94    5.67
  -7   6   2   32.60    6.27
  -7   6   3   61.57    8.72
  -7   6   3   59.36    7.37
  -7   6   4   37.84    5.46
  -7   6   4   37.77    6.68
  -7   6   5   21.87    4.05
  -7   6   5   24.25    5.29
  -7   6   6   10.57    3.39
  -7   6   7    0.57    0.54
  -7   6   8   12.84    3.67
  -7   6   8   14.87    4.79
  -7   6   9   33.47    6.08
  -7   6   9   31.39    7.26
  -7   6  10   38.00    7.44
  -7   6  11   28.44    6.57
  -7   6  12    7.83    4.26
  -7   6  13    0.28    1.03
  -7   6  14   -3.33    3.04
  -7   6  15   -3.09    3.21
  -7   7  -9    0.78    1.85
  -7   7  -8    0.53    2.85
  -7   7  -7   -3.84    3.48
  -7   7  -6    0.39    1.87
  -7   7  -5    7.50    2.80
  -7   7  -4   35.32    7.62
  -7   7  -3   59.63    9.53
  -7   7  -2   44.09    7.52
  -7   7  -1   13.03    3.95
  -7   7  -1   13.77    4.34
  -7   7   0    4.39    1.87
  -7   7   0    4.32    2.22
  -7   7   1    0.31    0.50
  -7   7   1   -0.05    0.67
  -7   7   2    8.87    2.87
  -7   7   2    6.43    2.89
  -7   7   3   35.95    6.77
  -7   7   3   32.62    5.22
  -7   7   4   70.12    9.41
  -7   7   5   80.33    9.95
  -7   7   6   48.67    7.73
  -7   7   7    9.74    3.37
  -7   7   8   -0.17    1.16
  -7   7   9    5.47    2.87
  -7   7   9    2.55    1.47
  -7   7  10   13.54    4.37
  -7   7  11   14.09    4.79
  -7   7  12    9.87    5.40
  -7   7  13    8.10    3.85
  -7   7  14    4.18    3.20
  -7   8  -9    6.76    3.64
  -7   8  -8    9.48    5.29
  -7   8  -7    3.24    3.60
  -7   8  -6    2.58    3.86
  -7   8  -5    3.30    2.36
  -7   8  -4   11.77    4.29
  -7   8  -3   35.31    7.24
  -7   8  -2   33.72    7.07
  -7   8  -2   29.78    6.45
  -7   8  -1   24.28    6.10
  -7   8  -1   23.54    5.16
  -7   8   0   18.20    4.86
  -7   8   0   13.09    4.02
  -7   8   1    9.62    3.82
  -7   8   1    8.63    3.01
  -7   8   2    1.53    1.75
  -7   8   2    0.34    0.58
  -7   8   3   16.17    4.80
  -7   8   4   43.68    7.70
  -7   8   5   55.71    8.56
  -7   8   6   67.21    9.46
  -7   8   7   32.53    6.53
  -7   8   8    4.84    2.00
  -7   8   9   -0.85    1.57
  -7   8  10    1.82    1.99
  -7   8  11    6.86    3.11
  -7   8  12    5.83    4.42
  -7   8  13    9.89    4.80
  -7   8  14    7.61    4.97
  -7   9  -8   10.34    6.31
  -7   9  -7    7.64    5.10
  -7   9  -6    7.20    5.00
  -7   9  -5    4.91    4.61
  -7   9  -4   -0.05    2.41
  -7   9  -3    9.77    3.41
  -7   9  -3   15.11    4.75
  -7   9  -2   17.87    4.86
  -7   9  -2   21.29    5.45
  -7   9  -1   21.41    5.02
  -7   9  -1   24.93    5.99
  -7   9   0   16.32    4.85
  -7   9   1   21.65    5.40
  -7   9   2    3.49    2.33
  -7   9   3    0.89    0.64
  -7   9   4   15.75    4.43
  -7   9   5   27.51    6.19
  -7   9   6   33.16    6.99
  -7   9   7   30.88    6.88
  -7   9   8    8.09    3.33
  -7   9   9    4.42    2.80
  -7   9  12    3.51    3.80
  -7   9  13    4.32    3.86
  -7  10  -6   11.71    6.23
  -7  10  -5    7.65    4.63
  -7  10  -4   -0.32    1.88
  -7  10  -4   -1.47    2.49
  -7  10  -3   -1.50    1.64
  -7  10  -2    6.45    2.94
  -7  10  -1   11.67    4.21
  -7  10   0   26.86    6.45
  -7  10   1   30.64    6.65
  -7  10   2   20.61    5.47
  -7  10   3   -1.28    1.87
  -7  10   4   -0.82    2.34
  -7  10   5    6.20    2.57
  -7  10   6    7.02    3.13
  -7  10   7   12.02    4.81
  -7  10   8   11.58    4.88
  -7  11  -5    8.03    3.93
  -7  11  -4    7.65    3.55
  -7  11  -3    0.80    0.43
  -7  11  -2    2.48    2.04
  -7  11  -1    6.59    3.20
  -7  11   0   20.01    5.65
  -7  11   1   31.13    7.19
  -7  11   2   29.57    6.82
  -7  11   3   11.30    4.03
  -7  11   4    5.01    2.48
  -7  11   5    1.73    2.20
  -7  11   6    3.66    3.04
  -7  11   7    8.16    4.61
  -7  11   8    6.86    4.30
  -7  12  -5    7.04    3.37
  -7  12  -4    7.56    3.60
  -7  12  -3    3.96    2.76
  -7  12  -2    1.51    1.43
  -7  12  -1    1.23    1.00
  -7  12   0    6.35    3.38
  -7  12   1   18.81    5.73
  -7  12   2   21.56    6.17
  -7  12   3   15.62    5.25
  -7  12   4    5.49    3.25
  -7  12   5    6.51    3.96
  -7  12   6    1.34    2.56
  -7  12   7    2.62    3.44
  -7  13  -4    6.40    3.55
  -7  13  -3    3.63    2.57
  -7  13  -2    0.87    0.89
  -7  13  -1    0.30    0.60
  -7  13   0   -1.16    2.36
  -7  13   1    3.94    2.67
  -7  13   2    5.23    3.14
  -7  13   3   10.00    4.52
  -7  13   4    6.02    3.17
  -7  13   5    5.25    4.32
  -7  13   6    1.48    2.83
  -7  14  -2    3.98    2.81
  -7  14  -1    3.70    2.52
  -7  14   0    1.60    1.69
  -7  14   1   -1.55    2.40
  -7  14   2   -0.25    1.38
  -7  14   3    2.01    2.05
  -7  14   4    6.51    4.43
  -6 -10   8    0.21    0.96
  -6  -9   8   -0.49    1.12
  -6  -9  10   -0.20    0.62
  -6  -7  -2   -8.49    7.14
  -6  -7  -1  -18.46    9.19
  -6  -6  -3    3.93    2.51
  -6  -6  -3    4.99    3.51
  -6  -6  -2    0.56    0.12
  -6  -6  -2   -9.25    6.49
  -6  -6  -1    4.56    2.48
  -6  -6  -1  -17.52    9.51
  -6  -6   0  -19.76    9.66
  -6  -6   7   -0.53    0.96
  -6  -6   9   -0.56    1.14
  -6  -6  10   -1.05    1.18
  -6  -5  -5    8.47    4.20
  -6  -5  -4    5.74    3.56
  -6  -5  -4   28.28    9.40
  -6  -5  -3    3.78    2.74
  -6  -5  -3   15.40    6.81
  -6  -5  -2    0.97    0.34
  -6  -5  -2   -5.95    5.29
  -6  -5  -1  -13.61    8.51
  -6  -5  -1    0.88    0.15
  -6  -5   0   10.57    4.03
  -6  -5  14    0.07    1.07
  -6  -4  -6    4.95    3.12
  -6  -4  -5    9.63    4.28
  -6  -4  -4   13.72    4.61
  -6  -4  -4   41.82   10.59
  -6  -4  -3   24.02    7.73
  -6  -4  -3   14.32    4.90
  -6  -4  -2   -8.91    6.60
  -6  -4  -2    8.13    3.36
  -6  -4  -1    2.87    2.07
  -6  -4   0    0.76    1.01
  -6  -4   1   11.36    3.45
  -6  -3  -7   -3.60    3.30
  -6  -3  -6   -1.04    0.95
  -6  -3  -5    3.79    2.22
  -6  -3  -4   28.51    9.06
  -6  -3  -4    9.75    4.29
  -6  -3  -3   30.36    7.03
  -6  -3  -3   25.48    7.19
  -6  -3  -2   45.45    8.66
  -6  -3  -2  -10.48    6.17
  -6  -3  -1   29.91    6.24
  -6  -3   0   12.27    3.62
  -6  -3   1   -0.59    1.25
  -6  -3   2   17.13    4.43
  -6  -3   5   -0.06    0.44
  -6  -3  10   13.18    4.82
  -6  -3  11   15.60    5.30
  -6  -3  12   22.69    7.82
  -6  -3  13    9.28    6.14
  -6  -2  -8    8.54    4.46
  -6  -2  -7    4.67    3.02
  -6  -2  -6    0.04    1.08
  -6  -2  -5    2.20    2.70
  -6  -2  -4    7.36    4.30
  -6  -2  -4    2.42    2.35
  -6  -2  -3   -2.28    3.03
  -6  -2  -3   37.32    7.46
  -6  -2  -2   59.71    9.53
  -6  -2  -1   79.52   10.13
  -6  -2   0   57.89    8.51
  -6  -2   0   -4.39    5.09
  -6  -2   1   21.26    5.18
  -6  -2   2    4.33    1.96
  -6  -2   3   12.12    3.82
  -6  -2   4   -0.60    0.75
  -6  -2   8   34.27    5.39
  -6  -2   9    8.93    3.31
  -6  -2  10    0.62    1.08
  -6  -2  11    9.61    4.33
  -6  -2  12    7.00    3.24
  -6  -2  13   22.41    7.16
  -6  -2  14    5.95    2.77
  -6  -2  15    0.57    1.58
  -6  -1  -9    5.72    3.29
  -6  -1  -8    9.67    4.60
  -6  -1  -7   11.78    4.86
  -6  -1  -6    5.10    3.04
  -6  -1  -5    3.19    2.62
  -6  -1  -4    0.22    0.52
  -6  -1  -4   -8.88    5.59
  -6  -1  -3   15.10    4.78
  -6  -1  -2   70.41   10.17
  -6  -1  -1   81.12   10.16
  -6  -1   0   73.97    9.55
  -6  -1   1   37.81    6.49
  -6  -1   2   15.28    4.14
  -6  -1   3    0.47    0.63
  -6  -1   3    1.48    1.47
  -6  -1   4    7.79    2.97
  -6  -1   6   64.01    5.77
  -6  -1   7   82.66    7.29
  -6  -1   8   80.28    8.44
  -6  -1   9   22.39    5.43
  -6  -1  10   10.65    3.65
  -6  -1  11    2.52    2.29
  -6  -1  12    2.24    1.71
  -6  -1  13    7.39    4.30
  -6  -1  14   12.22    5.59
  -6  -1  15    5.05    3.46
  -6  -1  16    6.80    4.54
  -6   0 -10    0.90    0.55
  -6   0  -9    1.74    1.85
  -6   0  -8   13.95    5.52
  -6   0  -7   18.17    5.90
  -6   0  -6   20.51    5.79
  -6   0  -5   14.34    4.81
  -6   0  -4    2.51    1.86
  -6   0  -3    4.20    2.80
  -6   0  -2   46.14    8.01
  -6   0  -1   73.81    9.73
  -6   0   0   60.90    8.17
  -6   0   1   67.92    8.66
  -6   0   2   50.22    7.17
  -6   0   3    7.09    2.31
  -6   0   4    1.63    1.47
  -6   0   5    8.85    2.66
  -6   0   6   39.90    4.87
  -6   0   7   74.05    7.36
  -6   0   8  121.94   10.79
  -6   0   9   -0.75    1.33
  -6   0   9   47.19    7.13
  -6   0  10   -0.35    0.23
  -6   0  10   21.88    5.04
  -6   0  11    0.96    1.44
  -6   0  12    1.04    1.14
  -6   0  13   10.51    4.35
  -6   0  14    3.39    2.87
  -6   0  15   10.48    5.07
  -6   0  16    7.16    4.81
  -6   1 -10   -0.80    2.09
  -6   1  -9   -1.80    2.79
  -6   1  -8    6.13    3.06
  -6   1  -7   29.34    7.63
  -6   1  -6   39.04    8.22
  -6   1  -5   35.31    7.69
  -6   1  -4   56.11    9.10
  -6   1  -3    4.60    2.02
  -6   1  -2    3.23    2.37
  -6   1  -1   44.17    7.29
  -6   1   0   41.47    6.97
  -6   1   0   -0.15    0.58
  -6   1   1  114.56   11.20
  -6   1   2   64.04    7.98
  -6   1   3   95.03    9.46
  -6   1   4   28.46    4.84
  -6   1   5    2.28    1.83
  -6   1   6    9.54    2.39
  -6   1   7   80.64    7.61
  -6   1   8   83.78    8.37
  -6   1   9   63.07    8.54
  -6   1  10   24.37    5.53
  -6   1  11   16.70    4.83
  -6   1  12    1.14    1.84
  -6   1  13   -0.47    1.19
  -6   1  14    5.16    3.29
  -6   1  15    2.70    2.74
  -6   1  16    5.16    3.21
  -6   2 -11    1.91    0.83
  -6   2 -10    0.39    0.17
  -6   2  -9    1.28    2.10
  -6   2  -8   -0.71    2.20
  -6   2  -7   15.98    5.34
  -6   2  -6   48.03    8.91
  -6   2  -5   63.00   10.16
  -6   2  -4   63.37    9.54
  -6   2  -3   49.47    7.91
  -6   2  -2    8.05    2.96
  -6   2  -1    0.92    1.79
  -6   2   0    8.18    3.06
  -6   2   1   30.83    5.59
  -6   2   2  219.22   14.66
  -6   2   3  191.76   12.96
  -6   2   4  131.60   10.47
  -6   2   5   65.77    7.36
  -6   2   5   83.60    7.98
  -6   2   6   12.36    3.67
  -6   2   7    2.05    0.86
  -6   2   8   32.25    5.46
  -6   2   9   42.82    6.84
  -6   2  10   31.34    6.27
  -6   2  11   37.57    6.95
  -6   2  12   13.56    4.98
  -6   2  13    3.97    2.39
  -6   2  14    0.59    1.08
  -6   2  15    2.09    2.25
  -6   2  16    2.80    2.75
  -6   3 -11    4.81    3.07
  -6   3 -10    4.72    2.84
  -6   3  -9    7.73    3.58
  -6   3  -8   -2.24    3.17
  -6   3  -7    6.33    2.92
  -6   3  -6   18.42    5.44
  -6   3  -5   48.30    8.32
  -6   3  -4   49.41    8.23
  -6   3  -3   64.26    8.87
  -6   3  -2   20.54    4.88
  -6   3  -1   12.21    3.68
  -6   3   0    1.07    0.73
  -6   3   1    8.58    3.11
  -6   3   2  117.28   10.26
  -6   3   3  162.91   11.52
  -6   3   4   -0.23    0.52
  -6   3   4  201.85   12.56
  -6   3   5  131.56    9.72
  -6   3   6   47.98    7.65
  -6   3   6   62.82    6.72
  -6   3   7    4.00    1.67
  -6   3   7    1.58    0.46
  -6   3   8    1.97    0.44
  -6   3   8    1.72    1.11
  -6   3   9   12.50    3.79
  -6   3  10   16.63    4.55
  -6   3  11   38.42    6.89
  -6   3  12   43.33    8.64
  -6   3  13   23.40    6.24
  -6   3  14    9.38    3.77
  -6   3  15   -1.01    1.81
  -6   3  16   -4.95    3.23
  -6   4 -11    6.20    4.68
  -6   4 -10   14.07    5.69
  -6   4  -9   14.08    5.72
  -6   4  -8    6.51    3.49
  -6   4  -7   -1.56    2.48
  -6   4  -6    2.81    1.31
  -6   4  -5   10.43    3.53
  -6   4  -4   43.66    7.60
  -6   4  -3   59.75    8.47
  -6   4  -2   37.06    6.33
  -6   4  -1   43.61    6.68
  -6   4   0   15.18    3.79
  -6   4   1    0.12    0.87
  -6   4   2   40.28    5.86
  -6   4   2   37.73    5.86
  -6   4   3  132.62   10.24
  -6   4   3  128.78   10.55
  -6   4   4  155.98   10.65
  -6   4   4  174.57   11.96
  -6   4   5   37.93    5.09
  -6   4   5   38.44    5.51
  -6   4   6   68.39    7.95
  -6   4   6   67.94    7.28
  -6   4   7   18.27    3.62
  -6   4   7   19.77    4.74
  -6   4   8    0.18    1.45
  -6   4   8    0.52    0.19
  -6   4   9   -2.55    1.66
  -6   4   9    1.02    0.60
  -6   4  10   11.82    3.63
  -6   4  11   33.88    6.55
  -6   4  12   41.03    8.10
  -6   4  13   27.46    6.78
  -6   4  14   11.40    4.26
  -6   4  15   -6.41    3.50
  -6   4  16   -3.43    2.94
  -6   5 -11    3.18    3.00
  -6   5 -10    8.26    4.00
  -6   5  -9   27.59    8.31
  -6   5  -8   24.62    7.43
  -6   5  -7    4.34    3.10
  -6   5  -6    4.07    3.00
  -6   5  -5   -0.25    0.44
  -6   5  -4    7.35    2.48
  -6   5  -3   51.68    7.88
  -6   5  -2   96.50   10.29
  -6   5  -1   68.04    8.22
  -6   5   0  106.50    9.88
  -6   5   0  114.50   10.52
  -6   5   1   32.92    5.28
  -6   5   1   33.60    5.60
  -6   5   2    0.10    0.90
  -6   5   2    0.07    0.43
  -6   5   3   54.50    6.28
  -6   5   3   56.73    7.31
  -6   5   4    8.48    2.19
  -6   5   4    9.07    2.82
  -6   5   5  189.20   13.00
  -6   5   5  176.21   10.30
  -6   5   6   29.79    5.31
  -6   5   6   32.03    5.32
  -6   5   7   42.31    6.29
  -6   5   7   41.92    6.04
  -6   5   8   10.81    3.11
  -6   5   8    8.07    4.34
  -6   5   9    1.43    0.48
  -6   5   9    4.08    1.64
  -6   5  10    1.14    0.66
  -6   5  11    3.40    2.15
  -6   5  12   37.04    7.17
  -6   5  13   29.49    6.64
  -6   5  14    9.75    4.62
  -6   5  15    2.06    1.83
  -6   5  16   -4.18    3.14
  -6   6 -11    0.49    1.45
  -6   6 -10    7.36    4.73
  -6   6  -9   18.08    6.68
  -6   6  -8   20.89    6.92
  -6   6  -7   25.71    7.39
  -6   6  -6   11.88    5.02
  -6   6  -5   11.81    5.05
  -6   6  -4    0.55    1.91
  -6   6  -3   22.32    5.35
  -6   6  -2   80.97    9.30
  -6   6  -2   81.70    9.25
  -6   6  -1  121.76   11.64
  -6   6  -1  108.87   10.40
  -6   6   0  157.11   11.78
  -6   6   0  160.96   13.12
  -6   6   1  108.86   10.69
  -6   6   1  108.47    9.27
  -6   6   2   35.40    5.27
  -6   6   2   35.47    6.13
  -6   6   3    0.20    0.18
  -6   6   3    0.18    1.11
  -6   6   4   11.65    2.52
  -6   6   4   11.12    3.28
  -6   6   5    3.54    1.63
  -6   6   6   66.75    8.18
  -6   6   7   95.15    9.59
  -6   6   7   84.61    9.10
  -6   6   8   45.40    9.37
  -6   6   8   57.03    7.58
  -6   6   9   30.82    5.52
  -6   6   9   42.58    7.34
  -6   6  10    9.23    3.61
  -6   6  11   -0.28    1.46
  -6   6  12    3.62    1.82
  -6   6  13    6.37    3.56
  -6   6  14    7.52    3.78
  -6   6  15    3.07    2.61
  -6   7 -11   -3.65    3.82
  -6   7 -10    1.49    0.21
  -6   7  -9    7.66    3.53
  -6   7  -8   13.19    5.80
  -6   7  -7   17.32    6.32
  -6   7  -6   16.97    6.04
  -6   7  -5   26.95    7.00
  -6   7  -4    6.69    3.45
  -6   7  -3    1.81    1.52
  -6   7  -3    2.92    2.17
  -6   7  -2   31.25    5.72
  -6   7  -2   31.38    5.86
  -6   7  -1   57.02    7.52
  -6   7  -1   69.84    8.68
  -6   7   0  103.79   10.76
  -6   7   0   97.18    9.11
  -6   7   1  115.20   11.40
  -6   7   1  102.24    9.01
  -6   7   2   49.13    5.96
  -6   7   2   52.20    7.41
  -6   7   3   15.83    3.11
  -6   7   3   16.75    4.17
  -6   7   4    3.50    1.50
  -6   7   5    0.54    0.89
  -6   7   6   31.40    5.87
  -6   7   7   51.56    7.79
  -6   7   8   68.71    8.91
  -6   7   8   82.84    9.89
  -6   7   9   45.38    7.43
  -6   7   9   62.63    9.14
  -6   7  10   47.96    8.14
  -6   7  10   25.85    5.68
  -6   7  11    5.19    2.59
  -6   7  12   -4.67    3.20
  -6   7  13   -0.71    1.87
  -6   7  14   -1.48    1.93
  -6   7  15    0.45    0.58
  -6   8 -11   -0.32    1.89
  -6   8 -10   -3.00    4.01
  -6   8  -9   -1.12    2.91
  -6   8  -8    5.48    3.25
  -6   8  -7   16.39    6.59
  -6   8  -6   24.33    7.15
  -6   8  -5   43.56    9.30
  -6   8  -4   22.24    6.13
  -6   8  -4   22.78    5.24
  -6   8  -3    1.31    1.71
  -6   8  -3    0.18    0.89
  -6   8  -2    2.64    1.58
  -6   8  -2    4.13    1.94
  -6   8  -1   12.98    3.93
  -6   8  -1   14.04    3.55
  -6   8   0   24.53    5.33
  -6   8   0   23.21    4.38
  -6   8   1   58.50    8.27
  -6   8   1   50.64    6.07
  -6   8   2   45.61    7.04
  -6   8   2   42.42    5.28
  -6   8   3   23.92    5.34
  -6   8   4   11.66    3.72
  -6   8   5    3.37    2.08
  -6   8   6    3.65    2.34
  -6   8   7   20.67    5.00
  -6   8   8   57.40    8.86
  -6   8   9   30.73    7.67
  -6   8   9   28.96    6.41
  -6   8  10   22.68    6.77
  -6   8  11    7.87    4.72
  -6   8  12    3.25    2.47
  -6   8  13    3.23    2.30
  -6   8  14    0.83    2.09
  -6   9 -10    3.16    3.19
  -6   9  -9   -0.02    1.58
  -6   9  -8   -0.69    1.32
  -6   9  -7    6.83    4.10
  -6   9  -6   23.63    7.67
  -6   9  -5   31.34    8.17
  -6   9  -5   33.38    6.74
  -6   9  -4   60.27    9.03
  -6   9  -4   64.73   10.50
  -6   9  -3   12.88    4.41
  -6   9  -3   13.10    3.96
  -6   9  -2    3.88    2.22
  -6   9  -2    5.11    2.74
  -6   9  -1   -1.20    1.54
  -6   9  -1   -0.01    0.41
  -6   9   0    2.52    1.13
  -6   9   0    4.12    2.09
  -6   9   1   23.64    5.53
  -6   9   2   24.31    5.38
  -6   9   3   38.73    6.96
  -6   9   4   36.40    6.96
  -6   9   5   18.34    5.07
  -6   9   6    1.43    0.98
  -6   9   7   11.17    4.28
  -6   9   8    6.46    3.37
  -6   9   9   15.98    5.44
  -6   9  10   15.05    5.09
  -6   9  11   14.00    4.93
  -6   9  12    6.57    3.66
  -6   9  13    5.21    3.44
  -6  10  -9    0.52    1.89
  -6  10  -8   -2.16    3.05
  -6  10  -7   -1.76    2.94
  -6  10  -6    8.42    5.25
  -6  10  -6    6.19    2.91
  -6  10  -5   34.50    8.88
  -6  10  -5   31.94    6.84
  -6  10  -4   27.98    6.15
  -6  10  -4   30.33    7.59
  -6  10  -3   43.64    8.22
  -6  10  -3   37.74    7.13
  -6  10  -2   15.45    4.72
  -6  10  -2   15.79    4.57
  -6  10  -1    8.02    2.99
  -6  10   0   -0.32    1.16
  -6  10   1    2.87    1.82
  -6  10   2   31.08    6.43
  -6  10   3   35.60    7.05
  -6  10   4   46.46    8.08
  -6  10   5   36.80    7.60
  -6  10   6   15.20    4.98
  -6  10   7    0.51    0.66
  -6  10   8   -1.66    1.56
  -6  10   9    2.00    1.58
  -6  11  -7   -0.82    0.81
  -6  11  -6   -2.08    2.14
  -6  11  -5    3.97    2.18
  -6  11  -4   23.06    5.96
  -6  11  -3   14.26    4.26
  -6  11  -2   16.35    4.83
  -6  11  -1   17.19    4.87
  -6  11   0    6.31    3.11
  -6  11   1    1.42    1.57
  -6  11   2    6.51    3.39
  -6  11   3   15.66    5.11
  -6  11   4   34.65    7.81
  -6  11   5   34.58    7.72
  -6  11   6   18.11    6.19
  -6  11   7    4.62    3.79
  -6  11   8    2.55    2.27
  -6  12  -7    0.87    1.57
  -6  12  -6    0.14    0.51
  -6  12  -5    2.71    1.63
  -6  12  -4    1.87    1.43
  -6  12  -3    8.95    3.61
  -6  12  -2    5.64    2.88
  -6  12  -1   16.12    5.00
  -6  12   0   13.77    4.56
  -6  12   1    2.11    2.10
  -6  12   2    1.77    1.85
  -6  12   3    1.84    2.15
  -6  12   4   11.17    4.58
  -6  12   5   11.63    4.81
  -6  12   6   11.65    5.47
  -6  12   7    5.40    3.61
  -6  12   8    3.42    3.08
  -6  13  -5   -0.38    1.67
  -6  13  -4   -1.01    1.24
  -6  13  -3    1.61    1.80
  -6  13  -2    7.57    3.21
  -6  13  -1    8.94    3.97
  -6  13   0   20.33    5.85
  -6  13   1    8.64    4.15
  -6  13   2    3.24    2.51
  -6  13   3   -0.31    1.08
  -6  13   4   -0.04    1.39
  -6  13   5    3.88    3.09
  -6  13   6    2.72    3.78
  -6  13   7    1.76    1.59
  -6  14  -4    1.94    1.80
  -6  14  -3   -2.58    1.93
  -6  14  -2    1.14    1.31
  -6  14  -1    6.51    3.68
  -6  14   0   10.21    4.11
  -6  14   1   11.83    4.86
  -6  14   2    7.83    3.87
  -6  14   3    3.32    2.95
  -6  14   4    0.22    1.46
  -6  14   5    0.77    0.38
  -6  15  -1   -0.51    0.77
  -6  15   0    7.45    4.11
  -6  15   1    8.19    4.34
  -6  15   2    4.63    2.96
  -5 -10  -1   -3.92    4.29
  -5 -10   0  -11.69    7.29
  -5  -9  -3   18.89    7.12
  -5  -9  -2   17.72    7.44
  -5  -9  -1    6.78    4.07
  -5  -9   0   -9.89    6.05
  -5  -8  -4   17.49    7.50
  -5  -8  -3   32.91    8.51
  -5  -8  -2   16.25    6.53
  -5  -8  -1    8.31    4.69
  -5  -8   0   -6.93    6.04
  -5  -8  10    0.21    1.17
  -5  -8  11    0.50    0.50
  -5  -7  -5   14.34    6.24
  -5  -7  -4   24.62    7.65
  -5  -7  -3   30.43    7.90
  -5  -7  -3   16.59    4.98
  -5  -7  -2   28.02    7.32
  -5  -7  -1   18.69    6.18
  -5  -7   0   -5.57    3.26
  -5  -6  -5   15.81    6.49
  -5  -6  -5    4.15    2.54
  -5  -6  -4   16.55    6.40
  -5  -6  -4   10.80    4.02
  -5  -6  -3   32.62    7.80
  -5  -6  -3   25.44    6.22
  -5  -6  -2   45.69    8.76
  -5  -6  -2   29.18    6.35
  -5  -6  -1   13.58    4.53
  -5  -6  -1   23.22    6.47
  -5  -6   0   -2.66    3.29
  -5  -6   9    0.03    0.74
  -5  -6  10   -0.17    0.59
  -5  -5  -6   16.45    6.67
  -5  -5  -6   -0.69    1.86
  -5  -5  -5   -1.29    1.84
  -5  -5  -5   10.07    4.95
  -5  -5  -4   14.91    5.72
  -5  -5  -4    2.39    1.83
  -5  -5  -3   41.74    8.48
  -5  -5  -3   27.36    6.31
  -5  -5  -2   55.48    8.96
  -5  -5  -2   37.13    6.90
  -5  -5  -1   30.16    7.01
  -5  -5  -1   26.78    5.56
  -5  -5   0    3.87    1.85
  -5  -5   0   18.88    4.72
  -5  -5  10   16.81   11.92
  -5  -5  11   22.34   16.57
  -5  -5  12   16.98   18.10
  -5  -5  13   44.14   23.32
  -5  -4  -7   20.62    6.03
  -5  -4  -6   19.74    7.13
  -5  -4  -6   11.94    4.22
  -5  -4  -5   14.30    5.71
  -5  -4  -5    3.17    0.62
  -5  -4  -4    5.17    3.59
  -5  -4  -4   -1.35    2.23
  -5  -4  -3   18.95    5.58
  -5  -4  -3   10.22    3.58
  -5  -4  -2   22.30    5.22
  -5  -4  -2   31.09    6.72
  -5  -4  -1   54.41    8.06
  -5  -4  -1   84.53   10.54
  -5  -4   0    4.63    2.78
  -5  -4   0   36.10    6.47
  -5  -4   1   64.79    8.23
  -5  -4   8   27.12    8.12
  -5  -4   9   30.81   10.31
  -5  -4  10   20.60    9.98
  -5  -4  11   14.24   12.05
  -5  -4  12   21.22   14.32
  -5  -4  13    1.15    1.66
  -5  -4  13   22.17   15.22
  -5  -4  14   33.89   18.11
  -5  -4  15   28.21   15.57
  -5  -3  -9    5.98    3.63
  -5  -3  -8   16.31    5.56
  -5  -3  -7   23.45    6.21
  -5  -3  -6   38.53    8.23
  -5  -3  -6   33.55    7.29
  -5  -3  -5   27.74    7.08
  -5  -3  -5   23.01    6.05
  -5  -3  -4   12.76    4.60
  -5  -3  -4    7.68    2.78
  -5  -3  -3   -3.14    2.33
  -5  -3  -3    3.70    2.89
  -5  -3  -2   13.87    4.21
  -5  -3  -2    6.94    2.57
  -5  -3  -1   15.15    4.59
  -5  -3  -1   11.44    3.55
  -5  -3   0   59.45    7.75
  -5  -3   0  -10.52    5.36
  -5  -3   1  114.53   10.46
  -5  -3   2  162.24   12.31
  -5  -3   6    7.19    2.20
  -5  -3   7   -0.23    0.53
  -5  -3   7   44.21    7.51
  -5  -3   8   53.64    8.56
  -5  -3   9   46.15   10.45
  -5  -3  10   27.55   10.03
  -5  -3  11   33.64   12.63
  -5  -3  12   14.30    9.71
  -5  -3  12   -0.53    1.21
  -5  -3  13   -0.05    0.99
  -5  -3  13   15.68   10.69
  -5  -3  14   22.15   11.97
  -5  -3  15   24.33   10.62
  -5  -3  16    4.60    4.28
  -5  -2  -9    0.10    0.99
  -5  -2  -8    8.89    4.12
  -5  -2  -7   20.99    5.83
  -5  -2  -6   24.66    6.40
  -5  -2  -6   30.96    7.11
  -5  -2  -5   30.48    6.61
  -5  -2  -5   39.55    7.26
  -5  -2  -4   31.12    6.60
  -5  -2  -4   21.78    5.69
  -5  -2  -3   15.22    4.29
  -5  -2  -3   19.30    5.02
  -5  -2  -2   -3.24    2.70
  -5  -2  -2    2.55    2.33
  -5  -2  -1    1.95    1.85
  -5  -2  -1   -5.78    4.70
  -5  -2   0   48.13    6.47
  -5  -2   1   90.29    8.96
  -5  -2   2  192.25   12.42
  -5  -2   3  107.56    9.19
  -5  -2   5    6.23    1.52
  -5  -2   6    1.20    1.03
  -5  -2   6   -0.07    0.43
  -5  -2   7   14.15    4.11
  -5  -2   8   25.83    6.34
  -5  -2   9   31.53    8.42
  -5  -2  10   51.91   10.51
  -5  -2  11   47.00   12.52
  -5  -2  11    0.03    0.84
  -5  -2  12   -0.47    1.71
  -5  -2  12   14.31    6.20
  -5  -2  13   -2.87    2.68
  -5  -2  14   -4.07    5.31
  -5  -2  15    0.98    0.84
  -5  -2  16    1.09    1.88
  -5  -1 -10    2.13    0.99
  -5  -1  -9    1.96    2.06
  -5  -1  -8   -0.35    0.70
  -5  -1  -7   14.86    4.80
  -5  -1  -6   29.53    6.36
  -5  -1  -6   17.14    4.88
  -5  -1  -5   37.10    7.04
  -5  -1  -5   45.77    7.38
  -5  -1  -4   86.41    9.39
  -5  -1  -4   75.35    9.58
  -5  -1  -3   32.97    6.41
  -5  -1  -3   42.79    6.59
  -5  -1  -2   -2.10    2.75
  -5  -1  -2    6.56    2.43
  -5  -1  -1   -0.24    1.99
  -5  -1   0    7.99    2.32
  -5  -1   1  123.67   10.34
  -5  -1   2  154.39   11.25
  -5  -1   3  134.89    9.94
  -5  -1   4    9.09    4.28
  -5  -1   5   34.67    3.90
  -5  -1   6    1.61    0.64
  -5  -1   7    3.34    2.28
  -5  -1   8   23.83    5.41
  -5  -1   9   31.16    7.54
  -5  -1  10   73.51   11.26
  -5  -1  11   44.00   10.32
  -5  -1  12   47.80   10.66
  -5  -1  13    5.17    3.66
  -5  -1  14   -1.68    3.01
  -5  -1  15   -4.54    3.33
  -5  -1  16   -1.58    2.44
  -5  -1  17    2.85    3.60
  -5   0 -11    9.54    4.78
  -5   0 -10   17.46    5.66
  -5   0  -9    7.78    3.60
  -5   0  -8    1.92    1.22
  -5   0  -7    1.92    1.42
  -5   0  -6    6.62    3.16
  -5   0  -5   56.57    7.34
  -5   0  -5   42.03    7.50
  -5   0  -4   65.72    9.04
  -5   0  -4   89.34    8.91
  -5   0  -3  176.51   13.96
  -5   0  -3  108.76   11.50
  -5   0  -2  126.77   11.26
  -5   0  -1   50.46    7.12
  -5   0   0    6.03    1.70
  -5   0   1   20.70    4.07
  -5   0   2  122.98    9.62
  -5   0   3  149.99   10.29
  -5   0   4   40.98    5.87
  -5   0   4   69.63    7.47
  -5   0   5  131.51    8.06
  -5   0   6   36.37    5.05
  -5   0   7   12.06    3.38
  -5   0   8    1.25    2.52
  -5   0   9    9.92    3.50
  -5   0  10   58.72    9.31
  -5   0  11   70.99   10.89
  -5   0  12   44.77    9.48
  -5   0  13   12.68    5.83
  -5   0  14    4.68    3.04
  -5   0  15    2.89    3.06
  -5   0  16    2.26    3.40
  -5   0  17   -1.07    1.83
  -5   1 -12    2.91    2.73
  -5   1 -11    7.09    3.58
  -5   1 -10   12.90    4.81
  -5   1  -9   22.36    6.69
  -5   1  -8    7.94    3.63
  -5   1  -7    3.47    1.74
  -5   1  -6   -1.22    1.89
  -5   1  -5    2.17    1.35
  -5   1  -4  123.07   12.27
  -5   1  -4   29.96    5.56
  -5   1  -3  143.70   12.46
  -5   1  -2  181.43   13.45
  -5   1  -1  170.76   12.24
  -5   1   0  146.64   11.35
  -5   1   1    5.74    1.56
  -5   1   2    1.16    0.16
  -5   1   3   60.25    6.38
  -5   1   4   67.77    6.55
  -5   1   4   74.75    7.13
  -5   1   5  147.70    8.65
  -5   1   6  241.41   12.26
  -5   1   7  147.33   10.66
  -5   1   8   47.86    6.67
  -5   1   9    3.14    2.26
  -5   1  10    7.73    3.43
  -5   1  11   35.13    7.85
  -5   1  12   37.84    8.02
  -5   1  13   17.87    6.52
  -5   1  14   11.85    5.32
  -5   1  15    6.12    3.74
  -5   1  16    2.13    2.52
  -5   1  17   -0.15    0.89
  -5   2 -12   -2.25    2.44
  -5   2 -11    1.02    1.40
  -5   2 -10   15.70    5.59
  -5   2  -9   23.71    6.78
  -5   2  -8   20.68    5.96
  -5   2  -7   13.36    4.81
  -5   2  -6    8.93    3.93
  -5   2  -5    0.74    1.86
  -5   2  -4   22.59    4.99
  -5   2  -3  117.53   11.13
  -5   2  -2  143.95   11.72
  -5   2  -1  157.28   11.43
  -5   2   0  129.04   10.20
  -5   2   1   49.05    6.05
  -5   2   2    2.95    0.56
  -5   2   3   -0.08    0.10
  -5   2   4   24.98    4.44
  -5   2   4   27.10    4.32
  -5   2   5  118.01    7.87
  -5   2   6  272.79   12.96
  -5   2   6  263.49   11.62
  -5   2   7  156.19    8.58
  -5   2   7  167.31   11.31
  -5   2   8  112.90    7.08
  -5   2   8  134.42   11.00
  -5   2   9   36.28    6.30
  -5   2  10    5.73    2.51
  -5   2  11    6.61    3.07
  -5   2  12   18.54    4.87
  -5   2  13   19.55    5.71
  -5   2  14    9.55    4.27
  -5   2  15   11.72    6.09
  -5   2  16    5.35    3.98
  -5   2  17    3.01    3.03
  -5   3 -12   -4.72    4.28
  -5   3 -11   -0.23    1.64
  -5   3 -10    0.58    0.80
  -5   3  -9   18.80    5.82
  -5   3  -8   32.80    7.92
  -5   3  -7   40.67    8.28
  -5   3  -6   43.37    8.24
  -5   3  -5   19.89    5.15
  -5   3  -4    4.03    1.99
  -5   3  -3   59.88    7.73
  -5   3  -2   53.00    6.96
  -5   3  -1   66.25    7.35
  -5   3   0  113.99    9.26
  -5   3   1  127.58    9.63
  -5   3   2   16.96    3.31
  -5   3   2   15.24    3.18
  -5   3   3    7.09    2.17
  -5   3   3    6.89    1.81
  -5   3   4    1.55    1.08
  -5   3   4    1.51    0.88
  -5   3   4    0.82    0.17
  -5   3   5   61.02    6.29
  -5   3   5   59.14    5.90
  -5   3   6  214.21   10.97
  -5   3   6  214.90   11.91
  -5   3   7  152.08    9.09
  -5   3   7  159.89   11.11
  -5   3   8   81.06    6.54
  -5   3   8   91.09    9.16
  -5   3   9   32.38    4.03
  -5   3   9   41.88    6.47
  -5   3  10    8.78    3.31
  -5   3  11   -0.13    1.61
  -5   3  12    1.53    1.47
  -5   3  13    7.49    3.56
  -5   3  14   13.22    5.15
  -5   3  15    8.42    4.29
  -5   3  16   11.18    5.11
  -5   3  17    1.86    2.17
  -5   4 -13    1.52    1.33
  -5   4 -12    3.21    1.05
  -5   4 -11    2.62    2.99
  -5   4 -10   -1.15    2.39
  -5   4  -9   10.54    4.28
  -5   4  -8   35.69    8.77
  -5   4  -7   64.82   10.71
  -5   4  -6   89.94   11.97
  -5   4  -5   67.71    9.62
  -5   4  -4   23.40    5.14
  -5   4  -3    3.26    1.83
  -5   4  -2    8.82    2.51
  -5   4  -1   56.63    6.68
  -5   4   0  108.25    8.97
  -5   4   0  103.39    8.66
  -5   4   1  181.27   11.62
  -5   4   1  181.20   11.04
  -5   4   2  135.20    9.73
  -5   4   2  148.37    9.68
  -5   4   3   77.52    7.27
  -5   4   3   80.07    6.81
  -5   4   4   29.24    4.45
  -5   4   4   25.56    3.61
  -5   4   5    0.94    1.10
  -5   4   5    1.77    1.01
  -5   4   6   80.02    7.25
  -5   4   6   79.61    7.45
  -5   4   7  122.62    9.81
  -5   4   7  119.85    8.88
  -5   4   8   48.71    5.71
  -5   4   8   51.90    7.33
  -5   4   9   57.25    7.86
  -5   4   9   48.53    5.68
  -5   4  10   21.66    5.00
  -5   4  11    5.32    2.50
  -5   4  12   -0.82    1.95
  -5   4  13   -1.51    2.26
  -5   4  14    3.67    2.42
  -5   4  15    9.53    4.41
  -5   4  16    9.32    4.51
  -5   4  17    4.39    3.43
  -5   5 -13    6.91    4.39
  -5   5 -12    4.62    3.45
  -5   5 -11    8.91    4.54
  -5   5 -10    0.30    0.23
  -5   5  -9    1.25    1.42
  -5   5  -8   17.51    5.98
  -5   5  -7   30.50    7.49
  -5   5  -6   96.42   12.85
  -5   5  -5  119.87   13.00
  -5   5  -4   59.74    8.46
  -5   5  -3   16.70    4.11
  -5   5  -2    7.75    2.91
  -5   5  -2    6.92    2.65
  -5   5  -1    1.00    0.91
  -5   5  -1    0.13    1.17
  -5   5   0   82.38    8.10
  -5   5   0   79.20    7.47
  -5   5   1  210.26   13.02
  -5   5   1  204.20   11.55
  -5   5   2  354.60   14.50
  -5   5   2  346.37   16.57
  -5   5   3  260.72   14.12
  -5   5   3  246.37   11.28
  -5   5   4  137.38   10.24
  -5   5   4  123.94    7.35
  -5   5   5   22.74    4.19
  -5   5   5   19.87    4.09
  -5   5   6    0.03    0.81
  -5   5   6    0.38    0.23
  -5   5   7   27.64    4.58
  -5   5   7   26.00    4.63
  -5   5   8   25.77    5.05
  -5   5   8   23.23    4.28
  -5   5   9   36.76    6.35
  -5   5   9   33.31    5.29
  -5   5  10   38.93    5.66
  -5   5  10   45.98    8.19
  -5   5  11   37.74    7.05
  -5   5  12   12.53    4.11
  -5   5  13   -0.46    1.09
  -5   5  14   -4.88    2.93
  -5   5  15   -0.62    1.43
  -5   5  16    2.75    2.36
  -5   6 -13   -1.27    3.00
  -5   6 -12    7.36    4.16
  -5   6 -11   15.01    6.73
  -5   6 -10   11.06    5.18
  -5   6  -9    0.86    1.67
  -5   6  -8    1.14    1.17
  -5   6  -7   16.61    5.59
  -5   6  -6   22.30    6.03
  -5   6  -5   64.94    9.98
  -5   6  -4   66.02    9.26
  -5   6  -4   66.58    7.77
  -5   6  -3   48.73    7.29
  -5   6  -3   45.29    6.38
  -5   6  -2   25.11    4.85
  -5   6  -2   27.81    4.82
  -5   6  -1   17.78    3.89
  -5   6  -1   17.98    3.89
  -5   6   0   15.41    3.76
  -5   6   0   12.59    2.78
  -5   6   1   86.88    7.33
  -5   6   1   94.46    9.03
  -5   6   2  165.58   12.08
  -5   6   2  165.60    9.51
  -5   6   3  183.08   12.56
  -5   6   3  189.79    9.40
  -5   6   4  198.46   13.00
  -5   6   4  197.37    8.69
  -5   6   5   76.24    7.98
  -5   6   6    9.81    2.89
  -5   6   6   10.54    3.03
  -5   6   7   -0.28    0.95
  -5   6   7    1.49    1.69
  -5   6   8    2.16    1.57
  -5   6   8    1.08    1.32
  -5   6   9   15.21    4.45
  -5   6   9   18.12    4.31
  -5   6  10   37.33    6.48
  -5   6  10   48.73    8.42
  -5   6  11   56.35    8.88
  -5   6  12   42.38    7.98
  -5   6  13   15.61    5.10
  -5   6  14   -0.77    1.18
  -5   6  15    0.14    1.39
  -5   6  16    1.93    1.98
  -5   7 -13    1.27    0.82
  -5   7 -12    9.76    5.10
  -5   7 -11   15.77    6.79
  -5   7 -10   19.74    7.36
  -5   7  -9    6.35    4.23
  -5   7  -8   -2.09    3.38
  -5   7  -7   -1.61    2.62
  -5   7  -6    6.69    3.64
  -5   7  -5   32.50    7.20
  -5   7  -5   29.74    5.39
  -5   7  -4   51.46    6.95
  -5   7  -4   48.23    8.17
  -5   7  -3   52.76    6.99
  -5   7  -3   54.28    7.75
  -5   7  -2   50.35    6.74
  -5   7  -2   44.32    6.45
  -5   7  -1   43.36    6.35
  -5   7  -1   40.74    5.83
  -5   7   0    2.01    0.78
  -5   7   0    1.63    1.24
  -5   7   1   34.97    4.54
  -5   7   1   34.70    5.78
  -5   7   2   61.46    7.29
  -5   7   2   59.99    5.45
  -5   7   3   69.21    7.82
  -5   7   3   67.13    5.20
  -5   7   4   56.98    7.28
  -5   7   5   63.60    7.73
  -5   7   6   16.52    3.99
  -5   7   7    9.71    3.22
  -5   7   7    7.91    2.82
  -5   7   8   -1.29    1.48
  -5   7   8    1.55    1.46
  -5   7   9    3.35    3.08
  -5   7   9    2.54    1.72
  -5   7  10   23.68    5.83
  -5   7  10   19.53    5.42
  -5   7  11   37.89    7.19
  -5   7  12   39.35    7.93
  -5   7  13    9.91    4.01
  -5   7  14    2.22    1.83
  -5   7  15    0.28    0.20
  -5   8 -12    1.35    0.46
  -5   8 -11   10.41    5.44
  -5   8 -10   27.69    8.73
  -5   8  -9   14.92    6.34
  -5   8  -8    4.88    2.76
  -5   8  -7    0.27    2.58
  -5   8  -6   -0.20    1.02
  -5   8  -6   -2.69    3.80
  -5   8  -5    6.48    2.76
  -5   8  -5    5.89    2.97
  -5   8  -4   35.42    6.29
  -5   8  -4   36.51    7.34
  -5   8  -3   58.06    8.00
  -5   8  -3   61.07    8.50
  -5   8  -2  111.67   10.51
  -5   8  -2  119.27   10.96
  -5   8  -1   87.45    8.45
  -5   8  -1   88.16    9.40
  -5   8   0   41.24    6.39
  -5   8   0   43.05    5.41
  -5   8   1    1.52    0.22
  -5   8   1    0.07    0.59
  -5   8   2    3.15    1.47
  -5   8   3   17.90    4.15
  -5   8   4   24.65    5.05
  -5   8   5   49.45    7.37
  -5   8   6   41.76    7.14
  -5   8   7   13.39    4.16
  -5   8   8    9.54    4.18
  -5   8   8    6.03    2.90
  -5   8   9    2.75    2.41
  -5   8   9   -0.63    0.78
  -5   8  10    2.64    0.81
  -5   8  10    8.85    4.11
  -5   8  11   32.53    7.11
  -5   8  12   10.02    4.21
  -5   8  13    7.46    3.45
  -5   8  14   -0.40    1.01
  -5   9 -12    2.31    2.71
  -5   9 -11    5.24    4.08
  -5   9 -10   14.39    6.87
  -5   9  -9   15.06    7.26
  -5   9  -8   14.01    5.80
  -5   9  -7   14.69    5.96
  -5   9  -7   20.76    5.40
  -5   9  -6    6.87    2.69
  -5   9  -6   11.24    3.63
  -5   9  -5   -2.13    2.83
  -5   9  -5    0.18    0.64
  -5   9  -4   22.90    5.80
  -5   9  -4   25.50    5.09
  -5   9  -3   35.61    6.88
  -5   9  -3   34.90    6.18
  -5   9  -2   75.74    8.99
  -5   9  -2   75.32    9.12
  -5   9  -1  108.33   10.70
  -5   9  -1  107.84    9.52
  -5   9   0   80.91    9.33
  -5   9   0   82.71    7.43
  -5   9   1   29.13    5.65
  -5   9   2    4.82    2.03
  -5   9   3   -0.32    0.74
  -5   9   4   11.50    3.73
  -5   9   5   33.33    6.63
  -5   9   6   42.95    8.09
  -5   9   7   48.80    8.95
  -5   9   8   27.64    7.03
  -5   9   9    2.62    0.64
  -5   9   9   11.66    4.16
  -5   9  10    1.46    1.67
  -5   9  10   -3.19    3.37
  -5   9  11    1.69    2.13
  -5   9  12    9.69    4.42
  -5   9  13    5.85    3.47
  -5  10 -11    1.43    3.33
  -5  10 -10    5.35    4.90
  -5  10  -9    9.05    5.11
  -5  10  -8    5.86    2.94
  -5  10  -7   15.35    4.64
  -5  10  -7    9.76    4.26
  -5  10  -6   11.13    4.55
  -5  10  -6   19.16    4.86
  -5  10  -5    7.31    2.92
  -5  10  -5    1.81    1.57
  -5  10  -4   -0.15    0.77
  -5  10  -4   -1.34    2.16
  -5  10  -3   12.66    3.92
  -5  10  -3   13.75    4.21
  -5  10  -2   24.33    5.40
  -5  10  -2   23.47    5.06
  -5  10  -1   55.89    8.01
  -5  10   0   50.23    7.63
  -5  10   1   32.89    6.22
  -5  10   2   14.38    4.34
  -5  10   3   11.47    3.83
  -5  10   4    0.35    0.50
  -5  10   5    9.91    3.89
  -5  10   6   37.71    8.23
  -5  10   7   28.23    7.57
  -5  10   8   30.61    7.99
  -5  10   9    6.17    3.97
  -5  10  10    1.67    1.97
  -5  10  11    1.64    1.54
  -5  10  12    1.16    1.45
  -5  11  -9    1.66    1.63
  -5  11  -8   -0.24    4.18
  -5  11  -8    4.49    2.60
  -5  11  -7   13.71    4.57
  -5  11  -7    8.22    4.22
  -5  11  -6   14.59    5.82
  -5  11  -6   18.20    5.03
  -5  11  -5    8.27    3.18
  -5  11  -5    0.50    2.50
  -5  11  -4    0.91    0.90
  -5  11  -4    1.22    1.13
  -5  11  -3   -2.95    2.47
  -5  11  -2   -0.46    0.90
  -5  11  -1   11.06    3.84
  -5  11   0   13.41    4.44
  -5  11   1   22.72    5.71
  -5  11   2   12.97    4.23
  -5  11   3   12.49    4.42
  -5  11   4    1.18    1.23
  -5  11   5    0.12    0.19
  -5  11   6    7.47    3.49
  -5  11   7   10.21    4.95
  -5  11   8    6.82    3.74
  -5  11   9    3.81    0.66
  -5  12  -7    7.61    3.19
  -5  12  -6   21.49    5.55
  -5  12  -5   16.43    4.78
  -5  12  -4    7.03    3.07
  -5  12  -3    3.59    1.78
  -5  12  -2    0.37    0.37
  -5  12  -1   -0.31    0.59
  -5  12   0    4.82    2.55
  -5  12   1   10.37    4.08
  -5  12   2   19.80    5.97
  -5  12   3   10.37    4.74
  -5  12   4   16.49    5.51
  -5  12   5    0.18    0.79
  -5  12   6   -0.29    2.33
  -5  12   7   -0.39    2.37
  -5  12   8   -1.72    3.77
  -5  13  -6    7.65    3.68
  -5  13  -5   11.59    4.41
  -5  13  -4   11.03    4.07
  -5  13  -3   11.28    4.40
  -5  13  -2    7.09    3.21
  -5  13  -1    0.49    0.83
  -5  13   0    3.03    1.81
  -5  13   1    6.41    3.58
  -5  13   2   10.94    4.69
  -5  13   3   22.71    6.94
  -5  13   4   13.60    5.69
  -5  13   5    6.76    4.43
  -5  13   6    1.88    0.68
  -5  13   7   -1.46    2.46
  -5  14  -5    3.10    2.14
  -5  14  -4    7.39    3.56
  -5  14  -3   11.39    4.35
  -5  14  -2    6.15    3.11
  -5  14  -1    2.72    1.99
  -5  14   0   -1.59    2.47
  -5  14   1   -0.02    0.58
  -5  14   2    3.91    3.13
  -5  14   3    4.79    3.15
  -5  14   4   14.40    6.03
  -5  14   5    7.87    4.92
  -5  14   6    2.71    3.26
  -5  15  -3    3.36    2.25
  -5  15  -2    4.67    2.80
  -5  15  -1    3.82    2.78
  -5  15   0    0.04    1.49
  -5  15   1    0.32    1.35
  -5  15   2   -1.74    2.51
  -5  15   3    2.56    2.06
  -4 -12   1  -19.87    9.50
  -4 -11  -2   13.64    6.09
  -4 -11  -1   13.99    5.96
  -4 -11   0   10.50    5.53
  -4 -11   1   -6.97    5.05
  -4 -11   9   -0.60    1.05
  -4 -10  -4   24.19    7.52
  -4 -10  -3   16.55    6.38
  -4 -10  -2   16.93    6.45
  -4 -10  -1   12.55    5.70
  -4 -10   0   15.36    6.29
  -4 -10   1   -7.79    3.96
  -4  -9  -5   20.83    6.92
  -4  -9  -4   14.88    6.00
  -4  -9  -3   15.67    6.30
  -4  -9  -2   17.31    5.76
  -4  -9  -1   20.82    6.23
  -4  -9   0   12.30    5.24
  -4  -9   1    6.06    4.09
  -4  -8  -6   -2.06    2.11
  -4  -8  -5    7.97    4.08
  -4  -8  -4    8.24    4.99
  -4  -8  -3   14.95    5.47
  -4  -8  -2   19.92    5.71
  -4  -8  -1   28.44    6.45
  -4  -8   0   43.93    8.27
  -4  -8   1   33.82    7.20
  -4  -8   2   -6.47    6.27
  -4  -8  10   -0.20    1.02
  -4  -7  -7    2.44    1.68
  -4  -7  -6    2.69    1.44
  -4  -7  -5    0.64    0.90
  -4  -7  -4    1.49    1.81
  -4  -7  -4    5.36    3.39
  -4  -7  -3    5.32    3.55
  -4  -7  -3    2.21    2.11
  -4  -7  -2   18.01    5.15
  -4  -7  -1   22.30    5.50
  -4  -7   0   48.40    7.62
  -4  -7   1   54.79    8.34
  -4  -7   2   -1.44    3.99
  -4  -7   8    0.23    0.77
  -4  -6  -7    6.90    3.31
  -4  -6  -6   11.33    4.05
  -4  -6  -6    6.33    3.09
  -4  -6  -5   11.74    4.15
  -4  -6  -5    8.43    3.37
  -4  -6  -4    5.38    2.34
  -4  -6  -4    5.80    2.40
  -4  -6  -3    5.76    3.36
  -4  -6  -3    0.28    0.47
  -4  -6  -2   14.83    4.47
  -4  -6  -2    3.57    2.20
  -4  -6  -1   17.77    4.74
  -4  -6  -1   22.96    5.53
  -4  -6   0   52.84    7.63
  -4  -6   1   96.04   10.37
  -4  -6   2   -1.11    3.96
  -4  -6   8  -42.33   36.19
  -4  -6   9  -39.55   49.13
  -4  -6   9    0.07    0.67
  -4  -6  12  -44.12   42.64
  -4  -6  13  -26.28   24.23
  -4  -6  14    9.06   18.73
  -4  -5  -8    1.85    1.61
  -4  -5  -7    5.85    2.68
  -4  -5  -7    3.88    2.12
  -4  -5  -6   17.31    4.76
  -4  -5  -6   12.82    4.36
  -4  -5  -5   41.26    7.55
  -4  -5  -5   51.35    8.08
  -4  -5  -4   52.35    8.13
  -4  -5  -4   60.04    8.34
  -4  -5  -3   22.29    5.16
  -4  -5  -3   20.43    5.16
  -4  -5  -2    6.63    2.98
  -4  -5  -2    3.67    1.83
  -4  -5  -1    0.62    1.20
  -4  -5  -1    1.33    0.81
  -4  -5   0   26.56    4.88
  -4  -5   0   31.21    5.45
  -4  -5   1   69.20    8.11
  -4  -5   2   -8.61    4.94
  -4  -5   6   -0.10    3.93
  -4  -5   7   -5.17   10.15
  -4  -5   7    0.19    0.64
  -4  -5  10   57.17   29.63
  -4  -5  11   -4.79   15.79
  -4  -5  12    0.19    1.30
  -4  -5  13  -27.36   21.86
  -4  -5  13   -0.49    0.95
  -4  -5  14   -0.32    0.19
  -4  -5  14    2.47    6.00
  -4  -5  15   14.84   16.90
  -4  -5  16   19.14   14.85
  -4  -4  -9    1.67    1.90
  -4  -4  -8    1.32    1.38
  -4  -4  -8    0.82    0.31
  -4  -4  -7   -0.23    1.20
  -4  -4  -7    2.08    1.62
  -4  -4  -6   13.55    4.39
  -4  -4  -6   10.09    3.42
  -4  -4  -5   59.22    8.54
  -4  -4  -5   45.18    7.62
  -4  -4  -4   80.89    9.61
  -4  -4  -4   89.10   10.37
  -4  -4  -3   85.40    9.20
  -4  -4  -3   92.10    9.74
  -4  -4  -2   49.47    6.77
  -4  -4  -2   50.52    7.06
  -4  -4  -1   17.04    3.85
  -4  -4  -1   17.34    3.68
  -4  -4   0    1.97    1.59
  -4  -4   0    0.64    0.83
  -4  -4   1   18.35    3.52
  -4  -4   1   37.37    5.77
  -4  -4   5  177.65   14.68
  -4  -4   6   87.90   15.51
  -4  -4   7    1.72    5.86
  -4  -4   8    0.33    2.04
  -4  -4   9   19.41   17.04
  -4  -4  10    5.02   11.93
  -4  -4  11   67.72   32.39
  -4  -4  12   45.88   24.41
  -4  -4  13   21.16   15.49
  -4  -4  14    8.77   12.82
  -4  -4  15   10.36   14.43
  -4  -4  16   14.76   11.52
  -4  -3 -10    5.90    3.09
  -4  -3  -9    7.56    3.58
  -4  -3  -8    1.57    1.61
  -4  -3  -8    3.06    2.11
  -4  -3  -7    0.37    0.41
  -4  -3  -7    1.63    1.37
  -4  -3  -6    5.44    2.59
  -4  -3  -6    6.24    2.93
  -4  -3  -5   27.14    5.44
  -4  -3  -5   32.62    6.44
  -4  -3  -4  101.59    9.97
  -4  -3  -4  113.61   11.56
  -4  -3  -3   75.94    9.05
  -4  -3  -3   78.60    8.16
  -4  -3  -2   53.75    6.82
  -4  -3  -2   55.06    7.00
  -4  -3  -1   28.20    4.65
  -4  -3  -1   26.82    4.63
  -4  -3   0   11.29    2.91
  -4  -3   0   17.09    3.66
  -4  -3   1    1.69    1.18
  -4  -3   2   22.85    4.39
  -4  -3   4  177.65    7.67
  -4  -3   5  193.90   12.50
  -4  -3   6  188.57   17.92
  -4  -3   7   21.79   10.14
  -4  -3   8   21.79   10.30
  -4  -3   9    1.96    6.49
  -4  -3  10   23.08   13.48
  -4  -3  11   58.48   20.98
  -4  -3  12   47.74   21.83
  -4  -3  13   25.44   17.72
  -4  -3  14   21.63   15.61
  -4  -3  15   20.44   13.89
  -4  -3  16   21.54   12.82
  -4  -3  17   13.58   11.04
  -4  -2 -11    2.80    1.70
  -4  -2 -10   15.24    5.06
  -4  -2  -9   22.03    5.97
  -4  -2  -8   13.82    4.86
  -4  -2  -8   22.01    5.43
  -4  -2  -7    5.64    3.10
  -4  -2  -7    6.41    3.03
  -4  -2  -6    0.54    1.19
  -4  -2  -6    0.44    1.03
  -4  -2  -5   15.93    4.04
  -4  -2  -5   19.03    4.79
  -4  -2  -4   68.82    8.30
  -4  -2  -4   62.54    7.40
  -4  -2  -3   80.99    7.84
  -4  -2  -3   82.93    8.92
  -4  -2  -2   49.62    6.89
  -4  -2  -2   58.15    6.17
  -4  -2  -1   94.03    7.79
  -4  -2  -1   82.62    8.44
  -4  -2   0   29.13    4.78
  -4  -2   0   47.84    5.97
  -4  -2   1    1.89    0.96
  -4  -2   2   13.44    3.33
  -4  -2   3   39.12    2.76
  -4  -2   3   43.21    5.14
  -4  -2   4  119.86    6.20
  -4  -2   5  230.94   12.01
  -4  -2   6  251.68   16.65
  -4  -2   7   43.76   10.34
  -4  -2   8    9.40    6.93
  -4  -2   9    5.72    5.54
  -4  -2  10   17.38    9.16
  -4  -2  11   42.30   14.84
  -4  -2  12   19.96   13.13
  -4  -2  13   50.25   18.55
  -4  -2  14   55.38   19.40
  -4  -2  15   32.78   14.12
  -4  -2  16   15.48   10.51
  -4  -2  17   10.67    7.17
  -4  -1 -11    0.39    1.71
  -4  -1 -10   14.61    4.91
  -4  -1  -9   40.49    8.01
  -4  -1  -8   36.09    6.73
  -4  -1  -8   45.71    8.08
  -4  -1  -7   35.27    6.28
  -4  -1  -7   40.26    7.43
  -4  -1  -6   51.79    7.90
  -4  -1  -6   49.29    6.89
  -4  -1  -5    0.80    0.71
  -4  -1  -5    1.50    1.28
  -4  -1  -4   15.07    3.20
  -4  -1  -4   13.30    3.66
  -4  -1  -3   69.81    6.83
  -4  -1  -3   66.18    7.87
  -4  -1  -2   67.99    6.16
  -4  -1  -2   73.31    7.68
  -4  -1  -1  198.27   12.54
  -4  -1  -1  233.97   11.57
  -4  -1   0  189.15   11.57
  -4  -1   1  229.38   12.00
  -4  -1   2   35.74    4.66
  -4  -1   3    1.55    0.95
  -4  -1   3    0.38    0.41
  -4  -1   4   71.77    4.97
  -4  -1   5  218.78   10.97
  -4  -1   6  133.43   10.97
  -4  -1   7  146.54   13.88
  -4  -1   8   51.49    9.12
  -4  -1   9   42.71   10.45
  -4  -1   9    0.49    0.52
  -4  -1  10    0.25    0.87
  -4  -1  10    5.62    5.74
  -4  -1  11    9.24    7.36
  -4  -1  12   47.59   15.03
  -4  -1  13   29.54   12.36
  -4  -1  14   49.38   15.40
  -4  -1  15   33.04   11.63
  -4  -1  16   -1.02    1.77
  -4  -1  17    2.12    2.49
  -4   0 -12    0.41    0.52
  -4   0 -11   -0.66    1.41
  -4   0 -10    6.48    3.06
  -4   0  -9   37.37    7.84
  -4   0  -8   59.22    9.39
  -4   0  -7   62.07    7.95
  -4   0  -7   70.44    9.74
  -4   0  -6   60.03    8.57
  -4   0  -6   62.86    7.09
  -4   0  -5   63.58    6.71
  -4   0  -5   52.49    7.72
  -4   0  -4    0.45    1.06
  -4   0  -4    2.19    1.49
  -4   0  -3    2.00    1.21
  -4   0  -3   -0.24    0.82
  -4   0  -2   35.80    5.39
  -4   0  -2   39.99    4.64
  -4   0  -1  136.65    9.77
  -4   0   0  763.01   22.58
  -4   0   1  349.88   14.77
  -4   0   2  278.00   12.43
  -4   0   3  122.99    8.25
  -4   0   3  139.11    6.69
  -4   0   4   -0.11    0.24
  -4   0   4   17.59    2.52
  -4   0   5   22.26    3.96
  -4   0   6  106.18    9.39
  -4   0   7  137.09   11.51
  -4   0   8  101.70   11.65
  -4   0   9  139.70   14.98
  -4   0  10   82.40   12.22
  -4   0  11   14.22    6.03
  -4   0  12    3.13    3.46
  -4   0  13   12.19    6.00
  -4   0  14   18.21    7.68
  -4   0  15   23.21    8.85
  -4   0  16    8.77    5.64
  -4   0  17    0.78    2.43
  -4   1 -13    4.40    3.29
  -4   1 -12    7.09    4.16
  -4   1 -11    2.72    1.75
  -4   1 -10    0.81    0.44
  -4   1  -9   15.67    5.11
  -4   1  -8   22.59    5.68
  -4   1  -7   49.90    8.16
  -4   1  -6   70.34    6.76
  -4   1  -6   70.46    9.18
  -4   1  -5   81.17    9.66
  -4   1  -5   93.86    7.15
  -4   1  -4   18.33    4.43
  -4   1  -4   23.74    3.37
  -4   1  -3   16.63    3.71
  -4   1  -3   21.60    3.19
  -4   1  -2    0.17    1.28
  -4   1  -1   53.23    5.98
  -4   1   0  300.61   13.72
  -4   1   1  438.54   15.90
  -4   1   2  397.60   14.40
  -4   1   3  160.52    9.00
  -4   1   3  134.95    8.54
  -4   1   4   88.07    5.99
  -4   1   4   89.31    6.54
  -4   1   5   -0.17    1.02
  -4   1   6   12.11    3.19
  -4   1   7   42.57    6.47
  -4   1   8   93.45   10.37
  -4   1   9  178.13   15.41
  -4   1  10  179.75   16.49
  -4   1  11   54.49    9.79
  -4   1  12   12.25    5.30
  -4   1  13    1.21    2.94
  -4   1  14    6.15    4.46
  -4   1  15    6.88    5.41
  -4   1  16    7.76    5.06
  -4   1  17    2.35    2.87
  -4   2 -13   10.15    4.83
  -4   2 -12   15.27    5.53
  -4   2 -11    9.50    4.58
  -4   2 -10    4.53    2.84
  -4   2  -9    1.77    1.20
  -4   2  -8    5.53    3.29
  -4   2  -7   13.51    4.28
  -4   2  -6   87.68   10.66
  -4   2  -5   97.96   10.46
  -4   2  -4   28.47    4.61
  -4   2  -4   77.73    8.75
  -4   2  -3   62.04    7.36
  -4   2  -2   17.85    3.60
  -4   2  -1   13.32    2.90
  -4   2   0  156.46    9.64
  -4   2   1  353.11   13.91
  -4   2   2  116.75    7.55
  -4   2   2  118.59    7.68
  -4   2   3   53.30    5.03
  -4   2   3   55.68    4.88
  -4   2   3   50.91    4.67
  -4   2   4  117.29    7.28
  -4   2   4  126.04    7.37
  -4   2   4  116.71    7.19
  -4   2   5   31.18    3.53
  -4   2   5   31.10    3.88
  -4   2   6   -3.86    1.56
  -4   2   6    1.07    0.59
  -4   2   7    5.81    1.46
  -4   2   7    3.52    2.16
  -4   2   8   60.78    4.63
  -4   2   8   81.74    9.09
  -4   2   9  143.62   12.87
  -4   2  10  157.54   14.69
  -4   2  11   63.41   10.03
  -4   2  12   19.56    5.61
  -4   2  13    6.05    3.31
  -4   2  14    1.97    2.37
  -4   2  15    5.50    3.97
  -4   2  16   -0.52    0.50
  -4   2  17    3.06    3.00
  -4   3 -14    3.48    2.11
  -4   3 -13    8.21    4.02
  -4   3 -12   21.10    6.72
  -4   3 -11   32.86    8.00
  -4   3 -10   17.95    5.92
  -4   3  -9    1.58    1.76
  -4   3  -8    0.92    0.30
  -4   3  -7    2.16    1.18
  -4   3  -6   36.22    6.95
  -4   3  -5  172.14   14.22
  -4   3  -4  251.82   15.85
  -4   3  -3  132.40   10.66
  -4   3  -2  219.75   12.65
  -4   3  -1   19.66    3.39
  -4   3  -1   18.24    3.35
  -4   3   0   17.28    3.23
  -4   3   0   20.22    3.25
  -4   3   1  134.45    8.31
  -4   3   1  133.58    8.52
  -4   3   2   22.03    3.38
  -4   3   2   24.00    3.45
  -4   3   3  607.73   17.42
  -4   3   3  572.13   15.41
  -4   3   4   46.54    4.79
  -4   3   4   45.93    4.65
  -4   3   4   46.60    4.18
  -4   3   5  124.87    8.37
  -4   3   5  139.42    8.21
  -4   3   6   25.68    4.55
  -4   3   6   32.93    3.92
  -4   3   7    2.70    1.20
  -4   3   7    4.19    1.39
  -4   3   8    9.13    2.03
  -4   3   8    6.80    2.60
  -4   3   9   42.67    7.45
  -4   3   9   40.33    4.48
  -4   3  10  122.07   12.51
  -4   3  11   62.45    9.25
  -4   3  12   14.70    5.08
  -4   3  13    8.85    3.83
  -4   3  14    2.34    2.41
  -4   3  15    2.23    2.33
  -4   3  16   -0.07    0.88
  -4   3  17    2.37    2.95
  -4   4 -14    0.39    0.63
  -4   4 -13    4.85    3.14
  -4   4 -12   12.10    5.34
  -4   4 -11   24.48    7.09
  -4   4 -10   34.70    8.21
  -4   4  -9   25.41    6.98
  -4   4  -8    9.89    4.15
  -4   4  -7    8.25    3.38
  -4   4  -6   10.39    3.73
  -4   4  -5  102.32   11.20
  -4   4  -4  213.87   15.03
  -4   4  -3  267.96   15.30
  -4   4  -2  289.10   13.46
  -4   4  -2  276.18   14.17
  -4   4  -1  170.75   10.44
  -4   4  -1  182.64   10.64
  -4   4   0   37.83    4.62
  -4   4   0   35.30    4.36
  -4   4   1    1.28    0.64
  -4   4   1    1.47    1.04
  -4   4   2   48.24    5.33
  -4   4   2   48.70    4.61
  -4   4   3    5.56    1.32
  -4   4   3    6.80    1.92
  -4   4   4  574.08   18.13
  -4   4   4  573.75   18.03
  -4   4   4  536.45   13.28
  -4   4   5  381.30   14.71
  -4   4   5  358.07   14.47
  -4   4   6  217.70   11.29
  -4   4   6  218.99   12.12
  -4   4   7   80.58    7.02
  -4   4   7   83.49    8.37
  -4   4   8   21.83    3.73
  -4   4   8   19.21    4.11
  -4   4   9   15.23    3.23
  -4   4   9   19.18    4.39
  -4   4  10   15.94    5.13
  -4   4  10   18.92    3.70
  -4   4  11   30.65    6.50
  -4   4  12   26.51    6.24
  -4   4  13   18.20    5.23
  -4   4  14   12.10    4.48
  -4   4  15   -0.29    1.11
  -4   4  16    0.22    1.01
  -4   4  17   -0.78    1.28
  -4   5 -14   -0.38    1.39
  -4   5 -13    2.41    2.55
  -4   5 -12    2.53    2.41
  -4   5 -11   18.72    6.43
  -4   5 -10   25.34    7.45
  -4   5  -9   18.31    5.78
  -4   5  -8   32.18    7.70
  -4   5  -7   39.35    8.36
  -4   5  -6    1.63    0.61
  -4   5  -5   25.03    5.79
  -4   5  -4   76.95    7.61
  -4   5  -4   75.40    9.15
  -4   5  -3  111.14    9.19
  -4   5  -3  118.40   10.48
  -4   5  -2  156.82   10.29
  -4   5  -2  149.83   10.72
  -4   5  -1  191.97   10.95
  -4   5  -1  204.73   11.75
  -4   5   0   72.06    6.23
  -4   5   0   69.99    7.10
  -4   5   1   31.42    4.58
  -4   5   1   29.07    3.71
  -4   5   2    4.39    1.59
  -4   5   2    3.97    1.36
  -4   5   3   13.55    3.02
  -4   5   3   13.33    1.97
  -4   5   4  192.00   11.31
  -4   5   4  196.88   11.00
  -4   5   5  207.50   11.92
  -4   5   5  239.44   12.83
  -4   5   6  244.61   13.19
  -4   5   6  245.68   13.40
  -4   5   7  136.36   10.68
  -4   5   7  121.57    9.84
  -4   5   8   73.75    8.59
  -4   5   8   70.58    7.81
  -4   5   9    5.26    2.84
  -4   5   9    6.97    2.55
  -4   5  10   -0.78    1.89
  -4   5  10    0.65    0.48
  -4   5  11    5.33    3.13
  -4   5  12    4.59    2.60
  -4   5  13   27.05    6.41
  -4   5  14   20.64    5.79
  -4   5  15   11.48    4.65
  -4   5  16    1.34    1.60
  -4   6 -14    3.47    3.50
  -4   6 -13    2.32    2.28
  -4   6 -12    1.70    1.87
  -4   6 -11    4.98    3.31
  -4   6 -10   20.36    6.73
  -4   6  -9   36.29    8.92
  -4   6  -8   44.36    9.19
  -4   6  -7   46.36    9.03
  -4   6  -6   23.68    5.96
  -4   6  -5    2.18    0.98
  -4   6  -5    0.91    0.86
  -4   6  -4    7.94    2.85
  -4   6  -4    7.08    2.23
  -4   6  -3   23.28    4.24
  -4   6  -3   22.09    4.76
  -4   6  -2   46.31    5.99
  -4   6  -2   42.96    5.93
  -4   6  -1  121.50    8.83
  -4   6  -1  132.01    9.91
  -4   6   0   89.09    6.90
  -4   6   0   86.14    7.99
  -4   6   1   49.65    6.04
  -4   6   1   55.81    4.96
  -4   6   2   22.94    4.13
  -4   6   2   24.60    2.99
  -4   6   3    0.89    0.51
  -4   6   3    0.08    0.44
  -4   6   4   35.69    5.13
  -4   6   5  121.70    9.90
  -4   6   5  131.89    9.72
  -4   6   6  146.42   11.44
  -4   6   6  165.42   11.56
  -4   6   7   60.17    7.89
  -4   6   7   63.51    7.51
  -4   6   8   38.92    6.89
  -4   6   8   36.90    6.34
  -4   6   9   19.92    4.63
  -4   6   9   17.44    5.10
  -4   6  10    0.15    1.29
  -4   6  10    3.02    2.62
  -4   6  11   -2.01    1.92
  -4   6  11    0.14    0.71
  -4   6  12   -1.06    2.03
  -4   6  13   12.65    4.62
  -4   6  14   18.26    5.73
  -4   6  15    9.07    4.10
  -4   7 -14    4.16    2.75
  -4   7 -13    6.20    4.32
  -4   7 -12    2.89    2.39
  -4   7 -11   -0.06    1.79
  -4   7 -10   11.55    5.28
  -4   7  -9   28.18    8.13
  -4   7  -8   51.10   10.39
  -4   7  -7   70.38   11.93
  -4   7  -6   90.68   12.84
  -4   7  -6   91.71    9.59
  -4   7  -5    8.24    2.92
  -4   7  -5    8.73    3.09
  -4   7  -4   -0.33    1.43
  -4   7  -4    3.15    1.57
  -4   7  -3    0.14    1.30
  -4   7  -3    1.43    1.25
  -4   7  -2   19.79    4.23
  -4   7  -2   20.58    4.07
  -4   7  -1   87.34    8.38
  -4   7  -1   83.83    7.60
  -4   7   0  112.33    7.74
  -4   7   0  109.02    9.15
  -4   7   1  133.33   10.19
  -4   7   1  144.07    7.83
  -4   7   2  109.16    9.36
  -4   7   2  107.79    5.87
  -4   7   3   32.42    5.21
  -4   7   4    0.07    0.80
  -4   7   5   48.20    7.07
  -4   7   6   10.05    3.44
  -4   7   6   11.24    3.24
  -4   7   7   57.12    8.01
  -4   7   7   52.85    8.70
  -4   7   8   27.80    6.71
  -4   7   8   28.85    5.69
  -4   7   9   23.42    5.83
  -4   7   9   23.45    6.89
  -4   7  10    4.86    2.83
  -4   7  10    5.84    3.11
  -4   7  11    1.58    1.77
  -4   7  11    0.87    0.25
  -4   7  12   -0.56    1.50
  -4   7  13    0.17    0.81
  -4   7  14   10.86    4.24
  -4   7  15    8.90    4.13
  -4   8 -14    2.37    2.95
  -4   8 -13    7.34    4.70
  -4   8 -12   11.34    6.15
  -4   8 -11    3.71    3.59
  -4   8 -10    2.14    2.80
  -4   8  -9    6.33    3.44
  -4   8  -8   22.23    6.60
  -4   8  -7   63.13   11.71
  -4   8  -7   72.83    8.88
  -4   8  -6   50.47    6.89
  -4   8  -6   41.58    9.07
  -4   8  -5   73.76   11.38
  -4   8  -5   78.30    8.34
  -4   8  -4   20.92    4.94
  -4   8  -4   23.34    4.70
  -4   8  -3   28.44    4.94
  -4   8  -3   24.21    5.07
  -4   8  -2    0.52    0.98
  -4   8  -2    0.64    0.19
  -4   8  -1   38.30    5.25
  -4   8  -1   33.67    5.51
  -4   8   0  174.08   12.35
  -4   8   0  180.97    9.84
  -4   8   1  133.90   10.83
  -4   8   1  135.58    7.51
  -4   8   2  163.05   12.08
  -4   8   3  121.44   10.87
  -4   8   4   35.28    6.35
  -4   8   5    1.31    1.97
  -4   8   6    4.35    2.21
  -4   8   7   10.79    3.35
  -4   8   7    8.78    3.86
  -4   8   8   37.42    6.68
  -4   8   8   26.37    7.09
  -4   8   9   49.70    8.06
  -4   8   9   26.12    7.88
  -4   8  10   36.30    7.07
  -4   8  10   18.05    6.22
  -4   8  11   10.32    3.70
  -4   8  11    4.87    2.94
  -4   8  12    2.53    1.35
  -4   8  13   -0.83    1.46
  -4   8  14   -0.85    1.92
  -4   9 -13    5.79    5.15
  -4   9 -12   16.99    7.38
  -4   9 -11   11.37    5.91
  -4   9 -10   -2.08    3.34
  -4   9  -9   -6.87    5.77
  -4   9  -8   -2.76    4.13
  -4   9  -8    1.07    0.18
  -4   9  -7   13.63    3.89
  -4   9  -7    6.94    2.61
  -4   9  -6   51.39    7.09
  -4   9  -6   36.62    9.00
  -4   9  -5   26.05    6.80
  -4   9  -5   23.64    4.91
  -4   9  -4   33.58    6.98
  -4   9  -4   36.00    5.83
  -4   9  -3   48.53    7.89
  -4   9  -3   41.61    6.56
  -4   9  -2    9.62    2.97
  -4   9  -2    9.76    2.96
  -4   9  -1    2.24    1.23
  -4   9  -1    0.67    0.51
  -4   9   0   33.85    5.69
  -4   9   0   32.30    4.22
  -4   9   1   77.61    8.71
  -4   9   2  117.65   11.05
  -4   9   3   94.13   10.63
  -4   9   4   54.97    8.63
  -4   9   5   13.92    4.75
  -4   9   6    1.94    2.35
  -4   9   7    0.65    0.61
  -4   9   8   11.23    5.26
  -4   9   8   17.53    4.73
  -4   9   9   34.14    6.83
  -4   9   9   16.77    5.76
  -4   9  10   51.29    8.73
  -4   9  10    6.96    3.27
  -4   9  11   23.63    6.33
  -4   9  12   11.29    4.54
  -4   9  13    2.96    2.35
  -4  10 -12   18.18    8.11
  -4  10 -11   10.89    6.14
  -4  10 -10    0.76    1.93
  -4  10  -9    3.61    2.12
  -4  10  -9   -0.44    3.40
  -4  10  -8    1.10    0.77
  -4  10  -8   -7.07    6.69
  -4  10  -7    1.28    0.66
  -4  10  -7   -3.01    5.17
  -4  10  -6    8.30    3.09
  -4  10  -6    2.90    2.44
  -4  10  -5   23.35    7.08
  -4  10  -5   27.91    5.54
  -4  10  -4   22.30    6.40
  -4  10  -4   22.59    4.93
  -4  10  -3   42.60    7.63
  -4  10  -3   42.22    6.58
  -4  10  -2   29.33    5.42
  -4  10  -2   29.62    5.55
  -4  10  -1    1.37    0.69
  -4  10   0    1.11    0.38
  -4  10   1   12.72    3.82
  -4  10   2   16.49    4.65
  -4  10   3   30.79    6.76
  -4  10   4   24.17    6.29
  -4  10   5   21.59    6.24
  -4  10   6    4.17    2.54
  -4  10   7    1.16    1.67
  -4  10   8   -0.81    3.68
  -4  10   9    0.36    3.27
  -4  10  10   18.61    5.39
  -4  10  10    2.00    2.11
  -4  10  11   19.60    5.74
  -4  10  12    7.58    3.70
  -4  11 -11    5.57    4.08
  -4  11 -10    6.94    4.04
  -4  11  -9   -2.31    5.26
  -4  11  -8    0.38    4.39
  -4  11  -8    4.45    2.46
  -4  11  -7   -4.90    6.04
  -4  11  -7    1.94    1.88
  -4  11  -6   -3.51    5.17
  -4  11  -6    2.73    1.63
  -4  11  -5    8.12    3.96
  -4  11  -5    9.39    3.37
  -4  11  -4   36.72    6.42
  -4  11  -4   41.96    9.23
  -4  11  -3   34.29    6.26
  -4  11  -2   44.94    7.39
  -4  11  -1   16.56    4.33
  -4  11   0    4.25    2.02
  -4  11   1   -0.08    1.60
  -4  11   2    0.75    1.30
  -4  11   3   15.41    4.99
  -4  11   4   12.29    4.37
  -4  11   5    6.39    3.12
  -4  11   6   13.14    5.31
  -4  11   7    3.66    2.76
  -4  11   8   -4.26    4.08
  -4  11   9   -6.91    6.98
  -4  12  -8    9.35    3.49
  -4  12  -7    4.30    2.86
  -4  12  -6   -0.05    1.29
  -4  12  -5    0.85    0.57
  -4  12  -4   10.40    3.57
  -4  12  -3   31.82    6.21
  -4  12  -2   37.11    7.07
  -4  12  -1   28.34    6.43
  -4  12   0   12.40    4.39
  -4  12   1    7.03    3.33
  -4  12   2    0.93    1.55
  -4  12   3   -1.71    2.22
  -4  12   4   13.30    5.63
  -4  12   5   22.50    6.89
  -4  12   6   13.04    5.27
  -4  12   7    6.18    3.72
  -4  12   8   -2.69    5.02
  -4  13  -7    5.55    2.64
  -4  13  -6    2.40    1.29
  -4  13  -5   -0.43    0.78
  -4  13  -4   -1.07    1.40
  -4  13  -3    8.03    3.49
  -4  13  -2   13.83    4.49
  -4  13  -1   17.70    5.22
  -4  13   0   15.24    5.23
  -4  13   1    9.13    4.10
  -4  13   2    2.79    1.54
  -4  13   3   -0.35    0.39
  -4  13   4    1.18    1.07
  -4  13   5    6.33    4.25
  -4  13   6   13.09    6.07
  -4  13   7    4.06    2.80
  -4  14  -5    1.25    1.22
  -4  14  -4    0.41    0.68
  -4  14  -3   -1.25    1.57
  -4  14  -2    0.11    1.77
  -4  14  -1    3.02    2.21
  -4  14   0    5.82    3.14
  -4  14   1    7.73    4.31
  -4  14   2    4.58    3.64
  -4  14   3    1.29    1.77
  -4  14   4   -2.53    2.59
  -4  14   5    1.73    2.20
  -4  14   6    6.65    4.47
  -4  15  -3   -0.64    1.09
  -4  15  -2   -0.25    0.74
  -4  15  -1   -1.11    1.72
  -4  15   0   -0.38    1.06
  -4  15   1    3.95    3.13
  -4  15   2    5.37    3.88
  -4  15   3    2.74    2.88
  -4  15   4    1.02    1.47
  -3 -13   2  -26.67    9.30
  -3 -12  -2   23.20    7.30
  -3 -12  -1   14.85    6.39
  -3 -12   0   15.90    6.33
  -3 -12   1   13.05    5.45
  -3 -12   2  -10.04    6.65
  -3 -11  -4   16.84    6.79
  -3 -11  -3   17.25    6.28
  -3 -11  -2   21.68    6.95
  -3 -11  -1   20.66    6.59
  -3 -11   0   16.94    5.44
  -3 -11   1   16.67    5.66
  -3 -11   2   -5.95    3.97
  -3 -11   9   -0.12    0.23
  -3 -10  -6    3.17    2.50
  -3 -10  -5    5.01    2.92
  -3 -10  -4    0.35    2.05
  -3 -10  -3    9.26    4.50
  -3 -10  -2    8.85    4.25
  -3 -10  -1   13.42    4.74
  -3 -10   0   26.19    6.47
  -3 -10   1   33.98    7.08
  -3 -10   2   11.14    4.30
  -3 -10   9   -0.51    0.98
  -3  -9  -7    0.39    1.11
  -3  -9  -6   14.10    4.96
  -3  -9  -5    6.82    3.11
  -3  -9  -4   10.76    4.21
  -3  -9  -3    1.25    0.67
  -3  -9  -2    4.01    2.83
  -3  -9  -1    6.75    3.48
  -3  -9   0   11.18    3.89
  -3  -9   1   36.21    6.85
  -3  -9   2   41.37    7.59
  -3  -9   3    0.17    5.06
  -3  -9  11    0.07    0.43
  -3  -8  -8    0.06    0.83
  -3  -8  -7    3.23    1.89
  -3  -8  -6    8.52    3.90
  -3  -8  -5   17.36    4.93
  -3  -8  -4   12.50    3.95
  -3  -8  -3    5.62    2.46
  -3  -8  -2   -0.65    1.49
  -3  -8  -1    0.46    1.40
  -3  -8   0    9.24    3.96
  -3  -8   1   26.00    5.38
  -3  -8   2   48.39    7.81
  -3  -8   3   -2.72    3.74
  -3  -8   9    1.63    5.23
  -3  -8  10    8.23    9.39
  -3  -8  11   12.72   11.54
  -3  -8  12  -27.33   16.89
  -3  -7  -9    4.23    3.41
  -3  -7  -8   -0.03    0.67
  -3  -7  -7    1.13    0.39
  -3  -7  -6    5.85    2.81
  -3  -7  -5   25.82    5.73
  -3  -7  -5   32.66    6.60
  -3  -7  -4   27.92    6.03
  -3  -7  -4   21.44    5.12
  -3  -7  -3   15.54    4.22
  -3  -7  -3   20.81    5.35
  -3  -7  -2   12.09    3.45
  -3  -7  -1    6.31    2.71
  -3  -7   0    2.32    1.68
  -3  -7   1   12.50    3.61
  -3  -7   2   48.45    7.06
  -3  -7   3   17.34    4.25
  -3  -7   8   -0.33    0.79
  -3  -7   9    3.06    5.29
  -3  -7  10   -0.66    1.01
  -3  -7  10    6.83   11.48
  -3  -7  11    8.55    9.58
  -3  -7  14  -28.03   19.04
  -3  -7  15  -26.66   14.84
  -3  -6  -9   13.50    5.30
  -3  -6  -8    3.97    2.99
  -3  -6  -7    4.38    2.77
  -3  -6  -7    1.22    0.42
  -3  -6  -6   -0.50    1.24
  -3  -6  -6   -0.36    1.07
  -3  -6  -5   14.14    3.98
  -3  -6  -5   16.93    4.28
  -3  -6  -4   27.11    5.52
  -3  -6  -4   28.65    5.69
  -3  -6  -3   59.20    7.70
  -3  -6  -3   65.82    8.06
  -3  -6  -2   49.58    6.94
  -3  -6  -2   54.83    7.48
  -3  -6  -1   90.26    9.07
  -3  -6  -1   99.27    9.74
  -3  -6   0   40.94    5.80
  -3  -6   1    3.18    1.82
  -3  -6   2   23.51    4.64
  -3  -6   3   -9.78    6.06
  -3  -6   7    2.20    5.40
  -3  -6   8    4.77    7.40
  -3  -6   9    8.53   11.76
  -3  -6  10    8.40    8.82
  -3  -6  13   -0.24    0.88
  -3  -6  13  -32.80   21.21
  -3  -6  14  -33.74   19.54
  -3  -6  16   -2.18    1.70
  -3  -5 -10   16.72    5.81
  -3  -5  -9   13.01    4.85
  -3  -5  -8   19.79    5.65
  -3  -5  -8   17.09    4.88
  -3  -5  -7   10.35    3.81
  -3  -5  -7   13.30    3.89
  -3  -5  -6    1.85    1.46
  -3  -5  -6    1.49    0.77
  -3  -5  -5   -1.38    1.34
  -3  -5  -5   -1.29    1.78
  -3  -5  -4   16.54    3.69
  -3  -5  -4   15.94    3.82
  -3  -5  -3   25.63    4.91
  -3  -5  -3   28.65    5.10
  -3  -5  -2  127.45   10.57
  -3  -5  -2  134.22   10.20
  -3  -5  -1  173.40   11.56
  -3  -5  -1  172.80   11.43
  -3  -5   0  230.90   12.72
  -3  -5   0  208.08   12.74
  -3  -5   1   48.03    5.88
  -3  -5   2   28.68    4.59
  -3  -5   4    7.72    5.49
  -3  -5   5    6.14    6.46
  -3  -5   6    8.19    8.06
  -3  -5   7    9.49   11.70
  -3  -5   8    9.54   14.47
  -3  -5   9  -11.54   17.80
  -3  -5  12  -35.38   21.69
  -3  -5  13    0.27    0.34
  -3  -5  13  -29.40   20.50
  -3  -5  15   -8.52   10.96
  -3  -5  16   11.40   11.36
  -3  -4 -10   11.00    4.67
  -3  -4  -9   20.84    5.99
  -3  -4  -9   18.48    4.87
  -3  -4  -8   13.97    4.47
  -3  -4  -8   12.58    3.81
  -3  -4  -7   20.68    5.07
  -3  -4  -7   22.57    5.13
  -3  -4  -6   18.39    4.53
  -3  -4  -6   22.92    4.80
  -3  -4  -5    5.02    2.14
  -3  -4  -5    5.49    2.57
  -3  -4  -4    4.54    2.15
  -3  -4  -4    3.73    1.74
  -3  -4  -3   13.87    3.38
  -3  -4  -3    9.12    2.73
  -3  -4  -2   81.16    7.60
  -3  -4  -2   76.06    7.56
  -3  -4  -1  147.77    9.90
  -3  -4  -1  153.11   10.14
  -3  -4   0  221.72   11.76
  -3  -4   0  214.62   11.38
  -3  -4   1   95.63    7.57
  -3  -4   1   97.71    7.72
  -3  -4   2    3.88    1.23
  -3  -4   3  -12.46    5.32
  -3  -4   8   -0.04    0.55
  -3  -4  12  -60.42   22.85
  -3  -4  14    6.90    8.45
  -3  -4  15   15.74   10.41
  -3  -4  16   19.27   13.67
  -3  -4  17   19.20   12.90
  -3  -3 -11   -1.37    1.96
  -3  -3 -10    4.45    2.47
  -3  -3 -10    5.35    3.58
  -3  -3  -9   13.97    5.21
  -3  -3  -9   12.57    3.99
  -3  -3  -8   14.22    4.38
  -3  -3  -8   14.18    4.24
  -3  -3  -7   39.76    6.93
  -3  -3  -7   41.12    6.72
  -3  -3  -6   68.84    8.52
  -3  -3  -6   75.98    8.80
  -3  -3  -5   29.88    5.28
  -3  -3  -5   29.86    5.37
  -3  -3  -4    7.34    2.34
  -3  -3  -4    5.86    2.22
  -3  -3  -3   -0.20    1.24
  -3  -3  -3    0.43    0.66
  -3  -3  -2   37.18    4.97
  -3  -3  -2   35.69    4.95
  -3  -3  -1  189.19   11.22
  -3  -3  -1  203.39   10.60
  -3  -3   0  142.40    8.53
  -3  -3   0  121.43    8.40
  -3  -3   1  121.08    8.09
  -3  -3   1  110.96    7.52
  -3  -3   3   37.76    6.75
  -3  -3   6  -10.30   10.48
  -3  -3   7   -4.37   12.09
  -3  -3  12   -6.00   11.33
  -3  -3  13    2.84    2.54
  -3  -3  14    6.07   11.56
  -3  -3  15    8.58   10.58
  -3  -3  16   13.07   10.64
  -3  -3  17   28.98   13.89
  -3  -2 -12   10.13    3.96
  -3  -2 -11    3.36    2.59
  -3  -2 -10   -1.77    2.03
  -3  -2 -10    2.54    2.74
  -3  -2  -9    0.56    1.11
  -3  -2  -9    3.71    2.86
  -3  -2  -8   11.73    3.94
  -3  -2  -8    6.76    2.74
  -3  -2  -7   63.24    8.38
  -3  -2  -7   62.01    8.27
  -3  -2  -6  120.77   10.63
  -3  -2  -6  126.66   11.26
  -3  -2  -5  243.34   14.97
  -3  -2  -5  221.33   13.41
  -3  -2  -4  111.88    8.83
  -3  -2  -4  121.44    9.81
  -3  -2  -3   25.29    4.21
  -3  -2  -3   23.43    3.69
  -3  -2  -2    2.29    0.79
  -3  -2  -2    2.84    1.46
  -3  -2  -1   75.52    6.63
  -3  -2  -1   74.92    5.81
  -3  -2   0  183.08   10.14
  -3  -2   0  208.48    9.49
  -3  -2   1   87.56    9.34
  -3  -2   1  202.68    9.81
  -3  -2   2  119.00    3.66
  -3  -2   2  103.28    7.34
  -3  -2   3  307.82   11.07
  -3  -2   4  100.40   11.33
  -3  -2   5    7.47    4.93
  -3  -2   6    7.28    5.33
  -3  -2   7    6.97    5.45
  -3  -2   8   70.42   18.12
  -3  -2   9   74.22   18.89
  -3  -2  10   54.47   15.51
  -3  -2  10   -0.11    0.32
  -3  -2  11   21.83   14.58
  -3  -2  12    2.88    7.17
  -3  -2  13   19.01   11.24
  -3  -2  14   15.95   14.02
  -3  -2  15   23.13   13.86
  -3  -2  16   20.75   12.38
  -3  -2  17   11.26   10.85
  -3  -2  18   20.43   11.05
  -3  -1 -12    7.59    3.60
  -3  -1 -11   22.92    6.01
  -3  -1 -10    5.52    2.81
  -3  -1 -10    7.81    3.43
  -3  -1  -9    3.12    1.88
  -3  -1  -9    3.52    2.41
  -3  -1  -8    0.76    1.80
  -3  -1  -8   -0.53    1.30
  -3  -1  -7   20.90    5.20
  -3  -1  -7   21.58    4.79
  -3  -1  -6  221.92   13.84
  -3  -1  -6  244.26   15.68
  -3  -1  -5  176.11   11.09
  -3  -1  -5  187.82   12.96
  -3  -1  -4  201.64   10.91
  -3  -1  -4  209.56   13.15
  -3  -1  -3  198.18    9.79
  -3  -1  -3  199.89   11.82
  -3  -1  -2  139.46    9.13
  -3  -1  -2  135.82    7.46
  -3  -1  -1    0.31    0.75
  -3  -1  -1    0.76    0.57
  -3  -1   0   23.75    3.25
  -3  -1   0   14.58    2.77
  -3  -1   1  120.96    7.63
  -3  -1   2  295.34    6.71
  -3  -1   2  259.67   10.41
  -3  -1   3  511.17   11.93
  -3  -1   4  917.27   23.92
  -3  -1   5  273.07   18.48
  -3  -1   6   69.04   12.09
  -3  -1   7    7.36    4.86
  -3  -1   8   27.47    9.71
  -3  -1   8    0.07    0.57
  -3  -1   9  133.48   21.92
  -3  -1  10   94.51   18.54
  -3  -1  11   46.33   15.67
  -3  -1  12   37.31   15.69
  -3  -1  13   27.12   12.97
  -3  -1  14   16.24   10.54
  -3  -1  15   12.68    9.71
  -3  -1  16   19.55   12.37
  -3  -1  17   17.65    9.62
  -3  -1  18   -6.55    5.24
  -3   0 -13    1.06    0.81
  -3   0 -12   15.50    5.27
  -3   0 -11   23.64    6.26
  -3   0 -10   20.16    5.56
  -3   0  -9   12.87    4.32
  -3   0  -9   10.18    2.90
  -3   0  -8    9.30    3.33
  -3   0  -8    7.89    2.55
  -3   0  -7    1.45    1.44
  -3   0  -7    0.44    0.62
  -3   0  -6   66.84    6.96
  -3   0  -6   67.79    8.19
  -3   0  -5  187.26   10.78
  -3   0  -5  202.92   13.61
  -3   0  -4  131.06    7.88
  -3   0  -4  134.89   10.21
  -3   0  -3  128.43    6.90
  -3   0  -3  122.94    9.36
  -3   0  -2  126.20    6.30
  -3   0  -2  126.32    8.68
  -3   0  -1   68.58    4.60
  -3   0  -1   58.23    5.46
  -3   0   0    0.70    0.62
  -3   0   1   -0.73    0.93
  -3   0   2  169.43    5.95
  -3   0   2  158.40    7.64
  -3   0   3  381.11   10.11
  -3   0   3  351.95   11.89
  -3   0   4  736.88   18.46
  -3   0   5  311.38   15.76
  -3   0   6  227.67   17.31
  -3   0   7   48.26   10.15
  -3   0   8    8.18    5.62
  -3   0   9   32.81    9.86
  -3   0  10   65.81   15.48
  -3   0  11   74.55   16.05
  -3   0  12   39.34   15.57
  -3   0  13   65.50   17.61
  -3   0  14   18.91   10.32
  -3   0  15   13.15    7.08
  -3   0  16   -6.11    6.06
  -3   0  17    6.07    4.80
  -3   1 -14   -0.61    1.38
  -3   1 -13    1.19    1.82
  -3   1 -12    7.00    3.31
  -3   1 -11   35.91    7.78
  -3   1 -10   50.16    8.83
  -3   1  -9   43.35    7.88
  -3   1  -9   34.33    6.30
  -3   1  -8   33.96    5.68
  -3   1  -8   38.89    7.31
  -3   1  -7    4.77    1.72
  -3   1  -7    4.80    1.67
  -3   1  -6   16.18    4.12
  -3   1  -6   15.63    3.09
  -3   1  -5   85.81    6.31
  -3   1  -5   82.48    8.72
  -3   1  -4   42.16    5.77
  -3   1  -4   42.54    3.95
  -3   1  -3   91.07    5.00
  -3   1  -3   94.58    8.01
  -3   1  -2  264.85    8.04
  -3   1  -2  227.74   11.50
  -3   1  -1  209.41   10.20
  -3   1   0    8.00    1.83
  -3   1   1    4.83    1.41
  -3   1   2   18.77    2.64
  -3   1   2   19.48    2.60
  -3   1   3  262.20    8.78
  -3   1   3  252.11    9.07
  -3   1   3  274.55    9.29
  -3   1   4  573.07   12.55
  -3   1   4  534.15   14.93
  -3   1   5  204.52   12.05
  -3   1   5  213.35    7.24
  -3   1   6   50.92    3.38
  -3   1   6   56.13    7.53
  -3   1   7   43.71    3.08
  -3   1   7   52.80    8.68
  -3   1   8   18.71    6.31
  -3   1   8    6.27    1.16
  -3   1   9    3.51    5.05
  -3   1  10   26.20    7.71
  -3   1  11   39.95   10.28
  -3   1  12   67.05   13.04
  -3   1  13   48.98   12.73
  -3   1  14   33.30   10.47
  -3   1  15    1.41    3.48
  -3   1  16    4.76    4.66
  -3   1  17    2.92    3.48
  -3   2 -14    3.43    2.70
  -3   2 -13    1.62    1.32
  -3   2 -12    3.96    2.79
  -3   2 -11   31.19    7.44
  -3   2 -10   60.06   10.06
  -3   2  -9   72.69   10.56
  -3   2  -8  106.81   11.79
  -3   2  -7   63.97    6.50
  -3   2  -7   67.96    9.02
  -3   2  -6    7.72    2.82
  -3   2  -6    8.57    1.92
  -3   2  -5   14.84    2.21
  -3   2  -5   13.22    3.64
  -3   2  -4   27.83    4.84
  -3   2  -4   26.83    2.49
  -3   2  -3  161.68    5.42
  -3   2  -3  123.69    9.26
  -3   2  -2  326.32   13.70
  -3   2  -1  486.88   15.21
  -3   2   0  373.04   12.39
  -3   2   0  361.38   12.04
  -3   2   1  122.75    6.73
  -3   2   1  131.16    6.74
  -3   2   2   24.59    2.96
  -3   2   2   23.04    3.22
  -3   2   2   25.15    2.85
  -3   2   3   23.98    2.80
  -3   2   3   25.83    2.96
  -3   2   3   23.78    2.74
  -3   2   4  223.91    9.70
  -3   2   4  241.52    8.87
  -3   2   5  268.81    9.38
  -3   2   5  259.47   12.35
  -3   2   6   60.48    7.42
  -3   2   6   69.93    4.84
  -3   2   7  147.19   12.73
  -3   2   7  151.85    7.25
  -3   2   8   54.08    4.51
  -3   2   8   64.62    8.86
  -3   2   9   11.60    2.21
  -3   2   9   12.62    4.67
  -3   2  10    5.30    3.27
  -3   2  11    6.89    4.10
  -3   2  12   28.57    8.27
  -3   2  13   30.99   10.17
  -3   2  14   29.42    8.65
  -3   2  15   10.28    4.76
  -3   2  16    0.95    1.53
  -3   2  17    3.43    2.91
  -3   3 -15    7.14    4.37
  -3   3 -14    5.36    3.53
  -3   3 -13    7.10    3.69
  -3   3 -12    0.48    1.01
  -3   3 -11    8.76    3.97
  -3   3 -10   43.26    8.56
  -3   3  -9   51.88    9.50
  -3   3  -8  113.72   12.86
  -3   3  -7  134.22   13.28
  -3   3  -6   50.84    7.57
  -3   3  -5   26.35    5.32
  -3   3  -4    5.52    2.21
  -3   3  -3    5.32    2.02
  -3   3  -2  474.26   16.66
  -3   3  -2  474.60   15.08
  -3   3  -1  723.25   17.80
  -3   3  -1  716.11   18.33
  -3   3   0  859.54   19.11
  -3   3   0  874.58   18.55
  -3   3   1  484.84   14.16
  -3   3   1  496.13   12.83
  -3   3   2  209.29    7.65
  -3   3   2  208.60    9.15
  -3   3   3   19.05    2.13
  -3   3   3   19.18    2.81
  -3   3   3   16.16    2.80
  -3   3   4    6.01    1.66
  -3   3   4    3.96    1.37
  -3   3   5  101.48    6.65
  -3   3   5   93.51    7.23
  -3   3   6   84.35    6.34
  -3   3   6   83.14    7.63
  -3   3   7  163.12    9.26
  -3   3   7  160.05   11.84
  -3   3   8  240.33   11.89
  -3   3   8  279.01   17.12
  -3   3   9  124.22   12.76
  -3   3   9  117.21    8.73
  -3   3  10   26.67    4.39
  -3   3  10   31.66    7.25
  -3   3  11    3.85    2.98
  -3   3  12    3.91    2.98
  -3   3  13   20.23    5.86
  -3   3  14   19.92    7.30
  -3   3  15    6.96    3.66
  -3   3  16    5.45    3.55
  -3   3  17    1.77    1.98
  -3   4 -15    2.10    2.50
  -3   4 -14   13.79    5.19
  -3   4 -13   18.30    6.23
  -3   4 -12    7.34    4.04
  -3   4 -11    2.71    2.63
  -3   4 -10    6.00    3.42
  -3   4  -9   21.11    6.06
  -3   4  -8   21.12    5.75
  -3   4  -7  107.67   12.13
  -3   4  -6   99.06   10.99
  -3   4  -5   61.26    8.58
  -3   4  -4   27.15    4.20
  -3   4  -4   30.84    5.55
  -3   4  -3   15.31    3.31
  -3   4  -3   13.37    2.98
  -3   4  -2   79.80    6.94
  -3   4  -2   80.13    6.35
  -3   4  -1  301.23   12.03
  -3   4  -1  285.83   11.76
  -3   4   0  315.62   12.28
  -3   4   0  308.06   10.85
  -3   4   1  416.25   14.23
  -3   4   1  435.79   11.72
  -3   4   2  403.97   14.08
  -3   4   2  404.01    9.95
  -3   4   3  113.70    4.63
  -3   4   3  115.96    7.65
  -3   4   3  124.94    7.73
  -3   4   4    3.10    1.07
  -3   4   4    5.76    1.91
  -3   4   5   -0.49    0.51
  -3   4   5    0.40    0.19
  -3   4   6   20.78    3.67
  -3   4   6   25.50    4.03
  -3   4   7  117.42    9.30
  -3   4   7  131.42   10.32
  -3   4   8  238.59   14.23
  -3   4   8  244.54   16.15
  -3   4   9  172.42   14.22
  -3   4   9  156.39   12.22
  -3   4  10   66.00    8.38
  -3   4  10   65.68    9.96
  -3   4  11   16.05    4.89
  -3   4  12    2.23    2.73
  -3   4  13    2.55    2.63
  -3   4  14    2.40    2.60
  -3   4  15    6.02    3.50
  -3   4  16    2.33    2.51
  -3   5 -15    4.34    3.25
  -3   5 -14    8.34    4.85
  -3   5 -13   21.43    6.85
  -3   5 -12   20.91    6.75
  -3   5 -11    3.66    2.66
  -3   5 -10   -1.96    3.16
  -3   5  -9   -1.55    2.98
  -3   5  -8   13.09    4.38
  -3   5  -7   58.84    9.50
  -3   5  -6   96.79   11.61
  -3   5  -5   88.13    7.81
  -3   5  -5   94.81   10.90
  -3   5  -4   94.32    7.69
  -3   5  -4  105.53   10.62
  -3   5  -3   51.69    5.60
  -3   5  -3   52.84    6.72
  -3   5  -2    0.09    0.17
  -3   5  -2   -0.11    0.68
  -3   5  -1  155.68    9.29
  -3   5  -1  145.80    8.70
  -3   5   0   58.57    4.82
  -3   5   0   60.43    5.93
  -3   5   1   72.30    6.38
  -3   5   1   78.27    4.91
  -3   5   2   83.47    6.94
  -3   5   2   87.51    4.37
  -3   5   3  146.82    4.47
  -3   5   3  156.96    9.72
  -3   5   4   35.54    4.59
  -3   5   4   32.16    4.71
  -3   5   5   11.63    2.57
  -3   5   5   14.22    3.04
  -3   5   6   -0.51    0.72
  -3   5   6   -0.39    1.07
  -3   5   7   27.89    5.34
  -3   5   7   23.96    4.94
  -3   5   8  129.75   11.13
  -3   5   8  123.89   12.10
  -3   5   9  115.57   11.11
  -3   5   9   88.74   10.92
  -3   5  10   67.09    9.28
  -3   5  10   51.28    8.55
  -3   5  11   12.39    4.53
  -3   5  11   14.93    4.56
  -3   5  12    4.73    2.11
  -3   5  13   -0.16    1.60
  -3   5  14   -1.52    2.13
  -3   5  15    4.57    2.88
  -3   5  16    1.29    1.76
  -3   6 -15    0.91    0.78
  -3   6 -14    7.69    4.02
  -3   6 -13   20.85    6.72
  -3   6 -12   25.68    7.25
  -3   6 -11   12.31    4.61
  -3   6 -10    6.61    3.09
  -3   6  -9    7.43    2.52
  -3   6  -8   -0.77    3.02
  -3   6  -7   33.88    7.04
  -3   6  -6  129.82   10.15
  -3   6  -6  122.93   14.04
  -3   6  -5  144.27   10.04
  -3   6  -5  140.11   14.17
  -3   6  -4  240.65   12.33
  -3   6  -4  222.64   16.46
  -3   6  -3  139.08    9.39
  -3   6  -3  140.05   11.82
  -3   6  -2   45.02    5.37
  -3   6  -2   48.52    6.07
  -3   6  -1    9.68    2.30
  -3   6  -1    9.89    2.32
  -3   6   0    9.85    2.45
  -3   6   0    9.40    1.94
  -3   6   1   49.15    5.67
  -3   6   1   51.37    4.00
  -3   6   2   91.35    8.00
  -3   6   2   91.83    4.19
  -3   6   3  171.01   11.46
  -3   6   4  128.16   10.43
  -3   6   4  146.87    9.59
  -3   6   5   41.99    6.38
  -3   6   5   36.86    5.43
  -3   6   6   21.62    4.95
  -3   6   6   18.97    3.53
  -3   6   7    1.03    1.25
  -3   6   7   -1.57    1.70
  -3   6   8   32.86    7.06
  -3   6   8   37.44    6.13
  -3   6   9   42.94    8.74
  -3   6   9   54.53    7.89
  -3   6  10    6.48    3.15
  -3   6  10   11.22    3.63
  -3   6  11   17.28    5.90
  -3   6  11   27.23    5.93
  -3   6  12    2.50    0.83
  -3   6  13    1.20    0.44
  -3   6  14   -6.32    3.52
  -3   6  15   -2.69    2.54
  -3   7 -15    2.69    2.28
  -3   7 -14    2.54    2.17
  -3   7 -13    2.62    1.44
  -3   7 -12   12.01    5.33
  -3   7 -11   26.24    6.93
  -3   7 -10   24.42    7.08
  -3   7  -9   32.07    8.08
  -3   7  -8    8.42    3.58
  -3   7  -7    8.45    2.74
  -3   7  -7    6.06    0.81
  -3   7  -6   76.05    7.78
  -3   7  -6   73.66   11.55
  -3   7  -5   96.08    8.27
  -3   7  -5   84.20   11.78
  -3   7  -4  161.69   11.05
  -3   7  -4  158.43   15.10
  -3   7  -3  233.12   12.62
  -3   7  -3  242.20   16.93
  -3   7  -2  133.68    9.53
  -3   7  -2  140.65   11.26
  -3   7  -1   42.19    5.29
  -3   7  -1   44.92    5.43
  -3   7   0    2.38    1.07
  -3   7   0    2.88    1.37
  -3   7   1    1.32    0.71
  -3   7   1    0.72    0.49
  -3   7   2   95.48    9.10
  -3   7   3  167.66   12.60
  -3   7   4  248.73   16.35
  -3   7   5  183.16   15.03
  -3   7   5  189.23   11.93
  -3   7   6   86.38   11.16
  -3   7   6   98.37    9.25
  -3   7   7   11.24    2.76
  -3   7   7   12.29    4.23
  -3   7   8    2.04    1.56
  -3   7   8   -1.47    1.89
  -3   7   9    3.86    1.70
  -3   7   9   10.32    3.25
  -3   7  10    9.61    3.80
  -3   7  10   17.83    4.55
  -3   7  11    5.19    2.58
  -3   7  11    6.14    2.50
  -3   7  12   20.19    5.48
  -3   7  13   11.81    4.09
  -3   7  14    4.80    2.70
  -3   8 -14   -4.03    4.02
  -3   8 -13   -3.16    3.11
  -3   8 -12   10.19    4.80
  -3   8 -11   10.37    4.73
  -3   8 -10   18.74    5.74
  -3   8  -9   34.61    8.22
  -3   8  -8   32.78    5.88
  -3   8  -8   35.14    8.27
  -3   8  -7    1.81    0.55
  -3   8  -7    3.88    2.02
  -3   8  -6    0.33    2.30
  -3   8  -6    1.02    0.96
  -3   8  -5   39.56    5.76
  -3   8  -5   36.36    7.92
  -3   8  -4   37.75    5.40
  -3   8  -4   36.45    7.54
  -3   8  -3  105.44    8.98
  -3   8  -3  109.92   12.36
  -3   8  -2   85.33    8.32
  -3   8  -2   95.20   10.05
  -3   8  -1   69.90    7.26
  -3   8  -1   69.22    7.23
  -3   8   0   28.55    3.71
  -3   8   0   28.69    4.73
  -3   8   1   26.00    4.87
  -3   8   2   15.05    3.75
  -3   8   3   78.58    9.32
  -3   8   4  171.54   14.82
  -3   8   5  102.70   12.39
  -3   8   6  102.78   13.23
  -3   8   6  113.65   10.17
  -3   8   7   48.05    9.40
  -3   8   7   57.45    7.46
  -3   8   8    7.49    3.64
  -3   8   8    9.33    3.43
  -3   8   9   -2.79    3.17
  -3   8   9   -0.80    0.23
  -3   8  10   -1.80    2.82
  -3   8  10   -1.26    2.01
  -3   8  11    9.27    4.74
  -3   8  11    5.51    2.35
  -3   8  12   12.28    4.06
  -3   8  13    8.97    3.93
  -3   9 -14    1.61    1.70
  -3   9 -13   -1.93    3.11
  -3   9 -12   -2.41    2.96
  -3   9 -11    4.18    4.32
  -3   9 -10   19.91    6.56
  -3   9  -9   33.33    6.20
  -3   9  -9   37.24    9.30
  -3   9  -8   46.40    6.67
  -3   9  -8   48.71   10.51
  -3   9  -7    6.73    2.70
  -3   9  -7    6.19    3.10
  -3   9  -6    2.06    0.29
  -3   9  -6    3.36    1.54
  -3   9  -5    0.27    2.03
  -3   9  -5   -1.29    1.93
  -3   9  -4    1.04    0.79
  -3   9  -4    1.16    0.25
  -3   9  -3   29.82    7.00
  -3   9  -3   23.35    4.47
  -3   9  -2   48.22    6.38
  -3   9  -2   48.68    7.61
  -3   9  -1   54.48    6.92
  -3   9  -1   59.21    7.13
  -3   9   0   43.42    6.60
  -3   9   1   30.83    5.57
  -3   9   2    3.94    1.83
  -3   9   3    8.43    3.24
  -3   9   4   27.70    6.55
  -3   9   5   38.63    8.01
  -3   9   6   30.37    7.83
  -3   9   7   27.80    8.08
  -3   9   8    9.41    4.15
  -3   9   8   13.05    4.00
  -3   9   9    7.02    3.12
  -3   9   9    3.80    3.06
  -3   9  10    0.47    0.40
  -3   9  10    0.90    1.71
  -3   9  11    3.76    2.59
  -3   9  12   10.54    4.18
  -3  10 -13   -0.50    2.34
  -3  10 -12   -1.07    2.50
  -3  10 -11    1.91    2.54
  -3  10 -10    6.99    4.61
  -3  10  -9   21.03    4.72
  -3  10  -9   26.89    8.64
  -3  10  -8   54.36   12.50
  -3  10  -8   40.45    7.03
  -3  10  -7   32.78    9.32
  -3  10  -7   29.18    5.42
  -3  10  -6   11.67    5.19
  -3  10  -6   15.17    3.71
  -3  10  -5    8.68    2.71
  -3  10  -5    3.27    2.58
  -3  10  -4   -0.94    2.87
  -3  10  -4   -0.67    1.45
  -3  10  -3    6.01    3.17
  -3  10  -3    4.84    1.97
  -3  10  -2   32.13    5.74
  -3  10  -2   38.79    7.17
  -3  10  -1   44.45    7.04
  -3  10   0   73.44    9.38
  -3  10   1   38.57    7.24
  -3  10   2   36.73    7.11
  -3  10   3   -0.55    1.84
  -3  10   4    0.07    1.49
  -3  10   5    6.37    3.35
  -3  10   6    6.55    3.36
  -3  10   7   22.43    7.31
  -3  10   8    7.82    4.36
  -3  10   9    7.60    4.84
  -3  10  10    5.27    4.20
  -3  10  10    2.70    2.43
  -3  10  11    1.97    2.00
  -3  11 -12   -0.92    3.10
  -3  11 -11   -1.10    2.34
  -3  11 -10   -5.30    4.35
  -3  11  -9   10.37    5.11
  -3  11  -8   27.02    9.03
  -3  11  -8   19.98    4.99
  -3  11  -7   36.55   10.19
  -3  11  -7   33.15    6.23
  -3  11  -6   16.62    6.20
  -3  11  -6   21.20    4.86
  -3  11  -5   22.39    7.05
  -3  11  -5   23.18    5.01
  -3  11  -4    6.56    3.39
  -3  11  -4    9.85    3.18
  -3  11  -3   -0.87    2.00
  -3  11  -3    1.28    0.87
  -3  11  -2   18.78    4.70
  -3  11  -1   35.05    6.40
  -3  11   0   58.86    8.88
  -3  11   1   74.06   10.74
  -3  11   2   31.95    7.13
  -3  11   3   15.22    4.93
  -3  11   4    0.80    1.61
  -3  11   5   -2.59    2.98
  -3  11   6    4.41    2.51
  -3  11   7    6.33    3.32
  -3  11   8   14.40    5.92
  -3  11   9    5.99    3.04
  -3  12 -10   -6.49    5.02
  -3  12  -9   -2.60    3.45
  -3  12  -8    3.28    2.43
  -3  12  -8    0.61    1.04
  -3  12  -7    9.44    4.79
  -3  12  -7   11.87    3.96
  -3  12  -6   13.18    4.05
  -3  12  -6    9.84    4.77
  -3  12  -5   21.21    4.84
  -3  12  -4   14.69    3.92
  -3  12  -3    4.45    2.09
  -3  12  -2    0.19    0.84
  -3  12  -1    5.92    2.70
  -3  12   0   17.04    4.94
  -3  12   1   27.07    6.83
  -3  12   2   39.89    8.85
  -3  12   3   19.26    6.13
  -3  12   4    3.30    1.45
  -3  12   5    5.15    3.19
  -3  12   6   -0.87    2.60
  -3  12   7    4.88    3.89
  -3  12   8    7.69    4.33
  -3  13  -7    0.89    1.00
  -3  13  -6    3.12    1.86
  -3  13  -5    8.39    3.23
  -3  13  -4   19.14    5.25
  -3  13  -3    6.64    3.17
  -3  13  -2    3.76    2.12
  -3  13  -1   -0.76    1.22
  -3  13   0   -1.73    2.16
  -3  13   1    5.43    2.94
  -3  13   2    4.49    2.32
  -3  13   3    9.96    4.42
  -3  13   4    4.26    2.90
  -3  13   5    1.29    1.36
  -3  13   6   -2.96    3.99
  -3  13   7   -1.95    2.41
  -3  14  -5    3.66    2.15
  -3  14  -4   10.66    4.18
  -3  14  -3    8.71    3.87
  -3  14  -2    7.06    3.49
  -3  14  -1    3.90    2.52
  -3  14   0    0.48    1.00
  -3  14   1   -1.22    1.46
  -3  14   2   -0.91    0.99
  -3  14   3    0.12    2.52
  -3  14   4    4.21    2.31
  -3  14   5   -1.94    2.22
  -3  14   6    2.34    2.57
  -3  15  -3    8.42    3.81
  -3  15  -2    6.96    3.63
  -3  15  -1    6.78    3.83
  -3  15   0    1.95    1.79
  -3  15   1    0.53    2.29
  -3  15   2    0.79    1.49
  -3  15   3   -0.03    2.01
  -3  15   4    0.99    1.25
  -2 -13  -2   16.71    6.61
  -2 -13  -1   12.98    5.82
  -2 -13   0   21.22    6.72
  -2 -13   1   18.28    5.95
  -2 -13   2    3.84    2.70
  -2 -13   3  -28.32    9.25
  -2 -12  -4   -0.08    1.62
  -2 -12  -3   11.21    5.65
  -2 -12  -2    6.69    3.84
  -2 -12  -1    6.53    3.68
  -2 -12   0   16.87    5.85
  -2 -12   1   13.26    4.94
  -2 -12   2   21.62    6.27
  -2 -11  -6    2.46    2.26
  -2 -11  -5    5.18    3.00
  -2 -11  -4    8.17    3.25
  -2 -11  -3    7.87    3.43
  -2 -11  -2   11.90    4.41
  -2 -11  -1    6.87    3.52
  -2 -11   0    3.87    3.46
  -2 -11   1    8.98    4.02
  -2 -11   2   14.85    4.93
  -2 -11   3   -5.34    1.65
  -2 -11   9   -0.18    0.69
  -2 -10  -8   -1.07    2.23
  -2 -10  -7   -2.05    1.67
  -2 -10  -6    3.20    2.29
  -2 -10  -5    5.84    2.78
  -2 -10  -4    7.74    3.56
  -2 -10  -3   19.23    5.17
  -2 -10  -2   27.02    5.86
  -2 -10  -1   14.35    4.23
  -2 -10   0    6.73    3.30
  -2 -10   1    2.77    2.14
  -2 -10   2    5.17    2.73
  -2 -10   3    8.71    4.18
  -2  -9  -9    1.42    1.78
  -2  -9  -8    4.06    2.90
  -2  -9  -7    1.60    1.33
  -2  -9  -6   -1.56    1.86
  -2  -9  -5    3.59    2.04
  -2  -9  -4   13.28    4.26
  -2  -9  -3   14.04    4.14
  -2  -9  -2   26.64    5.61
  -2  -9  -1   22.31    4.92
  -2  -9   0   10.85    3.83
  -2  -9   1    0.69    1.82
  -2  -9   2    1.24    1.55
  -2  -9   3   10.78    3.42
  -2  -9  13    9.14    6.23
  -2  -8 -10    3.64    3.15
  -2  -8  -9    4.35    2.71
  -2  -8  -8    7.18    3.24
  -2  -8  -7   11.91    4.28
  -2  -8  -6    5.45    2.67
  -2  -8  -5   -0.57    1.26
  -2  -8  -4    8.68    3.19
  -2  -8  -3   19.81    4.50
  -2  -8  -2   37.92    6.26
  -2  -8  -1   49.12    7.01
  -2  -8   0   14.45    3.69
  -2  -8   1    5.79    2.66
  -2  -8   2    1.71    1.60
  -2  -8   3    1.72    0.78
  -2  -8   7   -1.05    1.98
  -2  -8   9   -1.05    1.82
  -2  -8  10    0.70    0.84
  -2  -8  12   -1.56    1.91
  -2  -8  13   10.00    7.30
  -2  -8  14   10.38    3.57
  -2  -7 -10    4.39    3.15
  -2  -7  -9    7.87    4.05
  -2  -7  -8   20.54    5.74
  -2  -7  -7   43.23    7.91
  -2  -7  -6   36.24    6.97
  -2  -7  -5    9.58    3.57
  -2  -7  -5   10.62    3.64
  -2  -7  -4    2.89    2.04
  -2  -7  -4    0.71    0.29
  -2  -7  -3    3.33    1.97
  -2  -7  -2   28.50    5.06
  -2  -7  -1   72.07    7.83
  -2  -7   0   91.65    8.58
  -2  -7   1  106.76    9.07
  -2  -7   2   31.78    4.91
  -2  -7   3   37.68    5.38
  -2  -7   7   -1.24    3.88
  -2  -7  12    4.05    5.02
  -2  -7  13   15.03    9.40
  -2  -7  16  -38.63   14.77
  -2  -6 -11    2.39    2.03
  -2  -6 -10   -0.38    1.21
  -2  -6  -9    5.58    3.23
  -2  -6  -8   22.94    6.10
  -2  -6  -7   55.00    8.62
  -2  -6  -7   53.76    7.80
  -2  -6  -6   79.80    8.98
  -2  -6  -6   73.51    9.37
  -2  -6  -5   57.62    7.30
  -2  -6  -5   49.71    7.36
  -2  -6  -4   18.22    4.11
  -2  -6  -4   20.63    4.39
  -2  -6  -3    3.91    2.01
  -2  -6  -3    4.58    2.09
  -2  -6  -2    2.74    1.72
  -2  -6  -2    1.95    1.48
  -2  -6  -1   57.00    6.63
  -2  -6   0   77.22    7.55
  -2  -6   1  126.96    9.24
  -2  -6   2  323.92   14.34
  -2  -6   3  135.46   10.14
  -2  -6   6   -1.91    4.08
  -2  -6   9    0.46    0.55
  -2  -6  11    3.97    4.58
  -2  -6  12    9.59    9.62
  -2  -6  12   -0.43    1.01
  -2  -6  13  -16.99   10.11
  -2  -6  15  -42.01   16.62
  -2  -6  16  -10.93    9.86
  -2  -5 -11   11.48    4.92
  -2  -5 -10    7.35    3.81
  -2  -5  -9    2.56    2.52
  -2  -5  -9    0.21    0.27
  -2  -5  -8    8.87    3.24
  -2  -5  -8    9.97    3.84
  -2  -5  -7   38.63    7.01
  -2  -5  -7   36.16    5.97
  -2  -5  -6   75.20    9.26
  -2  -5  -6   72.57    8.34
  -2  -5  -5   35.71    5.63
  -2  -5  -5   34.67    5.84
  -2  -5  -4   21.97    4.11
  -2  -5  -4   21.44    4.17
  -2  -5  -3   22.41    4.11
  -2  -5  -3   24.77    3.89
  -2  -5  -2    6.64    1.81
  -2  -5  -2    6.00    1.96
  -2  -5  -1    5.22    1.75
  -2  -5  -1    8.15    2.26
  -2  -5   0   73.78    6.59
  -2  -5   1   94.10    7.40
  -2  -5   2  263.11   11.84
  -2  -5   3    4.12    7.38
  -2  -5   5   -2.30    4.15
  -2  -5  10    6.55    5.66
  -2  -5  11    7.36    9.65
  -2  -5  12    0.01    0.78
  -2  -5  12   -0.84    8.95
  -2  -5  15  -31.35   14.78
  -2  -5  17    4.10    5.90
  -2  -4 -11   18.37    5.51
  -2  -4 -10   11.47    3.99
  -2  -4 -10    9.68    3.33
  -2  -4  -9    0.99    0.55
  -2  -4  -9    0.82    1.02
  -2  -4  -8   -1.87    1.54
  -2  -4  -8    0.38    0.79
  -2  -4  -7   26.15    5.39
  -2  -4  -7   26.78    4.87
  -2  -4  -6   41.70    6.66
  -2  -4  -6   39.87    5.84
  -2  -4  -5   57.88    7.16
  -2  -4  -5   57.12    6.56
  -2  -4  -4   45.47    5.90
  -2  -4  -4   49.87    5.77
  -2  -4  -3  103.03    8.45
  -2  -4  -3  110.24    7.97
  -2  -4  -2   42.13    5.19
  -2  -4  -2   43.17    4.77
  -2  -4  -1    0.66    0.29
  -2  -4  -1    0.35    0.44
  -2  -4  -1    0.76    0.55
  -2  -4   0   35.72    4.10
  -2  -4   0   32.40    4.16
  -2  -4   1   59.15    5.32
  -2  -4   2  188.90    9.59
  -2  -4   9   13.65    8.27
  -2  -4  10   18.09   10.71
  -2  -4  11    0.54    0.76
  -2  -4  11  -23.40   17.11
  -2  -4  14  -22.96   15.01
  -2  -4  16   -1.84    2.67
  -2  -4  17    7.88    8.74
  -2  -3 -12   20.33    5.71
  -2  -3 -11   31.47    6.54
  -2  -3 -11   42.51    8.37
  -2  -3 -10   31.93    6.80
  -2  -3 -10   23.93    5.39
  -2  -3  -9   28.46    6.12
  -2  -3  -9   24.81    5.19
  -2  -3  -8   18.32    4.34
  -2  -3  -8   22.03    5.13
  -2  -3  -7    1.44    1.03
  -2  -3  -7    1.41    0.68
  -2  -3  -6   23.67    4.56
  -2  -3  -6   25.71    4.66
  -2  -3  -5   67.95    6.93
  -2  -3  -5   68.35    7.39
  -2  -3  -4  113.29    8.69
  -2  -3  -4  123.41    8.72
  -2  -3  -3  275.78   12.72
  -2  -3  -3  278.33   12.28
  -2  -3  -2  362.84   13.72
  -2  -3  -2  354.14   13.14
  -2  -3  -1  251.66   10.59
  -2  -3  -1  247.64   10.34
  -2  -3   0   12.80    2.25
  -2  -3   0   13.99    2.24
  -2  -3   1    8.88    1.97
  -2  -3   1    7.05    1.96
  -2  -3   2    8.79    4.52
  -2  -3   5   -0.15    0.44
  -2  -3   7   12.53    7.76
  -2  -3   8   26.77   12.05
  -2  -3   9   10.40   10.43
  -2  -3  10    0.18    0.73
  -2  -3  12   -5.79   14.38
  -2  -3  13   -9.74   12.36
  -2  -3  15    0.77    1.99
  -2  -3  16    4.42    5.83
  -2  -3  17   15.21   11.19
  -2  -2 -12   11.53    3.96
  -2  -2 -12   13.65    4.79
  -2  -2 -11   37.56    7.52
  -2  -2 -11   29.85    6.47
  -2  -2 -10   44.94    7.84
  -2  -2 -10   35.87    6.44
  -2  -2  -9   41.06    6.61
  -2  -2  -9   41.21    7.31
  -2  -2  -8   39.02    6.77
  -2  -2  -8   28.93    5.56
  -2  -2  -7   55.12    7.39
  -2  -2  -7   45.63    6.60
  -2  -2  -6   -0.47    0.97
  -2  -2  -6   -0.38    1.13
  -2  -2  -5    3.13    1.45
  -2  -2  -5    5.55    2.11
  -2  -2  -4  121.70    8.69
  -2  -2  -4  127.50    8.96
  -2  -2  -3  344.13   13.04
  -2  -2  -3  345.80   13.49
  -2  -2  -2 1119.40   21.71
  -2  -2  -2 1148.44   22.28
  -2  -2  -1  272.71    9.88
  -2  -2  -1  267.53   10.37
  -2  -2   0  286.91    9.31
  -2  -2   0  272.48    9.86
  -2  -2   1  158.87    7.20
  -2  -2   1  131.02    6.58
  -2  -2   3    3.43    1.78
  -2  -2   4   14.68    6.23
  -2  -2   5   18.24    6.29
  -2  -2   6   -9.65    3.66
  -2  -2   8   -0.25    0.81
  -2  -2  10  -28.20   17.28
  -2  -2  11   -2.22   11.23
  -2  -2  13   17.70   11.88
  -2  -2  14    6.01    8.31
  -2  -2  15   17.68   11.95
  -2  -2  16   25.12   13.61
  -2  -2  17   24.18   12.41
  -2  -1 -13    0.21    0.84
  -2  -1 -12    4.66    2.37
  -2  -1 -12    7.35    3.44
  -2  -1 -11   11.55    3.80
  -2  -1 -11   17.10    4.99
  -2  -1 -10   16.34    4.42
  -2  -1 -10   14.88    4.43
  -2  -1  -9   38.45    6.95
  -2  -1  -9   35.11    6.22
  -2  -1  -8   70.51    8.75
  -2  -1  -8   66.43    8.22
  -2  -1  -7   73.05    8.28
  -2  -1  -7   65.57    8.06
  -2  -1  -6   19.87    3.98
  -2  -1  -6   16.94    3.75
  -2  -1  -5    9.59    2.73
  -2  -1  -5   10.57    2.38
  -2  -1  -4   14.80    2.75
  -2  -1  -4   11.25    2.98
  -2  -1  -3  151.98    7.93
  -2  -1  -3  154.50    9.12
  -2  -1  -2  417.14   11.63
  -2  -1  -2  435.15   13.74
  -2  -1  -1  656.49   13.02
  -2  -1  -1  667.90   15.44
  -2  -1   0  207.75    7.10
  -2  -1   0  205.66    8.06
  -2  -1   1  120.69    2.87
  -2  -1   1  117.36    5.88
  -2  -1   2   82.64    5.38
  -2  -1   2   91.88    5.65
  -2  -1   3    0.34    0.73
  -2  -1   3    0.30    2.05
  -2  -1   5    4.46    6.69
  -2  -1   6   40.17   14.16
  -2  -1   7   95.87   17.22
  -2  -1  10    2.03    2.75
  -2  -1  11    1.70    3.94
  -2  -1  12   15.59   10.11
  -2  -1  13   29.43   13.13
  -2  -1  14   11.14    9.35
  -2  -1  15    7.65   11.12
  -2  -1  16   19.11   10.47
  -2  -1  17   23.13   10.99
  -2   0 -14    9.60    4.36
  -2   0 -13    6.54    3.23
  -2   0 -12    0.63    1.26
  -2   0 -11    5.45    2.71
  -2   0 -11    3.23    2.25
  -2   0 -10    6.69    2.83
  -2   0 -10    6.56    3.00
  -2   0  -9   18.38    4.85
  -2   0  -9   19.44    4.49
  -2   0  -8  121.62   10.59
  -2   0  -8  114.51   11.20
  -2   0  -7  134.60   10.43
  -2   0  -7  122.50   10.89
  -2   0  -6  125.08    9.08
  -2   0  -6  109.05    9.83
  -2   0  -5   49.52    5.20
  -2   0  -5   47.07    5.91
  -2   0  -4    8.55    2.33
  -2   0  -4   10.89    2.13
  -2   0  -3   84.71    5.11
  -2   0  -3   82.18    6.57
  -2   0  -2  208.85    6.85
  -2   0  -2  220.05    9.77
  -2   0  -1  329.80   10.74
  -2   0  -1  314.24    7.56
  -2   0   0   13.19    1.95
  -2   0   1   85.76    4.70
  -2   0   1  114.36    5.70
  -2   0   2  212.72    6.28
  -2   0   2  201.36    7.03
  -2   0   3   45.31    5.00
  -2   0   4   14.04    1.34
  -2   0   4    4.72    4.56
  -2   0   5   35.35    1.89
  -2   0   5   36.51    9.95
  -2   0   6  211.25   21.68
  -2   0   6  137.21    3.26
  -2   0   7  211.69   25.56
  -2   0   8  204.43   25.22
  -2   0   9   64.32   15.07
  -2   0  10   15.62    9.83
  -2   0  11    9.74    6.54
  -2   0  12    5.48    7.09
  -2   0  13   31.46   13.03
  -2   0  14   10.51    9.92
  -2   0  15   14.65    9.37
  -2   0  16   19.52    9.61
  -2   0  17    4.86    5.36
  -2   1 -14   15.95    5.61
  -2   1 -13   22.03    6.26
  -2   1 -12    6.13    3.25
  -2   1 -11    0.69    0.91
  -2   1 -11    4.15    2.51
  -2   1 -10    0.98    1.32
  -2   1 -10    2.06    1.75
  -2   1  -9    9.90    3.29
  -2   1  -9    7.74    3.31
  -2   1  -8  105.46    9.27
  -2   1  -8  114.24   11.28
  -2   1  -7  354.79   15.54
  -2   1  -7  342.53   18.60
  -2   1  -6  320.14   13.44
  -2   1  -6  309.24   16.53
  -2   1  -5  149.78    8.13
  -2   1  -5  143.94   10.47
  -2   1  -4  272.40    9.47
  -2   1  -4  249.95   12.78
  -2   1  -3    0.61    0.69
  -2   1  -3    0.50    0.34
  -2   1  -2   79.67    3.23
  -2   1  -2   82.17    5.94
  -2   1  -1   -3.08    1.17
  -2   1  -1  216.39    8.61
  -2   1   0  113.59    5.58
  -2   1   0  113.98    5.57
  -2   1   1 1232.68   16.78
  -2   1   1 1187.09   16.43
  -2   1   2   76.03    3.87
  -2   1   2   70.55    3.82
  -2   1   2   70.70    3.75
  -2   1   3  372.35    8.25
  -2   1   3  357.55   10.74
  -2   1   4   53.41    6.28
  -2   1   4   56.56    3.29
  -2   1   5    2.38    2.86
  -2   1   5    0.96    0.49
  -2   1   6   51.25    9.10
  -2   1   6   38.79    3.02
  -2   1   7  179.67   18.58
  -2   1   7  171.00    7.06
  -2   1   8  285.41   23.55
  -2   1   8  229.55    9.10
  -2   1   9   81.10   14.22
  -2   1   9   65.68    5.39
  -2   1  10   26.02    9.10
  -2   1  11   37.27   10.91
  -2   1  12   12.09    8.83
  -2   1  13    8.56    6.52
  -2   1  14    5.20    8.18
  -2   1  15    7.30    4.32
  -2   1  16    6.95    5.54
  -2   1  17    5.02    4.46
  -2   2 -15    4.42    3.27
  -2   2 -14    9.65    4.52
  -2   2 -13   23.33    6.80
  -2   2 -12   27.13    6.86
  -2   2 -11   21.96    6.33
  -2   2 -10    7.83    3.00
  -2   2 -10   10.56    3.50
  -2   2  -9    1.93    0.52
  -2   2  -9    3.98    2.13
  -2   2  -8   57.88    8.16
  -2   2  -8   60.20    6.42
  -2   2  -7  191.91   10.35
  -2   2  -7  198.73   14.83
  -2   2  -6  297.87   11.52
  -2   2  -6  278.36   16.80
  -2   2  -5  399.14   11.37
  -2   2  -5  370.14   17.80
  -2   2  -4  290.35    7.85
  -2   2  -4  263.30   13.67
  -2   2  -3  224.81    4.64
  -2   2  -3  227.23   11.36
  -2   2  -2   14.22    2.18
  -2   2  -2   14.97    2.55
  -2   2  -1   16.54    2.21
  -2   2  -1   17.52    2.42
  -2   2   0  141.57    6.26
  -2   2   0  145.60    6.20
  -2   2   1   13.66    1.84
  -2   2   1   14.28    1.67
  -2   2   2 3489.67   30.18
  -2   2   2 3424.22   23.28
  -2   2   3  756.84   15.48
  -2   2   3  827.85   15.01
  -2   2   4  445.99   11.44
  -2   2   4  425.54   14.08
  -2   2   5  104.20    6.02
  -2   2   5  115.20    8.63
  -2   2   6   16.80    2.64
  -2   2   6   14.65    4.79
  -2   2   7   80.95    6.50
  -2   2   7   87.97   11.33
  -2   2   8   69.54   10.90
  -2   2   8   53.10    5.83
  -2   2   9   71.31    7.49
  -2   2   9  105.89   13.82
  -2   2  10   51.40    6.69
  -2   2  10   78.39   12.54
  -2   2  11   64.74   11.70
  -2   2  12   43.35    9.85
  -2   2  13    5.98    3.72
  -2   2  14    0.62    1.65
  -2   2  15    0.88    1.50
  -2   2  16    3.93    3.79
  -2   2  17    5.93    4.45
  -2   3 -15   -0.96    1.64
  -2   3 -14    2.91    2.65
  -2   3 -13   18.62    5.67
  -2   3 -12   21.86    6.01
  -2   3 -11   24.21    6.18
  -2   3 -10   50.71    8.92
  -2   3  -9   29.71    6.07
  -2   3  -9   27.96    4.20
  -2   3  -8    0.25    2.15
  -2   3  -8    0.14    0.38
  -2   3  -7   75.61    9.21
  -2   3  -7   71.33    5.59
  -2   3  -6   83.86    5.24
  -2   3  -6   84.62    9.81
  -2   3  -5  113.46    5.01
  -2   3  -5  112.57   10.49
  -2   3  -4  167.51    4.45
  -2   3  -4  183.33    8.85
  -2   3  -4  186.64   12.41
  -2   3  -3  297.32   10.39
  -2   3  -3  308.06   14.19
  -2   3  -2   87.34    5.46
  -2   3  -2   85.57    6.59
  -2   3  -1   42.93    3.85
  -2   3  -1   43.21    3.97
  -2   3   0    0.07    0.07
  -2   3   0    0.11    0.41
  -2   3   1  162.55    7.37
  -2   3   1  158.61    5.54
  -2   3   2  533.12   13.78
  -2   3   2  536.31    7.88
  -2   3   3  577.54   14.62
  -2   3   3  563.47   13.98
  -2   3   4  525.75   15.15
  -2   3   4  511.75   15.02
  -2   3   5  225.42   10.79
  -2   3   5  213.86   11.07
  -2   3   6  122.21    8.74
  -2   3   6  123.16    9.71
  -2   3   7    9.70    2.83
  -2   3   7   11.53    3.97
  -2   3   8   16.65    3.94
  -2   3   8   17.35    5.76
  -2   3   9   25.00    4.97
  -2   3   9   35.05    7.79
  -2   3  10   22.48    4.92
  -2   3  10   42.09    7.98
  -2   3  11   83.44   10.20
  -2   3  11  109.72   13.39
  -2   3  12   76.12   10.99
  -2   3  13    9.14    7.48
  -2   3  14    2.03    3.29
  -2   3  15    1.79    2.21
  -2   3  16   -0.20    0.71
  -2   4 -16    2.23    2.37
  -2   4 -15    0.16    2.03
  -2   4 -14   -1.05    2.06
  -2   4 -13    4.70    1.83
  -2   4 -12   30.41    7.33
  -2   4 -11   41.32    8.67
  -2   4 -10   61.68    9.66
  -2   4  -9   46.04    8.57
  -2   4  -8   22.06    5.25
  -2   4  -7   10.18    2.49
  -2   4  -6    5.35    2.66
  -2   4  -6    5.13    1.16
  -2   4  -5   20.03    3.13
  -2   4  -5   20.06    4.62
  -2   4  -5   17.45    1.71
  -2   4  -4   92.04    6.65
  -2   4  -4  101.32    9.78
  -2   4  -3  251.74   10.13
  -2   4  -3  256.30   14.06
  -2   4  -2  175.07    8.28
  -2   4  -2  178.63   10.45
  -2   4  -1   93.13    6.36
  -2   4  -1   92.77    6.10
  -2   4   0   46.29    4.28
  -2   4   0   43.28    3.45
  -2   4   1    1.58    0.51
  -2   4   1    2.11    1.01
  -2   4   2  127.91    3.26
  -2   4   2  137.62    7.60
  -2   4   2  128.70    7.61
  -2   4   3  377.23   13.95
  -2   4   3  380.06   12.58
  -2   4   4  138.71    9.22
  -2   4   4  131.52    7.80
  -2   4   5   72.36    6.25
  -2   4   5   79.14    7.68
  -2   4   6   59.00    7.33
  -2   4   6   55.71    6.08
  -2   4   7   40.46    6.10
  -2   4   7   37.96    6.51
  -2   4   8   -1.71    2.56
  -2   4   8    1.05    0.92
  -2   4   9   -1.81    3.02
  -2   4   9    0.33    1.03
  -2   4  10    8.19    2.32
  -2   4  10   24.09    5.60
  -2   4  11   48.33    8.74
  -2   4  11   56.00    8.53
  -2   4  12   75.22   10.40
  -2   4  13   13.26    6.05
  -2   4  14    2.62    2.65
  -2   4  15    2.85    3.16
  -2   4  16    0.45    1.32
  -2   5 -16    2.96    2.05
  -2   5 -15    1.59    0.83
  -2   5 -14   -0.30    1.83
  -2   5 -13    1.07    1.09
  -2   5 -12   19.65    5.95
  -2   5 -11   36.33    7.77
  -2   5 -10   76.86   11.01
  -2   5  -9  107.21   13.04
  -2   5  -8   97.72   11.85
  -2   5  -7    8.32    3.67
  -2   5  -6    0.03    1.08
  -2   5  -6    0.41    0.62
  -2   5  -5    4.66    1.46
  -2   5  -5    6.91    3.44
  -2   5  -4   97.10    7.08
  -2   5  -4  100.19   10.74
  -2   5  -3  255.63   10.92
  -2   5  -3  250.23   15.57
  -2   5  -2  387.91   13.34
  -2   5  -2  379.16   17.05
  -2   5  -1  324.00   12.28
  -2   5  -1  319.21   13.36
  -2   5   0  199.54    9.91
  -2   5   0  193.28    8.32
  -2   5   1   29.95    2.39
  -2   5   1   29.70    3.84
  -2   5   2   21.29    3.48
  -2   5   3  117.92    8.97
  -2   5   3  117.97    7.76
  -2   5   4    6.55    1.48
  -2   5   4    9.22    2.89
  -2   5   5  152.85    9.47
  -2   5   5  160.16   12.55
  -2   5   6   78.98    9.62
  -2   5   6   85.06    7.96
  -2   5   7   83.16    8.76
  -2   5   7   85.05   10.62
  -2   5   8   16.18    4.39
  -2   5   8   16.58    3.83
  -2   5   9   -2.07    3.25
  -2   5   9    2.36    1.32
  -2   5  10    2.37    1.31
  -2   5  10    6.42    2.90
  -2   5  11    6.77    3.31
  -2   5  11   11.71    5.13
  -2   5  12   30.19    6.47
  -2   5  13   18.15    5.22
  -2   5  14    0.98    1.32
  -2   5  15    0.27    0.69
  -2   6 -16    1.07    1.04
  -2   6 -15    7.34    3.77
  -2   6 -14    4.45    2.73
  -2   6 -13   -3.12    3.00
  -2   6 -12    1.09    1.53
  -2   6 -11   11.11    4.57
  -2   6 -10   35.91    7.92
  -2   6  -9  104.31   13.04
  -2   6  -8   72.17    7.65
  -2   6  -8   65.38   10.69
  -2   6  -7  121.57    9.37
  -2   6  -7  127.15   14.48
  -2   6  -6   31.41    6.88
  -2   6  -6   22.23    3.95
  -2   6  -5   26.18    4.08
  -2   6  -5   34.14    7.00
  -2   6  -4   51.74    8.54
  -2   6  -4   37.14    4.62
  -2   6  -3  213.17   10.54
  -2   6  -3  196.99   15.26
  -2   6  -2  519.87   16.75
  -2   6  -2  494.30   22.24
  -2   6  -1  280.41   12.65
  -2   6  -1  294.07   14.63
  -2   6   0  346.47   12.82
  -2   6   0  342.18   14.29
  -2   6   1  233.29   12.49
  -2   6   1  234.69    7.53
  -2   6   2   34.77    5.04
  -2   6   3    4.51    2.01
  -2   6   4   37.03    6.06
  -2   6   4   39.21    5.11
  -2   6   5   31.46    6.17
  -2   6   5   30.29    4.39
  -2   6   6  151.51   14.35
  -2   6   6  158.76   10.76
  -2   6   7  143.82   15.18
  -2   6   7  140.25   11.20
  -2   6   8  100.13   13.19
  -2   6   8  111.41   10.10
  -2   6   9   21.83    6.84
  -2   6   9   23.88    4.98
  -2   6  10   13.30    5.64
  -2   6  10    7.93    2.26
  -2   6  11    9.37    5.29
  -2   6  11    3.91    1.49
  -2   6  12    7.77    3.06
  -2   6  13    3.95    2.33
  -2   6  14   -2.38    1.94
  -2   7 -16    3.18    2.38
  -2   7 -15    4.05    2.34
  -2   7 -14    8.14    4.92
  -2   7 -13    5.79    3.89
  -2   7 -12   -0.83    2.19
  -2   7 -11   -0.56    2.76
  -2   7 -10    0.42    1.51
  -2   7  -9   31.20    8.03
  -2   7  -8   80.03    8.32
  -2   7  -8   91.87   13.24
  -2   7  -7   35.81    5.29
  -2   7  -7   44.59    9.44
  -2   7  -6   61.78    6.70
  -2   7  -6   91.63   12.63
  -2   7  -5   71.81    6.61
  -2   7  -5   90.09   12.29
  -2   7  -4   11.20    4.62
  -2   7  -4    8.65    2.36
  -2   7  -3   30.69    4.41
  -2   7  -3   29.71    6.96
  -2   7  -2   76.81    6.93
  -2   7  -2   76.28    9.83
  -2   7  -1  181.63   11.25
  -2   7  -1  204.78   13.99
  -2   7   0  201.23   11.97
  -2   7   0  219.78   11.67
  -2   7   1  165.84    7.33
  -2   7   1  178.71   12.06
  -2   7   2   90.87    9.21
  -2   7   3   26.84    5.37
  -2   7   4    3.07    1.49
  -2   7   5    7.43    2.90
  -2   7   5    7.55    2.26
  -2   7   6  102.92   12.83
  -2   7   6  116.77    9.73
  -2   7   7  124.93   15.07
  -2   7   7  122.80   10.63
  -2   7   8  108.94   14.47
  -2   7   8   97.96    9.78
  -2   7   9   45.93    9.93
  -2   7   9   41.86    6.51
  -2   7  10   28.49    8.25
  -2   7  10   18.02    4.62
  -2   7  11    2.78    2.00
  -2   7  11    7.78    5.37
  -2   7  12    2.00    1.71
  -2   7  13    0.27    0.99
  -2   8 -15    5.22    3.45
  -2   8 -14   14.12    5.29
  -2   8 -13    6.92    3.24
  -2   8 -12    8.36    4.02
  -2   8 -11    4.17    2.72
  -2   8 -10    0.95    1.81
  -2   8  -9    6.50    4.34
  -2   8  -9    3.64    1.97
  -2   8  -8   33.88    8.60
  -2   8  -8   25.10    4.43
  -2   8  -7   60.87    7.02
  -2   8  -7   90.91   13.52
  -2   8  -6   67.02   11.85
  -2   8  -6   51.09    6.00
  -2   8  -5   71.92    7.27
  -2   8  -5   99.68   14.26
  -2   8  -4   49.02    5.89
  -2   8  -4   61.85   10.93
  -2   8  -3    1.06    0.43
  -2   8  -3   -0.10    0.92
  -2   8  -2    0.24    1.22
  -2   8  -2    0.70    0.70
  -2   8  -1   17.92    4.64
  -2   8  -1   14.19    3.20
  -2   8   0   16.39    3.71
  -2   8   0   22.37    4.22
  -2   8   1   86.10    9.29
  -2   8   2   70.01    9.01
  -2   8   3   53.77    8.20
  -2   8   4   16.74    4.90
  -2   8   5    2.72    1.88
  -2   8   6   12.65    4.56
  -2   8   6   11.66    3.20
  -2   8   7   49.73    7.03
  -2   8   7   51.63    9.89
  -2   8   8   34.48    8.81
  -2   8   8   40.91    6.72
  -2   8   9   27.61    5.58
  -2   8   9   33.16    9.26
  -2   8  10   17.76    7.68
  -2   8  10   11.26    3.37
  -2   8  11   14.78    6.91
  -2   8  11    5.72    2.57
  -2   8  12   -1.31    2.00
  -2   9 -15    2.20    1.63
  -2   9 -14    9.80    4.49
  -2   9 -13   15.91    6.08
  -2   9 -12   11.43    5.37
  -2   9 -11   11.81    5.34
  -2   9 -10    7.02    4.17
  -2   9  -9    2.37    3.18
  -2   9  -9   -1.59    1.32
  -2   9  -8   23.80    8.21
  -2   9  -8   13.19    3.77
  -2   9  -7   33.43    5.54
  -2   9  -7   53.97   11.91
  -2   9  -6  125.89   17.07
  -2   9  -6   80.98    8.23
  -2   9  -5   69.16    7.55
  -2   9  -5  100.05   15.32
  -2   9  -4  102.62   15.19
  -2   9  -4   84.10    8.34
  -2   9  -3   21.81    6.74
  -2   9  -3   20.12    4.16
  -2   9  -2    4.27    2.39
  -2   9  -2    3.11    1.73
  -2   9  -1   -1.77    2.12
  -2   9  -1   -0.44    1.86
  -2   9   0    9.52    3.19
  -2   9   1   57.40    8.33
  -2   9   2   66.32    9.42
  -2   9   3   49.12    8.54
  -2   9   4   57.28    9.70
  -2   9   5   11.76    4.86
  -2   9   6    1.63    2.32
  -2   9   7    7.81    4.40
  -2   9   8   13.78    4.12
  -2   9   8   18.46    6.66
  -2   9   9   11.63    6.08
  -2   9   9    9.11    3.56
  -2   9  10   16.50    7.39
  -2   9  10   12.58    4.16
  -2   9  11   20.21    7.84
  -2   9  11    9.32    3.91
  -2  10 -14    2.52    2.67
  -2  10 -13    8.78    5.04
  -2  10 -12    7.95    4.63
  -2  10 -11   24.73    8.39
  -2  10 -10   18.13    7.22
  -2  10  -9    8.91    5.58
  -2  10  -9    3.50    1.87
  -2  10  -8    6.08    4.45
  -2  10  -8   -0.15    1.07
  -2  10  -7   19.73    7.63
  -2  10  -7    7.70    2.71
  -2  10  -6   29.31    5.17
  -2  10  -6   49.39   11.74
  -2  10  -5   73.22    8.43
  -2  10  -5  115.52   17.26
  -2  10  -4   68.73    8.05
  -2  10  -4   97.93   15.95
  -2  10  -3   57.36    7.56
  -2  10  -3   66.67   12.39
  -2  10  -2   25.96    7.15
  -2  10  -2   17.20    4.39
  -2  10  -1    9.42    2.94
  -2  10   0    2.56    1.68
  -2  10   1   14.30    4.24
  -2  10   2  100.97   12.43
  -2  10   3   81.76   11.82
  -2  10   4   62.26   10.35
  -2  10   5   37.53    8.61
  -2  10   6   13.02    5.90
  -2  10   7    1.79    2.97
  -2  10   8    3.40    3.53
  -2  10   9    8.95    5.72
  -2  10  10   12.69    6.14
  -2  11 -13   -3.77    3.12
  -2  11 -12    3.83    2.93
  -2  11 -11   13.99    6.57
  -2  11 -10   28.86    9.67
  -2  11  -9   17.45    8.03
  -2  11  -8   13.74    7.19
  -2  11  -8    2.46    1.63
  -2  11  -7    5.85    5.05
  -2  11  -7   -1.34    1.63
  -2  11  -6    7.97    5.81
  -2  11  -6   -0.31    0.39
  -2  11  -5   27.43    9.46
  -2  11  -5   14.08    3.86
  -2  11  -4   29.80    5.63
  -2  11  -4   49.61   11.44
  -2  11  -3   35.09    6.32
  -2  11  -3   46.64   10.65
  -2  11  -2   29.20    5.89
  -2  11  -1   20.68    5.08
  -2  11   0    5.35    2.27
  -2  11   1    2.52    1.51
  -2  11   2   14.27    5.07
  -2  11   3   34.42    7.98
  -2  11   4   48.72    9.92
  -2  11   5   38.22    8.94
  -2  11   6   17.11    6.30
  -2  11   7    7.43    4.38
  -2  11   8    2.89    3.31
  -2  11   9    3.99    3.85
  -2  12 -11   11.26    5.91
  -2  12 -10   18.15    7.92
  -2  12  -9   20.84    8.62
  -2  12  -8   21.67    8.63
  -2  12  -8    9.33    3.20
  -2  12  -7   16.19    7.67
  -2  12  -7    3.35    2.08
  -2  12  -6   12.53    6.87
  -2  12  -6    2.21    1.50
  -2  12  -5   -0.02    0.42
  -2  12  -4    4.31    2.30
  -2  12  -3   12.74    4.02
  -2  12  -2   15.53    4.89
  -2  12  -1   20.59    5.75
  -2  12   0   13.17    4.48
  -2  12   1    1.97    2.11
  -2  12   2   -1.23    2.05
  -2  12   3    1.76    0.99
  -2  12   4    5.98    3.58
  -2  12   5   10.71    4.90
  -2  12   6    5.65    3.40
  -2  12   7    3.45    2.61
  -2  12   8    2.99    2.70
  -2  13  -7    9.24    3.52
  -2  13  -6    3.39    2.02
  -2  13  -5    0.81    0.68
  -2  13  -4    2.41    1.88
  -2  13  -3    4.09    2.51
  -2  13  -2   14.20    4.95
  -2  13  -1   13.63    4.82
  -2  13   0   18.69    5.71
  -2  13   1    7.22    3.62
  -2  13   2   -1.02    2.34
  -2  13   3   -2.31    2.59
  -2  13   4   -1.55    2.95
  -2  13   5    3.04    3.06
  -2  13   6    5.28    3.60
  -2  13   7    0.91    7.34
  -2  14  -5    1.42    1.80
  -2  14  -4    0.58    0.69
  -2  14  -3    2.24    1.94
  -2  14  -2    8.72    4.09
  -2  14  -1    9.40    4.95
  -2  14   0   15.94    5.95
  -2  14   1    8.01    3.87
  -2  14   2    2.80    1.96
  -2  14   3   -3.09    3.53
  -2  14   4   -1.45    2.55
  -2  14   5   -1.01    2.38
  -2  15  -3   -0.65    0.79
  -2  15  -2   -0.03    1.03
  -2  15  -1    5.08    3.41
  -2  15   0    0.01    1.74
  -2  15   1    4.85    2.90
  -2  15   2    2.33    2.21
  -2  15   3    2.44    2.52
  -1 -13  -4    2.95    2.08
  -1 -13  -3    0.49    0.60
  -1 -13  -2   14.50    5.93
  -1 -13  -1   11.00    4.84
  -1 -13   0    7.60    4.04
  -1 -13   1   12.57    4.82
  -1 -13   2   12.04    4.74
  -1 -13   3   -5.07    4.65
  -1 -12  -6   -0.43    0.76
  -1 -12  -5   -0.48    0.57
  -1 -12  -4    0.44    1.07
  -1 -12  -3    3.65    2.55
  -1 -12  -2   10.37    3.80
  -1 -12  -1   16.24    4.89
  -1 -12   0   17.79    5.05
  -1 -12   1   12.06    4.13
  -1 -12   2    6.17    3.41
  -1 -12   3    4.34    2.86
  -1 -11  -8    7.28    3.92
  -1 -11  -7    4.25    3.05
  -1 -11  -6    4.74    2.82
  -1 -11  -5   -0.04    1.60
  -1 -11  -4    0.28    1.01
  -1 -11  -3    2.86    1.88
  -1 -11  -2    9.85    3.52
  -1 -11  -1   28.10    5.82
  -1 -11   0   35.08    6.49
  -1 -11   1   22.96    5.23
  -1 -11   2   26.87    5.73
  -1 -11   3    6.85    3.78
  -1 -11  10   -6.75    4.35
  -1 -10  -9    3.93    3.25
  -1 -10  -8    4.16    3.11
  -1 -10  -7    6.50    3.61
  -1 -10  -6    6.45    3.45
  -1 -10  -5    0.94    1.27
  -1 -10  -4   -1.83    2.33
  -1 -10  -3   -1.19    1.90
  -1 -10  -2    8.28    2.81
  -1 -10  -1   19.93    4.76
  -1 -10   0   39.10    6.32
  -1 -10   1   25.92    5.28
  -1 -10   2   38.00    6.20
  -1 -10   3   12.12    3.91
  -1 -10   4   -8.46    5.75
  -1 -10  10   -3.73    3.62
  -1  -9 -10    4.30    3.16
  -1  -9  -9    0.95    0.92
  -1  -9  -8    3.45    3.08
  -1  -9  -7   18.22    5.42
  -1  -9  -6   15.02    4.57
  -1  -9  -5   11.65    3.82
  -1  -9  -4   11.17    3.62
  -1  -9  -3    2.57    1.32
  -1  -9  -2    1.06    0.59
  -1  -9  -1   10.23    3.20
  -1  -9   0   40.62    6.03
  -1  -9   1   60.64    7.50
  -1  -9   2   41.21    5.92
  -1  -9   3   30.49    5.19
  -1  -9   4   -8.92    4.71
  -1  -9  14    2.22    4.24
  -1  -8 -11   10.79    4.96
  -1  -8 -10    2.26    2.70
  -1  -8  -9    2.78    2.68
  -1  -8  -8    3.60    3.26
  -1  -8  -7   11.15    4.21
  -1  -8  -6   30.09    6.45
  -1  -8  -5   47.17    7.70
  -1  -8  -4   51.20    7.40
  -1  -8  -3   68.35    8.22
  -1  -8  -2   18.95    2.87
  -1  -8  -2   20.95    4.30
  -1  -8  -1    2.51    2.34
  -1  -8  -1    1.98    0.98
  -1  -8   0    0.98    1.13
  -1  -8   0   18.09    3.63
  -1  -8   1   30.90    4.87
  -1  -8   2  113.31    9.01
  -1  -8   3  106.20    8.80
  -1  -8   4   -6.19    4.48
  -1  -8   9   -3.18    3.59
  -1  -8  11   -0.44    3.00
  -1  -8  14    9.06    6.59
  -1  -8  15   11.26    8.25
  -1  -7 -12   13.11    5.45
  -1  -7 -11    6.40    4.01
  -1  -7 -10    5.10    3.34
  -1  -7  -9    2.64    2.00
  -1  -7  -8    0.55    1.55
  -1  -7  -7    1.21    1.74
  -1  -7  -6   27.58    6.05
  -1  -7  -5   39.77    6.57
  -1  -7  -5   56.90    7.54
  -1  -7  -4  235.50   15.15
  -1  -7  -4  148.59   11.82
  -1  -7  -3  118.60   10.33
  -1  -7  -3  105.97    7.15
  -1  -7  -2  119.43    9.79
  -1  -7  -2  113.61    6.75
  -1  -7  -1   11.46    2.92
  -1  -7  -1    7.55    1.66
  -1  -7   0    6.64    2.03
  -1  -7   0   11.82    2.77
  -1  -7   1   25.31    3.93
  -1  -7   2   36.76    4.68
  -1  -7   3  196.59   10.89
  -1  -7   4   -5.84    3.84
  -1  -7   9   -2.52    3.60
  -1  -7  13    3.91    4.00
  -1  -7  14    9.56    6.26
  -1  -7  15  -20.48    9.15
  -1  -6 -12    6.19    3.06
  -1  -6 -11    7.79    3.74
  -1  -6 -10    4.13    2.45
  -1  -6  -9   15.59    5.27
  -1  -6  -8   13.34    4.18
  -1  -6  -7    1.19    1.20
  -1  -6  -7    0.30    0.83
  -1  -6  -6    5.64    2.47
  -1  -6  -6    5.62    2.00
  -1  -6  -5   26.82    4.30
  -1  -6  -5   24.00    5.04
  -1  -6  -4   74.52    8.05
  -1  -6  -4   92.10    7.99
  -1  -6  -3  130.50   10.22
  -1  -6  -3  175.02   10.86
  -1  -6  -2  106.11    8.64
  -1  -6  -2  103.04    6.16
  -1  -6  -1   31.58    3.37
  -1  -6  -1   44.01    5.30
  -1  -6   0    5.55    1.93
  -1  -6   0   18.13    3.23
  -1  -6   1    3.81    1.27
  -1  -6   2   17.49    2.99
  -1  -6   3   89.37    7.03
  -1  -6   8   -2.11    3.21
  -1  -6  12    0.22    0.17
  -1  -6  13    7.14    5.98
  -1  -6  14   23.94   10.38
  -1  -6  17  -23.16   12.27
  -1  -5 -13   -1.80    2.83
  -1  -5 -12    4.95    2.61
  -1  -5 -11    8.52    3.79
  -1  -5 -10   12.34    4.09
  -1  -5  -9   36.47    5.94
  -1  -5  -9   40.53    7.57
  -1  -5  -8   66.80    9.18
  -1  -5  -8   56.19    6.68
  -1  -5  -7   20.81    4.96
  -1  -5  -7   20.12    3.87
  -1  -5  -6    1.69    1.03
  -1  -5  -6    2.79    1.43
  -1  -5  -5    7.24    2.50
  -1  -5  -5    6.11    2.08
  -1  -5  -4   43.22    5.79
  -1  -5  -4   47.20    5.06
  -1  -5  -3  154.11   10.32
  -1  -5  -3  181.10    9.38
  -1  -5  -2   63.49    6.23
  -1  -5  -2   69.55    5.79
  -1  -5  -1   59.67    4.11
  -1  -5  -1   80.79    6.71
  -1  -5   0   21.74    2.49
  -1  -5   0   21.79    3.34
  -1  -5   1   67.32    5.54
  -1  -5   2    5.17    1.55
  -1  -5   3    6.02    2.73
  -1  -5   7    0.18    0.50
  -1  -5   9   -7.24    3.83
  -1  -5  10    0.01    0.42
  -1  -5  12    9.96    7.24
  -1  -5  13   19.36   10.38
  -1  -4 -13   -0.29    0.48
  -1  -4 -12    0.82    1.93
  -1  -4 -11   -0.11    0.77
  -1  -4 -10   16.27    3.88
  -1  -4 -10   21.20    5.66
  -1  -4  -9   77.76   10.14
  -1  -4  -9   63.02    7.60
  -1  -4  -8  138.37   13.08
  -1  -4  -8  118.01    9.59
  -1  -4  -7  166.97   13.62
  -1  -4  -7  149.85   10.27
  -1  -4  -6   47.97    6.77
  -1  -4  -6   42.26    5.12
  -1  -4  -5    4.36    1.65
  -1  -4  -5    5.23    1.63
  -1  -4  -4    0.42    0.17
  -1  -4  -4    0.83    0.65
  -1  -4  -3  106.73    7.98
  -1  -4  -3  103.27    6.61
  -1  -4  -2  232.03   10.94
  -1  -4  -2  241.66    9.35
  -1  -4  -1  224.85   10.20
  -1  -4  -1  201.12    6.93
  -1  -4  -1  228.41    9.09
  -1  -4   0  222.33    6.91
  -1  -4   0  244.85    9.93
  -1  -4   1  390.78   11.89
  -1  -4   2  177.64    7.83
  -1  -4   9   -0.19    0.51
  -1  -4  11    9.34    7.58
  -1  -4  12   20.37   11.66
  -1  -4  17   -4.72    6.77
  -1  -3 -13   14.13    4.72
  -1  -3 -12    5.05    2.54
  -1  -3 -12    3.17    2.28
  -1  -3 -11   -0.42    1.13
  -1  -3 -11    1.51    2.22
  -1  -3 -10    3.33    1.81
  -1  -3 -10    4.30    2.55
  -1  -3  -9   53.52    8.06
  -1  -3  -9   40.53    6.15
  -1  -3  -8  228.07   15.74
  -1  -3  -8  202.59   12.58
  -1  -3  -7  110.55   10.46
  -1  -3  -7  101.22    8.47
  -1  -3  -6  138.81   10.89
  -1  -3  -6  134.11    9.23
  -1  -3  -5  122.97    9.57
  -1  -3  -5  117.39    7.88
  -1  -3  -4   50.88    5.59
  -1  -3  -4   47.55    4.68
  -1  -3  -3    4.78    1.47
  -1  -3  -3    4.67    1.30
  -1  -3  -2   58.24    4.13
  -1  -3  -2   56.62    4.98
  -1  -3  -1  279.87   10.15
  -1  -3  -1  262.81    8.47
  -1  -3   0  725.61   15.24
  -1  -3   0  764.10   14.71
  -1  -3   1  924.08   15.61
  -1  -3   2 1682.09   24.17
  -1  -3   5   -5.62    2.60
  -1  -3   7  235.23    5.87
  -1  -3   9    5.62    5.29
  -1  -3  10   19.01    8.95
  -1  -3  11   10.07    8.18
  -1  -3  14  -42.34   15.32
  -1  -3  16    0.88    4.85
  -1  -3  17   10.07    8.66
  -1  -2 -13   11.98    4.01
  -1  -2 -13   16.71    5.11
  -1  -2 -12   13.03    4.23
  -1  -2 -12   18.71    5.15
  -1  -2 -11    5.83    2.84
  -1  -2 -11    8.44    3.47
  -1  -2 -10    1.92    1.33
  -1  -2 -10    2.37    1.85
  -1  -2  -9    8.63    3.03
  -1  -2  -9   10.93    3.38
  -1  -2  -8   64.15    8.02
  -1  -2  -8   57.83    6.99
  -1  -2  -7  161.44   11.91
  -1  -2  -7  149.55   10.44
  -1  -2  -6   50.96    6.24
  -1  -2  -6   45.32    5.51
  -1  -2  -5   91.06    7.57
  -1  -2  -5   89.48    7.03
  -1  -2  -4  135.90    8.36
  -1  -2  -4  138.85    7.87
  -1  -2  -3   62.50    5.18
  -1  -2  -3   58.80    4.55
  -1  -2  -2    7.88    1.49
  -1  -2  -2    8.04    1.60
  -1  -2  -1    7.55    1.48
  -1  -2  -1    8.07    1.39
  -1  -2   0  408.60    9.52
  -1  -2   0  395.48    9.04
  -1  -2   1  669.02   11.91
  -1  -2   8   14.70    9.35
  -1  -2   9   47.45   13.99
  -1  -2  14   -3.31    7.84
  -1  -2  15    1.60    1.96
  -1  -2  16   11.08    9.61
  -1  -2  17   13.87   10.90
  -1  -1 -14    5.67    2.96
  -1  -1 -13   40.32    7.47
  -1  -1 -13   37.23    7.38
  -1  -1 -12   41.20    7.42
  -1  -1 -12   37.47    7.22
  -1  -1 -11   31.49    6.09
  -1  -1 -11   24.80    5.55
  -1  -1 -10   15.21    4.06
  -1  -1 -10   19.91    4.76
  -1  -1  -9    0.54    0.89
  -1  -1  -9    0.59    0.83
  -1  -1  -8   13.48    3.45
  -1  -1  -8   15.35    3.65
  -1  -1  -7   51.68    6.35
  -1  -1  -7   48.63    6.09
  -1  -1  -6   46.14    5.33
  -1  -1  -6   38.30    5.27
  -1  -1  -5  150.05    9.14
  -1  -1  -5  145.65    9.06
  -1  -1  -4  395.24   13.13
  -1  -1  -4  387.95   13.41
  -1  -1  -3  201.77    8.34
  -1  -1  -3  207.06    8.87
  -1  -1  -2    4.44    1.07
  -1  -1  -2    3.51    0.99
  -1  -1  -1    0.74    0.52
  -1  -1  -1    0.88    0.38
  -1  -1   0   68.36    3.40
  -1  -1   0   65.39    3.20
  -1  -1   1  408.53   11.60
  -1  -1   1  483.26    9.82
  -1  -1   2  583.38    8.91
  -1  -1   4   11.63    4.41
  -1  -1   5    5.37    6.05
  -1  -1   6   13.55    8.19
  -1  -1   6   10.29    1.52
  -1  -1   7    2.39    0.83
  -1  -1   7  -18.85   11.40
  -1  -1   8   85.79    6.34
  -1  -1  12   -1.63    7.44
  -1  -1  13   -1.27    6.31
  -1  -1  14    0.20    0.38
  -1  -1  15    6.64    8.45
  -1  -1  16   16.33   11.60
  -1  -1  17   18.34   11.54
  -1   0 -14    8.85    4.12
  -1   0 -13   27.91    6.61
  -1   0 -13   33.95    6.65
  -1   0 -12   51.18    7.91
  -1   0 -12   52.20    8.62
  -1   0 -11   53.74    7.59
  -1   0 -11   51.48    8.39
  -1   0 -10   69.11    8.96
  -1   0 -10   78.73    8.56
  -1   0  -9   37.22    5.63
  -1   0  -9   32.57    5.78
  -1   0  -8   -0.26    1.01
  -1   0  -8    1.66    1.08
  -1   0  -7   15.71    3.72
  -1   0  -7   19.57    3.52
  -1   0  -6   60.73    6.71
  -1   0  -6   62.77    5.77
  -1   0  -5  229.75   10.16
  -1   0  -5  221.63   11.74
  -1   0  -4  732.25   18.94
  -1   0  -4  742.37   16.18
  -1   0  -3  796.80   14.50
  -1   0  -3  837.71   17.84
  -1   0  -2  484.26    9.36
  -1   0  -2  494.92   11.96
  -1   0  -1   64.93    2.69
  -1   0  -1   68.08    3.72
  -1   0   0    6.06    0.99
  -1   0   0    8.37    1.15
  -1   0   1   91.26    3.05
  -1   0   1   92.76    3.35
  -1   0   2  431.75   17.37
  -1   0   4  101.31    3.47
  -1   0   4   14.42    1.41
  -1   0   5  358.61    9.99
  -1   0   6  132.27    7.56
  -1   0   7    5.89    1.65
  -1   0   8   11.14    2.65
  -1   0   9   32.41    5.10
  -1   0  10   24.53   11.42
  -1   0  11   63.91   16.87
  -1   0  12   18.82   10.63
  -1   0  13    2.66    8.47
  -1   0  14    2.03    8.41
  -1   0  15   12.86    8.77
  -1   0  16   19.82   10.13
  -1   0  17   26.70   11.15
  -1   1 -15    1.97    2.21
  -1   1 -14    0.30    0.96
  -1   1 -13   15.59    4.79
  -1   1 -13   14.62    4.06
  -1   1 -12   31.92    5.66
  -1   1 -12   29.73    7.05
  -1   1 -11   40.64    6.11
  -1   1 -11   39.32    7.40
  -1   1 -10   87.81    8.62
  -1   1 -10   84.42   10.33
  -1   1  -9  112.38    9.10
  -1   1  -9  105.55   11.31
  -1   1  -8   38.94    4.99
  -1   1  -8   35.28    5.96
  -1   1  -7   23.69    3.69
  -1   1  -7   23.56    4.72
  -1   1  -6    2.56    1.45
  -1   1  -6    2.31    1.04
  -1   1  -5   99.75    6.16
  -1   1  -5   95.22    8.40
  -1   1  -4 1237.79   18.54
  -1   1  -4 1204.40   26.51
  -1   1  -3 1211.80   23.33
  -1   1  -3 1204.08   14.90
  -1   1  -2  831.74    8.81
  -1   1  -2  854.19   16.77
  -1   1  -1  483.51    8.92
  -1   1  -1  477.63   10.06
  -1   1   0  146.76    4.41
  -1   1   0  149.02    4.36
  -1   1   1    5.69    0.86
  -1   1   1    5.16    0.86
  -1   1   1    5.49    0.67
  -1   1   2   48.30    2.62
  -1   1   2   44.51    3.26
  -1   1   3  261.55    7.02
  -1   1   3  313.64   13.11
  -1   1   4  291.42    9.69
  -1   1   4  391.07   19.82
  -1   1   5  708.53   33.60
  -1   1   5  591.88   16.97
  -1   1   6  891.64   41.44
  -1   1   6  814.64   23.19
  -1   1   7  182.68   21.44
  -1   1   7  205.03   13.10
  -1   1   8   36.30    6.07
  -1   1   8   31.86    9.44
  -1   1   9    6.42    3.28
  -1   1   9    0.87    3.45
  -1   1  10   30.52    6.28
  -1   1  10   24.02    9.94
  -1   1  11   56.07   14.68
  -1   1  12   35.30   12.98
  -1   1  13   12.61   11.21
  -1   1  14    9.77    7.68
  -1   1  15   14.78    9.31
  -1   1  16    4.77    4.03
  -1   2 -16   13.90    5.57
  -1   2 -15    7.31    3.70
  -1   2 -14   -0.90    2.37
  -1   2 -13    2.98    1.75
  -1   2 -12    3.49    1.54
  -1   2 -12    3.29    1.75
  -1   2 -11   10.53    3.66
  -1   2 -11   10.16    2.95
  -1   2 -10   30.18    4.68
  -1   2 -10   28.96    6.38
  -1   2  -9  138.79    9.65
  -1   2  -9  137.74   13.19
  -1   2  -8  119.46    8.36
  -1   2  -8  117.04   11.42
  -1   2  -7   65.12    7.96
  -1   2  -7   65.46    5.66
  -1   2  -6   30.20    5.30
  -1   2  -6   31.77    3.49
  -1   2  -5    3.43    1.81
  -1   2  -5    3.53    1.01
  -1   2  -4  169.50    5.90
  -1   2  -4  161.50   10.68
  -1   2  -3  539.60   11.23
  -1   2  -3  545.21   17.43
  -1   2  -2  232.27    6.91
  -1   2  -2  245.13   10.28
  -1   2  -1  627.28   10.90
  -1   2  -1  615.78   13.23
  -1   2   0  526.24   10.41
  -1   2   0  487.56    8.46
  -1   2   1  146.24    5.40
  -1   2   1  135.08    5.38
  -1   2   2    1.04    0.88
  -1   2   2   -1.77    1.00
  -1   2   3    1.96    0.04
  -1   2   3    3.92    1.27
  -1   2   4  190.50    9.79
  -1   2   4  177.60   10.29
  -1   2   5  543.79   22.21
  -1   2   5  498.38   18.36
  -1   2   6  787.03   30.52
  -1   2   6  649.77   23.42
  -1   2   7  304.02   21.94
  -1   2   7  283.49   16.94
  -1   2   8  111.13   14.24
  -1   2   8  109.20   11.38
  -1   2   9   24.96    7.40
  -1   2   9   27.24    6.23
  -1   2  10    4.34    3.33
  -1   2  10    6.25    5.55
  -1   2  11   15.18    4.70
  -1   2  11   15.88    6.79
  -1   2  12   31.77    9.03
  -1   2  13   21.49    7.48
  -1   2  14   11.35    7.53
  -1   2  15    6.45    4.15
  -1   2  16   10.71    5.77
  -1   3 -16    4.83    2.78
  -1   3 -15   13.27    5.01
  -1   3 -14   10.36    3.68
  -1   3 -13    3.29    1.02
  -1   3 -12   -1.65    2.36
  -1   3 -11    0.63    0.17
  -1   3 -11    1.32    1.57
  -1   3 -10   35.10    4.97
  -1   3 -10   37.77    7.32
  -1   3  -9   90.68    7.48
  -1   3  -9   90.57   10.94
  -1   3  -8  167.29    9.25
  -1   3  -8  157.97   13.83
  -1   3  -7  136.93    7.58
  -1   3  -7  140.63   12.55
  -1   3  -6  138.79    6.83
  -1   3  -6  141.38   12.05
  -1   3  -5   24.70    2.89
  -1   3  -5   25.36    2.48
  -1   3  -5   28.35    5.28
  -1   3  -4    9.85    2.63
  -1   3  -4    7.67    1.61
  -1   3  -3  226.73    7.94
  -1   3  -3  250.85   13.13
  -1   3  -2    4.35    1.02
  -1   3  -2    5.93    1.37
  -1   3  -1   38.31    3.25
  -1   3  -1   31.88    3.44
  -1   3   0  175.85    7.11
  -1   3   0  176.33    6.85
  -1   3   1  372.10   10.96
  -1   3   2   62.29    4.10
  -1   3   2   62.95    4.88
  -1   3   3    6.92    1.74
  -1   3   3    2.75    0.88
  -1   3   4    3.64    1.44
  -1   3   4    0.47    0.77
  -1   3   5  108.05    9.67
  -1   3   5   83.21    8.23
  -1   3   6  317.81   17.95
  -1   3   6  294.92   16.25
  -1   3   7  186.70   14.34
  -1   3   7  189.73   14.96
  -1   3   8   74.08   10.28
  -1   3   8   72.52    9.84
  -1   3   9   44.59    8.15
  -1   3   9   33.59    7.33
  -1   3  10   14.35    4.94
  -1   3  10   12.25    4.76
  -1   3  11    0.34    1.22
  -1   3  11   -0.16    0.70
  -1   3  12    4.99    3.54
  -1   3  13    6.05    3.39
  -1   3  14   10.50    5.10
  -1   3  15   13.37    5.86
  -1   4 -16    6.03    3.35
  -1   4 -15   12.88    5.13
  -1   4 -14   21.84    6.43
  -1   4 -13    8.59    3.93
  -1   4 -12    2.85    1.16
  -1   4 -11    4.41    2.27
  -1   4 -11    6.78    2.37
  -1   4 -10   11.24    4.14
  -1   4 -10    8.14    2.27
  -1   4  -9  104.02    7.54
  -1   4  -9  117.28   12.49
  -1   4  -8  218.14   10.08
  -1   4  -8  233.00   17.25
  -1   4  -7  200.03    8.58
  -1   4  -7  216.27   16.29
  -1   4  -6  270.06   10.88
  -1   4  -6  268.54   16.96
  -1   4  -5  131.78    7.05
  -1   4  -5  135.70   11.43
  -1   4  -4   23.27    2.92
  -1   4  -4   22.93    4.18
  -1   4  -3   31.08    4.76
  -1   4  -3   29.27    3.17
  -1   4  -2   44.32    3.92
  -1   4  -2   51.89    5.86
  -1   4  -1  142.20    8.81
  -1   4  -1  125.23    6.68
  -1   4   0  407.25   13.06
  -1   4   0  402.85   12.61
  -1   4   1  461.89   14.50
  -1   4   1  439.11   10.69
  -1   4   2  357.01   11.62
  -1   4   2  352.56   14.08
  -1   4   3   34.44    3.70
  -1   4   3   37.72    4.97
  -1   4   4   19.73    3.18
  -1   4   4   25.13    4.43
  -1   4   5   20.31    4.63
  -1   4   5   16.00    2.89
  -1   4   6  113.34   11.40
  -1   4   6   87.66    8.43
  -1   4   7   80.16    8.39
  -1   4   7   86.19   10.82
  -1   4   8   27.47    6.53
  -1   4   8   19.63    4.64
  -1   4   9   68.54    8.93
  -1   4   9   86.07   12.25
  -1   4  10   40.27    8.86
  -1   4  10   25.35    6.03
  -1   4  11   14.35    5.41
  -1   4  11    9.12    3.92
  -1   4  12   -1.85    2.18
  -1   4  12    0.71    2.20
  -1   4  13    0.14    1.44
  -1   4  14    5.09    3.31
  -1   4  15    1.26    1.03
  -1   5 -16   -0.26    1.41
  -1   5 -15    6.70    3.53
  -1   5 -14   15.90    5.40
  -1   5 -13   25.02    6.97
  -1   5 -12   23.86    6.07
  -1   5 -11   17.84    5.42
  -1   5 -10    1.15    2.71
  -1   5 -10    0.83    0.55
  -1   5  -9   33.27    4.05
  -1   5  -9   41.43    7.95
  -1   5  -8  121.37   12.90
  -1   5  -7  155.25    9.06
  -1   5  -7  141.91   13.05
  -1   5  -6  224.43    9.98
  -1   5  -6  222.41   16.25
  -1   5  -5  312.91   11.52
  -1   5  -5  350.37   19.80
  -1   5  -4  133.14   11.44
  -1   5  -4  120.50    7.03
  -1   5  -3   45.32    6.53
  -1   5  -3   35.57    3.94
  -1   5  -2    6.92    2.34
  -1   5  -2    2.84    0.97
  -1   5  -1   12.70    2.28
  -1   5  -1   16.77    3.67
  -1   5   0  593.76   18.04
  -1   5   0  585.67   17.54
  -1   5   1  621.42   15.40
  -1   5   1  607.59   19.29
  -1   5   2  609.86   12.08
  -1   5   2  693.05   22.43
  -1   5   3  369.40   13.22
  -1   5   3  339.00   17.13
  -1   5   4  102.97   10.09
  -1   5   4  101.85    7.03
  -1   5   5    7.20    2.36
  -1   5   5    7.33    2.13
  -1   5   6    8.08    3.08
  -1   5   6    2.10    0.97
  -1   5   7   49.56    8.38
  -1   5   7   38.75    5.55
  -1   5   8   57.40    9.76
  -1   5   8   51.53    6.79
  -1   5   9   41.55    8.41
  -1   5   9   26.84    5.64
  -1   5  10   82.39    9.75
  -1   5  10  115.30   14.97
  -1   5  11   28.62    6.28
  -1   5  11   49.11    9.60
  -1   5  12    5.20    2.59
  -1   5  12    4.78    2.85
  -1   5  13    0.09    0.45
  -1   5  14    1.91    1.74
  -1   6 -16   -2.62    2.80
  -1   6 -15    1.26    1.37
  -1   6 -14    9.16    3.98
  -1   6 -13   14.77    5.61
  -1   6 -12   31.99    7.36
  -1   6 -11   38.66    8.26
  -1   6 -10   34.20    7.87
  -1   6  -9    4.73    3.75
  -1   6  -8   -0.28    4.39
  -1   6  -8    6.19    2.13
  -1   6  -7   52.97    5.68
  -1   6  -7   51.19    7.76
  -1   6  -6   37.71    4.48
  -1   6  -6   41.94    6.98
  -1   6  -5  146.32    8.40
  -1   6  -5  173.86   14.56
  -1   6  -4  182.54   14.69
  -1   6  -4  150.86    8.45
  -1   6  -3  123.80   11.62
  -1   6  -3  103.40    7.44
  -1   6  -2   69.39    8.34
  -1   6  -2   52.50    5.38
  -1   6  -1   27.44    5.07
  -1   6  -1   22.41    3.55
  -1   6   0  107.85    8.77
  -1   6   0   97.49    8.08
  -1   6   1  261.73   11.80
  -1   6   1  264.42   14.27
  -1   6   2  276.30   10.06
  -1   6   2  282.62   16.07
  -1   6   3  178.35   13.37
  -1   6   4  189.89   14.83
  -1   6   4  220.49   11.49
  -1   6   5   83.82    7.43
  -1   6   5   93.09   10.65
  -1   6   6    2.54    1.21
  -1   6   6    2.25    1.05
  -1   6   7    0.83    1.00
  -1   6   7   -0.14    0.38
  -1   6   8    5.11    2.98
  -1   6   8    3.59    1.71
  -1   6   9   48.35    6.98
  -1   6   9   53.53   10.08
  -1   6  10   53.39    7.97
  -1   6  10   77.38   12.51
  -1   6  11   39.02    6.95
  -1   6  11   56.56   10.92
  -1   6  12   15.21    4.48
  -1   6  13    0.83    0.60
  -1   7 -16    0.98    2.16
  -1   7 -15   -1.75    2.25
  -1   7 -14    3.36    2.91
  -1   7 -13    9.51    4.17
  -1   7 -12   28.24    7.51
  -1   7 -11   46.22    9.48
  -1   7 -10   45.53    9.21
  -1   7  -9    8.82    2.86
  -1   7  -9    3.53    0.31
  -1   7  -8   -1.20    4.14
  -1   7  -8    5.60    1.79
  -1   7  -7    4.14    1.66
  -1   7  -7   -0.76    2.81
  -1   7  -6   12.30    3.27
  -1   7  -6   10.37    2.44
  -1   7  -5   51.95    5.47
  -1   7  -5   62.52    9.25
  -1   7  -4  138.34   13.96
  -1   7  -4  120.05    8.34
  -1   7  -3   99.24    7.92
  -1   7  -3  124.86   12.67
  -1   7  -2   90.15    7.83
  -1   7  -2  113.22   11.45
  -1   7  -1   56.88    8.03
  -1   7  -1   44.60    5.72
  -1   7   0    7.33    2.67
  -1   7   0   14.23    4.21
  -1   7   1   57.81    6.50
  -1   7   1   47.51    6.50
  -1   7   2   44.55    7.01
  -1   7   3   65.10    8.45
  -1   7   4   33.47    6.11
  -1   7   5   72.88    9.78
  -1   7   5   79.55    7.94
  -1   7   6   23.37    5.41
  -1   7   6   26.33    4.64
  -1   7   7    4.14    1.27
  -1   7   7    4.45    1.81
  -1   7   8   -1.70    1.78
  -1   7   8   -2.86    4.18
  -1   7   9    4.39    2.34
  -1   7   9    1.79    2.96
  -1   7  10   27.80    7.56
  -1   7  10   27.38    5.61
  -1   7  11   30.05    8.03
  -1   7  11   23.85    5.49
  -1   7  12    8.92    3.61
  -1   8 -16    4.75    3.39
  -1   8 -15   -0.45    1.62
  -1   8 -14    2.84    3.01
  -1   8 -13    4.59    3.28
  -1   8 -12   13.66    5.95
  -1   8 -11   40.88    9.11
  -1   8 -10   67.91   11.69
  -1   8  -9   33.53    5.42
  -1   8  -9   33.18    7.11
  -1   8  -8    5.79    2.69
  -1   8  -8    8.18    2.56
  -1   8  -7    6.03    1.59
  -1   8  -7    7.99    2.22
  -1   8  -6    1.62    0.96
  -1   8  -6    1.69    1.17
  -1   8  -5   33.84    7.32
  -1   8  -5   26.26    4.14
  -1   8  -4  153.04   15.49
  -1   8  -4  124.86    9.40
  -1   8  -3  109.91    8.94
  -1   8  -3  139.31   14.22
  -1   8  -2  195.37   16.29
  -1   8  -2  156.49   11.19
  -1   8  -1  105.18   11.37
  -1   8  -1   85.80    8.73
  -1   8   0   57.89    8.09
  -1   8   0   44.08    6.80
  -1   8   1    5.02    2.59
  -1   8   1   10.43    3.69
  -1   8   2    2.01    2.38
  -1   8   3   22.34    5.01
  -1   8   4   25.68    5.31
  -1   8   5   59.96    9.17
  -1   8   6   32.48    6.82
  -1   8   6   41.63    6.45
  -1   8   7   14.51    4.42
  -1   8   7   24.67    5.30
  -1   8   8    7.40    2.90
  -1   8   8   -0.89    3.55
  -1   8   9   -3.37    3.94
  -1   8   9   -1.07    1.48
  -1   8  10    1.98    0.92
  -1   8  10    1.17    3.33
  -1   8  11    5.02    0.67
  -1   9 -15    2.45    3.17
  -1   9 -14    3.32    2.46
  -1   9 -13    3.18    3.37
  -1   9 -12    2.65    3.94
  -1   9 -11   20.78    7.55
  -1   9 -10   30.62    8.19
  -1   9  -9   48.16    6.42
  -1   9  -9   49.59   10.07
  -1   9  -8   24.50    4.40
  -1   9  -8   19.82    5.36
  -1   9  -7   32.65    7.64
  -1   9  -7   31.82    4.95
  -1   9  -6    2.84    0.85
  -1   9  -6    4.00    1.73
  -1   9  -5    5.77    3.26
  -1   9  -5    6.51    2.32
  -1   9  -4   99.99   13.40
  -1   9  -4   73.37    8.01
  -1   9  -3  124.75   14.49
  -1   9  -3   90.47    9.03
  -1   9  -2  166.48   15.96
  -1   9  -2  118.38   10.71
  -1   9  -1  195.40   16.54
  -1   9  -1  155.82   12.88
  -1   9   0   64.05    9.09
  -1   9   0   47.61    7.68
  -1   9   1   33.54    6.55
  -1   9   2    3.24    2.58
  -1   9   3    3.95    2.94
  -1   9   4   36.85    7.82
  -1   9   5   36.06    7.83
  -1   9   6   75.04   11.01
  -1   9   7   25.80    6.23
  -1   9   8   26.89    5.87
  -1   9   8   12.36    4.07
  -1   9   9   -2.85    4.86
  -1   9   9    3.05    1.99
  -1   9  10   -5.74    4.56
  -1  10 -14    6.47    4.39
  -1  10 -13    3.32    3.24
  -1  10 -12    6.28    4.39
  -1  10 -11    6.49    5.39
  -1  10 -10   11.35    4.62
  -1  10  -9    8.52    3.13
  -1  10  -9   19.44    4.01
  -1  10  -8   25.34    6.65
  -1  10  -8   26.55    4.89
  -1  10  -7   35.72    8.25
  -1  10  -7   32.83    5.29
  -1  10  -6   24.84    6.72
  -1  10  -6   22.45    4.32
  -1  10  -5    1.38    2.30
  -1  10  -5    1.88    1.16
  -1  10  -4   -0.32    1.43
  -1  10  -4   -0.86    0.33
  -1  10  -3   30.51    7.26
  -1  10  -3   20.31    4.43
  -1  10  -2   38.23    8.27
  -1  10  -2   29.99    5.69
  -1  10  -1   66.83    9.24
  -1  10   0   86.06   10.74
  -1  10   1   31.70    6.74
  -1  10   2   14.83    5.06
  -1  10   3    6.02    3.35
  -1  10   4    7.46    4.45
  -1  10   5   32.16    7.97
  -1  10   6   40.14    9.06
  -1  10   7   41.29    9.65
  -1  10   8   30.93    9.06
  -1  10   9   18.44    7.55
  -1  10  10   10.90    6.87
  -1  11 -13    7.86    5.20
  -1  11 -12    8.35    5.38
  -1  11 -11    4.46    4.49
  -1  11 -10    8.50    5.26
  -1  11  -9   -3.15    4.78
  -1  11  -8    9.97    3.25
  -1  11  -8   12.06    3.42
  -1  11  -7   15.88    5.69
  -1  11  -7   19.02    4.38
  -1  11  -6   46.47    9.82
  -1  11  -6   39.23    6.17
  -1  11  -5   12.81    4.63
  -1  11  -5    9.15    3.16
  -1  11  -4    4.71    2.00
  -1  11  -4    6.66    2.59
  -1  11  -3    0.01    2.20
  -1  11  -3   -1.60    2.02
  -1  11  -2   -0.55    1.17
  -1  11  -1   10.33    3.53
  -1  11   0   14.59    4.51
  -1  11   1   26.87    6.56
  -1  11   2   21.36    6.32
  -1  11   3   10.91    4.64
  -1  11   4    4.83    3.19
  -1  11   5    4.96    3.90
  -1  11   6    7.83    4.87
  -1  11   7   12.25    5.41
  -1  11   8   11.56    5.77
  -1  11   9   10.47    6.28
  -1  12 -11    9.60    5.90
  -1  12 -10   10.29    5.83
  -1  12  -9   -4.40    3.91
  -1  12  -8   -0.84    5.61
  -1  12  -7   11.49    4.42
  -1  12  -7   12.74    4.02
  -1  12  -6   23.81    6.84
  -1  12  -6   22.32    5.26
  -1  12  -5   19.87    6.13
  -1  12  -5   19.00    4.90
  -1  12  -4    9.42    3.42
  -1  12  -3    1.44    0.16
  -1  12  -2   -1.15    1.49
  -1  12  -1    0.38    0.54
  -1  12   0   10.65    4.20
  -1  12   1   12.00    4.96
  -1  12   2   23.45    7.08
  -1  12   3   12.77    5.21
  -1  12   4    9.76    4.80
  -1  12   5    1.98    2.19
  -1  12   6    2.44    2.97
  -1  12   7    4.38    3.85
  -1  12   8    3.48    3.80
  -1  13  -6   10.38    3.78
  -1  13  -5   16.96    4.90
  -1  13  -4   11.78    4.13
  -1  13  -3    9.65    3.91
  -1  13  -2   -0.49    1.84
  -1  13  -1   -0.83    1.45
  -1  13   0    3.98    2.57
  -1  13   1   11.13    4.95
  -1  13   2   14.84    5.40
  -1  13   3   18.52    6.56
  -1  13   4    9.08    4.94
  -1  13   5    5.31    3.74
  -1  13   6    1.75    2.38
  -1  14  -5    5.09    3.14
  -1  14  -4    8.11    3.51
  -1  14  -3    4.99    2.81
  -1  14  -2    4.59    2.81
  -1  14  -1    2.99    2.22
  -1  14   0   -4.49    3.36
  -1  14   1    0.15    0.37
  -1  14   2    6.70    4.00
  -1  14   3    5.36    4.12
  -1  14   4    8.56    4.50
  -1  14   5    3.54    2.73
  -1  15  -2    2.98    2.03
  -1  15  -1   -1.50    2.57
  -1  15   0    2.99    2.62
  -1  15   1   -1.75    2.01
   0 -14  -2    8.69    4.93
   0 -14  -1   19.18    5.79
   0 -14   0   13.05    5.03
   0 -14   1   13.13    5.03
   0 -14   2   15.02    5.17
   0 -13  -6    4.27    3.03
   0 -13  -5    6.24    3.46
   0 -13  -4    3.09    2.31
   0 -13  -3    0.30    1.34
   0 -13  -2    1.60    0.96
   0 -13  -1    6.52    3.10
   0 -13   0   19.20    5.34
   0 -13   1   20.26    5.16
   0 -13   2   19.46    5.58
   0 -13   3   15.37    4.88
   0 -12  -8    1.46    1.70
   0 -12  -7    6.45    3.74
   0 -12  -6    6.16    3.63
   0 -12  -5    8.08    3.40
   0 -12  -4    8.92    3.52
   0 -12  -3    2.84    1.72
   0 -12  -2    1.79    1.40
   0 -12  -1    1.41    1.39
   0 -12   0    5.14    2.81
   0 -12   1   23.77    5.30
   0 -12   2   30.38    6.01
   0 -12   3   43.60    7.16
   0 -11  -9    1.16    0.60
   0 -11  -8    1.51    1.78
   0 -11  -7    0.88    1.82
   0 -11  -6    9.97    4.14
   0 -11  -5   10.01    4.22
   0 -11  -4   16.31    4.90
   0 -11  -3    8.45    3.32
   0 -11  -2   -0.15    0.72
   0 -11  -1   -0.57    0.53
   0 -11   0   -0.67    1.21
   0 -11   1   13.01    3.72
   0 -11   2   35.02    5.88
   0 -11   3   36.81    6.24
   0 -11   4   -0.85    2.98
   0 -11   7   -0.17    0.52
   0 -11  11   -5.63    4.01
   0 -10 -10    5.59    3.54
   0 -10  -9    5.40    3.48
   0 -10  -8    2.43    2.73
   0 -10  -7    0.20    1.50
   0 -10  -6    4.31    2.12
   0 -10  -5   11.58    4.05
   0 -10  -4   20.06    4.96
   0 -10  -3   23.72    5.05
   0 -10  -3   20.84    4.00
   0 -10  -2    6.79    2.02
   0 -10  -2    4.67    2.01
   0 -10  -1    4.27    1.89
   0 -10  -1   26.24    5.63
   0 -10   0    0.24    0.96
   0 -10   0    1.10    0.80
   0 -10   1    1.21    0.60
   0 -10   2   28.59    5.19
   0 -10   3   46.32    6.40
   0 -10   4    2.40    4.27
   0 -10   7   -0.54    1.52
   0 -10   8    0.04    0.12
   0 -10   9   -0.41    0.69
   0 -10  11   -5.33    4.14
   0  -9 -11    5.79    3.45
   0  -9 -10   15.64    5.55
   0  -9  -9   26.07    6.56
   0  -9  -8   14.35    5.07
   0  -9  -7    0.02    0.82
   0  -9  -6   -1.80    1.44
   0  -9  -5    4.76    2.24
   0  -9  -5    8.67    3.44
   0  -9  -4   22.50    5.02
   0  -9  -4   23.06    3.97
   0  -9  -3   59.64    7.87
   0  -9  -3   51.05    5.86
   0  -9  -2   72.42    8.26
   0  -9  -2   77.91    6.89
   0  -9  -1   75.51    7.25
   0  -9  -1   61.50    7.36
   0  -9   0   42.42    6.95
   0  -9   0   27.58    4.69
   0  -9   1   17.82    3.51
   0  -9   2    3.24    1.78
   0  -9   3   33.98    4.83
   0  -9   4    4.72    4.25
   0  -9   7   -1.50    2.06
   0  -9  11   -1.28    3.51
   0  -9  15    3.57    4.58
   0  -8 -12    2.25    1.88
   0  -8 -11    3.25    2.36
   0  -8 -10    8.59    4.12
   0  -8  -9   23.75    6.37
   0  -8  -8   28.21    6.61
   0  -8  -7   16.62    4.89
   0  -8  -6    2.48    1.22
   0  -8  -5    0.98    0.38
   0  -8  -4    7.40    2.86
   0  -8  -3   60.98    7.48
   0  -8  -3   49.16    5.69
   0  -8  -2   80.12    8.05
   0  -8  -2   77.53    6.54
   0  -8  -1  139.55   10.20
   0  -8  -1  154.89    9.21
   0  -8   0  264.22   13.63
   0  -8   0  329.05   14.92
   0  -8   1    0.58    2.22
   0  -8   1   80.37    7.25
   0  -8   2   31.16    4.45
   0  -8   3    5.34    1.97
   0  -8  12   -3.30    3.76
   0  -8  15   11.47    6.98
   0  -7 -13    2.53    2.42
   0  -7 -12    0.94    1.05
   0  -7 -11   -0.43    1.85
   0  -7 -10   11.20    4.28
   0  -7  -9   20.90    5.67
   0  -7  -8   31.35    6.53
   0  -7  -7   11.20    3.76
   0  -7  -6   17.36    4.56
   0  -7  -5   17.47    4.13
   0  -7  -4    0.68    0.32
   0  -7  -3   12.66    3.18
   0  -7  -2   84.32    7.80
   0  -7  -2   68.51    6.38
   0  -7  -1   75.84    6.26
   0  -7  -1   93.80    7.83
   0  -7   0  207.28   10.26
   0  -7   0  168.84   10.07
   0  -7   1  140.26    8.91
   0  -7   1    4.22    3.74
   0  -7   2   62.04    5.63
   0  -7   3    1.94    1.01
   0  -7   8   -0.14    0.11
   0  -7  10   -2.52    3.08
   0  -7  14    1.38    2.82
   0  -7  15    9.54    8.80
   0  -6 -13    5.81    3.67
   0  -6 -12    3.60    2.29
   0  -6 -11    1.24    0.90
   0  -6 -10    0.06    0.95
   0  -6  -9   16.88    4.76
   0  -6  -8   20.67    5.05
   0  -6  -7   43.97    7.60
   0  -6  -6   50.72    7.70
   0  -6  -6   62.75    6.08
   0  -6  -5   89.46    9.30
   0  -6  -5  116.41    7.95
   0  -6  -4   32.97    5.13
   0  -6  -4   48.43    4.91
   0  -6  -3    1.02    0.68
   0  -6  -2   30.45    4.45
   0  -6  -1   68.96    6.22
   0  -6  -1   71.11    5.36
   0  -6   0  145.04    8.71
   0  -6   0  166.44    8.24
   0  -6   1  164.62    9.72
   0  -6   1  199.60    9.60
   0  -6   2   42.78    4.19
   0  -6   3   10.52    2.17
   0  -6   6   -2.25    1.85
   0  -6  11   -3.44    3.98
   0  -6  14    9.56    7.31
   0  -6  15   13.85    4.92
   0  -5 -14   10.90    5.07
   0  -5 -13   18.55    6.00
   0  -5 -12   11.54    4.45
   0  -5 -11   10.38    4.41
   0  -5 -10    5.30    2.46
   0  -5  -9    3.76    2.42
   0  -5  -8   26.02    5.71
   0  -5  -8   25.72    3.93
   0  -5  -7   61.83    7.97
   0  -5  -7   60.96    5.69
   0  -5  -6  148.81   12.01
   0  -5  -6  143.15    8.07
   0  -5  -5  274.13   15.47
   0  -5  -5  289.87   10.82
   0  -5  -4  316.78   15.29
   0  -5  -4  364.81   11.42
   0  -5  -3   85.95    7.33
   0  -5  -3  104.70    5.92
   0  -5  -2    0.11    0.21
   0  -5  -1   26.59    3.66
   0  -5  -1   23.41    3.21
   0  -5   0  151.33    8.02
   0  -5   0  157.31    7.39
   0  -5   1  244.52    9.52
   0  -5   1  333.15   12.13
   0  -5   2  191.59    7.88
   0  -5   3  339.57   11.69
   0  -5  10   -3.32    3.95
   0  -5  13    9.04    6.91
   0  -5  14   20.48   10.73
   0  -5  17  -17.31   12.86
   0  -4 -14   10.94    4.69
   0  -4 -13   18.31    6.31
   0  -4 -12   18.78    5.74
   0  -4 -11   15.63    4.82
   0  -4 -10   15.53    3.51
   0  -4 -10   19.58    5.30
   0  -4  -9   32.38    5.98
   0  -4  -9   25.89    4.21
   0  -4  -8    5.43    2.16
   0  -4  -8    5.45    1.85
   0  -4  -7   24.32    4.80
   0  -4  -7   19.31    3.29
   0  -4  -6  190.99   12.94
   0  -4  -6  174.61    8.75
   0  -4  -5  382.92   16.82
   0  -4  -5  349.26   11.02
   0  -4  -4  645.22   20.26
   0  -4  -4  623.71   13.04
   0  -4  -3  113.68    7.78
   0  -4  -3  113.52    5.27
   0  -4  -2  146.78    8.20
   0  -4  -2  164.17    6.09
   0  -4  -1   47.89    4.34
   0  -4   0    6.08    1.30
   0  -4   0    6.10    1.47
   0  -4   1  332.67   10.98
   0  -4   1  273.81    8.75
   0  -4   2  443.24   10.50
   0  -4   8   14.35    2.44
   0  -4   8    0.23    0.34
   0  -4   9  124.64    7.34
   0  -4  12    5.86    7.15
   0  -4  13   24.65   11.28
   0  -4  16   -8.74   10.84
   0  -4  17  -21.01   13.52
   0  -3 -14    3.15    2.30
   0  -3 -13    3.50    2.01
   0  -3 -12    9.48    3.24
   0  -3 -12   11.32    4.02
   0  -3 -11   32.12    6.61
   0  -3 -11   26.23    5.02
   0  -3 -10   64.83    8.79
   0  -3 -10   49.69    6.64
   0  -3  -9   37.37    6.23
   0  -3  -9   29.16    4.58
   0  -3  -8   11.71    2.75
   0  -3  -8   14.96    3.81
   0  -3  -7    0.30    0.56
   0  -3  -7    0.29    0.51
   0  -3  -6   25.88    4.28
   0  -3  -6   23.25    3.29
   0  -3  -5  197.83   11.25
   0  -3  -5  184.52    8.31
   0  -3  -4  274.25   12.30
   0  -3  -4  255.18    8.54
   0  -3  -3  429.17    9.09
   0  -3  -3  442.05   14.13
   0  -3  -2   22.37    1.89
   0  -3  -2   23.97    2.94
   0  -3  -1  122.25    6.09
   0  -3   0   77.60    4.43
   0  -3   0   82.64    3.91
   0  -3   1    0.49    0.92
   0  -3   1   12.01    1.49
   0  -3   2  192.69    6.83
   0  -3   4    0.45    0.67
   0  -3   7   20.17    2.57
   0  -3   7   -0.31    0.27
   0  -3   8    4.30    1.17
   0  -3   8   -0.83    2.85
   0  -3   9    1.40    0.27
   0  -3  11    6.01    7.33
   0  -3  12   16.53    4.12
   0  -3  15  -28.52   15.20
   0  -3  16   -8.31    9.93
   0  -3  17   11.01    9.73
   0  -2 -14   -0.69    1.66
   0  -2 -13    2.40    1.68
   0  -2 -13    3.25    2.49
   0  -2 -12    5.39    2.42
   0  -2 -12    4.13    2.06
   0  -2 -11   29.06    5.84
   0  -2 -11   19.84    4.76
   0  -2 -10  127.12   11.61
   0  -2 -10  114.99   10.08
   0  -2  -9  110.63   10.37
   0  -2  -9  110.55    9.23
   0  -2  -8   80.54    8.23
   0  -2  -8   72.97    7.17
   0  -2  -7   10.47    2.94
   0  -2  -7   10.77    2.49
   0  -2  -6    1.11    0.70
   0  -2  -6    0.75    0.75
   0  -2  -5   96.12    7.29
   0  -2  -5   94.54    6.13
   0  -2  -4  110.86    7.20
   0  -2  -4  105.04    5.87
   0  -2  -3  119.57    6.67
   0  -2  -3  115.29    5.09
   0  -2  -2   12.38    1.83
   0  -2  -2   10.54    1.16
   0  -2  -1  445.32    9.83
   0  -2  -1  422.19    6.40
   0  -2   0  275.54    6.71
   0  -2   0  278.06    5.80
   0  -2   1   21.69    1.68
   0  -2   3   -0.06    0.10
   0  -2   5  368.51    8.55
   0  -2   6  236.10    7.69
   0  -2   7   36.40    3.46
   0  -2   8    5.62    1.41
   0  -2   9    7.41    1.83
   0  -2   9    6.53    5.93
   0  -2  10    9.52    2.51
   0  -2  10   19.40   10.54
   0  -2  15    0.18    5.85
   0  -2  16   -1.91    2.10
   0  -1 -14    2.73    1.97
   0  -1 -14    4.36    2.58
   0  -1 -13    0.60    0.74
   0  -1 -13    2.63    1.84
   0  -1 -12   -0.75    0.78
   0  -1 -12    1.00    1.20
   0  -1 -11   21.69    4.92
   0  -1 -11   25.97    5.33
   0  -1 -10  135.75   11.58
   0  -1 -10  142.92   11.88
   0  -1  -9  292.49   15.87
   0  -1  -9  298.28   16.17
   0  -1  -8  159.31   11.13
   0  -1  -8  148.09   11.05
   0  -1  -7   91.55    7.72
   0  -1  -7   88.38    7.77
   0  -1  -6  109.85    7.98
   0  -1  -6  117.07    8.16
   0  -1  -5    7.89    1.96
   0  -1  -5    9.95    2.21
   0  -1  -4  135.72    7.28
   0  -1  -4  128.16    6.87
   0  -1  -3  262.34    8.96
   0  -1  -3  253.21    8.17
   0  -1  -2  489.29   10.30
   0  -1  -2  501.63    8.75
   0  -1  -1 1145.28   12.58
   0  -1  -1   -0.61    0.38
   0  -1   2   26.03    1.45
   0  -1   3   25.26    1.68
   0  -1   3   -0.09    0.31
   0  -1   4   81.27    3.67
   0  -1   5  335.27    9.08
   0  -1   6  270.94    9.64
   0  -1   7   85.04    6.03
   0  -1   7    6.10    5.34
   0  -1   8   22.48    9.64
   0  -1   8   47.57    5.06
   0  -1   9   71.78    6.68
   0  -1  10    5.69    1.99
   0  -1  11  -15.80   13.59
   0  -1  12   -8.87   10.48
   0  -1  13   -0.65    8.06
   0  -1  14  -11.49    8.08
   0  -1  15    8.68    8.22
   0  -1  16   27.62   14.36
   0   0 -15   13.11    4.62
   0   0 -14   17.62    5.23
   0   0 -14   21.91    5.40
   0   0 -13   10.79    4.08
   0   0 -13   12.23    3.80
   0   0 -12    0.11    1.34
   0   0 -12    1.42    0.61
   0   0 -11    0.82    0.61
   0   0 -11    1.17    1.35
   0   0 -10   82.31    8.56
   0   0 -10   79.46    9.66
   0   0  -9  173.69   11.77
   0   0  -9  166.06   12.85
   0   0  -8  216.23   12.18
   0   0  -8  217.48   13.72
   0   0  -7  269.00   12.73
   0   0  -7  268.91   14.36
   0   0  -6  142.46    8.50
   0   0  -6  142.12    9.87
   0   0  -5  206.08    9.15
   0   0  -5  200.48   10.73
   0   0  -4    1.73    1.60
   0   0  -4    0.84    0.56
   0   0  -3   59.51    3.64
   0   0  -3   56.13    4.34
   0   0  -2  407.49    7.30
   0   0  -2  406.55    9.95
   0   0  -2  416.60    7.91
   0   0   2  419.70    7.67
   0   0   3   59.35    3.56
   0   0   3    6.79    2.92
   0   0   4   17.43    5.75
   0   0   4    1.98    0.88
   0   0   5  197.74    8.62
   0   0   5   14.60    6.58
   0   0   6  148.27    8.49
   0   0   7  266.35   12.50
   0   0   8  224.71   12.55
   0   0   9  194.01   12.52
   0   0  10   87.09    9.14
   0   0  11    1.86    1.52
   0   0  11   -5.36    5.86
   0   0  12    0.94    3.36
   0   0  13    8.49    7.39
   0   0  14   18.35   11.43
   0   0  15   26.42   12.37
   0   0  16   18.55   10.14
   0   1 -16    2.44    1.29
   0   1 -15   12.26    4.76
   0   1 -14   22.32    5.84
   0   1 -14   18.57    4.52
   0   1 -13   20.41    5.68
   0   1 -13   20.71    4.64
   0   1 -12   37.17    6.04
   0   1 -12   39.75    7.33
   0   1 -11    4.96    2.81
   0   1 -11    5.92    2.33
   0   1 -10    5.40    2.31
   0   1 -10    5.37    2.00
   0   1  -9   71.69    7.20
   0   1  -9   69.12    9.03
   0   1  -8   44.53    5.30
   0   1  -8   50.13    7.12
   0   1  -7   83.20    6.59
   0   1  -7   89.38    8.74
   0   1  -6  253.61   10.50
   0   1  -6  246.94   13.54
   0   1  -5  326.66   14.25
   0   1  -5  336.07   10.64
   0   1  -4   79.07    4.45
   0   1  -4   77.87    6.34
   0   1  -3   28.33    3.43
   0   1  -2   31.00    2.84
   0   1  -2   27.76    1.46
   0   1   1  819.22   11.04
   0   1   1 1066.52   14.86
   0   1   2  503.19   17.92
   0   1   2  463.09   11.35
   0   1   3  204.12   15.41
   0   1   3  241.27    9.12
   0   1   4   48.69   10.05
   0   1   4  128.52    7.40
   0   1   5    8.94    2.02
   0   1   6  125.11    8.87
   0   1   7   97.41    8.83
   0   1   7   25.99    8.91
   0   1   8   93.45   15.84
   0   1   8  181.23   12.80
   0   1   9  172.71   24.22
   0   1   9  347.81   18.77
   0   1  10   96.70   18.76
   0   1  10  167.41   13.87
   0   1  11   28.93    5.85
   0   1  11   12.71    8.20
   0   1  12   11.59    8.11
   0   1  13    8.28    7.01
   0   1  14   10.95    7.68
   0   1  15    9.29    7.09
   0   2 -16   -2.24    2.17
   0   2 -15    7.71    3.45
   0   2 -14   29.78    7.01
   0   2 -14   30.30    5.76
   0   2 -13   36.58    6.17
   0   2 -13   33.07    7.17
   0   2 -12   31.09    5.52
   0   2 -12   36.68    7.23
   0   2 -11   31.10    5.10
   0   2 -11   30.05    6.42
   0   2 -10   11.19    4.22
   0   2 -10    8.73    2.56
   0   2  -9    8.79    3.88
   0   2  -9    7.07    2.09
   0   2  -8    1.78    2.55
   0   2  -8    4.07    1.56
   0   2  -7   34.20    3.98
   0   2  -7   31.72    4.86
   0   2  -6  232.30    9.11
   0   2  -6  222.72   13.17
   0   2  -5  349.40   15.12
   0   2  -4  278.50   12.19
   0   2  -4  280.57    6.52
   0   2  -3  105.49    6.69
   0   2  -3   99.18    3.64
   0   2  -2   48.80    3.81
   0   2  -2   46.49    2.58
   0   2  -1   20.26    1.91
   0   2  -1   20.85    1.91
   0   2   0  280.64    5.95
   0   2   0  279.04    8.69
   0   2   1  465.90    8.11
   0   2   1  448.50   12.66
   0   2   2    5.72    1.48
   0   2   2   14.41    2.58
   0   2   3  102.80    7.51
   0   2   3  108.87    7.39
   0   2   4   93.21    9.65
   0   2   4  107.18    7.93
   0   2   5   98.79   11.99
   0   2   5   94.44    8.12
   0   2   6    0.98    0.94
   0   2   6    1.62    3.09
   0   2   7   11.56    3.57
   0   2   7   11.79    4.93
   0   2   8   89.28    9.77
   0   2   8   79.02   12.98
   0   2   9  114.40   16.00
   0   2   9  134.95   12.70
   0   2  10  122.59   17.19
   0   2  10  151.28   14.03
   0   2  11   23.68    8.44
   0   2  11   26.39    5.97
   0   2  12    4.90    6.80
   0   2  12   15.10    5.54
   0   2  13    6.57    4.44
   0   2  14   -0.19    0.81
   0   2  15    2.75    3.54
   0   3 -16   -1.97    2.40
   0   3 -15    3.95    1.96
   0   3 -14   19.36    5.76
   0   3 -13   30.82    5.51
   0   3 -13   34.42    7.40
   0   3 -12   55.82    7.03
   0   3 -12   58.85    9.67
   0   3 -11   72.54    7.55
   0   3 -11   73.19   10.13
   0   3 -10   41.59    5.35
   0   3 -10   41.30    7.69
   0   3  -9   -2.29    3.53
   0   3  -9    1.81    0.91
   0   3  -8    2.84    1.09
   0   3  -8    1.22    1.97
   0   3  -7   17.05    3.78
   0   3  -6  275.60   14.77
   0   3  -6  285.75    8.52
   0   3  -5  506.20   18.55
   0   3  -5  541.59   10.91
   0   3  -4  615.70   18.62
   0   3  -4  610.34   11.07
   0   3  -3  350.05   12.87
   0   3  -3  355.69    8.79
   0   3  -2  149.27    7.20
   0   3  -2  145.75    5.97
   0   3  -1   11.10    1.59
   0   3  -1   10.13    1.40
   0   3   0   79.89    3.96
   0   3   0   78.98    5.64
   0   3   1   77.66    4.82
   0   3   1  129.85    8.21
   0   3   2   22.96    2.36
   0   3   2   25.39    4.16
   0   3   3  413.64   11.92
   0   3   3  434.83   17.09
   0   3   4  249.98   11.25
   0   3   4  253.83   13.66
   0   3   5  187.87   12.55
   0   3   5  160.03   11.26
   0   3   6   26.47    5.02
   0   3   6   27.24    5.46
   0   3   7   -0.17    1.62
   0   3   7    4.91    3.79
   0   3   8   19.73    5.86
   0   3   8   16.70    4.37
   0   3   9   34.42    7.88
   0   3   9   40.16    7.62
   0   3  10   60.06   10.08
   0   3  10   80.69   11.16
   0   3  11   49.39    9.36
   0   3  11   24.37    6.91
   0   3  12   15.29    5.87
   0   3  12    4.58    3.64
   0   3  13    4.79    4.35
   0   3  14    1.45    1.76
   0   4 -17    3.08    2.58
   0   4 -16    3.53    2.31
   0   4 -15    0.36    0.56
   0   4 -14    3.26    2.25
   0   4 -13   14.85    5.21
   0   4 -13   12.89    3.33
   0   4 -12   27.61    4.81
   0   4 -12   30.07    7.10
   0   4 -11   69.15    7.16
   0   4 -11   71.90   10.17
   0   4 -10   52.96    5.91
   0   4 -10   49.39    7.52
   0   4  -9  102.96   10.58
   0   4  -8    7.90    2.26
   0   4  -7    3.51    1.92
   0   4  -7    3.89    1.21
   0   4  -6  167.08   12.14
   0   4  -6  182.29    7.43
   0   4  -5  455.11   18.45
   0   4  -5  457.21   11.11
   0   4  -4  642.74   20.35
   0   4  -4  649.22   13.51
   0   4  -3  339.76   13.69
   0   4  -3  335.36   10.10
   0   4  -2  437.12   13.55
   0   4  -2  427.68   12.28
   0   4  -1  282.50    9.72
   0   4  -1  277.78   11.02
   0   4   0    8.03    1.57
   0   4   0    7.48    1.82
   0   4   1   51.15    5.86
   0   4   1   46.07    3.25
   0   4   2  147.83    7.56
   0   4   2  159.15   10.80
   0   4   3  110.15    6.33
   0   4   3  114.84    9.86
   0   4   4  651.48   16.91
   0   4   4  631.79   23.86
   0   4   5  340.61   13.86
   0   4   5  370.37   19.31
   0   4   6  176.71   11.15
   0   4   6  193.77   15.24
   0   4   7   23.82    4.61
   0   4   7   33.67    7.68
   0   4   8    3.90    2.51
   0   4   8   15.37    6.24
   0   4   9   27.79    5.86
   0   4   9   44.69    9.47
   0   4  10   35.21    8.61
   0   4  10   17.16    5.17
   0   4  11   29.75    7.71
   0   4  11    9.03    4.96
   0   4  12   24.12    6.87
   0   4  12    8.26    4.52
   0   4  13    9.54    4.59
   0   5 -17    6.59    3.56
   0   5 -16    7.51    4.22
   0   5 -15    1.32    1.47
   0   5 -14    1.30    2.32
   0   5 -13    2.34    2.30
   0   5 -12    5.64    3.67
   0   5 -12    2.35    1.41
   0   5 -11   31.34    6.46
   0   5 -11   34.29    4.85
   0   5 -10   80.85   10.23
   0   5  -9   31.28    5.92
   0   5  -8   94.36   10.59
   0   5  -8  122.46    7.72
   0   5  -7   59.13    8.07
   0   5  -7   65.09    5.10
   0   5  -6    4.29    1.24
   0   5  -6    6.28    3.12
   0   5  -5   81.54    5.37
   0   5  -5   89.41    8.80
   0   5  -4   80.27    7.77
   0   5  -4   72.96    5.35
   0   5  -3  304.91   14.15
   0   5  -3  301.47   11.19
   0   5  -2  201.31   10.21
   0   5  -2  207.74    9.75
   0   5  -1  253.95   10.32
   0   5  -1  245.30   11.83
   0   5   0  151.63    7.47
   0   5   0  161.01   10.20
   0   5   1   27.66    2.92
   0   5   1   29.60    4.77
   0   5   2   -0.32    0.65
   0   5   2    2.28    2.05
   0   5   3   88.12    6.81
   0   5   3   90.21    9.56
   0   5   4  319.29   12.41
   0   5   4  321.80   18.52
   0   5   5  284.30   12.58
   0   5   5  285.61   18.57
   0   5   6  155.88   14.67
   0   5   6  147.79    9.74
   0   5   7   52.12    6.22
   0   5   7   74.74   11.00
   0   5   8   21.68    4.39
   0   5   8   40.67    8.52
   0   5   9   11.10    4.98
   0   5   9    1.61    1.50
   0   5  10   10.68    5.44
   0   5  10    2.74    1.92
   0   5  11   13.59    5.56
   0   5  11    6.56    2.72
   0   5  12   16.84    5.95
   0   5  12    4.98    3.18
   0   6 -17    5.53    3.81
   0   6 -16    8.31    3.90
   0   6 -15    9.00    4.02
   0   6 -14   11.82    4.90
   0   6 -13    2.81    2.66
   0   6 -12   -1.89    2.34
   0   6 -11    2.84    2.97
   0   6 -10   42.13    7.33
   0   6  -9  115.84    8.18
   0   6  -9   92.73   11.15
   0   6  -8   73.21    9.37
   0   6  -8   78.20    6.33
   0   6  -7   83.23    6.13
   0   6  -7   88.91   10.30
   0   6  -6   56.49    7.97
   0   6  -6   47.47    4.51
   0   6  -5    5.71    3.17
   0   6  -5    2.98    1.44
   0   6  -4    0.94    0.55
   0   6  -4    0.21    1.53
   0   6  -3    9.93    2.48
   0   6  -3   12.34    3.21
   0   6  -2   40.11    5.03
   0   6  -2   45.13    5.18
   0   6  -1  202.90   11.84
   0   6  -1  200.70   10.07
   0   6   0  148.81   10.95
   0   6   0  146.39    8.16
   0   6   1   74.43    5.43
   0   6   1   73.85    8.14
   0   6   2   31.61    3.30
   0   6   2   36.87    6.03
   0   6   3    0.97    2.23
   0   6   4   40.24    4.92
   0   6   4   36.45    7.02
   0   6   5   87.74    7.53
   0   6   5   89.55   11.17
   0   6   6   49.48    5.83
   0   6   6   56.34    9.21
   0   6   7   45.02    5.86
   0   6   7   55.44    9.80
   0   6   8   28.01    7.52
   0   6   8   20.72    4.12
   0   6   9   20.86    6.62
   0   6   9   15.64    3.92
   0   6  10    2.42    2.74
   0   6  10   -2.41    1.77
   0   6  11   -6.19    2.73
   0   6  11    0.74    1.21
   0   7 -16    9.80    4.41
   0   7 -15   11.23    4.97
   0   7 -14   11.11    4.87
   0   7 -13   17.53    6.33
   0   7 -12   -3.38    4.12
   0   7 -11   -0.88    3.05
   0   7 -10   29.07    6.29
   0   7  -9   65.16    6.29
   0   7  -9   58.18    9.15
   0   7  -8  121.72   13.11
   0   7  -8  118.44    7.97
   0   7  -7   93.02   11.23
   0   7  -7   84.15    6.60
   0   7  -6  104.54   11.32
   0   7  -6   86.89    6.85
   0   7  -5   24.16    5.91
   0   7  -5   16.05    2.90
   0   7  -4   -0.77    0.99
   0   7  -4   -0.94    1.52
   0   7  -3    2.57    1.18
   0   7  -3    3.36    1.63
   0   7  -2   70.45    7.23
   0   7  -2   68.63    7.27
   0   7  -1  145.21    9.49
   0   7  -1  146.50   10.92
   0   7   0  174.08    9.71
   0   7   0  174.23   12.76
   0   7   1   95.74    6.77
   0   7   1   93.27    9.80
   0   7   2   89.77    6.25
   0   7   2   94.75   10.07
   0   7   3   14.16    2.40
   0   7   3   16.87    4.66
   0   7   4    1.45    1.64
   0   7   5   19.12    4.13
   0   7   5   22.57    5.80
   0   7   6   20.38    6.02
   0   7   6   21.52    4.29
   0   7   7   10.62    2.82
   0   7   7   15.20    5.02
   0   7   8   27.45    4.94
   0   7   8   38.74    8.57
   0   7   9   18.48    4.32
   0   7   9   21.43    6.93
   0   7  10    5.99    2.63
   0   7  10    8.84    4.44
   0   7  11    1.83    1.69
   0   8 -16    5.31    3.58
   0   8 -15    7.78    4.68
   0   8 -14   12.96    5.51
   0   8 -13   20.50    6.48
   0   8 -12    4.29    1.21
   0   8 -11   -4.98    4.40
   0   8 -10    1.52    1.58
   0   8  -9   17.89    3.46
   0   8  -9   20.74    5.67
   0   8  -8   47.86    8.94
   0   8  -8   38.91    4.98
   0   8  -7  138.11   14.20
   0   8  -7  108.13    8.25
   0   8  -6   94.58   11.27
   0   8  -6   73.38    7.01
   0   8  -5   90.92   10.92
   0   8  -5   59.74    6.51
   0   8  -4   16.12    3.44
   0   8  -4   16.77    4.93
   0   8  -3    6.82    2.33
   0   8  -3    7.01    2.65
   0   8  -2   32.03    5.31
   0   8  -2   32.60    5.38
   0   8  -1   81.55    7.77
   0   8  -1   85.09    9.24
   0   8   0  260.83   12.85
   0   8   0  265.04   16.78
   0   8   1  140.21    9.00
   0   8   1  150.67   13.15
   0   8   2   82.59   10.13
   0   8   3   58.96    8.74
   0   8   4    7.88    2.58
   0   8   5   -1.19    2.25
   0   8   6    3.16    1.96
   0   8   6    1.64    1.47
   0   8   7   16.79    5.39
   0   8   7   24.45    4.98
   0   8   8   36.32    6.97
   0   8   8   31.85    7.92
   0   8   9   27.93    7.98
   0   8  10   18.00    6.05
   0   8  11    3.26    1.93
   0   9 -16    0.39    1.52
   0   9 -15    5.94    4.28
   0   9 -14   11.04    5.95
   0   9 -13    4.36    3.02
   0   9 -12   19.07    6.09
   0   9 -11    6.29    2.50
   0   9 -10   -0.25    3.19
   0   9  -9   -1.38    3.25
   0   9  -8   -0.12    1.88
   0   9  -8    1.08    0.92
   0   9  -7   26.41    6.97
   0   9  -7   20.87    4.03
   0   9  -6   65.03   10.20
   0   9  -6   55.02    6.56
   0   9  -5   52.95    6.62
   0   9  -5   78.03   10.69
   0   9  -4   66.30    9.57
   0   9  -4   50.83    6.58
   0   9  -3   35.03    6.45
   0   9  -3   34.20    5.75
   0   9  -2    3.79    1.96
   0   9  -2    3.64    1.45
   0   9  -1   20.34    5.00
   0   9  -1   20.44    4.32
   0   9   0   28.48    4.67
   0   9   0   29.20    6.24
   0   9   1   66.40    9.16
   0   9   2   73.64   10.21
   0   9   3   56.97    8.94
   0   9   4   22.60    5.40
   0   9   5    5.35    2.31
   0   9   6   -2.01    2.51
   0   9   7    0.33    2.37
   0   9   8    7.97    3.54
   0   9   9   20.64    6.99
   0   9  10   13.15    5.14
   0  10 -15    1.83    2.41
   0  10 -14    7.48    4.67
   0  10 -13    2.00    2.12
   0  10 -12    4.70    0.33
   0  10 -11   10.54    4.06
   0  10 -10    4.22    1.62
   0  10  -9    5.09    2.99
   0  10  -8    1.35    1.34
   0  10  -8    1.84    1.10
   0  10  -7    2.62    2.69
   0  10  -7    1.01    0.87
   0  10  -6   22.63    6.45
   0  10  -6   15.07    3.75
   0  10  -5   35.47    7.80
   0  10  -5   23.13    4.70
   0  10  -4   55.77    9.14
   0  10  -4   37.26    6.14
   0  10  -3   54.17    8.83
   0  10  -3   38.70    6.83
   0  10  -2   28.61    5.70
   0  10  -2   27.67    5.71
   0  10  -1    2.19    2.18
   0  10  -1    1.57    0.91
   0  10   0    0.47    0.46
   0  10   1    8.28    3.62
   0  10   2    2.07    2.08
   0  10   3   21.36    5.51
   0  10   4   18.18    4.70
   0  10   5    8.61    3.55
   0  10   6   -1.04    3.93
   0  10   7   -5.11    5.26
   0  10   8   -2.03    3.08
   0  10   9    0.92    2.20
   0  11 -14    5.03    4.04
   0  11 -13    3.05    2.55
   0  11 -12    2.87    1.36
   0  11 -11   10.08    4.41
   0  11 -10    2.95    2.31
   0  11  -9   11.65    4.03
   0  11  -8    2.40    0.80
   0  11  -7    0.74    1.42
   0  11  -7   -0.67    1.43
   0  11  -6   11.45    5.15
   0  11  -6    9.53    3.18
   0  11  -5   20.79    6.15
   0  11  -5   10.28    3.31
   0  11  -4   40.82    8.06
   0  11  -4   32.76    6.28
   0  11  -3   42.37    8.06
   0  11  -3   29.85    6.19
   0  11  -2   29.95    6.47
   0  11  -1   11.02    4.12
   0  11   0    2.49    1.98
   0  11   1    1.56    2.33
   0  11   2    5.05    3.75
   0  11   3   14.22    5.23
   0  11   4   12.19    5.17
   0  11   5    4.05    1.27
   0  11   6    4.92    2.03
   0  11   7   -2.74    4.20
   0  11   8   -6.29    5.09
   0  12 -11    3.35    1.61
   0  12 -10    2.24    1.39
   0  12  -9   10.43    4.80
   0  12  -8    6.81    3.89
   0  12  -7    2.42    2.45
   0  12  -7    1.42    1.30
   0  12  -6    4.37    3.01
   0  12  -6    0.43    0.66
   0  12  -5    6.98    2.61
   0  12  -4   13.02    4.15
   0  12  -3   22.38    5.90
   0  12  -2   23.12    6.40
   0  12  -1   21.83    6.07
   0  12   0    7.24    3.51
   0  12   1    1.46    2.06
   0  12   2   -0.24    1.46
   0  12   3    6.85    4.34
   0  12   4   15.53    6.10
   0  12   5   17.94    6.77
   0  12   6   11.65    5.88
   0  12   7   14.05    6.45
   0  13  -6    2.88    1.76
   0  13  -5   -0.88    0.95
   0  13  -4    0.47    0.99
   0  13  -3    7.71    3.53
   0  13  -2    6.29    3.56
   0  13  -1   16.71    5.42
   0  13   0   10.85    4.55
   0  13   1    7.38    4.11
   0  13   2    2.68    2.57
   0  13   3    2.29    2.70
   0  13   4    3.45    3.19
   0  13   5    6.92    4.38
   0  13   6    7.93    4.93
   0  14  -4   -1.41    2.07
   0  14  -3   -0.95    1.61
   0  14  -2    1.68    1.54
   0  14  -1    2.44    2.45
   0  14   0    7.35    4.26
   0  14   1    4.83    3.71
   0  14   2    5.12    3.81
   0  14   3    0.09    1.76
   1 -14  -3    3.69    2.65
   1 -14  -2    5.53    2.85
   1 -14  -1   -1.32    1.86
   1 -14   0   13.86    4.82
   1 -14   1    8.82    3.55
   1 -13  -7    0.78    2.04
   1 -13  -6    0.08    1.61
   1 -13  -5    2.85    2.00
   1 -13  -4    4.39    2.83
   1 -13  -3   15.68    4.63
   1 -13  -2    9.40    3.61
   1 -13  -1    9.54    3.47
   1 -13   0    4.48    2.27
   1 -13   1    3.92    2.90
   1 -13   2    9.48    3.64
   1 -13   3   16.32    4.85
   1 -12  -9    3.04    2.61
   1 -12  -8   -0.88    1.19
   1 -12  -7    0.26    1.05
   1 -12  -6    0.23    0.75
   1 -12  -5   -0.27    0.44
   1 -12  -4    6.28    2.98
   1 -12  -3    9.99    3.65
   1 -12  -2   14.04    4.17
   1 -12  -1   13.30    5.07
   1 -12  -1   12.87    3.85
   1 -12   0    0.42    1.15
   1 -12   0    8.13    2.96
   1 -12   1    2.21    1.69
   1 -12   2    3.64    2.43
   1 -12   3    9.17    3.36
   1 -12   4   -7.03    2.96
   1 -12   8    0.52    1.73
   1 -11 -10    3.79    3.01
   1 -11  -9    6.57    3.59
   1 -11  -8    6.97    4.15
   1 -11  -7    9.23    3.74
   1 -11  -6    5.74    2.70
   1 -11  -5   -1.66    2.05
   1 -11  -4    1.00    1.19
   1 -11  -4    0.76    0.67
   1 -11  -3    8.35    2.62
   1 -11  -3    8.45    3.34
   1 -11  -2   20.30    4.45
   1 -11  -2   17.96    4.17
   1 -11  -1   26.91    5.11
   1 -11  -1   50.65    8.07
   1 -11   0    2.77    2.33
   1 -11   0   14.32    3.52
   1 -11   1   10.32    2.89
   1 -11   2    0.98    1.23
   1 -11   3    1.89    1.62
   1 -11   4   -4.07    2.75
   1 -11   8    0.66    1.38
   1 -11  12   -5.51    4.07
   1 -10 -11   -1.27    0.83
   1 -10 -10   -0.62    1.39
   1 -10  -9    6.21    3.22
   1 -10  -8   16.00    5.66
   1 -10  -7   29.26    6.95
   1 -10  -6   32.06    6.87
   1 -10  -5   24.92    5.85
   1 -10  -5   19.75    4.57
   1 -10  -4    1.75    1.14
   1 -10  -4    5.22    2.67
   1 -10  -3    5.94    2.18
   1 -10  -3    6.01    2.87
   1 -10  -2   12.36    3.13
   1 -10  -2   11.34    3.36
   1 -10  -1   32.43    5.31
   1 -10  -1   34.81    5.45
   1 -10   0   78.09    7.89
   1 -10   0  132.78   11.74
   1 -10   1    1.36    2.25
   1 -10   1   61.75    6.98
   1 -10   2   29.31    4.71
   1 -10   3   23.89    4.26
   1 -10   4   -4.90    2.68
   1 -10   8    0.40    0.92
   1 -10  12   -1.92    3.51
   1  -9 -12    1.66    0.53
   1  -9 -11    0.68    1.45
   1  -9 -10   -0.64    2.13
   1  -9  -9    4.85    3.06
   1  -9  -8   17.43    5.47
   1  -9  -7   28.54    6.59
   1  -9  -6   74.97   10.26
   1  -9  -5   43.34    7.23
   1  -9  -4   31.68    5.81
   1  -9  -4   25.51    4.52
   1  -9  -3    0.24    0.22
   1  -9  -3   -0.41    1.19
   1  -9  -2    0.73    0.78
   1  -9  -2    1.74    1.22
   1  -9  -1   32.32    4.74
   1  -9  -1   29.49    4.76
   1  -9   0   43.53    5.68
   1  -9   0   58.67    6.91
   1  -9   1  154.23   10.13
   1  -9   1   17.21    5.38
   1  -9   2  121.80    8.66
   1  -9   3   93.03    7.31
   1  -9   4   10.97    4.68
   1  -9   7   -0.13    0.26
   1  -9  13   -4.58    4.29
   1  -8 -13    6.24    3.88
   1  -8 -12    2.66    2.45
   1  -8 -11    8.42    4.45
   1  -8 -10    7.31    3.56
   1  -8  -9   -1.01    1.31
   1  -8  -8    4.59    2.77
   1  -8  -7   20.75    5.02
   1  -8  -6   34.36    6.17
   1  -8  -5   61.91    8.63
   1  -8  -4   27.01    5.18
   1  -8  -3   16.68    3.65
   1  -8  -3   14.09    3.19
   1  -8  -2    0.74    0.92
   1  -8  -2   -0.66    1.21
   1  -8  -1    1.19    1.32
   1  -8  -1    1.76    0.85
   1  -8   0   40.65    5.10
   1  -8   0   39.49    5.46
   1  -8   1  119.42   10.41
   1  -8   1   77.43    6.73
   1  -8   2  154.00    8.86
   1  -8   3  115.99    7.38
   1  -8   4   -3.32    2.37
   1  -8  11   -2.10    2.92
   1  -8  15    3.65    3.94
   1  -7 -14   -0.87    1.43
   1  -7 -13    4.75    3.07
   1  -7 -12   16.01    5.25
   1  -7 -11   23.88    6.88
   1  -7 -10   31.76    6.83
   1  -7  -9    8.19    3.76
   1  -7  -8    0.62    0.75
   1  -7  -7    7.52    3.29
   1  -7  -6   23.31    5.51
   1  -7  -5   74.71    8.61
   1  -7  -4   41.20    6.00
   1  -7  -3   62.52    7.01
   1  -7  -2   35.21    4.73
   1  -7  -2   34.58    4.39
   1  -7  -1   41.97    4.98
   1  -7  -1   48.73    4.88
   1  -7   0    5.11    1.76
   1  -7   0    6.49    1.89
   1  -7   1   42.35    4.50
   1  -7   1   34.36    6.17
   1  -7   2   93.54    6.23
   1  -7   3  100.16    6.20
   1  -7   6    0.20    0.27
   1  -7   7   -0.27    0.41
   1  -7  15   10.54    6.97
   1  -7  16   21.26   10.36
   1  -6 -14   -1.10    0.97
   1  -6 -13    4.58    2.81
   1  -6 -12   26.72    6.54
   1  -6 -11   50.73    8.94
   1  -6 -10   60.55    9.59
   1  -6  -9   50.10    8.28
   1  -6  -8    6.96    3.27
   1  -6  -7   -0.47    0.79
   1  -6  -6    4.12    2.12
   1  -6  -5   92.83    9.16
   1  -6  -4  189.37   12.19
   1  -6  -3  174.75   10.96
   1  -6  -2  278.50   12.74
   1  -6  -1  259.24   11.38
   1  -6  -1  281.19   10.93
   1  -6   0   97.54    6.47
   1  -6   0  108.10    6.95
   1  -6   1   20.85    2.89
   1  -6   1   27.86    4.60
   1  -6   2   54.29    4.20
   1  -6   3  111.18    5.94
   1  -6  10   -7.88    4.10
   1  -6  14    4.08    4.56
   1  -6  15   20.89   10.40
   1  -5 -15    7.10    3.48
   1  -5 -14    1.22    1.76
   1  -5 -13    2.64    2.15
   1  -5 -12    7.96    3.81
   1  -5 -11   39.48    7.54
   1  -5 -10   90.16   10.79
   1  -5  -9   30.23    6.30
   1  -5  -8   54.07    7.54
   1  -5  -7   39.17    6.29
   1  -5  -6    5.57    0.41
   1  -5  -6    7.03    1.37
   1  -5  -5    8.51    2.33
   1  -5  -4  110.07    8.71
   1  -5  -3  323.74   13.85
   1  -5  -2  665.04   17.89
   1  -5  -1  598.78   15.81
   1  -5  -1  624.02   15.53
   1  -5   0  588.31   14.37
   1  -5   0  518.82   13.97
   1  -5   1   13.86    2.06
   1  -5   1    6.20    2.65
   1  -5   2    3.76    0.90
   1  -5   3    8.69    2.68
   1  -5   9   47.47    6.05
   1  -5  10   -0.12    0.67
   1  -5  13    1.48    4.80
   1  -5  14   13.70    8.88
   1  -4 -15    4.16    2.64
   1  -4 -14    6.48    3.67
   1  -4 -13    3.00    2.03
   1  -4 -12    0.30    0.71
   1  -4 -11   11.77    3.56
   1  -4 -10   29.84    5.87
   1  -4 -10   22.67    3.86
   1  -4  -9   68.86    8.34
   1  -4  -9   59.65    5.80
   1  -4  -8   22.69    4.78
   1  -4  -8   16.25    2.90
   1  -4  -7   75.97    8.32
   1  -4  -7   71.91    5.27
   1  -4  -6   98.09    5.30
   1  -4  -6  103.70    8.92
   1  -4  -5   22.38    3.97
   1  -4  -5   18.63    1.90
   1  -4  -4   26.10    4.07
   1  -4  -4   23.37    1.62
   1  -4  -3   38.33    4.47
   1  -4  -2  336.83   11.84
   1  -4  -1  453.32   12.13
   1  -4   0  404.52   10.51
   1  -4   0  403.63   10.94
   1  -4   1  128.38    5.18
   1  -4   1   91.68    6.47
   1  -4   2   45.28    2.82
   1  -4   8  265.69   13.16
   1  -4   9  132.75    9.76
   1  -4  10    7.88    2.58
   1  -4  12    1.63    4.80
   1  -4  13   13.41    9.56
   1  -3 -15   26.29    6.90
   1  -3 -14   14.72    5.00
   1  -3 -13    6.68    3.42
   1  -3 -12    3.46    1.84
   1  -3 -12    5.05    2.93
   1  -3 -11    1.57    1.22
   1  -3 -11    0.24    0.65
   1  -3 -10    7.65    2.36
   1  -3 -10   11.10    3.52
   1  -3  -9   24.85    5.18
   1  -3  -9   24.71    3.85
   1  -3  -8   65.15    7.59
   1  -3  -8   60.21    5.65
   1  -3  -7  171.78   11.54
   1  -3  -7  158.38    8.38
   1  -3  -6  290.87   13.96
   1  -3  -6  283.49    9.94
   1  -3  -5  103.16    7.72
   1  -3  -5  100.21    5.04
   1  -3  -4    2.65    0.68
   1  -3  -4    3.05    1.29
   1  -3  -3    8.05    1.82
   1  -3  -2   64.83    4.65
   1  -3  -1  361.45    9.61
   1  -3   0  165.90    6.35
   1  -3   0  182.36    5.82
   1  -3   1   36.93    2.15
   1  -3   1   52.19    4.19
   1  -3   6  136.77    7.73
   1  -3   7  149.70    8.69
   1  -3   8  181.16   10.63
   1  -3   9  100.20    8.42
   1  -3  10   37.63    5.29
   1  -3  11    2.46    4.20
   1  -3  12   15.42   10.73
   1  -2 -15   15.16    5.03
   1  -2 -14   25.37    6.04
   1  -2 -13   20.99    4.87
   1  -2 -13   23.47    5.61
   1  -2 -12   21.31    4.61
   1  -2 -12   26.77    5.68
   1  -2 -11   10.20    3.01
   1  -2 -11   12.05    3.66
   1  -2 -10   -0.56    1.26
   1  -2 -10    0.36    1.03
   1  -2  -9   16.30    3.41
   1  -2  -9   18.19    4.16
   1  -2  -8   95.85    8.70
   1  -2  -8   94.24    8.04
   1  -2  -7  286.92   14.06
   1  -2  -7  281.51   12.36
   1  -2  -6  677.81   20.22
   1  -2  -6  674.69   17.43
   1  -2  -5  507.85   16.15
   1  -2  -5  501.73   13.51
   1  -2  -4  185.44    8.86
   1  -2  -4  178.10    6.93
   1  -2  -3    1.74    0.37
   1  -2  -3    2.28    0.73
   1  -2  -2   -0.03    0.44
   1  -2  -1  135.09    5.11
   1  -2   0  541.48    9.66
   1  -2   0  484.92    7.23
   1  -2   1   33.33    3.78
   1  -2   5    2.41    0.83
   1  -2   6   -4.66    2.49
   1  -2   6   28.93    3.46
   1  -2   7   65.05    5.81
   1  -2   8  117.68    8.61
   1  -2   9  141.26    9.99
   1  -2  10   29.21    4.86
   1  -2  10    8.70    6.93
   1  -2  11    9.78    3.00
   1  -2  11   28.22   12.07
   1  -2  14  -19.65   13.83
   1  -2  15    2.98    4.56
   1  -2  16    2.07    9.84
   1  -1 -15   10.78    4.02
   1  -1 -14   13.03    3.91
   1  -1 -14   13.71    4.20
   1  -1 -13   16.13    4.70
   1  -1 -13   22.07    5.12
   1  -1 -12   48.11    7.58
   1  -1 -12   44.27    7.35
   1  -1 -11   59.96    7.92
   1  -1 -11   64.05    8.35
   1  -1 -10   17.92    3.89
   1  -1 -10   18.24    4.30
   1  -1  -9    4.43    2.37
   1  -1  -9    1.87    0.60
   1  -1  -8   32.98    4.69
   1  -1  -8   33.25    5.26
   1  -1  -7  217.06   11.66
   1  -1  -7  209.77   11.65
   1  -1  -6  858.76   21.21
   1  -1  -6  844.72   21.52
   1  -1  -5  598.88   16.18
   1  -1  -5  613.24   16.38
   1  -1  -4  299.57    9.49
   1  -1  -4  289.80   10.15
   1  -1  -3  250.72    6.92
   1  -1  -3  259.10    8.49
   1  -1  -2   43.90    2.17
   1  -1  -2   45.87    3.03
   1  -1  -1    5.17    0.82
   1  -1  -1    5.42    0.62
   1  -1   0  154.79    4.12
   1  -1   2  836.21    8.69
   1  -1   3 1188.28   17.42
   1  -1   4 1197.59   19.47
   1  -1   5   97.27    6.37
   1  -1   6    1.78    0.30
   1  -1   7   25.98    3.79
   1  -1   8   35.86    4.94
   1  -1   8    7.88    5.44
   1  -1   9  101.10    8.96
   1  -1   9   20.57    9.26
   1  -1  10   74.79    8.28
   1  -1  11   32.53    5.28
   1  -1  14   -6.03    5.78
   1  -1  15    2.98    7.99
   1   0 -15   -0.71    1.40
   1   0 -15    1.40    1.34
   1   0 -14    0.92    0.90
   1   0 -14   -0.10    1.17
   1   0 -13   10.90    3.61
   1   0 -13   10.09    3.35
   1   0 -12   37.44    6.26
   1   0 -12   35.83    6.68
   1   0 -11  108.35   10.20
   1   0 -11  108.59   11.28
   1   0 -10   82.58    8.37
   1   0 -10   77.80    9.39
   1   0  -9   23.12    4.01
   1   0  -9   28.03    4.62
   1   0  -8   11.58    2.57
   1   0  -8   12.01    2.77
   1   0  -7    8.08    2.48
   1   0  -7    6.03    1.76
   1   0  -6  116.53    8.14
   1   0  -6  124.85    7.57
   1   0  -5  377.72   12.52
   1   0  -5  390.75   11.85
   1   0  -4   93.89    5.62
   1   0  -3  460.70    9.82
   1   0  -2  436.43    8.49
   1   0  -1   87.84    2.81
   1   0  -1   87.74    2.82
   1   0   0    8.81    1.06
   1   0   0    5.32    0.88
   1   0   1   64.19    3.57
   1   0   2  487.23   11.49
   1   0   3  819.29   16.81
   1   0   4  746.95   17.87
   1   0   5  219.70   10.73
   1   0   6   67.41    6.25
   1   0   6    9.03    5.35
   1   0   7   17.43    3.56
   1   0   7   21.81    8.14
   1   0   8    1.89    1.78
   1   0   9   35.30    5.78
   1   0  10   64.16    7.92
   1   0  11   51.79    7.55
   1   0  12   11.82    8.67
   1   0  13   14.60   10.57
   1   0  14    7.97    7.71
   1   0  15   17.70    9.80
   1   1 -16    3.86    2.34
   1   1 -15    0.13    0.56
   1   1 -15    1.99    1.30
   1   1 -14    0.14    0.59
   1   1 -14   -0.96    1.88
   1   1 -13    1.23    1.46
   1   1 -13    3.01    1.57
   1   1 -12   46.92    6.94
   1   1 -12   50.58    8.15
   1   1 -11   82.42    8.52
   1   1 -11   83.86   10.10
   1   1 -10  140.95   10.42
   1   1 -10  129.60   11.84
   1   1  -9   88.00    7.64
   1   1  -9   79.14    8.64
   1   1  -8   68.92    7.55
   1   1  -8   66.21    6.36
   1   1  -7    5.10    2.36
   1   1  -7    2.28    0.85
   1   1  -6   15.64    3.35
   1   1  -5  104.71    7.02
   1   1  -4    9.71    1.89
   1   1  -3   85.39    4.75
   1   1  -2  596.23   11.65
   1   1  -2  568.17    8.63
   1   1  -1  536.74   10.31
   1   1   0   72.52    4.42
   1   1   1    1.46    0.66
   1   1   2    6.67    1.64
   1   1   3  194.40    9.55
   1   1   4  359.50   13.77
   1   1   5  151.83    9.69
   1   1   6   45.07    5.95
   1   1   7   -2.05    5.17
   1   1   7   47.01    6.06
   1   1   8   14.37    3.05
   1   1   9   -0.77    1.33
   1   1   9   -1.78    4.31
   1   1  10   16.21    4.29
   1   1  10    5.69    6.05
   1   1  11   28.18    5.99
   1   1  11   14.83    8.51
   1   1  12   39.33    7.11
   1   1  12   16.08   11.93
   1   1  13   20.21   11.18
   1   1  14   10.31    7.77
   1   2 -16    8.70    4.04
   1   2 -15    6.77    3.13
   1   2 -15    4.18    1.76
   1   2 -14    3.59    2.64
   1   2 -14    0.58    0.94
   1   2 -13    0.14    1.69
   1   2 -13    0.05    0.67
   1   2 -12   22.31    4.59
   1   2 -12   19.20    4.99
   1   2 -11  115.34    9.81
   1   2 -11  112.61   11.39
   1   2 -10  148.05   10.15
   1   2 -10  135.88   12.03
   1   2  -9  115.53   10.66
   1   2  -9  122.84    8.59
   1   2  -8  141.05   10.80
   1   2  -7   77.58    7.53
   1   2  -6    3.83    1.90
   1   2  -5   40.84    4.61
   1   2  -4  143.21    7.69
   1   2  -4  165.12    3.94
   1   2  -3  261.79    9.30
   1   2  -3  253.84    6.29
   1   2  -2  955.73   16.60
   1   2  -2  877.70   14.64
   1   2  -1  625.72   14.31
   1   2   0  404.84   12.70
   1   2   1    7.81    0.83
   1   2   1    6.83    1.36
   1   2   2    7.50    1.77
   1   2   2    5.43    0.78
   1   2   3   57.25    6.41
   1   2   3   52.86    5.40
   1   2   4  121.65   12.01
   1   2   4  123.43    9.28
   1   2   5   91.74   11.82
   1   2   5   84.34    7.93
   1   2   6   45.04    9.45
   1   2   6   48.96    6.24
   1   2   7  146.89   17.07
   1   2   7  153.32   12.29
   1   2   8   66.17   12.49
   1   2   8   62.34    8.40
   1   2   9    9.60    3.72
   1   2   9   12.40    6.51
   1   2  10    4.87    2.77
   1   2  10    8.37    5.67
   1   2  11    6.33    3.11
   1   2  11   10.32    6.41
   1   2  12   14.33    4.82
   1   2  12   11.88    7.38
   1   2  13   12.08    6.14
   1   2  14    3.82    3.55
   1   3 -17    5.48    3.09
   1   3 -16   15.58    5.36
   1   3 -15   19.10    6.07
   1   3 -15   17.20    4.64
   1   3 -14   13.98    4.88
   1   3 -14   10.69    3.56
   1   3 -13    5.90    2.64
   1   3 -13    3.66    1.43
   1   3 -12   -6.44    4.17
   1   3 -12    0.14    0.22
   1   3 -11   35.64    5.26
   1   3 -11   34.44    6.21
   1   3 -10   69.17    8.67
   1   3 -10   68.55    6.59
   1   3  -9  110.54   10.44
   1   3  -8  149.66   11.39
   1   3  -7  248.92   13.74
   1   3  -6   71.78    6.91
   1   3  -6   74.35    3.32
   1   3  -5   17.36    1.67
   1   3  -5   15.35    3.03
   1   3  -4   33.85    3.95
   1   3  -4   35.91    2.71
   1   3  -3  119.94    6.99
   1   3  -3  122.55    5.79
   1   3  -2 1327.95   21.91
   1   3  -2 1294.48   21.94
   1   3  -1  915.73   16.90
   1   3  -1  909.01   20.09
   1   3   0  738.60   19.54
   1   3   1  273.28   12.76
   1   3   2   58.38    3.53
   1   3   2   59.56    6.36
   1   3   3    4.28    1.62
   1   3   3    2.43    1.07
   1   3   4   48.74    5.15
   1   3   4   48.62    6.41
   1   3   5  122.05    9.39
   1   3   5  118.07   10.53
   1   3   6  147.14   11.50
   1   3   6  132.47   11.75
   1   3   7  108.63   11.48
   1   3   7  106.44   11.25
   1   3   8  201.04   16.73
   1   3   8  229.12   16.84
   1   3   9   39.34    8.00
   1   3   9   46.53    8.30
   1   3  10    5.96    3.74
   1   3  10    5.64    3.39
   1   3  11    1.12    1.55
   1   3  11    2.91    3.55
   1   3  12    2.06    3.66
   1   3  12    4.03    2.65
   1   3  13    2.12    3.03
   1   4 -17    1.31    1.68
   1   4 -16    8.91    4.81
   1   4 -15   11.97    5.06
   1   4 -14   31.56    7.45
   1   4 -14   23.09    4.77
   1   4 -13   20.27    4.96
   1   4 -13   19.68    4.50
   1   4 -12   10.76    2.89
   1   4 -12   13.32    3.29
   1   4 -11   -1.89    2.37
   1   4 -11    0.32    0.31
   1   4 -10    7.01    2.72
   1   4  -9   35.66    6.23
   1   4  -8   49.62    7.32
   1   4  -7  179.81   12.31
   1   4  -7  201.27    6.98
   1   4  -6  206.63   12.50
   1   4  -6  205.43    6.84
   1   4  -5   98.25    7.94
   1   4  -5  108.73    5.34
   1   4  -4   52.87    5.39
   1   4  -4   55.06    4.12
   1   4  -3    1.14    0.74
   1   4  -3    1.34    0.56
   1   4  -2  175.89    8.72
   1   4  -2  184.01    9.43
   1   4  -1  417.24   15.46
   1   4  -1  402.62   12.41
   1   4   0  240.35   12.61
   1   4   1  227.89   12.94
   1   4   2  223.29    8.93
   1   4   2  233.59   13.64
   1   4   3  117.91    6.31
   1   4   3  108.13    9.81
   1   4   4    0.80    1.47
   1   4   4   -1.07    1.21
   1   4   5    7.01    2.64
   1   4   5    4.26    1.57
   1   4   6   32.43    5.38
   1   4   6   45.77    7.48
   1   4   7  142.92   11.12
   1   4   7  156.93   14.30
   1   4   8  111.22   10.61
   1   4   8  126.62   13.67
   1   4   9   60.59    8.48
   1   4   9   82.18   11.44
   1   4  10   10.48    4.65
   1   4  10   21.82    6.31
   1   4  11    2.73    1.88
   1   4  11    2.74    3.20
   1   4  12    1.42    1.80
   1   4  12    9.08    5.59
   1   5 -17    1.76    2.30
   1   5 -16    6.69    4.37
   1   5 -15   12.64    5.56
   1   5 -14   17.37    4.87
   1   5 -14   16.35    4.22
   1   5 -13   18.89    4.75
   1   5 -13   21.30    4.52
   1   5 -12   18.69    4.67
   1   5 -12   22.82    4.27
   1   5 -11    7.20    2.49
   1   5 -10    6.87    3.36
   1   5  -9    6.32    3.45
   1   5  -8   54.41    7.69
   1   5  -8   59.13    4.40
   1   5  -7   98.75    9.66
   1   5  -7   91.24    5.21
   1   5  -6  190.71   12.91
   1   5  -6  201.40    8.26
   1   5  -5  118.42    9.29
   1   5  -5  135.03    7.18
   1   5  -4  119.59    8.59
   1   5  -4  125.52    7.28
   1   5  -3   44.26    4.94
   1   5  -3   39.86    4.35
   1   5  -2    5.73    1.90
   1   5  -2    8.07    2.21
   1   5  -1   74.83    7.54
   1   5  -1   67.52    5.60
   1   5   0   19.50    2.86
   1   5   0   28.62    5.07
   1   5   1   94.25    9.62
   1   5   2   65.18    7.96
   1   5   3  161.99   12.98
   1   5   3  199.33    9.37
   1   5   4   52.02    4.88
   1   5   4   43.60    7.10
   1   5   5    5.91    2.08
   1   5   5    4.84    2.55
   1   5   6   -0.48    1.69
   1   5   6    2.41    1.91
   1   5   7   17.53    3.61
   1   5   7   18.77    5.33
   1   5   8   57.69    7.15
   1   5   8   62.60   10.24
   1   5   9   33.10    5.82
   1   5   9   54.41    9.80
   1   5  10   10.11    3.42
   1   5  10   22.15    7.31
   1   5  11   14.87    5.87
   1   6 -17    2.09    2.49
   1   6 -16    2.12    2.29
   1   6 -15    7.62    4.04
   1   6 -14    5.27    2.39
   1   6 -13   34.25    7.41
   1   6 -13   31.97    5.68
   1   6 -12   35.56    7.42
   1   6 -11   24.49    6.31
   1   6 -10    2.54    2.45
   1   6  -9    5.43    3.34
   1   6  -8   22.03    5.57
   1   6  -8   16.31    2.53
   1   6  -7   74.28    8.96
   1   6  -7   74.34    5.44
   1   6  -6  203.22   14.09
   1   6  -6  207.14    9.50
   1   6  -5  155.32   11.31
   1   6  -5  157.52    8.91
   1   6  -4  162.13   10.79
   1   6  -4  164.68    9.50
   1   6  -3   80.86    7.25
   1   6  -3   81.92    6.98
   1   6  -2   23.08    3.85
   1   6  -2   20.05    3.64
   1   6  -1    3.90    1.78
   1   6  -1    4.92    2.42
   1   6   0    5.72    1.65
   1   6   0    9.10    3.63
   1   6   1   42.23    4.47
   1   6   1   49.63    7.64
   1   6   2  128.53   12.32
   1   6   3  143.10   13.58
   1   6   4   94.83    7.59
   1   6   4   89.18   11.09
   1   6   5   11.46    3.03
   1   6   5   32.25    7.51
   1   6   6    5.26    1.81
   1   6   6   14.89    5.65
   1   6   7    1.26    1.07
   1   6   7    8.13    5.03
   1   6   8   14.10    3.63
   1   6   8   28.11    7.69
   1   6   9   12.18    3.48
   1   6   9   26.44    7.55
   1   6  10   13.64    5.93
   1   6  11   14.46    5.92
   1   7 -17    2.60    2.92
   1   7 -16    1.74    2.06
   1   7 -15   -3.61    3.02
   1   7 -14   -0.22    2.81
   1   7 -13   10.94    4.05
   1   7 -12   21.57    6.06
   1   7 -11   43.16    8.58
   1   7 -10   26.08    6.32
   1   7  -9   29.69    6.70
   1   7  -8    3.97    3.69
   1   7  -8    0.12    0.39
   1   7  -7   39.21    6.73
   1   7  -7   38.91    4.52
   1   7  -6  111.43   10.90
   1   7  -6  117.54    8.09
   1   7  -5  138.66   11.41
   1   7  -5  130.77    9.09
   1   7  -4  132.58   10.59
   1   7  -4  137.85    9.56
   1   7  -3  191.82   11.99
   1   7  -3  176.81   11.48
   1   7  -2   37.52    5.10
   1   7  -2   38.03    5.54
   1   7  -1   27.10    4.26
   1   7  -1   22.71    4.41
   1   7   0    7.23    2.35
   1   7   0    8.08    2.87
   1   7   1   13.13    2.78
   1   7   1   13.71    3.83
   1   7   2  125.84    8.47
   1   7   2  144.95   13.62
   1   7   3  137.84   13.72
   1   7   4  150.90   15.23
   1   7   5   43.24    6.28
   1   7   5   48.86    8.98
   1   7   6   26.94    5.77
   1   7   6   33.09    7.95
   1   7   7    2.10    1.64
   1   7   7    6.35    4.33
   1   7   8    6.57    4.29
   1   7   9    5.26    3.43
   1   7  10   15.06    6.11
   1   7  11    8.58    4.56
   1   8 -16    3.72    3.88
   1   8 -15   -6.31    4.93
   1   8 -14   -5.69    4.23
   1   8 -13   -3.24    3.83
   1   8 -12    7.83    3.63
   1   8 -11   26.47    7.18
   1   8 -10   39.54    8.26
   1   8  -9   42.36    7.91
   1   8  -8   35.58    7.69
   1   8  -8   28.18    4.09
   1   8  -7    0.02    1.81
   1   8  -7    1.20    1.04
   1   8  -6   -0.52    0.93
   1   8  -6   -0.14    1.52
   1   8  -5   39.01    6.49
   1   8  -5   34.51    5.12
   1   8  -4   33.40    5.73
   1   8  -4   38.09    5.36
   1   8  -3   93.75    9.11
   1   8  -3   94.52    9.25
   1   8  -2  110.59    9.56
   1   8  -2  107.78   10.52
   1   8  -1   33.54    4.90
   1   8  -1   31.53    5.72
   1   8   0   21.01    4.05
   1   8   0   20.56    5.11
   1   8   1    1.82    1.34
   1   8   1    2.24    1.69
   1   8   2   21.60    5.95
   1   8   2   20.89    3.82
   1   8   3   73.81   10.88
   1   8   4   63.18   10.05
   1   8   5   52.64    9.65
   1   8   6   32.74    8.08
   1   8   7   13.06    5.48
   1   8   8    4.96    3.81
   1   8   9    1.07    2.00
   1   8  10    1.32    1.86
   1   9 -16    7.17    4.89
   1   9 -15   -0.90    3.31
   1   9 -14   -4.61    4.53
   1   9 -13   -7.47    5.20
   1   9 -12    1.48    2.07
   1   9 -11    8.16    4.62
   1   9 -10   24.56    7.02
   1   9  -9   37.11    8.14
   1   9  -8   53.62    9.41
   1   9  -8   45.16    5.74
   1   9  -7   16.26    5.78
   1   9  -7    7.83    2.42
   1   9  -6    5.71    2.14
   1   9  -6    9.51    3.25
   1   9  -5    0.98    0.29
   1   9  -5    1.57    1.01
   1   9  -4    0.87    0.94
   1   9  -4    3.11    2.16
   1   9  -3   24.97    5.05
   1   9  -3   23.40    5.06
   1   9  -2   39.69    5.99
   1   9  -2   36.93    6.12
   1   9  -1   55.21    6.95
   1   9  -1   58.70    8.47
   1   9   0   38.13    5.82
   1   9   0   43.05    7.67
   1   9   1   12.89    3.34
   1   9   1   12.01    3.75
   1   9   2    1.46    1.51
   1   9   3    3.26    2.63
   1   9   4   10.44    4.57
   1   9   5   15.05    6.06
   1   9   6   13.87    5.07
   1   9   7   14.75    5.49
   1   9   8    4.11    2.23
   1   9   9    0.50    2.06
   1  10 -15    1.05    1.41
   1  10 -14   -1.62    3.42
   1  10 -13   -2.97    3.07
   1  10 -12   -2.50    2.62
   1  10 -11    8.07    3.80
   1  10 -10   15.87    6.33
   1  10  -9   24.25    7.18
   1  10  -8   34.91    7.99
   1  10  -7   42.27    8.71
   1  10  -7   21.17    4.39
   1  10  -6    7.39    2.64
   1  10  -6    6.93    3.07
   1  10  -5    6.01    2.15
   1  10  -5    4.71    2.42
   1  10  -4   -0.46    0.49
   1  10  -4    0.69    1.28
   1  10  -3    8.12    3.09
   1  10  -3    8.15    3.19
   1  10  -2   33.59    6.14
   1  10  -2   37.37    7.15
   1  10  -1   26.53    5.15
   1  10  -1   25.04    5.47
   1  10   0   40.64    7.77
   1  10   1   22.95    5.85
   1  10   2   12.47    4.54
   1  10   3   -2.28    2.36
   1  10   4   -2.87    3.62
   1  10   5   -1.73    3.55
   1  10   6    5.03    2.96
   1  10   7    8.36    3.83
   1  10   8    1.65    0.40
   1  10   9    3.12    2.22
   1  11 -13   -2.36    3.31
   1  11 -12   -0.82    2.22
   1  11 -11    1.17    1.43
   1  11 -10    2.88    2.61
   1  11  -9   22.47    6.91
   1  11  -8   22.49    6.86
   1  11  -7   27.99    7.84
   1  11  -7   20.26    4.54
   1  11  -6    8.05    2.96
   1  11  -6   19.01    6.01
   1  11  -5   11.82    3.81
   1  11  -5   13.00    4.23
   1  11  -4    0.43    0.44
   1  11  -4   -1.49    1.30
   1  11  -3    2.12    1.83
   1  11  -3    3.55    2.61
   1  11  -2   27.20    6.42
   1  11  -1   28.25    6.73
   1  11   0   28.74    7.11
   1  11   1   30.24    7.07
   1  11   2    6.28    2.15
   1  11   3   -0.94    3.19
   1  11   4   -3.82    3.15
   1  11   5   -3.95    4.14
   1  11   6   -0.82    3.30
   1  11   7   -2.35    2.58
   1  12 -11   -2.63    3.59
   1  12 -10    0.55    0.29
   1  12  -9   -0.01    1.97
   1  12  -8   10.26    5.23
   1  12  -7   16.52    6.16
   1  12  -6   12.39    3.79
   1  12  -6   19.37    6.57
   1  12  -5   10.41    3.70
   1  12  -4    8.97    3.41
   1  12  -3    0.74    1.78
   1  12  -2    1.16    1.90
   1  12  -1    6.06    3.03
   1  12   0   13.66    5.16
   1  12   1   16.14    6.22
   1  12   2   14.13    5.55
   1  12   3    1.04    1.92
   1  12   4   -1.96    3.07
   1  12   5   -3.59    3.66
   1  12   6   -3.77    3.92
   1  13  -4    8.80    3.71
   1  13  -3    6.07    3.29
   1  13  -2    2.25    2.33
   1  13  -1    0.76    1.59
   1  13   0    4.51    3.81
   1  13   1    4.84    3.52
   1  13   2    6.50    4.68
   1  13   3   12.24    5.70
   1  13   4    7.46    4.81
   1  14  -1    5.15    3.59
   1  14   0    1.54    2.31
   2 -14  -4   -0.20    0.82
   2 -14  -3    0.31    0.22
   2 -14  -2    4.53    2.64
   2 -14  -1    6.72    3.05
   2 -13  -7    3.13    2.00
   2 -13  -6    6.65    3.46
   2 -13  -5    2.89    2.69
   2 -13  -4   -1.36    1.83
   2 -13  -3   -0.80    0.80
   2 -13  -2   37.32    7.73
   2 -13  -2    1.89    1.29
   2 -13  -1    5.01    2.99
   2 -13  -1    5.77    2.77
   2 -13   0    0.51    1.71
   2 -13   0   16.88    4.11
   2 -13   1   23.84    5.21
   2 -13   2   17.57    4.40
   2 -12  -9   -0.25    1.89
   2 -12  -8    1.38    2.23
   2 -12  -7    6.45    3.71
   2 -12  -6    3.10    2.44
   2 -12  -5    7.97    2.98
   2 -12  -5    6.83    2.98
   2 -12  -4    3.82    1.81
   2 -12  -4    4.31    2.28
   2 -12  -3    2.38    1.32
   2 -12  -3    2.29    1.15
   2 -12  -2    0.01    1.25
   2 -12  -2   -0.66    0.65
   2 -12  -1   27.67    6.94
   2 -12  -1    1.12    0.94
   2 -12   0    2.46    2.63
   2 -12   0   12.29    3.32
   2 -12   1   17.89    4.03
   2 -12   2   18.12    4.09
   2 -12   3   18.67    4.01
   2 -11 -11    4.61    3.06
   2 -11 -10   -0.28    1.13
   2 -11  -9    0.47    0.72
   2 -11  -8    2.57    2.40
   2 -11  -7    5.25    2.48
   2 -11  -7    3.53    2.41
   2 -11  -6   14.99    4.28
   2 -11  -6   16.00    5.10
   2 -11  -5   31.57    6.55
   2 -11  -5   29.47    5.16
   2 -11  -4   39.50    7.03
   2 -11  -4   38.90    5.90
   2 -11  -3   31.08    5.13
   2 -11  -3   29.89    5.55
   2 -11  -2   14.78    3.64
   2 -11  -2   13.30    3.48
   2 -11  -1    0.41    0.56
   2 -11  -1    2.47    1.50
   2 -11   0    3.54    1.47
   2 -11   0   27.90    6.75
   2 -11   1    0.89    2.07
   2 -11   1   20.13    3.90
   2 -11   2   33.40    5.04
   2 -11   3   39.54    5.06
   2 -11   4   -4.15    2.45
   2 -10 -12    7.95    4.66
   2 -10 -11    8.37    3.68
   2 -10 -10    6.29    3.11
   2 -10  -9    4.66    2.84
   2 -10  -8   -0.20    1.46
   2 -10  -7    1.46    0.75
   2 -10  -6   12.86    4.64
   2 -10  -5   34.38    7.06
   2 -10  -5   36.85    5.59
   2 -10  -4   51.95    7.97
   2 -10  -4   50.08    6.57
   2 -10  -3   74.60    8.59
   2 -10  -3   77.77    7.61
   2 -10  -2   94.62    8.91
   2 -10  -2   98.53    8.65
   2 -10  -1   15.18    3.33
   2 -10  -1   12.59    3.16
   2 -10   0    2.91    1.44
   2 -10   0   18.44    4.81
   2 -10   1    3.09    2.88
   2 -10   1   12.61    2.81
   2 -10   2   17.17    3.34
   2 -10   3   60.74    5.77
   2 -10   4   -3.64    2.15
   2 -10   5   -4.85    2.52
   2 -10  12   -7.74    5.36
   2  -9 -13    1.98    2.52
   2  -9 -12    6.12    3.32
   2  -9 -11    6.03    2.99
   2  -9 -10    7.42    3.34
   2  -9  -9    5.94    3.04
   2  -9  -8   12.22    4.38
   2  -9  -7    5.44    3.34
   2  -9  -6   -0.35    0.42
   2  -9  -5   15.07    4.21
   2  -9  -4   45.88    5.92
   2  -9  -4   53.80    7.44
   2  -9  -3   43.46    5.59
   2  -9  -3   43.41    6.39
   2  -9  -2   56.45    6.57
   2  -9  -2   58.11    6.32
   2  -9  -1   53.26    5.90
   2  -9  -1   62.21    6.55
   2  -9   0    6.43    2.82
   2  -9   0    9.82    2.42
   2  -9   1    0.07    0.13
   2  -9   1   26.04    6.19
   2  -9   2    0.43    1.07
   2  -9   2    2.25    0.94
   2  -9   3   20.91    3.15
   2  -9   4   -5.29    2.58
   2  -9  12   -4.62    4.37
   2  -8 -14    3.29    3.34
   2  -8 -13   -1.84    2.36
   2  -8 -12    0.89    1.37
   2  -8 -11    4.54    2.76
   2  -8 -10   11.28    3.85
   2  -8  -9   33.64    6.76
   2  -8  -8   36.36    6.81
   2  -8  -7   43.54    7.35
   2  -8  -6   11.61    3.57
   2  -8  -5    0.87    0.72
   2  -8  -4   22.98    4.45
   2  -8  -3   45.80    6.07
   2  -8  -3   34.06    5.28
   2  -8  -2   69.71    6.91
   2  -8  -2   72.37    6.47
   2  -8  -1   88.44    7.30
   2  -8  -1   78.35    6.98
   2  -8   0   18.13    3.23
   2  -8   0   26.25    3.96
   2  -8   1   16.54    2.89
   2  -8   1   27.29    6.88
   2  -8   2    1.20    1.54
   2  -8   2    0.97    0.64
   2  -8   3    0.86    0.73
   2  -8   8    0.42    1.64
   2  -8  13   -4.14    3.88
   2  -7 -14    3.19    2.16
   2  -7 -13    3.85    2.55
   2  -7 -12    0.96    1.43
   2  -7 -11    2.32    1.93
   2  -7 -10   20.77    5.38
   2  -7  -9   42.68    7.53
   2  -7  -8  101.74   11.05
   2  -7  -7  127.89   11.97
   2  -7  -6  101.00   10.29
   2  -7  -5    7.03    2.51
   2  -7  -4    1.71    0.29
   2  -7  -3   27.57    4.30
   2  -7  -2   91.94    7.01
   2  -7  -2   95.72    7.69
   2  -7  -1  171.91    9.57
   2  -7  -1  174.57    9.64
   2  -7   0  196.90    9.38
   2  -7   0  205.11   10.99
   2  -7   1  200.83    8.88
   2  -7   1  262.34   13.57
   2  -7   2    3.64    2.98
   2  -7   2   73.90    4.87
   2  -7   3   32.42    3.05
   2  -7   5   -0.01    0.22
   2  -7  10    1.02    0.58
   2  -7  11   -4.92    4.73
   2  -7  15    5.44    5.22
   2  -6 -15    0.62    1.74
   2  -6 -14    5.14    3.29
   2  -6 -13    7.77    3.97
   2  -6 -12    8.39    3.78
   2  -6 -11    5.90    3.51
   2  -6 -10    9.83    3.78
   2  -6  -9   30.66    5.87
   2  -6  -8  104.05   10.56
   2  -6  -7  157.00   12.27
   2  -6  -6  164.06   12.24
   2  -6  -5   29.82    5.13
   2  -6  -4   40.06    5.14
   2  -6  -3    2.24    0.14
   2  -6  -2   30.27    4.15
   2  -6  -1  248.14   10.44
   2  -6  -1  246.28   10.76
   2  -6   0  353.36   11.51
   2  -6   0  346.63   12.99
   2  -6   1  366.36   14.46
   2  -6   1  295.09    9.55
   2  -6   2  515.66   10.95
   2  -6   2   30.87    6.78
   2  -6   3  194.19    6.98
   2  -6   9  110.78    9.93
   2  -6  10   47.53    7.35
   2  -6  12  -10.16    5.70
   2  -6  14    3.82    4.47
   2  -6  15   11.42   10.18
   2  -5 -15    2.31    2.69
   2  -5 -14    7.45    3.29
   2  -5 -13   24.36    6.06
   2  -5 -12   29.91    6.50
   2  -5 -11   11.46    3.84
   2  -5 -10    5.88    2.66
   2  -5  -9    0.96    1.17
   2  -5  -8   19.51    4.31
   2  -5  -7   89.05    8.87
   2  -5  -6   89.31    8.35
   2  -5  -5  160.90   10.64
   2  -5  -4    9.42    2.61
   2  -5  -3  119.17    7.95
   2  -5  -2   20.25    3.04
   2  -5  -1   31.54    3.33
   2  -5  -1   29.86    3.64
   2  -5   0  201.52    7.79
   2  -5   0  220.62    9.57
   2  -5   1  333.06    8.62
   2  -5   1  171.58   11.27
   2  -5   2    3.39    2.37
   2  -5   2  372.46    7.54
   2  -5   8  101.85    9.11
   2  -5   9  134.01   11.55
   2  -5  10   93.22   10.81
   2  -5  11   -9.75    5.42
   2  -5  14   20.95   11.44
   2  -5  15  -53.32   19.89
   2  -4 -16    1.72    1.44
   2  -4 -15    2.93    2.21
   2  -4 -14    6.17    3.40
   2  -4 -13   25.63    6.09
   2  -4 -12   77.59   10.01
   2  -4 -11   53.20    8.15
   2  -4 -10   19.91    4.76
   2  -4 -10   14.97    2.89
   2  -4  -9   -0.17    0.71
   2  -4  -9   -0.36    0.90
   2  -4  -8   -0.23    0.50
   2  -4  -8    0.08    1.39
   2  -4  -7   44.38    5.76
   2  -4  -7   36.58    3.35
   2  -4  -6   56.82    6.27
   2  -4  -6   46.12    3.25
   2  -4  -5   71.74    6.69
   2  -4  -5   58.65    2.75
   2  -4  -4  128.43    8.32
   2  -4  -3  377.92   13.24
   2  -4  -2  132.57    7.12
   2  -4  -1    0.51    0.87
   2  -4  -1    1.95    0.84
   2  -4   0   47.19    3.20
   2  -4   0   38.16    4.05
   2  -4   1   98.40    3.83
   2  -4   1  113.58    6.83
   2  -4   2  188.53    4.09
   2  -4   6    0.10    0.28
   2  -4   7   10.44    2.56
   2  -4   8   23.21    4.46
   2  -4   9   61.83    7.98
   2  -4   9   -3.70    5.10
   2  -4  10   78.34    9.70
   2  -4  11   50.27    8.41
   2  -4  13   15.18   10.09
   2  -4  14  -31.37   15.32
   2  -3 -16    1.65    1.45
   2  -3 -15    1.17    1.52
   2  -3 -14    4.90    2.77
   2  -3 -13   25.08    5.75
   2  -3 -12   77.35    9.80
   2  -3 -12   66.89    7.76
   2  -3 -11  115.67   11.34
   2  -3 -11  102.36    9.03
   2  -3 -10   42.72    6.49
   2  -3 -10   41.19    5.37
   2  -3  -9   38.14    5.82
   2  -3  -9   35.41    4.90
   2  -3  -8   19.63    3.93
   2  -3  -8   22.74    3.69
   2  -3  -7    8.83    1.98
   2  -3  -7    9.56    2.13
   2  -3  -6  117.48    8.67
   2  -3  -6  112.09    6.48
   2  -3  -5  216.44    7.65
   2  -3  -5  211.76   10.89
   2  -3  -4  523.09    9.20
   2  -3  -4  525.15   15.68
   2  -3  -3  554.07    7.79
   2  -3  -3  590.75   15.21
   2  -3  -2  520.47   12.86
   2  -3  -1  167.71    6.40
   2  -3   0    0.02    0.27
   2  -3   0    0.33    0.20
   2  -3   1   42.87    1.80
   2  -3   1   25.19    3.65
   2  -3   6   94.53    7.31
   2  -3   7   78.96    7.41
   2  -3   8    0.40    0.76
   2  -3   8  -10.65    4.76
   2  -3   9   34.85    6.19
   2  -3  10   64.26    8.42
   2  -3  11   26.27    5.59
   2  -3  12    4.83   10.97
   2  -3  13  -40.47   18.63
   2  -2 -16    7.01    3.49
   2  -2 -15    1.56    1.35
   2  -2 -14    0.97    1.06
   2  -2 -13    4.12    2.05
   2  -2 -13    3.35    1.14
   2  -2 -12   41.63    7.03
   2  -2 -12   39.18    6.35
   2  -2 -11   66.55    8.48
   2  -2 -11   67.47    8.10
   2  -2 -10   82.84    8.85
   2  -2 -10   79.54    8.36
   2  -2  -9   96.73    9.15
   2  -2  -9   83.74    7.98
   2  -2  -8   57.32    6.54
   2  -2  -8   45.21    5.52
   2  -2  -7   79.44    6.62
   2  -2  -7   81.40    7.43
   2  -2  -6   17.93    2.88
   2  -2  -6   15.25    3.08
   2  -2  -5  100.11    5.46
   2  -2  -5  107.36    7.07
   2  -2  -4  418.92    9.25
   2  -2  -4  430.50   13.56
   2  -2  -3  804.49   12.16
   2  -2  -3  814.74   16.36
   2  -2  -2 3316.87   29.58
   2  -2  -1   13.05    1.56
   2  -2   0  166.15    5.85
   2  -2   1    1.16    2.44
   2  -2   4  269.14   10.94
   2  -2   5  377.60   14.01
   2  -2   6  312.69   13.85
   2  -2   7  217.65   12.96
   2  -2   8   61.48    7.36
   2  -2   9    0.17    1.39
   2  -2  10    8.29    2.90
   2  -2  10    6.42    6.06
   2  -2  11   22.22    5.24
   2  -2  11   17.84   11.61
   2  -2  14  -31.83   18.36
   2  -1 -16   10.41    4.05
   2  -1 -15    9.70    4.13
   2  -1 -15   10.49    3.88
   2  -1 -14   10.25    3.51
   2  -1 -14   11.48    3.76
   2  -1 -13    0.66    1.81
   2  -1 -13    0.50    0.73
   2  -1 -12    3.60    2.51
   2  -1 -12    3.24    1.56
   2  -1 -11   27.43    5.18
   2  -1 -11   22.74    4.56
   2  -1 -10   13.42    3.14
   2  -1 -10   20.26    4.32
   2  -1  -9   70.43    7.37
   2  -1  -9   66.19    7.20
   2  -1  -8  229.77   12.27
   2  -1  -8  234.58   12.49
   2  -1  -7  156.47    9.14
   2  -1  -7  150.99    9.73
   2  -1  -6   41.22    4.30
   2  -1  -6   46.22    4.75
   2  -1  -5    0.36    0.31
   2  -1  -5    0.50    0.37
   2  -1  -4   60.51    4.08
   2  -1  -3  376.19    9.74
   2  -1   0  127.05    4.49
   2  -1   1  214.61    7.95
   2  -1   2   79.81    5.29
   2  -1   3    0.19    0.49
   2  -1   4  254.88   11.05
   2  -1   5  146.30    9.28
   2  -1   5   -1.04    2.28
   2  -1   6  327.83   14.98
   2  -1   7  369.00   17.18
   2  -1   8  113.81   10.14
   2  -1   9    6.74    2.46
   2  -1   9   13.05    7.32
   2  -1  10    0.24    0.99
   2  -1  10  -14.52    9.78
   2  -1  11    1.61    2.00
   2  -1  12    1.45    0.17
   2  -1  14    1.38    6.97
   2   0 -16   16.49    4.73
   2   0 -15   11.77    4.58
   2   0 -15   14.56    4.34
   2   0 -14   14.25    4.66
   2   0 -14   11.50    3.61
   2   0 -13   17.72    5.07
   2   0 -13   14.07    4.13
   2   0 -12   -2.00    2.85
   2   0 -12    1.93    1.61
   2   0 -11    0.96    1.27
   2   0 -11    3.76    2.04
   2   0 -10   12.70    3.45
   2   0 -10   11.52    2.94
   2   0  -9   61.86    7.18
   2   0  -9   60.10    6.65
   2   0  -8  242.27   12.56
   2   0  -8  223.73   11.93
   2   0  -7  261.83   12.23
   2   0  -7  255.38   11.43
   2   0  -6  196.30    9.32
   2   0  -5   38.98    3.91
   2   0  -4   14.43    2.27
   2   0  -3   39.66    3.36
   2   0  -2  205.14    6.47
   2   0  -1  130.54    5.55
   2   0   0   18.85    1.59
   2   0   0   12.32    1.91
   2   0   1  313.75   10.54
   2   0   2  208.11    9.39
   2   0   3   77.18    6.18
   2   0   4    6.59    1.72
   2   0   5   45.09    5.38
   2   0   6  116.06    9.44
   2   0   6    2.84    2.85
   2   0   7  127.39   10.41
   2   0   7   15.22    7.32
   2   0   8  112.17   10.44
   2   0   9   17.90    4.63
   2   0  10    7.98    3.22
   2   0  11    1.96    1.42
   2   0  12    0.53    0.89
   2   0  12   -5.27    6.67
   2   0  13    6.60    6.91
   2   1 -16    7.55    3.63
   2   1 -16    8.28    3.39
   2   1 -15   15.85    5.23
   2   1 -15   14.84    4.47
   2   1 -14   27.94    5.73
   2   1 -14   27.28    6.65
   2   1 -13   23.45    5.06
   2   1 -13   29.49    5.64
   2   1 -12    8.14    2.00
   2   1 -12    6.96    2.62
   2   1 -11    0.67    0.60
   2   1 -11    1.38    1.16
   2   1 -10   10.65    3.27
   2   1 -10   10.71    2.92
   2   1  -9   46.55    6.33
   2   1  -9   41.94    5.11
   2   1  -8  292.44   14.49
   2   1  -7  419.94   15.92
   2   1  -6  329.34   12.73
   2   1  -5  127.16    7.60
   2   1  -4   57.59    3.07
   2   1  -4   51.58    4.66
   2   1  -3    2.75    0.72
   2   1  -3    1.50    0.15
   2   1  -2  100.89    5.42
   2   1  -1  128.00    6.70
   2   1   0  205.93    9.18
   2   1   1  682.29   17.92
   2   1   2  434.13   15.22
   2   1   3  158.71    9.63
   2   1   3    6.82    3.36
   2   1   4   12.31    2.73
   2   1   4    2.82    2.07
   2   1   5    9.92    2.85
   2   1   6   17.84    4.07
   2   1   7   66.84    8.13
   2   1   8   75.91    9.06
   2   1   9   13.07    6.09
   2   1   9   31.73    5.92
   2   1  10   10.61    3.24
   2   1  10    3.52    5.78
   2   1  11   11.50    3.96
   2   1  11    2.14    7.33
   2   1  12    5.06    3.22
   2   1  12    5.66    6.23
   2   1  13    7.62    6.24
   2   2 -16    2.60    1.98
   2   2 -16    1.20    1.27
   2   2 -15   10.36    4.39
   2   2 -15    4.85    2.25
   2   2 -14    7.19    2.25
   2   2 -14   16.67    4.18
   2   2 -13   40.79    6.41
   2   2 -13   35.22    6.95
   2   2 -12   41.50    5.95
   2   2 -12   38.45    6.90
   2   2 -11   50.41    7.57
   2   2 -11   41.56    6.15
   2   2 -10    1.48    1.98
   2   2  -9   10.14    3.64
   2   2  -8  168.17   11.51
   2   2  -7  325.01   14.63
   2   2  -6  266.31   12.08
   2   2  -5  213.19   10.59
   2   2  -5  196.75    5.22
   2   2  -4  289.90   11.66
   2   2  -4  268.86    8.15
   2   2  -3  132.55    7.50
   2   2  -3  135.11    6.77
   2   2  -2   15.10    2.70
   2   2  -1  144.73    8.36
   2   2   0  308.36   12.79
   2   2   1  282.61   13.02
   2   2   2 1090.29   26.80
   2   2   2 1136.30   19.39
   2   2   3  335.46   15.62
   2   2   3  327.92   16.29
   2   2   4  128.03   10.31
   2   2   4  113.01   11.87
   2   2   5    9.61    3.44
   2   2   5    4.73    3.01
   2   2   6   -0.72    2.52
   2   2   6    2.94    3.85
   2   2   7   29.92    9.71
   2   2   7   47.29    6.72
   2   2   8   31.04    5.76
   2   2   8   29.18    9.37
   2   2   9   37.25    9.70
   2   2   9   41.07    7.48
   2   2  10   14.63    9.74
   2   2  10   38.77    7.42
   2   2  11   20.24    9.13
   2   2  11   35.25    7.58
   2   2  12   14.94    5.11
   2   2  12   10.94    6.54
   2   3 -17    0.36    1.55
   2   3 -16    2.48    2.70
   2   3 -15   -6.10    4.15
   2   3 -15    0.93    1.16
   2   3 -14    2.57    0.60
   2   3 -14    5.28    2.39
   2   3 -13   38.72    6.15
   2   3 -13   33.23    6.79
   2   3 -12   65.95    9.13
   2   3 -12   56.45    7.42
   2   3 -11   26.50    5.67
   2   3 -10   83.30    9.62
   2   3  -9   20.32    5.04
   2   3  -8    1.41    0.31
   2   3  -7   85.77    7.74
   2   3  -6   48.15    5.50
   2   3  -6   47.49    2.73
   2   3  -5  236.58   11.72
   2   3  -5  231.14    7.46
   2   3  -4  153.82    9.15
   2   3  -4  140.28    7.00
   2   3  -3  287.58   11.87
   2   3  -3  291.59   11.31
   2   3  -2  152.26    8.14
   2   3  -2  170.78    9.77
   2   3  -1    7.55    1.97
   2   3   0   11.21    2.26
   2   3   1  255.32   13.74
   2   3   2  356.75    7.98
   2   3   2  356.81   16.90
   2   3   3  260.74    8.89
   2   3   3  277.72   15.51
   2   3   4  109.70    7.36
   2   3   4  109.42    9.84
   2   3   5   69.26    7.28
   2   3   5   64.99    7.97
   2   3   6   20.02    4.72
   2   3   6   22.94    5.40
   2   3   7    2.04    1.34
   2   3   7    2.93    2.83
   2   3   8   18.66    5.26
   2   3   8   20.63    5.43
   2   3   9   28.54    6.82
   2   3   9   19.60    6.10
   2   3  10   19.50    6.30
   2   3  10   31.53    7.38
   2   3  11   36.57    7.97
   2   3  11   10.96    6.31
   2   3  12   22.63    6.22
   2   4 -17    5.02    3.22
   2   4 -16    1.07    1.76
   2   4 -15   -4.82    4.29
   2   4 -15    0.35    0.37
   2   4 -14   -1.35    3.12
   2   4 -14    3.09    1.79
   2   4 -13   10.95    3.46
   2   4 -13   13.62    3.77
   2   4 -12   47.54    8.26
   2   4 -11   92.75   10.51
   2   4 -10   48.20    7.82
   2   4  -9   51.22    7.36
   2   4  -8   23.28    4.50
   2   4  -7    1.96    1.77
   2   4  -7    0.84    0.42
   2   4  -6    2.04    0.91
   2   4  -6    0.74    0.49
   2   4  -5   11.19    2.33
   2   4  -5   13.22    2.18
   2   4  -4  147.86    9.42
   2   4  -4  139.74    8.07
   2   4  -3  298.47   12.72
   2   4  -3  302.80   12.90
   2   4  -2  170.57    9.28
   2   4  -2  182.51   11.18
   2   4  -1   71.09    7.38
   2   4   0   34.65    5.52
   2   4   1   -0.19    1.20
   2   4   2   41.09    6.45
   2   4   3  108.43    5.79
   2   4   3  108.08   10.55
   2   4   4   45.88    4.42
   2   4   4   46.70    7.61
   2   4   5   57.84    5.51
   2   4   5   62.11    8.54
   2   4   6   38.16    5.11
   2   4   6   47.16    7.88
   2   4   7   27.77    6.15
   2   4   7   21.82    4.20
   2   4   8    3.48    2.63
   2   4   8    0.95    1.11
   2   4   9    0.72    1.81
   2   4   9    1.51    1.79
   2   4  10   13.47    5.00
   2   4  11   19.04    5.98
   2   5 -17    9.50    4.86
   2   5 -16   -0.92    2.32
   2   5 -15   -3.32    3.38
   2   5 -15    2.56    1.98
   2   5 -14   -2.36    3.38
   2   5 -14   -0.32    0.81
   2   5 -13    9.85    3.56
   2   5 -12   35.39    7.32
   2   5 -11   49.55    8.10
   2   5 -10   87.49   10.58
   2   5  -9   61.05    8.36
   2   5  -8   53.59    7.31
   2   5  -7    5.98    1.38
   2   5  -7    7.19    2.34
   2   5  -6    7.70    1.81
   2   5  -6    5.29    1.40
   2   5  -5   14.11    2.93
   2   5  -5   13.34    2.21
   2   5  -4  167.27   10.63
   2   5  -4  169.33    9.57
   2   5  -3  200.36   11.10
   2   5  -3  214.58   11.91
   2   5  -2  265.26   14.57
   2   5  -2  240.33   11.83
   2   5  -1   93.88    7.06
   2   5  -1  102.96    9.97
   2   5   0   79.03    8.78
   2   5   1    7.79    3.47
   2   5   2    9.22    3.49
   2   5   3   27.08    5.90
   2   5   4   26.90    6.19
   2   5   4   10.25    2.39
   2   5   5   37.33    4.57
   2   5   5   32.96    7.04
   2   5   6   83.41    7.28
   2   5   6   80.84   10.74
   2   5   7   31.54    4.94
   2   5   7   38.15    7.91
   2   5   8   10.92    4.26
   2   5   9   -0.58    1.61
   2   5  10   -0.09    1.02
   2   5  11    9.32    5.05
   2   6 -17    7.42    4.29
   2   6 -16    3.71    2.54
   2   6 -15    2.76    1.83
   2   6 -14    1.90    0.70
   2   6 -13   -1.16    1.66
   2   6 -12    7.48    4.16
   2   6 -11   26.76    6.53
   2   6 -10   44.93    8.24
   2   6  -9   97.22   11.12
   2   6  -8   55.08    7.98
   2   6  -7   52.30    7.07
   2   6  -7   51.12    4.78
   2   6  -6    7.39    2.13
   2   6  -6    4.71    1.81
   2   6  -5   -1.39    1.71
   2   6  -5   -3.10    1.66
   2   6  -4   86.27    8.28
   2   6  -4   83.95    7.46
   2   6  -3  169.94   10.90
   2   6  -3  184.35   12.11
   2   6  -2  296.48   14.07
   2   6  -2  334.89   17.65
   2   6  -1  127.14    8.97
   2   6  -1  145.75   12.61
   2   6   0   70.27    6.54
   2   6   0   86.91   10.26
   2   6   1   65.60    8.93
   2   6   2    1.56    2.22
   2   6   3    5.35    2.43
   2   6   4   21.82    5.56
   2   6   5   60.05    9.54
   2   6   6   68.19   10.71
   2   6   7   49.06    9.60
   2   6   8   16.34    5.68
   2   6   9    7.86    4.95
   2   6  10    9.10    5.27
   2   6  11    5.02    4.53
   2   7 -17   -1.27    3.21
   2   7 -16    2.43    1.48
   2   7 -15    4.37    2.47
   2   7 -14   18.31    5.77
   2   7 -13    4.58    3.22
   2   7 -12    3.82    3.96
   2   7 -11    2.33    2.87
   2   7 -10    8.65    4.65
   2   7  -9   28.87    6.29
   2   7  -8   75.55    9.69
   2   7  -8   75.95    6.28
   2   7  -7   68.46    8.47
   2   7  -7   59.97    5.83
   2   7  -6   55.47    7.34
   2   7  -6   56.08    5.92
   2   7  -5   19.89    3.29
   2   7  -5   21.73    4.49
   2   7  -4   -0.12    1.51
   2   7  -4   -0.21    0.96
   2   7  -3   34.76    5.41
   2   7  -3   34.35    5.56
   2   7  -2   29.49    4.81
   2   7  -2   37.35    6.42
   2   7  -1   96.62    8.49
   2   7  -1  114.90   11.75
   2   7   0   88.59    8.01
   2   7   0  113.29   12.27
   2   7   1   66.60    6.92
   2   7   1   84.66   11.31
   2   7   2   35.25    8.00
   2   7   3    8.83    5.21
   2   7   4    9.21    5.00
   2   7   5   13.55    6.08
   2   7   6   44.62   10.07
   2   7   7   53.02   10.75
   2   7   8   26.19    7.90
   2   7   9   10.59    5.28
   2   7  10    6.65    4.72
   2   8 -16   -1.95    3.74
   2   8 -15    4.87    2.28
   2   8 -14    9.18    4.29
   2   8 -13   13.05    5.28
   2   8 -12    8.37    4.44
   2   8 -11   11.05    5.04
   2   8 -10    4.41    4.02
   2   8  -9    6.43    3.14
   2   8  -8   27.58    6.06
   2   8  -8   30.46    4.40
   2   8  -7   40.99    7.13
   2   8  -7   39.68    5.08
   2   8  -6   56.20    7.82
   2   8  -6   57.00    6.35
   2   8  -5   51.88    7.20
   2   8  -5   56.65    6.65
   2   8  -4   28.89    5.23
   2   8  -4   26.17    4.52
   2   8  -3    0.34    0.91
   2   8  -3    0.12    1.66
   2   8  -2    1.16    1.65
   2   8  -2   -1.11    1.04
   2   8  -1    6.40    2.47
   2   8  -1    6.22    2.99
   2   8   0   16.16    3.77
   2   8   0   17.76    5.34
   2   8   1   50.65    6.56
   2   8   1   58.34    9.95
   2   8   2   38.84    5.73
   2   8   2   47.44    9.48
   2   8   3   17.25    3.76
   2   8   3   24.12    7.13
   2   8   4   10.47    5.45
   2   8   5    3.45    4.27
   2   8   6    8.39    5.04
   2   8   7   10.49    5.28
   2   8   8   12.00    5.43
   2   8   9   13.82    6.24
   2   9 -16   -5.11    4.09
   2   9 -15   -1.11    3.41
   2   9 -14    5.01    3.55
   2   9 -13   13.69    5.36
   2   9 -12    8.41    4.52
   2   9 -11   10.72    4.99
   2   9 -10    4.35    3.56
   2   9  -9   -0.01    0.35
   2   9  -8   19.03    5.49
   2   9  -7   27.70    6.09
   2   9  -7   22.30    4.21
   2   9  -6   42.07    7.19
   2   9  -6   38.93    5.89
   2   9  -5   34.32    6.31
   2   9  -5   35.20    6.03
   2   9  -4   26.42    5.30
   2   9  -4   24.60    4.60
   2   9  -3    8.63    2.79
   2   9  -3    6.09    2.52
   2   9  -2    0.62    0.58
   2   9  -2   -0.02    0.59
   2   9  -1    2.41    1.79
   2   9  -1    0.61    0.94
   2   9   0    9.48    3.23
   2   9   0   10.12    3.97
   2   9   1   27.72    5.15
   2   9   1   33.12    7.74
   2   9   2   37.05    8.42
   2   9   3   21.50    6.61
   2   9   4   14.79    5.80
   2   9   5    3.47    3.57
   2   9   6    2.35    2.74
   2   9   7    4.87    3.74
   2   9   8    3.49    3.89
   2   9   9    3.23    3.45
   2  10 -15   -5.17    4.76
   2  10 -14    1.93    1.62
   2  10 -13    9.77    5.27
   2  10 -12   10.48    4.79
   2  10 -11   13.21    5.42
   2  10 -10   12.43    5.63
   2  10  -9    7.38    4.81
   2  10  -8    2.05    1.66
   2  10  -7   12.73    3.30
   2  10  -7   15.95    4.96
   2  10  -6   16.31    4.08
   2  10  -6   21.67    5.34
   2  10  -5   40.44    7.49
   2  10  -5   36.74    6.15
   2  10  -4   27.34    5.88
   2  10  -4   25.78    5.58
   2  10  -3   18.02    4.80
   2  10  -3   13.24    3.74
   2  10  -2    3.03    2.25
   2  10  -2    1.42    1.92
   2  10  -1   -1.00    1.78
   2  10  -1   -2.42    3.29
   2  10   0    4.75    2.10
   2  10   1   15.42    5.34
   2  10   2   31.00    8.06
   2  10   3   19.24    6.22
   2  10   4    9.87    4.46
   2  10   5    9.10    4.58
   2  10   6    1.10    1.91
   2  10   7    0.87    0.83
   2  10   8   -1.52    2.52
   2  11 -13   -0.91    1.97
   2  11 -12    9.68    5.11
   2  11 -11    9.01    4.53
   2  11 -10   22.01    7.18
   2  11  -9   10.70    5.46
   2  11  -8    5.46    4.03
   2  11  -7    2.06    2.38
   2  11  -6    0.65    0.84
   2  11  -6    2.04    2.22
   2  11  -5   12.54    3.83
   2  11  -5   14.09    4.63
   2  11  -4   12.79    4.32
   2  11  -4   17.82    5.17
   2  11  -3   20.45    5.56
   2  11  -3   20.19    5.35
   2  11  -2    6.88    2.43
   2  11  -1    5.73    1.82
   2  11   0   -4.23    3.65
   2  11   1    0.42    2.37
   2  11   2    5.60    2.50
   2  11   3    7.25    4.42
   2  11   4    8.61    4.08
   2  11   5    2.54    2.19
   2  11   6    1.94    1.38
   2  12  -9   12.95    5.66
   2  12  -8   19.18    6.95
   2  12  -5    0.60    0.99
   2  12  -4    3.76    2.67
   2  12  -3    8.45    3.80
   2  12  -2   16.97    5.53
   2  12  -1    9.60    4.31
   2  12   0    1.62    1.14
   2  12   1   -5.56    4.60
   2  12   2   -2.64    3.21
   2  12   3   -4.71    4.53
   2  12   4   -3.56    4.03
   2  13  -2    9.99    4.63
   2  13  -1    9.68    5.33
   2  13   0   11.31    5.64
   2  13   1    4.80    3.93
   2  13   2   -0.01    0.63
   3 -14  -1    0.08    0.78
   3 -13  -8    2.19    1.79
   3 -13  -7   -2.10    2.06
   3 -13  -6    1.23    1.28
   3 -13  -5    4.42    2.32
   3 -13  -5    4.19    2.77
   3 -13  -4    6.63    2.69
   3 -13  -4    6.77    2.81
   3 -13  -3   10.98    3.55
   3 -13  -3    6.16    3.04
   3 -13  -2    4.16    2.55
   3 -13  -2    2.83    1.52
   3 -13  -1    4.33    2.00
   3 -13  -1   42.33    8.41
   3 -13   0    0.64    1.17
   3 -13   0   -0.12    0.71
   3 -13   9   -0.32    1.42
   3 -12 -10    5.06    3.61
   3 -12  -9    7.42    3.96
   3 -12  -8    9.39    4.09
   3 -12  -7    3.84    2.20
   3 -12  -7    3.37    2.57
   3 -12  -6   -0.09    0.68
   3 -12  -6   -1.72    1.67
   3 -12  -5    2.77    1.72
   3 -12  -5    7.55    3.28
   3 -12  -4    4.99    2.40
   3 -12  -4    6.21    2.82
   3 -12  -3   20.28    4.76
   3 -12  -3   16.46    4.46
   3 -12  -2   34.69    6.23
   3 -12  -2   42.63    7.01
   3 -12  -1   25.23    4.73
   3 -12  -1   45.85    8.03
   3 -12   0   13.18    3.39
   3 -12   0   34.10    7.47
   3 -12   1    1.74    2.21
   3 -12   1    7.08    2.19
   3 -12   9   -0.11    1.87
   3 -11 -11    7.13    3.99
   3 -11 -10   10.32    4.65
   3 -11  -9   11.78    4.89
   3 -11  -8   20.87    5.93
   3 -11  -7    5.39    3.07
   3 -11  -6    0.68    0.71
   3 -11  -6    4.28    2.19
   3 -11  -5   -3.20    2.02
   3 -11  -5    0.15    1.18
   3 -11  -4    0.63    0.71
   3 -11  -4    1.31    1.27
   3 -11  -3   19.87    4.13
   3 -11  -3   18.44    4.36
   3 -11  -2   28.88    5.14
   3 -11  -2   31.90    5.56
   3 -11  -1   74.01    7.72
   3 -11  -1   92.73    9.78
   3 -11   0   56.24    6.32
   3 -11   0   87.93   11.58
   3 -11   1    5.39    3.27
   3 -11   1   32.92    4.54
   3 -11   2   24.62    3.81
   3 -11   9   -1.33    2.76
   3 -10 -12    0.61    1.31
   3 -10 -11   -1.22    1.18
   3 -10 -10    3.61    2.54
   3 -10  -9   11.00    4.10
   3 -10  -8    8.13    3.82
   3 -10  -7   20.51    4.97
   3 -10  -6    9.28    3.14
   3 -10  -5    2.61    2.36
   3 -10  -5    5.94    2.73
   3 -10  -4   -0.57    1.01
   3 -10  -4    0.28    0.65
   3 -10  -3   -2.86    1.51
   3 -10  -3   -0.16    0.74
   3 -10  -2   35.42    5.37
   3 -10  -2   38.75    5.48
   3 -10  -1   39.07    5.19
   3 -10  -1   43.58    6.24
   3 -10   0   64.05    6.57
   3 -10   0   83.51    9.41
   3 -10   1   42.07    4.78
   3 -10   1   53.23    9.05
   3 -10   2   35.36    4.06
   3  -9 -13    5.83    3.55
   3  -9 -12    8.83    3.69
   3  -9 -11   -1.30    2.00
   3  -9 -10    1.80    2.12
   3  -9  -9    3.26    2.08
   3  -9  -8   10.61    3.95
   3  -9  -7   30.91    5.96
   3  -9  -6   31.56    5.84
   3  -9  -5   39.54    6.79
   3  -9  -4   28.95    5.66
   3  -9  -4   15.37    4.53
   3  -9  -3   11.35    2.69
   3  -9  -3   12.59    3.24
   3  -9  -2    2.73    1.60
   3  -9  -2    3.33    1.46
   3  -9  -1   25.17    4.11
   3  -9  -1   29.83    4.72
   3  -9   0   43.11    4.92
   3  -9   0   52.50    6.47
   3  -9   1   55.38    5.14
   3  -9   1   63.57   10.32
   3  -9   2    2.81    2.52
   3  -9   2   45.22    4.24
   3  -9   3   27.09    3.07
   3  -9  12   -5.36    4.68
   3  -8 -14    6.41    3.48
   3  -8 -13   13.26    4.93
   3  -8 -12   14.35    4.92
   3  -8 -11    8.08    3.68
   3  -8 -10   -0.63    1.70
   3  -8  -9   -1.14    0.96
   3  -8  -8    3.78    1.75
   3  -8  -7   45.57    7.17
   3  -8  -6   99.02   10.47
   3  -8  -5  102.46    9.88
   3  -8  -4  156.03   11.74
   3  -8  -3   81.81    8.04
   3  -8  -3   77.01    7.35
   3  -8  -2   11.64    2.94
   3  -8  -2   17.32    3.30
   3  -8  -1   29.00    3.96
   3  -8  -1   30.87    4.54
   3  -8   0   30.16    3.85
   3  -8   0   36.15    4.90
   3  -8   1   67.99    5.23
   3  -8   1  126.29   10.74
   3  -8   2    3.05    3.58
   3  -8   2   89.31    5.25
   3  -8   3  104.38    5.23
   3  -8  10   16.73    4.49
   3  -7 -15    1.50    0.65
   3  -7 -14    2.10    2.37
   3  -7 -13   13.64    4.79
   3  -7 -12   19.26    5.28
   3  -7 -11    7.99    3.85
   3  -7 -10   16.59    4.87
   3  -7  -9   12.22    3.73
   3  -7  -8    1.34    1.09
   3  -7  -7   10.68    3.39
   3  -7  -6   81.94    9.03
   3  -7  -5  181.59   12.59
   3  -7  -4  254.97   13.93
   3  -7  -3  178.95   11.07
   3  -7  -2   98.20    7.66
   3  -7  -2   92.82    7.66
   3  -7  -1    1.33    0.72
   3  -7  -1    1.12    0.90
   3  -7   0    2.02    1.08
   3  -7   0    2.73    0.95
   3  -7   1   44.24    3.81
   3  -7   1   70.55    7.83
   3  -7   2    7.18    3.12
   3  -7   2  124.67    5.29
   3  -7   9   29.06    5.50
   3  -7  10   27.37    6.03
   3  -7  11   -6.03    4.39
   3  -6 -16    4.41    3.01
   3  -6 -15    1.75    1.81
   3  -6 -14    0.43    0.50
   3  -6 -13    3.55    2.42
   3  -6 -12    8.23    3.50
   3  -6 -11   30.89    6.19
   3  -6 -10   12.61    3.74
   3  -6  -9   47.21    7.44
   3  -6  -8   38.80    6.23
   3  -6  -7    0.31    0.77
   3  -6  -6   21.82    4.36
   3  -6  -5   36.10    5.20
   3  -6  -4  135.26    9.53
   3  -6  -3  184.51   10.27
   3  -6  -2   94.41    7.24
   3  -6  -2   96.43    7.00
   3  -6  -1   52.26    4.59
   3  -6  -1   54.01    5.23
   3  -6   0   10.92    2.42
   3  -6   0   10.64    1.81
   3  -6   1    9.17    1.49
   3  -6   1    6.39    3.35
   3  -6   2    2.53    2.20
   3  -6   2   42.83    2.49
   3  -6   8    0.86    1.03
   3  -6   9    9.47    3.22
   3  -6  10    5.75    2.99
   3  -6  12   -3.72    4.70
   3  -6  14   -2.63    4.53
   3  -5 -16    3.02    2.61
   3  -5 -15    1.36    1.95
   3  -5 -14    3.09    2.03
   3  -5 -13    1.65    1.57
   3  -5 -12    5.22    2.75
   3  -5 -11   19.26    5.01
   3  -5 -10   66.90    8.76
   3  -5  -9  103.16   10.42
   3  -5  -8  122.74   10.76
   3  -5  -7   26.03    4.62
   3  -5  -6   -0.38    1.21
   3  -5  -5   12.41    2.81
   3  -5  -4   32.01    4.26
   3  -5  -3  153.31    8.83
   3  -5  -2   87.50    6.10
   3  -5  -1   77.17    5.15
   3  -5  -1   78.27    5.94
   3  -5   0   61.50    3.98
   3  -5   0   69.30    5.63
   3  -5   1  153.31    5.20
   3  -5   1  130.21    9.17
   3  -5   2    0.61    1.23
   3  -5   7   59.92    6.77
   3  -5   8   18.87    4.26
   3  -5   9   -0.84    1.54
   3  -5  10    0.18    1.38
   3  -5  10  -10.82    6.08
   3  -5  11    6.27    3.68
   3  -5  14   28.72   17.51
   3  -4 -16    7.32    3.66
   3  -4 -15    8.67    3.63
   3  -4 -14    4.55    2.27
   3  -4 -13   -1.13    1.56
   3  -4 -12    1.58    1.70
   3  -4 -11   17.57    4.50
   3  -4 -10   74.32    8.99
   3  -4  -9  173.42   13.05
   3  -4  -9  152.38    8.96
   3  -4  -8  253.68   15.12
   3  -4  -8  222.17   10.04
   3  -4  -7  128.50   10.00
   3  -4  -7  116.61    6.60
   3  -4  -6   29.24    2.88
   3  -4  -6   25.55    4.02
   3  -4  -5   -0.07    0.32
   3  -4  -5    0.57    0.63
   3  -4  -4    5.14    0.95
   3  -4  -4    4.95    1.45
   3  -4  -3  114.07    7.18
   3  -4  -2  387.70   12.11
   3  -4  -1  415.03   11.14
   3  -4  -1  430.45   13.17
   3  -4   0  309.13    8.07
   3  -4   0  316.91   11.29
   3  -4   1  276.58    5.54
   3  -4   1  262.92   13.22
   3  -4   6   95.54    8.26
   3  -4   7  117.72    9.85
   3  -4   8   27.51    5.30
   3  -4   9   21.19    5.30
   3  -4   9  -12.28    6.23
   3  -4  10   11.78    4.73
   3  -4  11    0.34    2.46
   3  -4  13   25.69   14.68
   3  -3 -17    1.65    1.67
   3  -3 -16    4.31    2.65
   3  -3 -15    7.90    3.47
   3  -3 -14   22.61    5.61
   3  -3 -13   22.84    5.42
   3  -3 -12    4.13    2.03
   3  -3 -12    1.84    0.25
   3  -3 -11    1.23    1.39
   3  -3 -11   -0.66    1.84
   3  -3 -10   35.93    6.05
   3  -3 -10   28.55    4.39
   3  -3  -9  120.99   10.50
   3  -3  -9  108.62    8.38
   3  -3  -8  242.42   11.23
   3  -3  -8  266.12   14.68
   3  -3  -7  146.57    7.88
   3  -3  -7  159.74   10.69
   3  -3  -6   78.35    4.88
   3  -3  -6   86.86    7.38
   3  -3  -5   95.50    5.18
   3  -3  -5  103.55    7.48
   3  -3  -4    3.64    0.92
   3  -3  -4    5.77    1.66
   3  -3  -3   19.14    2.82
   3  -3  -2  193.03    8.02
   3  -3  -1  456.32   10.97
   3  -3  -1  488.20   12.90
   3  -3   0  834.86   12.45
   3  -3   0  898.45   17.16
   3  -3   1  599.96   17.58
   3  -3   1  689.86    8.69
   3  -3   4    4.66    1.57
   3  -3   5   22.29    3.85
   3  -3   6   46.48    5.97
   3  -3   7  150.50   11.69
   3  -3   8  137.78   12.55
   3  -3   8   -5.22    5.21
   3  -3   9   66.88    9.52
   3  -3  10   45.55    8.49
   3  -3  11    9.81    3.34
   3  -3  12   15.94   11.65
   3  -2 -17    0.39    1.25
   3  -2 -16    0.94    1.07
   3  -2 -15    6.94    3.23
   3  -2 -14   24.81    5.67
   3  -2 -13   49.60    7.67
   3  -2 -13   44.89    7.08
   3  -2 -12   30.83    5.84
   3  -2 -12   25.02    4.78
   3  -2 -11    3.29    0.88
   3  -2 -11    4.88    2.33
   3  -2 -10    1.04    0.98
   3  -2 -10    0.10    0.71
   3  -2  -9   12.88    3.15
   3  -2  -9   11.20    3.01
   3  -2  -8   48.25    5.39
   3  -2  -8   52.88    6.24
   3  -2  -7  142.85    7.90
   3  -2  -7  144.44    9.95
   3  -2  -6   61.04    4.83
   3  -2  -6   66.95    6.28
   3  -2  -5  281.64   10.00
   3  -2  -5  276.86   11.52
   3  -2  -4  249.38    9.07
   3  -2  -1  126.72    6.08
   3  -2   0  405.68   10.75
   3  -2   1    0.60    1.12
   3  -2   2  313.96   12.01
   3  -2   3  119.41    7.91
   3  -2   4   26.08    3.88
   3  -2   5   13.16    3.02
   3  -2   6    8.99    2.69
   3  -2   7   78.19    8.66
   3  -2   8  121.49   11.94
   3  -2   8   -4.59    4.89
   3  -2   9   92.02   11.27
   3  -2  10   71.12   10.53
   3  -2  10    4.89    5.38
   3  -2  11   22.77   11.51
   3  -2  11   31.76    7.41
   3  -2  13  -35.59   22.03
   3  -1 -17   -1.79    1.31
   3  -1 -16   -0.24    0.64
   3  -1 -15    4.12    2.39
   3  -1 -15    3.64    2.14
   3  -1 -14   33.36    6.55
   3  -1 -14   32.34    6.73
   3  -1 -13   46.78    7.36
   3  -1 -13   41.72    6.93
   3  -1 -12   58.07    7.76
   3  -1 -12   56.26    7.68
   3  -1 -11   30.86    5.59
   3  -1 -11   29.52    5.21
   3  -1 -10   18.68    4.16
   3  -1 -10   16.43    3.65
   3  -1  -9    3.61    2.35
   3  -1  -9   -0.41    0.83
   3  -1  -8    9.29    2.56
   3  -1  -8    7.91    2.30
   3  -1  -7   40.96    4.57
   3  -1  -7   35.16    4.88
   3  -1  -6   50.95    4.67
   3  -1  -5  231.61    9.94
   3  -1  -4  571.05   15.06
   3  -1  -1    4.65    1.11
   3  -1   0    8.67    1.80
   3  -1   0   11.41    1.66
   3  -1   1  202.85    9.73
   3  -1   2  225.12   10.83
   3  -1   3   92.49    7.33
   3  -1   4   44.34    5.50
   3  -1   5   88.85    8.36
   3  -1   6   12.83    2.87
   3  -1   7    2.19    1.00
   3  -1   8   42.28    7.01
   3  -1   9   45.73    8.23
   3  -1   9    9.06    6.53
   3  -1  10   55.43    8.94
   3  -1  11   37.85    8.03
   3  -1  12    6.54    3.31
   3  -1  12  -37.02   13.71
   3   0 -17    0.27    0.97
   3   0 -16   -0.46    0.85
   3   0 -15    2.68    2.57
   3   0 -15    1.40    2.08
   3   0 -14   16.79    4.34
   3   0 -14   19.33    4.79
   3   0 -13   59.27    8.01
   3   0 -13   52.60    8.14
   3   0 -12   48.32    7.21
   3   0 -12   53.01    7.06
   3   0 -11   51.78    7.19
   3   0 -11   48.15    6.68
   3   0 -10   59.35    7.33
   3   0 -10   40.12    6.02
   3   0  -9   27.71    4.61
   3   0  -9   21.15    4.25
   3   0  -8    2.10    1.64
   3   0  -7   45.19    5.02
   3   0  -7   34.93    2.00
   3   0  -6  220.21   10.90
   3   0  -6  201.92    5.87
   3   0  -5  314.57   12.41
   3   0  -5  287.14    7.91
   3   0  -4  708.52   18.25
   3   0  -4  704.88   13.72
   3   0  -3  369.95   10.60
   3   0  -2  157.22    7.59
   3   0  -1    0.67    0.41
   3   0  -1    1.56    0.78
   3   0   0    0.05    0.48
   3   0   0    0.11    0.65
   3   0   1   57.05    5.57
   3   0   2  128.18    8.81
   3   0   3  122.83    9.16
   3   0   4  123.98    9.86
   3   0   5  199.26   13.19
   3   0   6   68.21    7.93
   3   0   7    0.63    0.83
   3   0   7    9.98    5.77
   3   0   8   10.59    3.45
   3   0   9   14.18    4.58
   3   0  10   23.09    6.20
   3   0  10  -22.08    8.65
   3   0  11   17.26    4.88
   3   0  12    9.44    3.99
   3   0  12    9.66    8.60
   3   1 -17    5.45    2.63
   3   1 -16    4.43    2.93
   3   1 -16    3.09    2.31
   3   1 -15   -3.06    2.94
   3   1 -15    0.05    1.00
   3   1 -14   -1.42    2.26
   3   1 -14    0.45    0.14
   3   1 -13   20.41    5.21
   3   1 -13   17.51    4.35
   3   1 -12   31.48    6.09
   3   1 -12   28.03    5.37
   3   1 -11   56.79    7.85
   3   1 -11   45.36    6.56
   3   1 -10   79.02    8.62
   3   1  -9  121.55   10.00
   3   1  -8   23.27    4.13
   3   1  -7   -1.44    1.63
   3   1  -6   61.75    3.38
   3   1  -6   67.53    6.53
   3   1  -5  250.35   11.73
   3   1  -5  257.71    8.39
   3   1  -4  872.95   21.11
   3   1  -4  869.53   17.08
   3   1  -3  508.76   14.16
   3   1  -2  283.17   11.29
   3   1  -1  141.59    8.38
   3   1  -1   78.22    2.77
   3   1   0   16.23    2.73
   3   1   1   -0.90    1.67
   3   1   1   -0.89    0.83
   3   1   2  132.75    9.61
   3   1   3  193.98   12.22
   3   1   3    3.68    2.35
   3   1   4  205.74   13.20
   3   1   4   14.79    5.22
   3   1   5  174.09   12.72
   3   1   6  223.44   15.00
   3   1   7   21.53    5.24
   3   1   8    3.40    2.61
   3   1   9    3.77    1.57
   3   1   9    0.44    2.55
   3   1  10    4.48    2.00
   3   1  10    1.65    4.97
   3   1  11   17.08    5.58
   3   1  12    5.21    2.62
   3   2 -16    7.19    2.82
   3   2 -16   12.16    4.19
   3   2 -15    5.28    1.99
   3   2 -15    9.03    3.39
   3   2 -14    2.53    1.83
   3   2 -14    3.25    1.44
   3   2 -13    0.65    0.65
   3   2 -13   -0.15    0.51
   3   2 -12    3.86    2.45
   3   2 -12    4.89    2.21
   3   2 -11   22.68    5.20
   3   2 -10   58.31    7.89
   3   2  -9  148.01   11.21
   3   2  -8  143.92   10.52
   3   2  -7   45.90    5.62
   3   2  -6   25.93    4.33
   3   2  -6   17.21    2.08
   3   2  -5   14.58    3.15
   3   2  -5   11.60    1.80
   3   2  -4  111.09    7.12
   3   2  -4  102.81    7.66
   3   2  -3  307.15   12.37
   3   2  -2  131.39    8.60
   3   2  -1  219.48   11.59
   3   2   0  204.94   11.67
   3   2   1   72.50    7.29
   3   2   2    1.36    0.95
   3   2   2    4.21    2.16
   3   2   3   24.32    4.69
   3   2   3   27.31    4.77
   3   2   4  113.86   10.18
   3   2   4   92.52   10.76
   3   2   5  215.78   15.10
   3   2   5  180.68   17.21
   3   2   6  117.54   11.93
   3   2   6   94.68   13.93
   3   2   7   59.11    8.40
   3   2   7   55.60   11.16
   3   2   8    6.04    1.66
   3   2   8    8.28    5.38
   3   2   9   -1.42    2.10
   3   2   9    4.00    5.21
   3   2  10   -1.88    1.93
   3   2  11    0.25    1.31
   3   3 -17    4.20    1.98
   3   3 -16    5.45    2.67
   3   3 -16    8.47    3.30
   3   3 -15   11.93    4.36
   3   3 -15   12.75    4.11
   3   3 -14    7.69    3.15
   3   3 -14    7.76    2.69
   3   3 -13    5.71    3.28
   3   3 -13    4.52    2.54
   3   3 -12    4.01    3.03
   3   3 -11    2.75    2.66
   3   3 -10   85.31    9.59
   3   3  -9   88.90    9.15
   3   3  -8  155.28   11.45
   3   3  -7   97.58    8.72
   3   3  -6   84.32    8.05
   3   3  -6   69.07    4.69
   3   3  -5   19.71    3.79
   3   3  -5   20.17    3.06
   3   3  -4    0.87    0.05
   3   3  -4    0.33    0.84
   3   3  -3   50.14    5.33
   3   3  -3   54.27    5.80
   3   3  -2   21.64    3.54
   3   3  -1  115.96    9.40
   3   3   0  144.58   10.82
   3   3   1  205.03   13.44
   3   3   2   40.52    5.91
   3   3   3   -4.23    3.91
   3   3   4    3.82    1.74
   3   3   4    7.50    2.00
   3   3   5   32.38    4.73
   3   3   5   27.61    5.09
   3   3   6   69.23    7.75
   3   3   6   66.66    9.06
   3   3   7   31.71    6.76
   3   3   7   31.39    5.85
   3   3   8   14.24    4.58
   3   3   9   14.57    5.12
   3   3  10    2.56    1.97
   3   3  11    1.11    1.57
   3   4 -17   -2.36    3.64
   3   4 -16    3.90    2.07
   3   4 -16    6.96    3.46
   3   4 -15   17.14    5.51
   3   4 -15   19.43    5.14
   3   4 -14   17.89    5.62
   3   4 -14   17.04    5.04
   3   4 -13   17.77    5.56
   3   4 -12    8.11    4.13
   3   4 -11   -0.61    1.51
   3   4 -10   31.43    6.26
   3   4  -9   95.25    9.98
   3   4  -8  145.80   11.50
   3   4  -7  113.49    9.66
   3   4  -7   99.65    5.39
   3   4  -6   87.28    8.52
   3   4  -6   80.70    5.68
   3   4  -5   47.72    6.06
   3   4  -5   44.96    4.81
   3   4  -4    2.72    1.53
   3   4  -4    1.50    0.44
   3   4  -3    5.46    2.60
   3   4  -3    4.31    1.14
   3   4  -2   33.31    5.27
   3   4  -1  101.06    9.56
   3   4   0  214.92   14.59
   3   4   1  153.76   12.33
   3   4   2   79.71    9.13
   3   4   3   11.19    3.39
   3   4   4    2.07    0.49
   3   4   5    3.98    1.67
   3   4   6   19.37    5.11
   3   4   7   17.87    5.77
   3   4   8   12.80    4.45
   3   4   9   18.95    5.90
   3   4  10    8.55    4.52
   3   4  11    3.47    2.93
   3   5 -17   -4.52    4.38
   3   5 -16   -3.08    2.97
   3   5 -15   10.31    4.56
   3   5 -15    6.99    3.40
   3   5 -14   22.51    6.52
   3   5 -13   33.22    7.58
   3   5 -12   25.55    6.65
   3   5 -11    6.30    2.64
   3   5 -10    1.59    0.42
   3   5  -9   47.68    7.26
   3   5  -8   57.73    7.50
   3   5  -7  109.73    9.94
   3   5  -7   98.17    6.21
   3   5  -6   93.86    8.99
   3   5  -6   87.07    6.48
   3   5  -5  125.92   10.12
   3   5  -5  129.71    9.03
   3   5  -4   20.04    3.83
   3   5  -4   18.79    3.97
   3   5  -3    6.95    2.67
   3   5  -3    5.76    1.62
   3   5  -2   25.30    3.87
   3   5  -2   34.13    6.05
   3   5  -1   44.42    7.16
   3   5   0  227.96   16.49
   3   5   1  179.11   15.13
   3   5   2  145.31   13.49
   3   5   3   26.82    5.75
   3   5   4   18.54    5.28
   3   5   5    0.13    1.42
   3   5   6    3.08    1.55
   3   5   7   13.30    4.88
   3   5   8   19.68    6.21
   3   5   9   17.02    5.71
   3   5  10   16.31    6.22
   3   6 -17   -4.85    4.28
   3   6 -16   -4.15    3.91
   3   6 -15    1.44    2.13
   3   6 -14   15.34    5.98
   3   6 -13   20.90    6.33
   3   6 -12   42.68    8.71
   3   6 -11   25.64    6.11
   3   6 -10   21.20    5.33
   3   6  -9    0.80    0.75
   3   6  -8    2.07    0.91
   3   6  -7   30.65    5.30
   3   6  -7   30.46    3.86
   3   6  -6   34.87    5.53
   3   6  -6   33.84    4.41
   3   6  -5  109.73    9.85
   3   6  -5  109.85    8.71
   3   6  -4  112.62    9.63
   3   6  -4  122.81   10.33
   3   6  -3   25.14    4.38
   3   6  -3   34.05    6.40
   3   6  -2   20.18    3.85
   3   6  -2   20.63    4.96
   3   6  -1    5.11    2.92
   3   6  -1    1.54    0.72
   3   6   0   47.05    7.88
   3   6   1  108.57   12.02
   3   6   2   53.61    9.04
   3   6   3   57.18    9.67
   3   6   4   26.01    6.69
   3   6   5   19.85    5.75
   3   6   6    2.96    2.73
   3   6   7    1.92    2.82
   3   6   8    3.94    2.30
   3   6   9   14.07    5.70
   3   6  10   14.62    6.62
   3   7 -17   -6.06    4.52
   3   7 -16   -0.20    1.56
   3   7 -15   -1.92    1.96
   3   7 -14    6.81    4.14
   3   7 -13   11.40    5.00
   3   7 -12   30.79    7.62
   3   7 -11   28.29    6.93
   3   7 -10   29.24    6.46
   3   7  -9    7.13    2.96
   3   7  -8    3.59    1.80
   3   7  -7    1.10    1.18
   3   7  -7   -0.46    1.33
   3   7  -6    8.48    2.56
   3   7  -6    8.76    2.30
   3   7  -5   40.27    6.41
   3   7  -5   39.64    5.80
   3   7  -4   68.31    7.94
   3   7  -4   72.24    8.23
   3   7  -3   66.55    7.76
   3   7  -3   74.47    9.54
   3   7  -2   38.30    5.76
   3   7  -2   51.39    8.57
   3   7  -1    9.67    2.80
   3   7  -1   18.99    5.89
   3   7   0    0.35    1.02
   3   7   0    5.02    3.46
   3   7   1    6.20    2.83
   3   7   2   13.81    4.88
   3   7   3   17.14    5.41
   3   7   4   26.75    7.05
   3   7   5   25.45    7.16
   3   7   6    8.53    3.91
   3   7   7    2.43    3.28
   3   7   8   11.41    6.18
   3   7   9   12.70    6.07
   3   8 -16   -1.69    2.21
   3   8 -15    0.28    0.55
   3   8 -14    4.51    3.28
   3   8 -13    8.75    5.11
   3   8 -12   14.83    5.88
   3   8 -11   20.70    5.90
   3   8 -10   19.28    5.40
   3   8  -9   20.87    5.23
   3   8  -8    2.32    1.24
   3   8  -7    1.54    1.10
   3   8  -7    1.80    0.65
   3   8  -6    7.80    2.73
   3   8  -6    6.17    1.78
   3   8  -5   14.26    3.83
   3   8  -5   16.95    3.74
   3   8  -4   56.21    7.80
   3   8  -4   55.43    7.57
   3   8  -3   29.71    5.62
   3   8  -3   36.51    6.91
   3   8  -2   45.64    6.75
   3   8  -2   55.64    9.06
   3   8  -1   24.18    4.76
   3   8  -1   31.89    7.41
   3   8   0    5.34    2.21
   3   8   0    9.98    5.07
   3   8   1   -0.31    1.15
   3   8   1    2.31    3.47
   3   8   2   -0.95    1.38
   3   8   2    5.28    3.95
   3   8   3    9.37    5.46
   3   8   4   19.08    6.95
   3   8   5   24.85    7.98
   3   8   6   19.69    7.15
   3   8   7   11.40    6.25
   3   8   8    5.60    4.81
   3   9 -15    1.02    2.26
   3   9 -14    4.33    3.75
   3   9 -13    2.26    3.06
   3   9 -12   10.61    5.25
   3   9 -11   16.46    6.01
   3   9 -10   14.98    5.27
   3   9  -9   19.87    5.50
   3   9  -8    8.01    3.43
   3   9  -7    4.20    2.00
   3   9  -7    5.46    2.73
   3   9  -6    1.79    1.51
   3   9  -6   -0.60    0.72
   3   9  -5    8.48    2.96
   3   9  -5    6.68    2.47
   3   9  -4   27.82    5.49
   3   9  -4   32.12    6.22
   3   9  -3   29.25    6.04
   3   9  -3   28.50    6.21
   3   9  -2   31.44    5.94
   3   9  -2   33.15    7.73
   3   9  -1   30.31    5.87
   3   9  -1   35.97    8.47
   3   9   0    7.45    2.95
   3   9   0   11.05    4.32
   3   9   1    2.76    1.35
   3   9   1    2.58    2.50
   3   9   2    4.02    3.37
   3   9   3    5.60    4.02
   3   9   4   12.31    5.57
   3   9   5   13.39    5.95
   3   9   6   23.14    7.75
   3   9   7    8.04    5.09
   3  10 -14    5.06    3.80
   3  10 -13    2.94    3.26
   3  10 -12    6.43    4.23
   3  10 -11    8.77    4.82
   3  10 -10    3.30    2.72
   3  10  -9   13.84    5.10
   3  10  -8   20.09    6.01
   3  10  -7   12.76    4.23
   3  10  -6   10.64    3.36
   3  10  -6   10.58    3.66
   3  10  -5   -2.83    2.10
   3  10  -5    1.08    1.23
   3  10  -4    0.30    0.71
   3  10  -4   -0.98    1.92
   3  10  -3    4.58    2.36
   3  10  -3    6.65    2.81
   3  10  -2   14.51    4.46
   3  10  -2   12.86    4.48
   3  10  -1   23.18    6.81
   3  10   0   23.21    6.77
   3  10   1   11.73    5.33
   3  10   2    0.41    0.89
   3  10   3    2.99    2.53
   3  10   4    5.88    3.54
   3  10   5    9.75    5.07
   3  10   6    4.65    3.08
   3  11 -12    3.23    3.00
   3  11 -11    5.19    4.54
   3  11 -10    3.45    3.42
   3  11  -9    0.35    1.54
   3  11  -8    7.52    3.68
   3  11  -7   11.13    4.60
   3  11  -6   11.95    4.40
   3  11  -5    7.86    3.19
   3  11  -5    6.29    3.03
   3  11  -4    0.20    0.77
   3  11  -3   -4.71    3.61
   3  11  -2   -1.70    3.61
   3  11  -1    5.23    3.39
   3  11   0    5.94    3.58
   3  11   1    8.35    4.14
   3  11   2    3.80    2.45
   3  11   3    5.15    3.45
   3  11   4   -0.95    0.35
   3  12  -3    3.26    2.21
   3  12  -2   -3.91    3.35
   3  12  -1   -1.49    2.86
   3  12   0    3.90    2.61
   3  12   1    2.38    2.81
   3  12   2    2.60    0.74
   4 -14  -4   -2.05    1.89
   4 -14  -3   -0.37    0.89
   4 -14  -2   40.02    8.56
   4 -14  -1    6.15    3.58
   4 -14   0    1.97    2.20
   4 -13  -7   12.25    4.65
   4 -13  -6   12.30    3.97
   4 -13  -6   15.83    4.97
   4 -13  -5    7.14    3.35
   4 -13  -5    6.90    2.89
   4 -13  -4    1.09    1.02
   4 -13  -4    2.83    1.83
   4 -13  -3   -1.93    1.62
   4 -13  -3    1.33    1.25
   4 -13  -2    2.72    1.47
   4 -13  -1   58.82    9.63
   4 -13   0    2.14    2.46
   4 -13   9   -2.53    3.52
   4 -12 -10   -1.69    1.59
   4 -12  -9   -1.47    2.00
   4 -12  -8    1.05    1.76
   4 -12  -8    7.44    3.77
   4 -12  -7    6.21    4.01
   4 -12  -7   15.77    4.93
   4 -12  -6   16.39    4.28
   4 -12  -6   16.27    5.56
   4 -12  -5   24.12    5.12
   4 -12  -5   21.75    5.33
   4 -12  -4   16.13    4.12
   4 -12  -4   13.08    4.21
   4 -12  -3   -0.84    1.71
   4 -12  -3   -0.19    0.60
   4 -12  -2   -2.63    2.04
   4 -12  -2    0.10    0.45
   4 -12  -1   11.75    3.88
   4 -12  -1    7.88    2.41
   4 -12   0   40.85    8.14
   4 -12   1    1.45    2.15
   4 -12   9    1.27    2.46
   4 -11 -11    4.48    2.77
   4 -11 -10    4.00    2.80
   4 -11  -9    0.78    0.46
   4 -11  -8    0.53    0.95
   4 -11  -7   -0.07    2.20
   4 -11  -7    7.65    3.63
   4 -11  -6   16.41    4.27
   4 -11  -6   14.22    4.67
   4 -11  -5   12.74    3.62
   4 -11  -5   12.99    4.14
   4 -11  -4    9.66    4.03
   4 -11  -4   13.04    4.01
   4 -11  -3   14.64    4.01
   4 -11  -3   14.01    3.84
   4 -11  -2    0.84    0.22
   4 -11  -2   -0.74    1.02
   4 -11  -1   -0.02    0.34
   4 -11  -1   -0.23    0.81
   4 -11   0    3.23    1.34
   4 -11   0   42.40    7.64
   4 -11   1    4.29    2.91
   4 -11   9    0.95    1.89
   4 -10 -13    2.39    2.25
   4 -10 -12    6.30    3.38
   4 -10 -11   12.31    4.92
   4 -10 -10   12.76    4.30
   4 -10  -9   10.33    4.09
   4 -10  -8    0.82    1.01
   4 -10  -7    1.50    0.91
   4 -10  -6    4.97    2.49
   4 -10  -5    5.60    4.54
   4 -10  -5   22.31    4.78
   4 -10  -4   29.10    5.14
   4 -10  -4   25.13    4.67
   4 -10  -3   35.35    5.42
   4 -10  -3   34.90    5.38
   4 -10  -2   14.50    3.61
   4 -10  -2   15.25    3.36
   4 -10  -1   13.61    3.56
   4 -10  -1   10.61    2.63
   4 -10   0    0.98    1.22
   4 -10   0    0.58    0.30
   4 -10   1    8.62    5.04
   4  -9 -14   -1.41    1.40
   4  -9 -13    2.63    1.90
   4  -9 -12    9.85    4.61
   4  -9 -11   20.54    5.82
   4  -9 -10   33.32    7.72
   4  -9  -9   33.13    7.05
   4  -9  -8   10.16    4.07
   4  -9  -7    0.20    1.15
   4  -9  -6    1.73    0.42
   4  -9  -5   17.95    4.11
   4  -9  -4   52.09    6.93
   4  -9  -4   44.57    6.76
   4  -9  -3   90.95    8.33
   4  -9  -3   89.01    8.22
   4  -9  -2  116.83    8.79
   4  -9  -2  114.90    9.27
   4  -9  -1   74.72    6.41
   4  -9  -1   80.75    8.13
   4  -9   0   31.33    3.70
   4  -9   0   35.11    5.55
   4  -9   1    2.37    0.99
   4  -9   1   34.17    7.20
   4  -9   2    0.73    1.57
   4  -9  12   -4.99    4.79
   4  -8 -15    0.87    0.78
   4  -8 -14    3.50    2.63
   4  -8 -13   -1.28    0.94
   4  -8 -12    7.72    3.82
   4  -8 -11   14.76    4.74
   4  -8 -10   30.04    6.74
   4  -8  -9   33.45    6.50
   4  -8  -8   25.35    5.56
   4  -8  -7    7.72    3.20
   4  -8  -6    8.12    3.03
   4  -8  -5    1.90    1.27
   4  -8  -4   32.32    5.10
   4  -8  -3  115.12    9.23
   4  -8  -3  119.73    9.19
   4  -8  -2  155.54    9.76
   4  -8  -2  155.99   10.53
   4  -8  -1  130.89    8.11
   4  -8  -1  141.66   10.03
   4  -8   0  223.46   13.22
   4  -8   0  169.76    8.23
   4  -8   1   85.45    9.33
   4  -8   1   34.18    3.20
   4  -8   2    0.88    1.49
   4  -8   9    5.66    2.41
   4  -8  10    0.43    0.53
   4  -8  13   -6.11    5.73
   4  -7 -15    9.99    4.42
   4  -7 -14    7.14    3.96
   4  -7 -13    4.51    2.98
   4  -7 -12    2.25    2.16
   4  -7 -11    3.18    1.73
   4  -7 -10    8.63    3.22
   4  -7  -9   29.92    5.99
   4  -7  -8   26.42    5.31
   4  -7  -7   55.25    7.34
   4  -7  -6   11.78    3.14
   4  -7  -5   50.86    6.34
   4  -7  -4    1.54    1.54
   4  -7  -3   34.94    4.58
   4  -7  -3   33.78    4.70
   4  -7  -2  114.14    7.81
   4  -7  -2  113.20    8.43
   4  -7  -1  126.24    7.50
   4  -7  -1  149.18    9.60
   4  -7   0  105.01    6.00
   4  -7   0  127.72    9.31
   4  -7   1   80.91    4.40
   4  -7   1  109.09   11.07
   4  -7   2    0.67    1.08
   4  -7   8   48.21    6.99
   4  -7   9   20.37    4.87
   4  -7  10    9.79    3.91
   4  -7  11   -8.61    6.42
   4  -6 -16    5.22    3.49
   4  -6 -15   11.70    4.61
   4  -6 -14   19.35    5.61
   4  -6 -13   12.44    4.62
   4  -6 -12    1.15    1.30
   4  -6 -11   -0.84    1.55
   4  -6 -10    0.93    0.64
   4  -6  -9   16.78    4.30
   4  -6  -8   37.83    6.32
   4  -6  -7   65.65    7.68
   4  -6  -6  140.59   10.78
   4  -6  -5  123.84    9.47
   4  -6  -4   32.07    4.51
   4  -6  -3    0.33    0.96
   4  -6  -2   24.77    3.43
   4  -6  -2   18.23    3.83
   4  -6  -1   49.66    4.35
   4  -6  -1   56.70    5.66
   4  -6   0   82.66    4.89
   4  -6   0  108.74    7.92
   4  -6   1  112.54    4.54
   4  -6   1  161.04   11.53
   4  -6   2    0.42    1.55
   4  -6   7   50.71    6.81
   4  -6   8   44.06    6.94
   4  -6   9   31.42    6.44
   4  -6  10   19.72    5.45
   4  -5 -16    2.37    1.59
   4  -5 -15   11.16    4.08
   4  -5 -14   19.98    5.87
   4  -5 -13   23.41    5.71
   4  -5 -12    9.37    3.30
   4  -5 -11   11.63    3.47
   4  -5 -10    0.50    1.04
   4  -5  -9    7.72    2.60
   4  -5  -8   74.74    8.56
   4  -5  -7  131.01   10.82
   4  -5  -6  258.49   14.38
   4  -5  -5  220.29    7.62
   4  -5  -5  231.16   12.69
   4  -5  -4  198.86   10.91
   4  -5  -3   11.42    2.34
   4  -5  -2    3.96    1.44
   4  -5  -2    3.93    1.17
   4  -5  -1   31.12    3.24
   4  -5  -1   31.95    3.99
   4  -5   0   66.67    4.04
   4  -5   0   76.25    6.38
   4  -5   1  280.26   13.53
   4  -5   6    2.20    1.20
   4  -5   7   40.59    6.27
   4  -5   8   36.94    6.57
   4  -5   9   24.78    5.95
   4  -5  10   31.76    7.61
   4  -5  11   17.17    5.51
   4  -5  11   -6.16    6.77
   4  -4 -17   -1.69    2.52
   4  -4 -16   -0.38    1.61
   4  -4 -15    3.52    2.06
   4  -4 -14   11.61    4.01
   4  -4 -13   16.27    4.61
   4  -4 -12   24.48    5.42
   4  -4 -11   29.56    5.63
   4  -4 -10   20.66    4.49
   4  -4  -9   16.69    3.04
   4  -4  -9   17.42    4.07
   4  -4  -8   20.58    3.09
   4  -4  -8   22.35    4.57
   4  -4  -7   72.73    5.17
   4  -4  -7   84.19    8.51
   4  -4  -6  216.43    8.70
   4  -4  -6  227.72   12.84
   4  -4  -5  375.11   11.62
   4  -4  -5  369.29   15.77
   4  -4  -4  570.55   18.27
   4  -4  -3    5.47    1.62
   4  -4  -2   47.71    4.39
   4  -4  -1    1.30    0.64
   4  -4  -1    1.72    0.70
   4  -4   0   35.85    2.93
   4  -4   0   39.71    4.29
   4  -4   1  165.37    4.94
   4  -4   1  165.95   12.32
   4  -4   5   91.04    8.32
   4  -4   6   10.60    3.10
   4  -4   6    0.27    0.90
   4  -4   7   12.85    3.75
   4  -4   8   14.89    3.98
   4  -4   9   36.18    7.84
   4  -4   9  -13.86    7.45
   4  -4  10   35.66    8.56
   4  -4  10   -8.95    6.29
   4  -4  11   28.28    7.93
   4  -4  12    8.78    8.59
   4  -3 -17    3.87    2.55
   4  -3 -16    0.61    0.93
   4  -3 -15   -0.07    1.05
   4  -3 -14   -0.60    1.12
   4  -3 -13   10.27    3.73
   4  -3 -12   11.14    2.90
   4  -3 -12   13.48    4.14
   4  -3 -11   48.73    6.26
   4  -3 -11   55.87    7.90
   4  -3 -10  109.79    8.59
   4  -3 -10  110.12   10.62
   4  -3  -9   42.22    5.09
   4  -3  -9   43.00    6.31
   4  -3  -8    9.98    2.28
   4  -3  -8   11.80    3.12
   4  -3  -7    2.88    0.61
   4  -3  -7    5.13    1.92
   4  -3  -6   33.69    4.09
   4  -3  -6   37.67    4.84
   4  -3  -5  145.53    7.82
   4  -3  -5  128.68    9.10
   4  -3  -4   49.14    5.05
   4  -3  -3  614.73   16.68
   4  -3  -1  133.10    7.17
   4  -3   0   15.76    2.97
   4  -3   1    0.52    1.27
   4  -3   3  122.20    9.03
   4  -3   4  233.26   13.08
   4  -3   5  172.97   11.77
   4  -3   6   35.78    5.75
   4  -3   7    1.14    1.25
   4  -3   8    0.73    1.21
   4  -3   9   -0.06    2.07
   4  -3   9   -3.97    4.96
   4  -3  10   23.46    6.55
   4  -3  11   45.32   10.04
   4  -3  11    7.72    7.62
   4  -3  12   28.57   14.71
   4  -2 -17    3.22    2.51
   4  -2 -16    2.51    1.94
   4  -2 -15    5.68    2.95
   4  -2 -14    1.09    1.12
   4  -2 -13    0.44    0.80
   4  -2 -13    3.42    2.10
   4  -2 -12   16.33    3.86
   4  -2 -12   17.44    4.32
   4  -2 -11   56.01    6.79
   4  -2 -11   53.47    7.41
   4  -2 -10  129.50    9.91
   4  -2 -10  125.10   10.90
   4  -2  -9  114.32    8.59
   4  -2  -9  110.03    9.81
   4  -2  -8   60.08    5.75
   4  -2  -8   61.85    6.82
   4  -2  -7    8.20    2.28
   4  -2  -7    5.51    1.74
   4  -2  -6    0.85    0.75
   4  -2  -5   28.60    3.83
   4  -2  -1  350.12   10.67
   4  -2   0  171.13    8.71
   4  -2   1   11.39    2.44
   4  -2   2   16.37    3.38
   4  -2   3   59.23    6.47
   4  -2   4   73.14    7.44
   4  -2   5  103.42    9.51
   4  -2   6   86.15    9.66
   4  -2   7    7.00    2.75
   4  -2   8    6.82    2.34
   4  -2   9    0.40    2.05
   4  -2  10    2.32    1.73
   4  -2  10    5.67    7.90
   4  -2  11  -30.21   11.71
   4  -2  11   14.85    5.69
   4  -1 -17    3.67    2.11
   4  -1 -16   10.44    4.23
   4  -1 -15    7.04    3.24
   4  -1 -14    0.43    1.08
   4  -1 -14    3.41    2.00
   4  -1 -13    1.03    1.28
   4  -1 -13   -0.69    0.71
   4  -1 -12   15.74    4.01
   4  -1 -12   10.62    3.61
   4  -1 -11   52.09    6.97
   4  -1 -11   43.98    6.70
   4  -1 -10  156.40   11.34
   4  -1 -10  154.63   11.37
   4  -1  -9  157.26   10.57
   4  -1  -9  132.51   10.83
   4  -1  -8   92.77    7.76
   4  -1  -7   44.32    5.33
   4  -1  -6   16.34    2.97
   4  -1  -5   -0.74    1.32
   4  -1  -3  170.57    8.93
   4  -1  -2  391.47   13.96
   4  -1  -1  432.48   10.73
   4  -1  -1  411.60   15.12
   4  -1   0  221.02   10.73
   4  -1   0  295.43   13.17
   4  -1   1   51.77    5.76
   4  -1   2    0.43    0.90
   4  -1   3   17.80    3.74
   4  -1   4   20.29    4.16
   4  -1   5   76.86    8.64
   4  -1   5   -1.95    3.69
   4  -1   6   57.79    8.17
   4  -1   7   46.65    7.78
   4  -1   8   25.32    6.02
   4  -1   8    4.84    4.34
   4  -1   9   21.78    5.73
   4  -1   9   10.78    7.20
   4  -1  10   -0.04    1.46
   4  -1  11    8.09    4.65
   4   0 -17    4.40    2.75
   4   0 -16    7.91    3.70
   4   0 -15   18.68    5.11
   4   0 -15   22.90    5.78
   4   0 -14   16.85    4.76
   4   0 -14   18.04    4.64
   4   0 -13   13.04    4.35
   4   0 -13    9.31    3.31
   4   0 -12    5.32    3.34
   4   0 -12    1.01    0.97
   4   0 -11   11.99    3.72
   4   0 -11    7.50    2.93
   4   0 -10   71.31    8.01
   4   0  -9  121.97    9.60
   4   0  -8   97.13    8.31
   4   0  -7  117.25    9.28
   4   0  -7  115.29    5.59
   4   0  -6  109.83    8.71
   4   0  -6  112.21    6.07
   4   0  -5   29.81    4.18
   4   0  -5   28.32    3.36
   4   0  -4   22.81    3.17
   4   0  -3  136.05    8.20
   4   0  -2  272.93   12.29
   4   0  -1  403.73    9.64
   4   0  -1  350.96   14.58
   4   0   0  771.83   22.70
   4   0   1  142.85   10.34
   4   0   2   32.94    5.03
   4   0   3   -1.97    2.49
   4   0   4    0.53    1.79
   4   0   5   55.17    7.60
   4   0   6   59.04    8.31
   4   0   6    3.07    3.37
   4   0   7   69.24    9.67
   4   0   7   11.01    6.55
   4   0   8   60.93    9.54
   4   0   9   39.17    8.54
   4   0   9  -20.34    7.71
   4   0  10   11.15    4.86
   4   0  11   -3.76    2.49
   4   1 -17   -0.41    1.15
   4   1 -16    6.42    2.75
   4   1 -16    8.54    3.51
   4   1 -15   17.99    5.52
   4   1 -15   22.01    5.61
   4   1 -14   30.15    6.34
   4   1 -14   30.10    6.51
   4   1 -13   17.16    5.13
   4   1 -13   14.06    3.71
   4   1 -12   44.84    7.30
   4   1 -12   45.30    6.83
   4   1 -11    3.15    1.81
   4   1 -10    0.10    0.11
   4   1  -9   40.78    5.82
   4   1  -8   31.62    4.94
   4   1  -7  126.16    5.96
   4   1  -7  150.61   10.76
   4   1  -6  138.04    9.94
   4   1  -6  125.79    6.87
   4   1  -5  202.23   12.05
   4   1  -5  210.26    9.83
   4   1  -4   73.48    6.07
   4   1  -3   -0.02    1.04
   4   1  -2   36.75    4.67
   4   1  -1    0.67    1.42
   4   1  -1  228.59   12.82
   4   1   0  186.90   12.04
   4   1   1  190.46   12.68
   4   1   2   64.10    7.57
   4   1   3   64.66    7.98
   4   1   3    3.82    2.79
   4   1   4   14.83    3.77
   4   1   5    1.49    0.92
   4   1   6   52.16    7.81
   4   1   7   39.28    7.63
   4   1   8   47.66    8.72
   4   1   9   49.39    9.52
   4   1  10   12.81    4.28
   4   1  11   -3.21    3.73
   4   2 -17   -0.81    1.11
   4   2 -16    0.14    1.64
   4   2 -16   -0.42    0.55
   4   2 -15   12.38    4.74
   4   2 -15   15.31    4.38
   4   2 -14   34.72    7.46
   4   2 -14   32.29    6.67
   4   2 -13   46.99    8.43
   4   2 -13   48.12    7.86
   4   2 -12   15.19    4.25
   4   2 -11   27.73    5.69
   4   2 -10    6.90    2.59
   4   2  -9   -1.61    1.94
   4   2  -8    9.22    2.47
   4   2  -7   45.81    6.35
   4   2  -7   32.96    3.18
   4   2  -6  213.43    9.64
   4   2  -6  231.40   13.45
   4   2  -5  210.80   10.50
   4   2  -5  221.06   12.73
   4   2  -4  116.65    8.29
   4   2  -4  106.12    8.69
   4   2  -3   41.25    5.20
   4   2  -2   15.94    3.47
   4   2  -1    2.92    1.48
   4   2   0   50.63    6.63
   4   2   1   86.96    8.88
   4   2   2   47.29    6.78
   4   2   3   74.09    8.80
   4   2   4   57.88    8.28
   4   2   5   17.47    4.60
   4   2   6    4.07    3.53
   4   2   7    9.36    3.10
   4   2   8   20.52    4.92
   4   2   9   22.78    6.23
   4   2  10   15.43    5.08
   4   2  11    2.12    2.13
   4   3 -17   -3.39    3.28
   4   3 -17    1.58    2.00
   4   3 -16   -1.23    0.74
   4   3 -16    0.34    1.59
   4   3 -15   10.14    4.33
   4   3 -15    8.78    4.09
   4   3 -14   19.05    5.94
   4   3 -14   20.01    5.35
   4   3 -13   28.08    7.00
   4   3 -12   47.29    8.12
   4   3 -11   30.84    6.19
   4   3 -10   19.90    4.65
   4   3  -9   -1.68    1.90
   4   3  -8   12.03    2.81
   4   3  -7   41.02    6.21
   4   3  -7   26.21    3.14
   4   3  -6  178.38   12.09
   4   3  -6  150.19    8.76
   4   3  -5  176.63   11.82
   4   3  -5  168.38   10.14
   4   3  -4  174.51   11.39
   4   3  -4  176.09   11.25
   4   3  -3   60.12    6.74
   4   3  -2   32.69    5.64
   4   3  -1    3.55    2.58
   4   3   0   14.03    4.29
   4   3   1   30.47    6.13
   4   3   2   54.53    8.23
   4   3   3   80.47   10.18
   4   3   4   93.08   11.09
   4   3   5   21.91    4.86
   4   3   6    2.49    0.96
   4   3   7   -4.19    3.65
   4   3   8    0.46    2.10
   4   3   9    6.85    3.04
   4   3  10    5.96    3.50
   4   4 -17    1.61    2.15
   4   4 -16    1.73    2.07
   4   4 -16    0.13    0.67
   4   4 -15    0.14    1.23
   4   4 -15   -0.59    1.33
   4   4 -14    7.43    4.14
   4   4 -13   17.23    5.32
   4   4 -12   28.98    6.50
   4   4 -11   54.15    8.55
   4   4 -10   31.29    6.14
   4   4  -9   25.18    5.20
   4   4  -8   -1.65    2.54
   4   4  -7   13.75    3.91
   4   4  -7    9.51    2.21
   4   4  -6   83.59    8.76
   4   4  -6   71.76    6.43
   4   4  -5  153.93   11.39
   4   4  -5  155.54   10.54
   4   4  -4  155.46   11.15
   4   4  -4  171.31   12.05
   4   4  -3   69.84    7.32
   4   4  -3   79.13    8.59
   4   4  -2   49.66    7.10
   4   4  -1   33.13    5.65
   4   4   0   -1.14    2.56
   4   4   1   13.07    3.23
   4   4   2   42.89    7.06
   4   4   3   75.13   10.00
   4   4   4   71.10   10.13
   4   4   5   42.20    8.35
   4   4   6   11.71    4.13
   4   4   7    0.06    1.16
   4   4   8   -0.90    2.06
   4   4   9   -0.23    1.56
   4   4  10    5.32    3.36
   4   5 -17    6.44    3.82
   4   5 -16    9.15    5.07
   4   5 -16    6.97    3.84
   4   5 -15    5.49    3.99
   4   5 -14    7.16    4.30
   4   5 -13   -0.02    1.65
   4   5 -12    8.98    3.81
   4   5 -11   32.18    6.72
   4   5 -10   71.37    9.48
   4   5  -9   42.38    6.85
   4   5  -8   41.67    6.46
   4   5  -7   10.04    3.68
   4   5  -7    9.71    2.33
   4   5  -6    0.23    1.43
   4   5  -6    2.41    1.79
   4   5  -5   32.89    5.50
   4   5  -5   29.68    4.83
   4   5  -4   22.01    4.39
   4   5  -4   28.15    5.06
   4   5  -3   95.42    9.14
   4   5  -3  117.91   11.28
   4   5  -2   91.75   10.41
   4   5  -1   68.80    9.21
   4   5   0   28.21    6.04
   4   5   1    2.33    2.06
   4   5   2    6.84    3.57
   4   5   3   20.12    5.32
   4   5   4   49.09    8.92
   4   5   5   44.14    8.92
   4   5   6   17.64    5.78
   4   5   7    5.41    3.28
   4   5   8    4.23    3.53
   4   5   9    2.10    3.47
   4   6 -16    5.22    3.79
   4   6 -15   12.83    5.58
   4   6 -14    5.19    3.72
   4   6 -13    2.46    2.56
   4   6 -12    0.33    1.20
   4   6 -11   10.84    3.91
   4   6 -10   32.84    6.59
   4   6  -9   37.81    6.81
   4   6  -8   48.17    7.35
   4   6  -7   38.83    6.48
   4   6  -7   34.19    4.66
   4   6  -6   18.56    4.46
   4   6  -6   14.86    3.73
   4   6  -5    1.94    1.23
   4   6  -5    2.30    2.29
   4   6  -4    2.29    1.18
   4   6  -4    1.30    1.28
   4   6  -3   12.28    4.23
   4   6  -3    7.84    2.66
   4   6  -2   34.85    5.51
   4   6  -2   47.18    7.82
   4   6  -1   86.48   11.37
   4   6   0   51.52    9.08
   4   6   1   21.93    6.09
   4   6   2    6.88    3.40
   4   6   3    2.54    2.18
   4   6   4    6.58    3.47
   4   6   5   15.36    5.55
   4   6   6   12.53    4.86
   4   6   7   12.87    5.20
   4   6   8    5.83    3.89
   4   6   9    3.79    2.78
   4   7 -16    8.92    4.89
   4   7 -15    8.57    4.44
   4   7 -14    7.62    4.23
   4   7 -13    6.58    4.15
   4   7 -12    0.64    5.32
   4   7 -11    5.79    2.95
   4   7 -10   16.49    4.93
   4   7  -9   22.49    5.39
   4   7  -8   28.62    5.78
   4   7  -7   25.51    5.15
   4   7  -7   22.92    3.96
   4   7  -6   18.37    4.67
   4   7  -6   16.29    3.70
   4   7  -5    5.08    2.53
   4   7  -5    6.80    2.88
   4   7  -4   -0.35    0.60
   4   7  -4    2.66    2.43
   4   7  -3    3.25    1.89
   4   7  -3    6.04    3.60
   4   7  -2   25.11    4.99
   4   7  -2   29.72    7.03
   4   7  -1   33.62    5.84
   4   7  -1   46.29    8.53
   4   7   0   34.73    5.91
   4   7   0   47.01    8.87
   4   7   1   22.68    6.55
   4   7   2   14.58    4.88
   4   7   3    2.81    3.16
   4   7   4    0.16    0.94
   4   7   5    3.95    3.12
   4   7   6    6.68    3.94
   4   7   7    1.54    2.52
   4   7   8    6.65    4.72
   4   8 -15    6.16    4.26
   4   8 -14   14.97    6.25
   4   8 -13   10.26    5.13
   4   8 -12    3.22    2.25
   4   8 -11    1.52    1.77
   4   8 -10    3.67    2.41
   4   8  -9   11.29    3.69
   4   8  -8   11.89    4.03
   4   8  -7   30.27    6.15
   4   8  -6   15.86    4.23
   4   8  -6   15.24    3.89
   4   8  -5   11.61    4.11
   4   8  -5   10.05    3.27
   4   8  -4    2.19    2.20
   4   8  -4    1.51    1.99
   4   8  -3    0.87    0.93
   4   8  -3    2.16    2.79
   4   8  -2   10.94    3.50
   4   8  -2   17.43    6.09
   4   8  -1   23.62    5.07
   4   8  -1   37.52    8.42
   4   8   0   35.47    6.43
   4   8   0   42.04    9.32
   4   8   1   17.93    4.51
   4   8   1   31.03    8.08
   4   8   2   14.05    5.72
   4   8   3    9.85    5.01
   4   8   4    7.33    4.77
   4   8   5    4.91    4.47
   4   8   6    4.67    4.31
   4   8   7    7.57    4.63
   4   9 -14   11.12    5.33
   4   9 -13   10.38    5.22
   4   9 -12   10.60    4.42
   4   9 -11    2.26    2.05
   4   9 -10    5.46    3.13
   4   9  -9    0.50    0.71
   4   9  -8    1.42    1.64
   4   9  -7   14.43    4.40
   4   9  -6   15.30    4.46
   4   9  -6   13.43    3.65
   4   9  -5   14.11    4.15
   4   9  -5   17.30    4.71
   4   9  -4   14.70    4.50
   4   9  -4   14.13    4.58
   4   9  -3    5.69    2.87
   4   9  -3    7.28    3.63
   4   9  -2    1.51    1.93
   4   9  -2    1.74    2.71
   4   9  -1    3.75    1.90
   4   9  -1   13.83    5.86
   4   9   0    7.07    2.93
   4   9   0   10.57    4.96
   4   9   1   12.01    5.87
   4   9   2   17.63    6.89
   4   9   3   15.61    6.35
   4   9   4    6.56    4.98
   4   9   5    9.09    5.39
   4   9   6    5.21    4.80
   4  10 -13   10.97    5.38
   4  10 -12    3.82    3.65
   4  10 -11    8.63    4.20
   4  10 -10    3.76    2.65
   4  10  -9    3.99    2.57
   4  10  -8    1.70    1.73
   4  10  -7    0.30    1.05
   4  10  -6    9.46    3.84
   4  10  -5    9.19    3.26
   4  10  -5    5.87    2.64
   4  10  -4   15.47    4.69
   4  10  -4   15.54    5.00
   4  10  -3    8.90    3.82
   4  10  -3    9.13    3.86
   4  10  -2    8.58    3.97
   4  10  -1    0.77    0.82
   4  10   0    1.16    2.75
   4  10   1    3.29    3.08
   4  10   2    6.95    4.25
   4  10   3    7.17    5.06
   4  10   4    5.81    4.50
   4  11  -9    5.01    3.41
   4  11  -8   -0.90    1.83
   4  11  -7    1.45    1.94
   4  11  -3    6.04    2.86
   4  11  -2    4.12    2.34
   4  11  -1   -1.28    2.19
   4  11   0   -2.44    3.03
   4  11   1    0.54    1.16
   4  11   2    0.38    1.22
   5 -14  -5    8.00    3.77
   5 -14  -4   17.16    5.04
   5 -14  -3    9.53    3.77
   5 -14  -2   46.57    8.80
   5 -14  -1    6.58    3.85
   5 -14   0    2.00    2.01
   5 -13  -7   -1.30    1.80
   5 -13  -6    2.19    2.05
   5 -13  -5    6.83    2.81
   5 -13  -4   12.75    3.99
   5 -13  -3   30.78    6.06
   5 -13  -2   12.63    4.33
   5 -13  -1   55.39    9.40
   5 -13   0    2.99    2.66
   5 -12  -9    5.52    3.25
   5 -12  -9    6.71    3.57
   5 -12  -8    0.54    1.07
   5 -12  -8    0.78    0.41
   5 -12  -7    2.08    1.83
   5 -12  -7    2.59    1.93
   5 -12  -6   -2.23    1.94
   5 -12  -6   -0.10    1.03
   5 -12  -5   -1.54    1.79
   5 -12  -5   -0.34    1.13
   5 -12  -4   17.96    4.89
   5 -12  -4   12.32    4.03
   5 -12  -3   12.48    3.65
   5 -12  -2   24.03    5.42
   5 -12  -1   31.57    6.78
   5 -12   0   28.76    6.94
   5 -12   1    0.01    0.83
   5 -12   9   -0.47    1.34
   5 -11 -11   -0.93    1.33
   5 -11 -10    5.67    3.02
   5 -11  -9   10.65    4.21
   5 -11  -8   11.90    4.62
   5 -11  -7    4.43    4.81
   5 -11  -7   11.91    4.47
   5 -11  -6    5.89    3.37
   5 -11  -6   11.31    3.73
   5 -11  -5    0.04    0.49
   5 -11  -5   -0.26    0.75
   5 -11  -4    3.33    2.08
   5 -11  -4    3.13    1.75
   5 -11  -3   12.53    3.79
   5 -11  -3   14.80    3.37
   5 -11  -2   15.16    3.84
   5 -11  -2   11.60    2.84
   5 -11  -1   26.43    5.50
   5 -11   0   63.35    9.74
   5 -11   1    1.98    2.57
   5 -11   9    0.39    1.94
   5 -10 -13   -0.33    1.56
   5 -10 -12   -0.76    1.10
   5 -10 -11   -2.94    3.08
   5 -10 -10    4.11    2.22
   5 -10  -9   18.97    4.93
   5 -10  -8   31.42    7.11
   5 -10  -7   33.97    6.57
   5 -10  -6   40.83    7.27
   5 -10  -6   40.97    6.89
   5 -10  -5   11.93    3.53
   5 -10  -5   10.83    3.47
   5 -10  -4   -1.39    1.41
   5 -10  -4    0.14    0.99
   5 -10  -3   13.59    3.84
   5 -10  -3   14.97    3.39
   5 -10  -2   15.97    3.63
   5 -10  -2   11.47    2.87
   5 -10  -1   28.85    3.89
   5 -10  -1   36.41    6.31
   5 -10   0   81.09   10.25
   5 -10   1   12.16    4.95
   5  -9 -14    2.14    0.61
   5  -9 -13    1.52    1.00
   5  -9 -12    9.65    3.76
   5  -9 -11    2.54    2.59
   5  -9 -10    3.83    2.72
   5  -9  -9    8.77    3.67
   5  -9  -8   34.04    6.54
   5  -9  -7   54.34    8.11
   5  -9  -6   51.69    7.35
   5  -9  -5   31.22    5.61
   5  -9  -5   31.11    5.69
   5  -9  -4   11.55    3.13
   5  -9  -4    9.42    2.84
   5  -9  -3   -0.52    0.82
   5  -9  -3   -0.07    0.88
   5  -9  -2    2.92    1.85
   5  -9  -2    4.60    1.66
   5  -9  -1   24.94    3.68
   5  -9  -1   29.61    5.36
   5  -9   0   93.98   10.18
   5  -9   1   86.40   10.23
   5  -9   9   12.75    3.94
   5  -8 -15    3.30    2.93
   5  -8 -14    3.23    3.34
   5  -8 -13   12.66    4.83
   5  -8 -12    5.93    3.10
   5  -8 -11   21.39    6.03
   5  -8 -10    7.83    3.52
   5  -8  -9    1.97    1.24
   5  -8  -8    9.16    2.98
   5  -8  -7   15.75    3.99
   5  -8  -6   39.10    6.28
   5  -8  -5   47.00    6.49
   5  -8  -4   23.57    4.30
   5  -8  -4   24.89    4.33
   5  -8  -3   11.10    3.87
   5  -8  -3   24.85    4.11
   5  -8  -2    1.54    1.35
   5  -8  -2    2.11    0.66
   5  -8  -1    0.98    0.48
   5  -8  -1    0.02    0.41
   5  -8   0   49.22    7.01
   5  -8   1   93.23   10.24
   5  -8   8    6.99    2.86
   5  -8   8   -0.02    1.36
   5  -8   9   12.98    4.07
   5  -7 -15    1.24    1.74
   5  -7 -14    1.96    1.59
   5  -7 -13    8.47    3.99
   5  -7 -12   37.02    7.48
   5  -7 -11   38.30    7.39
   5  -7 -10   27.13    5.91
   5  -7  -9    0.47    1.23
   5  -7  -8    0.52    1.17
   5  -7  -7    7.50    2.57
   5  -7  -6   15.94    3.83
   5  -7  -5   65.11    7.26
   5  -7  -4   60.79    6.64
   5  -7  -3   67.42    6.41
   5  -7  -3   44.16    6.83
   5  -7  -2   57.72    5.43
   5  -7  -2   58.43    6.29
   5  -7  -1   31.48    3.58
   5  -7  -1   35.00    5.05
   5  -7   0    1.67    1.21
   5  -7   1   41.57    6.74
   5  -7   7   -1.49    1.87
   5  -7   8    1.63    1.35
   5  -7   9    4.54    2.50
   5  -7  10   15.59    5.19
   5  -7  11   -9.92    7.51
   5  -6 -16    1.11    1.43
   5  -6 -15   -2.12    2.67
   5  -6 -14    3.94    2.82
   5  -6 -13    8.93    3.80
   5  -6 -12   29.72    6.60
   5  -6 -11   51.03    8.80
   5  -6 -10   53.30    8.33
   5  -6  -9   19.45    4.74
   5  -6  -8    2.43    0.75
   5  -6  -7   -1.56    2.04
   5  -6  -6    9.39    2.70
   5  -6  -5   68.47    4.96
   5  -6  -5   77.77    7.89
   5  -6  -4  208.63   12.04
   5  -6  -3  180.33   10.35
   5  -6  -3  147.15   10.35
   5  -6  -2  153.97    8.67
   5  -6  -2  139.53    9.83
   5  -6  -1   79.24    5.42
   5  -6  -1   87.08    7.29
   5  -6   0    7.89    2.92
   5  -6   0   12.91    1.86
   5  -6   1   18.10    5.43
   5  -6   6   17.72    4.12
   5  -6   7   17.38    4.18
   5  -6   7    0.02    2.47
   5  -6   8    3.06    2.00
   5  -6   9    0.04    0.90
   5  -6  10   13.36    4.67
   5  -6  10   -3.83    6.61
   5  -5 -16    6.42    2.96
   5  -5 -15    3.97    2.49
   5  -5 -14   -0.31    1.09
   5  -5 -13   -0.37    1.65
   5  -5 -12   11.28    3.76
   5  -5 -11   36.04    6.86
   5  -5 -10   52.88    8.01
   5  -5  -9   34.81    6.36
   5  -5  -8   29.07    5.69
   5  -5  -7   23.76    3.22
   5  -5  -7   32.37    5.63
   5  -5  -6    0.23    0.57
   5  -5  -6    0.02    1.00
   5  -5  -5   24.25    4.35
   5  -5  -4  135.70    9.67
   5  -5  -3  248.13   12.09
   5  -5  -2  337.18   12.87
   5  -5  -2  319.12   13.34
   5  -5  -1  195.38    8.68
   5  -5  -1  201.77   10.72
   5  -5   0   76.87    4.62
   5  -5   0   84.72    7.41
   5  -5   1    0.77    1.69
   5  -5   5   99.44    9.41
   5  -5   6   81.55    9.03
   5  -5   7   31.83    5.89
   5  -5   8   21.06    5.47
   5  -5   9    3.53    2.85
   5  -5  10    0.24    1.86
   5  -4 -17    3.69    2.42
   5  -4 -16   10.04    4.23
   5  -4 -15    9.81    3.45
   5  -4 -14    2.81    0.87
   5  -4 -13    0.55    1.20
   5  -4 -12    0.95    1.67
   5  -4 -11    6.61    2.82
   5  -4 -10   18.36    3.45
   5  -4 -10   18.65    4.54
   5  -4  -9   50.46    5.31
   5  -4  -9   52.09    7.72
   5  -4  -8   48.90    5.01
   5  -4  -8   48.33    7.00
   5  -4  -7  118.04    8.01
   5  -4  -7  118.96   10.53
   5  -4  -6   74.61    6.37
   5  -4  -6   82.05    8.22
   5  -4  -5    1.26    0.24
   5  -4  -4   27.22    4.32
   5  -4  -3   76.06    6.70
   5  -4  -2  140.87    8.50
   5  -4  -2  117.49    7.99
   5  -4  -1  188.85    9.01
   5  -4  -1  183.40    9.67
   5  -4   0  123.29    8.47
   5  -4   0  109.86    6.10
   5  -4   1    1.43    2.51
   5  -4   3    1.84    0.37
   5  -4   4   21.88    4.37
   5  -4   5   64.35    7.67
   5  -4   6   83.69    9.31
   5  -4   7   63.33    8.82
   5  -4   8   43.85    8.18
   5  -4   9   14.80    5.25
   5  -4  10   -4.06    4.45
   5  -3 -17    2.41    2.06
   5  -3 -16   12.54    4.43
   5  -3 -15   10.09    3.81
   5  -3 -14   16.70    4.91
   5  -3 -13    5.96    3.02
   5  -3 -12    4.46    2.23
   5  -3 -12    1.60    1.50
   5  -3 -11    1.94    1.43
   5  -3 -11   -0.98    1.53
   5  -3 -10    8.06    2.36
   5  -3 -10    7.88    3.35
   5  -3  -9   31.04    4.38
   5  -3  -9   34.38    5.59
   5  -3  -8   83.80    7.39
   5  -3  -8   83.83    8.97
   5  -3  -7  160.18    9.87
   5  -3  -7  152.19   10.91
   5  -3  -6  205.66   11.11
   5  -3  -6  211.33   12.10
   5  -3  -2   15.64    2.59
   5  -3  -1  131.21    7.64
   5  -3   0  164.20    9.82
   5  -3   1   59.38    6.63
   5  -3   2   55.61    6.33
   5  -3   3   53.72    6.67
   5  -3   4    2.38    1.18
   5  -3   5   18.30    4.25
   5  -3   6   44.76    7.18
   5  -3   7   38.97    7.42
   5  -3   8   33.93    7.20
   5  -3   9   21.70    6.13
   5  -3  10    3.94    1.84
   5  -3  11    0.01    1.30
   5  -2 -17    2.31    1.67
   5  -2 -16    9.96    4.01
   5  -2 -15   13.87    4.86
   5  -2 -14   11.61    4.04
   5  -2 -13   19.57    5.01
   5  -2 -13   18.03    4.62
   5  -2 -12   15.98    4.39
   5  -2 -12   11.46    3.41
   5  -2 -11    7.03    2.55
   5  -2 -11    5.08    2.15
   5  -2 -10    7.00    2.30
   5  -2 -10    4.25    1.91
   5  -2  -9   34.66    4.88
   5  -2  -9   30.78    5.36
   5  -2  -8  130.30    9.84
   5  -2  -8  110.58    9.32
   5  -2  -7  174.06   10.95
   5  -2  -6  251.74   12.96
   5  -2  -2    1.51    1.08
   5  -2  -2    2.05    1.03
   5  -2  -1   42.86    5.40
   5  -2  -1   48.36    4.43
   5  -2   0    8.68    3.23
   5  -2   0  121.63    9.61
   5  -2   1  136.55   10.35
   5  -2   2  145.46   11.02
   5  -2   3  115.92   10.27
   5  -2   4   25.62    5.20
   5  -2   5    3.48    2.07
   5  -2   6   10.06    2.91
   5  -2   6   -2.21    4.11
   5  -2   7   13.74    3.91
   5  -2   8   19.99    5.46
   5  -2   9   28.03    7.50
   5  -2  10   13.52    5.47
   5  -2  11    2.25    2.59
   5  -1 -17    2.32    2.15
   5  -1 -16    0.97    0.86
   5  -1 -15    6.83    3.38
   5  -1 -14   12.08    4.27
   5  -1 -14   14.22    4.33
   5  -1 -13   23.43    5.54
   5  -1 -13   21.69    5.10
   5  -1 -12   34.31    6.18
   5  -1 -12   34.55    6.08
   5  -1 -11   41.03    6.51
   5  -1 -11   28.76    6.11
   5  -1 -10    4.62    1.94
   5  -1 -10    5.32    2.49
   5  -1  -9   -0.80    2.02
   5  -1  -8   53.39    6.67
   5  -1  -8   49.81    4.87
   5  -1  -7  160.64    9.14
   5  -1  -7  155.30   10.89
   5  -1  -6  256.47   11.93
   5  -1  -6  234.50   13.24
   5  -1  -5  155.79    9.77
   5  -1  -4   73.72    6.93
   5  -1  -3   61.64    6.24
   5  -1  -2    1.50    0.72
   5  -1  -2    1.18    0.50
   5  -1  -1   10.11    2.03
   5  -1  -1    8.25    2.50
   5  -1   0  149.83   10.91
   5  -1   1  171.22   12.38
   5  -1   2  184.85   13.34
   5  -1   3  153.39   12.70
   5  -1   4  124.56   11.68
   5  -1   5    2.67    0.91
   5  -1   6    0.01    2.05
   5  -1   7    4.16    2.03
   5  -1   8    7.19    3.62
   5  -1   9   27.47    7.86
   5  -1  10   15.35    5.88
   5  -1  11   13.65    6.41
   5   0 -17    1.49    1.82
   5   0 -16    0.03    0.89
   5   0 -15    1.18    2.25
   5   0 -15   -1.00    1.09
   5   0 -14    6.71    3.39
   5   0 -14    2.45    1.54
   5   0 -13   21.64    5.39
   5   0 -13   15.37    4.48
   5   0 -12   49.52    7.75
   5   0 -12   48.59    7.41
   5   0 -11   68.99    8.47
   5   0 -10   59.21    7.45
   5   0  -9   10.87    2.79
   5   0  -8    6.88    2.70
   5   0  -7   14.97    3.49
   5   0  -7   16.19    2.81
   5   0  -6   41.81    5.76
   5   0  -6   46.55    5.08
   5   0  -5  150.86    9.64
   5   0  -4   80.94    7.45
   5   0  -3  159.81   10.84
   5   0  -2  126.84   10.17
   5   0  -2  115.76    5.48
   5   0  -1    0.64    1.53
   5   0  -1   23.70    4.68
   5   0   0    9.65    3.06
   5   0   1   53.33    6.94
   5   0   2  128.87   11.74
   5   0   3  166.31   13.74
   5   0   4   59.16    8.44
   5   0   5   39.36    7.15
   5   0   6    2.80    0.94
   5   0   7   -1.00    2.24
   5   0   8    1.76    2.37
   5   0   9    9.70    5.13
   5   0  10   30.24    8.55
   5   1 -17    4.02    2.79
   5   1 -16    4.85    3.36
   5   1 -16    0.50    0.53
   5   1 -15    2.94    2.80
   5   1 -15    0.20    0.29
   5   1 -14    4.43    3.17
   5   1 -14   -0.39    1.41
   5   1 -13   10.18    4.11
   5   1 -13    5.66    3.44
   5   1 -12   62.07    8.76
   5   1 -11   52.87    7.91
   5   1 -10   74.62    8.92
   5   1  -9   42.08    6.42
   5   1  -8   28.22    5.28
   5   1  -7    5.55    1.48
   5   1  -7    4.46    2.17
   5   1  -6    1.71    0.17
   5   1  -6    2.14    0.73
   5   1  -5   33.87    4.71
   5   1  -5   35.28    4.67
   5   1  -4   52.14    6.11
   5   1  -3  137.21   10.39
   5   1  -2  177.03   12.38
   5   1  -1  125.89   10.83
   5   1   0   12.20    2.83
   5   1   1    0.20    1.86
   5   1   2    5.82    2.26
   5   1   3   34.63    6.32
   5   1   4   63.80    9.28
   5   1   5   30.58    6.60
   5   1   6   20.46    5.68
   5   1   7   16.92    5.12
   5   1   8    2.22    2.58
   5   1   9    3.25    1.88
   5   1  10   -0.84    3.02
   5   2 -17    9.35    4.68
   5   2 -16    6.18    3.85
   5   2 -16    4.16    3.56
   5   2 -15    8.32    4.37
   5   2 -15    3.65    2.69
   5   2 -14    3.97    3.50
   5   2 -14   -0.44    0.54
   5   2 -13    1.78    1.84
   5   2 -12   21.20    5.43
   5   2 -11   62.40    8.88
   5   2 -10   61.41    8.25
   5   2  -9   45.64    6.92
   5   2  -8   40.42    6.32
   5   2  -7   19.35    3.18
   5   2  -7   22.94    4.83
   5   2  -6    0.78    0.98
   5   2  -6    2.15    1.59
   5   2  -5    9.37    2.04
   5   2  -5   10.09    2.91
   5   2  -4   76.61    7.73
   5   2  -3  105.51    9.53
   5   2  -2  192.66   13.36
   5   2  -1   89.65    9.55
   5   2   0   52.25    7.31
   5   2   1    7.57    2.97
   5   2   2   -0.63    0.74
   5   2   3   11.40    3.84
   5   2   4   19.80    5.58
   5   2   5   26.58    6.36
   5   2   6   27.71    6.86
   5   2   7   24.55    6.56
   5   2   8    5.87    2.45
   5   2   9   -1.93    2.50
   5   2  10   -4.11    3.89
   5   3 -17    4.66    3.47
   5   3 -16   16.10    6.16
   5   3 -16   15.53    5.79
   5   3 -15   21.97    6.83
   5   3 -15   15.49    5.90
   5   3 -14    2.99    2.51
   5   3 -13    0.78    1.23
   5   3 -12    1.33    1.55
   5   3 -11   23.21    5.35
   5   3 -10   28.10    5.77
   5   3  -9   57.56    7.94
   5   3  -8   54.62    7.71
   5   3  -7   65.56    8.31
   5   3  -7   48.58    5.48
   5   3  -6    7.62    2.55
   5   3  -6    3.42    1.30
   5   3  -5   -1.92    2.58
   5   3  -5   -2.72    2.48
   5   3  -4   37.57    6.15
   5   3  -3   65.98    8.07
   5   3  -2  170.66   13.36
   5   3  -1  117.77   11.28
   5   3   0   64.88    8.73
   5   3   1   16.45    4.89
   5   3   2    9.67    4.09
   5   3   3    3.48    3.14
   5   3   4    5.43    2.50
   5   3   5   16.93    4.54
   5   3   6   23.63    6.32
   5   3   7   15.82    4.51
   5   3   8   14.56    5.10
   5   3   9   -1.26    3.14
   5   4 -16   11.26    5.20
   5   4 -16   14.10    5.41
   5   4 -15   22.72    7.39
   5   4 -14   19.98    6.27
   5   4 -13   10.63    4.16
   5   4 -12    7.02    2.57
   5   4 -11    0.14    0.97
   5   4 -10    1.28    1.33
   5   4  -9   22.49    4.82
   5   4  -8   47.26    7.43
   5   4  -7   87.11    9.70
   5   4  -7   66.85    6.43
   5   4  -6   81.03    9.11
   5   4  -6   71.82    7.71
   5   4  -5   13.20    3.32
   5   4  -5   10.03    2.94
   5   4  -4    8.07    3.01
   5   4  -4    7.65    2.19
   5   4  -3    9.07    2.76
   5   4  -2   27.77    5.39
   5   4  -1   62.41    8.76
   5   4   0   29.49    6.07
   5   4   1   47.79    8.04
   5   4   2   17.84    4.41
   5   4   3    7.35    2.06
   5   4   4   -1.20    2.18
   5   4   5    3.00    1.67
   5   4   6    6.87    3.47
   5   4   7   18.20    6.21
   5   4   8   11.01    4.70
   5   4   9    4.63    3.46
   5   5 -16    8.46    5.03
   5   5 -15   10.54    5.46
   5   5 -14   11.72    4.89
   5   5 -13   16.30    5.65
   5   5 -12   11.82    4.56
   5   5 -11    4.84    2.67
   5   5 -10   -0.58    1.58
   5   5  -9   -1.37    1.71
   5   5  -8   27.59    6.08
   5   5  -7   42.67    7.14
   5   5  -7   37.12    5.17
   5   5  -6   61.15    8.20
   5   5  -6   54.75    7.02
   5   5  -5   54.55    7.60
   5   5  -5   54.12    7.52
   5   5  -4   23.61    4.71
   5   5  -4   29.48    5.81
   5   5  -3   11.92    4.03
   5   5  -3    8.63    2.52
   5   5  -2   -0.96    1.70
   5   5  -1    8.58    3.27
   5   5   0   11.16    4.33
   5   5   1   16.46    5.14
   5   5   2   31.59    7.16
   5   5   3   25.78    6.67
   5   5   4    4.62    3.28
   5   5   5   -0.25    0.82
   5   5   6    0.71    0.44
   5   5   7    4.92    3.83
   5   5   8    7.45    4.47
   5   6 -16    6.32    4.16
   5   6 -15    9.71    5.28
   5   6 -14    4.29    3.29
   5   6 -13   17.29    5.78
   5   6 -12    6.15    2.90
   5   6 -11    6.84    3.25
   5   6 -10   -1.69    2.05
   5   6  -9   -2.59    2.70
   5   6  -8    9.55    3.65
   5   6  -7   20.37    4.94
   5   6  -7   15.91    3.68
   5   6  -6   44.08    7.15
   5   6  -6   42.12    6.56
   5   6  -5   24.99    5.26
   5   6  -5   25.91    5.36
   5   6  -4   30.51    5.85
   5   6  -4   35.81    6.92
   5   6  -3   19.35    5.09
   5   6  -3   10.58    3.49
   5   6  -2    0.65    1.74
   5   6  -2    0.06    1.70
   5   6  -1    2.32    1.78
   5   6   0    5.15    3.61
   5   6   1   14.33    5.05
   5   6   2   28.35    7.13
   5   6   3   23.84    6.53
   5   6   4    9.88    4.68
   5   6   5    2.65    2.16
   5   6   6   -1.47    0.21
   5   6   7    0.55    2.13
   5   7 -15    5.70    4.14
   5   7 -14    3.30    2.32
   5   7 -13    5.67    3.52
   5   7 -12   11.19    4.74
   5   7 -11   11.27    4.58
   5   7 -10    5.23    2.37
   5   7  -9    0.20    0.46
   5   7  -8   -1.92    2.57
   5   7  -7   11.47    4.09
   5   7  -6   21.20    5.08
   5   7  -6   21.37    4.87
   5   7  -5   23.56    5.43
   5   7  -5   23.79    5.88
   5   7  -4   21.87    5.12
   5   7  -4   23.28    5.98
   5   7  -3   20.99    5.08
   5   7  -3   22.35    6.44
   5   7  -2    7.23    3.47
   5   7  -2    2.49    1.45
   5   7  -1    1.61    2.58
   5   7  -1   -1.76    2.01
   5   7   0    5.68    3.64
   5   7   1    6.12    3.89
   5   7   2   16.07    5.92
   5   7   3   16.06    6.13
   5   7   4   14.15    6.15
   5   7   5    2.15    2.83
   5   7   6    2.97    3.63
   5   8 -15    7.18    4.77
   5   8 -14   -1.40    1.80
   5   8 -13    1.66    0.62
   5   8 -12    8.93    3.90
   5   8 -11    8.39    3.86
   5   8 -10   18.22    5.67
   5   8  -9    6.59    2.99
   5   8  -8    5.91    2.95
   5   8  -7   -2.34    2.18
   5   8  -6    1.58    2.24
   5   8  -5    9.93    3.83
   5   8  -5   11.25    3.99
   5   8  -4   13.10    4.32
   5   8  -4   14.92    5.16
   5   8  -3   21.08    5.53
   5   8  -3   25.64    7.33
   5   8  -2   16.12    4.74
   5   8  -2   20.40    6.58
   5   8  -1    4.34    2.16
   5   8  -1    9.30    4.80
   5   8   0   -2.52    2.68
   5   8   0    2.43    3.15
   5   8   1   -0.84    2.14
   5   8   1    2.66    2.55
   5   8   2    6.90    4.13
   5   8   3    9.13    5.57
   5   8   4    7.84    4.79
   5   8   5   10.48    5.64
   5   9 -13   -1.03    2.16
   5   9 -12    2.62    2.29
   5   9 -11    3.34    2.47
   5   9 -10    7.54    3.69
   5   9  -9   11.24    4.06
   5   9  -8    3.63    1.58
   5   9  -7    4.81    2.12
   5   9  -6    0.19    1.36
   5   9  -5    1.33    1.80
   5   9  -4    4.06    2.54
   5   9  -4    2.27    1.51
   5   9  -3    9.18    3.84
   5   9  -3   14.14    5.26
   5   9  -2    8.38    3.50
   5   9  -2   10.59    5.38
   5   9  -1   17.94    6.72
   5   9   0    9.21    4.90
   5   9   1    2.50    3.56
   5   9   2    4.55    3.76
   5   9   3    7.20    5.17
   5  10 -11    2.03    2.51
   5  10 -10    2.59    2.48
   5  10  -9    3.38    2.53
   5  10  -8    4.07    2.49
   5  10  -7    1.94    1.88
   5  10  -6    1.55    1.65
   5  10  -5   -1.08    1.59
   5  10  -2    9.44    4.66
   5  10  -1    6.13    4.11
   5  10   0    5.09    3.50
   6 -14  -5    3.77    2.69
   6 -14  -4   -1.19    1.53
   6 -14  -3    1.84    2.08
   6 -14  -2   64.17   10.54
   6 -14  -1    7.13    3.97
   6 -14   0    0.84    1.52
   6 -13  -8    1.19    2.47
   6 -13  -7    4.13    2.83
   6 -13  -6    3.62    2.66
   6 -13  -5    4.68    2.49
   6 -13  -4   -0.10    0.41
   6 -13  -3   -1.35    1.31
   6 -13  -2   16.94    5.45
   6 -13  -1   51.91    9.73
   6 -13   0    1.91    2.28
   6 -12  -9   -2.17    2.36
   6 -12  -8   -1.36    1.69
   6 -12  -7    2.73    3.43
   6 -12  -6    6.70    3.25
   6 -12  -5   10.28    3.77
   6 -12  -4    9.27    3.41
   6 -12  -3    3.73    2.13
   6 -12  -2    0.08    0.53
   6 -12  -1   38.35    8.34
   6 -12   0    6.22    4.46
   6 -11 -10    1.07    1.18
   6 -11  -9   -0.57    0.99
   6 -11  -8    1.12    0.33
   6 -11  -8    1.04    0.41
   6 -11  -7    0.12    1.66
   6 -11  -7    4.02    2.05
   6 -11  -6   18.62    4.90
   6 -11  -6   15.56    4.86
   6 -11  -5   26.92    5.88
   6 -11  -5   29.60    6.02
   6 -11  -4   30.31    6.55
   6 -11  -3   15.93    4.06
   6 -11  -2    5.54    2.44
   6 -11  -1    5.26    2.52
   6 -11   0   26.53    6.64
   6 -11   1    1.33    2.02
   6 -10 -12    4.36    2.57
   6 -10 -11    5.14    3.01
   6 -10 -10    1.14    2.20
   6 -10  -9    1.24    1.68
   6 -10  -8   -1.94    1.97
   6 -10  -7    0.57    1.28
   6 -10  -6    8.56    3.44
   6 -10  -6   14.34    4.38
   6 -10  -5   44.89    6.92
   6 -10  -5   16.92    6.73
   6 -10  -4   40.72    6.08
   6 -10  -4   41.57    6.72
   6 -10  -3   36.44    6.14
   6 -10  -2   35.23    5.75
   6 -10  -1    0.14    0.87
   6 -10   0   29.83    7.20
   6 -10   1    0.17    1.67
   6 -10   8   -0.09    3.24
   6  -9 -13    4.70    3.69
   6  -9 -12    3.20    2.45
   6  -9 -11    8.01    4.26
   6  -9 -10   13.31    4.57
   6  -9  -9   19.25    5.15
   6  -9  -8    6.65    3.04
   6  -9  -7   11.82    3.91
   6  -9  -6    2.20    1.43
   6  -9  -5   15.83    4.17
   6  -9  -5   16.63    4.21
   6  -9  -4   33.44    5.46
   6  -9  -4   17.52    5.89
   6  -9  -3   34.11    4.96
   6  -9  -3   37.99    5.80
   6  -9  -2   20.64    4.81
   6  -9  -1   26.96    5.18
   6  -9   0   36.56    7.27
   6  -9   1    1.11    1.76
   6  -9   7    5.82    2.73
   6  -9   8    3.32    3.85
   6  -9   8    0.82    1.09
   6  -8 -14    0.83    1.90
   6  -8 -13    1.24    1.91
   6  -8 -12    0.87    0.36
   6  -8 -11    5.88    3.34
   6  -8 -10   21.07    5.68
   6  -8  -9   32.89    6.75
   6  -8  -8   60.03    8.91
   6  -8  -7   20.42    4.93
   6  -8  -6    1.76    0.92
   6  -8  -5    0.86    0.43
   6  -8  -5    2.86    1.63
   6  -8  -4    1.60    2.98
   6  -8  -4   10.94    2.97
   6  -8  -3   22.30    3.84
   6  -8  -3   22.33    4.13
   6  -8  -2   38.31    4.59
   6  -8  -2   43.57    5.95
   6  -8  -1   59.33    7.32
   6  -8   0   67.54    8.90
   6  -8   1    0.80    1.84
   6  -8   7   10.69    3.33
   6  -8   8    2.30    1.54
   6  -8   9    0.17    0.87
   6  -7 -15    3.99    2.86
   6  -7 -14    3.20    1.97
   6  -7 -13    1.09    1.67
   6  -7 -12   -2.98    2.65
   6  -7 -11    6.08    2.90
   6  -7 -10   35.99    7.27
   6  -7  -9   55.62    8.67
   6  -7  -8   77.42    9.95
   6  -7  -7   52.72    7.88
   6  -7  -6   29.47    5.48
   6  -7  -5   -0.43    0.64
   6  -7  -4    0.35    0.84
   6  -7  -4    3.71    1.28
   6  -7  -3    9.04    3.31
   6  -7  -3   16.60    3.30
   6  -7  -2   40.89    4.65
   6  -7  -2   50.98    6.01
   6  -7  -1  116.07    9.62
   6  -7   0  155.46   12.25
   6  -7   1    3.17    2.41
   6  -7   5   23.94    5.15
   6  -7   6   14.86    4.13
   6  -7   7   15.81    4.43
   6  -7   8   16.51    4.61
   6  -7   9    5.23    2.48
   6  -6 -16    0.29    0.99
   6  -6 -15    2.98    1.87
   6  -6 -14    6.14    2.88
   6  -6 -13    6.15    3.11
   6  -6 -12    7.94    3.17
   6  -6 -11   -0.20    1.32
   6  -6 -10   13.65    4.26
   6  -6  -9   35.80    6.83
   6  -6  -8   65.95    9.12
   6  -6  -7   94.29   10.41
   6  -6  -6   69.01    8.66
   6  -6  -5    2.87    1.84
   6  -6  -4    1.51    2.67
   6  -6  -4   14.64    3.53
   6  -6  -3   -1.25    1.34
   6  -6  -3    1.25    0.87
   6  -6  -2   34.12    4.38
   6  -6  -2   36.51    4.76
   6  -6  -1  113.88    9.22
   6  -6   0  219.56   13.98
   6  -6   1    1.34    1.89
   6  -6   4   -1.24    1.76
   6  -6   5    8.79    2.96
   6  -6   6    6.90    2.58
   6  -6   7   18.43    4.74
   6  -6   8   21.43    5.58
   6  -6   9   19.19    5.46
   6  -5 -16   -1.71    2.40
   6  -5 -15    0.24    1.98
   6  -5 -14    4.61    2.45
   6  -5 -13   23.47    6.17
   6  -5 -12   30.72    6.71
   6  -5 -11    6.95    3.34
   6  -5 -10    2.06    1.81
   6  -5  -9    5.26    2.60
   6  -5  -8   13.36    3.04
   6  -5  -8   10.35    3.53
   6  -5  -7   37.94    4.79
   6  -5  -7   45.13    6.83
   6  -5  -6   24.11    3.47
   6  -5  -6   28.18    5.41
   6  -5  -5  203.11   13.63
   6  -5  -4    8.50    2.79
   6  -5  -3   62.55    6.62
   6  -5  -3   57.65    6.19
   6  -5  -2   -0.65    1.14
   6  -5  -2    0.34    0.23
   6  -5  -1   34.03    4.15
   6  -5  -1   32.55    4.76
   6  -5   0  166.81   12.04
   6  -5   3   44.43    6.53
   6  -5   4    7.06    2.59
   6  -5   5   -0.15    0.60
   6  -5   6    0.32    0.68
   6  -5   6   -0.17    3.06
   6  -5   7    2.00    1.40
   6  -5   8   21.52    5.87
   6  -5   9   26.05    7.40
   6  -5  10    8.01    3.28
   6  -4 -17    0.79    0.22
   6  -4 -16   -1.38    2.31
   6  -4 -15   -2.16    2.43
   6  -4 -14   11.60    4.24
   6  -4 -13   26.32    6.26
   6  -4 -12   44.07    7.61
   6  -4 -11   29.62    5.92
   6  -4 -10    7.30    2.28
   6  -4 -10    6.71    2.83
   6  -4  -9   -0.18    1.05
   6  -4  -9    0.21    0.27
   6  -4  -8    0.79    0.99
   6  -4  -8    0.73    0.99
   6  -4  -7   17.87    3.52
   6  -4  -7   20.63    4.44
   6  -4  -6   57.01    5.80
   6  -4  -6   70.32    7.94
   6  -4  -5   38.32    5.74
   6  -4  -4  167.65   11.26
   6  -4  -3  144.07    9.79
   6  -4  -3   95.63    8.02
   6  -4  -2   39.50    4.88
   6  -4  -1   -1.78    1.05
   6  -4   0   17.94    4.97
   6  -4   1   37.94    5.83
   6  -4   2   33.19    5.57
   6  -4   3   53.07    7.16
   6  -4   4   40.16    6.40
   6  -4   5    8.45    3.02
   6  -4   6    5.15    2.46
   6  -4   7    0.67    0.80
   6  -4   8    3.08    2.39
   6  -4   8  -11.17    6.45
   6  -4   9   13.33    5.19
   6  -4  10   11.29    5.00
   6  -3 -17   -0.85    1.66
   6  -3 -16   -1.03    1.58
   6  -3 -15    2.39    2.05
   6  -3 -14    6.43    3.31
   6  -3 -13   19.92    5.25
   6  -3 -12   42.03    7.56
   6  -3 -11   34.17    5.63
   6  -3 -11   30.11    5.93
   6  -3 -10   16.61    3.65
   6  -3 -10   13.81    4.28
   6  -3  -9   11.27    3.06
   6  -3  -9   12.98    3.23
   6  -3  -8    2.04    1.28
   6  -3  -8    0.87    0.74
   6  -3  -7    1.78    0.65
   6  -3  -7    4.95    1.67
   6  -3  -6   52.34    5.93
   6  -3  -3  117.23    7.94
   6  -3  -2   96.97    8.91
   6  -3  -2  109.89    7.63
   6  -3  -1    4.02    1.83
   6  -3  -1    6.38    1.96
   6  -3   0    0.26    0.63
   6  -3   0    0.33    0.65
   6  -3   1    9.54    3.03
   6  -3   2   18.28    4.20
   6  -3   3   57.22    7.75
   6  -3   4   45.66    7.16
   6  -3   5   43.58    7.47
   6  -3   6   17.32    4.99
   6  -3   7    7.92    3.02
   6  -3   8   -1.42    2.30
   6  -3   9    3.04    0.72
   6  -3  10    4.08    2.98
   6  -2 -17    6.69    3.96
   6  -2 -16    6.27    3.61
   6  -2 -15    2.51    2.61
   6  -2 -14    0.59    1.59
   6  -2 -13    4.01    2.43
   6  -2 -13    2.99    1.41
   6  -2 -12   21.09    4.82
   6  -2 -12   14.38    4.44
   6  -2 -11   34.22    5.91
   6  -2 -11   24.96    5.90
   6  -2 -10   30.10    5.18
   6  -2 -10   22.58    5.05
   6  -2  -9   48.60    6.64
   6  -2  -9   39.29    6.10
   6  -2  -8   31.14    4.71
   6  -2  -8   33.37    5.39
   6  -2  -7    1.81    0.47
   6  -2  -7    3.39    1.23
   6  -2  -6   17.52    3.57
   6  -2  -6   15.50    3.04
   6  -2  -5   76.59    7.81
   6  -2  -4  137.92   10.35
   6  -2  -3  172.95    9.10
   6  -2  -3  175.34   12.32
   6  -2  -2  222.93   10.12
   6  -2  -2  208.46   13.50
   6  -2  -1   49.46    6.26
   6  -2  -1   28.95    5.09
   6  -2   0    8.02    2.72
   6  -2   1   -0.24    1.12
   6  -2   2    8.82    2.96
   6  -2   3   49.36    7.57
   6  -2   4   66.07    9.21
   6  -2   5   59.56    9.00
   6  -2   6   44.57    8.07
   6  -2   7   17.49    5.41
   6  -2   8   -0.39    2.18
   6  -2   9   -0.47    1.53
   6  -2  10    2.74    2.62
   6  -1 -17    6.72    3.95
   6  -1 -16    7.36    3.63
   6  -1 -15    3.32    3.11
   6  -1 -14   13.81    4.94
   6  -1 -14    7.76    3.70
   6  -1 -13    0.72    1.36
   6  -1 -13    0.18    0.46
   6  -1 -12    0.57    1.21
   6  -1 -12    0.92    1.03
   6  -1 -11   16.50    4.09
   6  -1 -11   11.71    3.80
   6  -1 -10   24.62    4.82
   6  -1  -9   74.28    8.50
   6  -1  -8   72.87    8.22
   6  -1  -8   86.36    7.86
   6  -1  -7   78.43    8.07
   6  -1  -7   88.00    8.15
   6  -1  -6    8.59    2.41
   6  -1  -6   12.84    3.03
   6  -1  -5    5.79    2.01
   6  -1  -4   29.80    4.86
   6  -1  -3   80.80    5.96
   6  -1  -3  106.01    9.66
   6  -1  -2   71.57    5.56
   6  -1  -2   65.57    7.97
   6  -1  -1    0.34    2.12
   6  -1  -1  118.27   11.00
   6  -1   0   40.84    6.73
   6  -1   1   44.74    7.29
   6  -1   2    4.51    1.75
   6  -1   3    0.79    2.01
   6  -1   4   55.62    8.83
   6  -1   5   34.59    7.22
   6  -1   6   42.72    8.35
   6  -1   7   29.41    7.15
   6  -1   8    7.35    3.93
   6  -1   9    3.05    3.07
   6  -1  10    3.98    4.27
   6   0 -17    5.20    3.12
   6   0 -16   12.21    5.31
   6   0 -15    7.40    3.98
   6   0 -14    3.00    2.02
   6   0 -14    4.32    3.25
   6   0 -13   11.48    4.13
   6   0 -13   12.72    4.47
   6   0 -12    2.03    1.61
   6   0 -11    0.81    1.33
   6   0 -10   19.99    4.36
   6   0  -9   51.46    7.46
   6   0  -8  137.69   11.74
   6   0  -8  154.41   10.28
   6   0  -7   75.62    8.61
   6   0  -7   90.43    8.33
   6   0  -6   37.85    5.81
   6   0  -6   50.14    6.48
   6   0  -5   17.24    3.88
   6   0  -4    2.73    1.88
   6   0  -3    5.52    1.26
   6   0  -3    8.18    2.48
   6   0  -2   52.63    7.60
   6   0  -1   65.46    8.50
   6   0   0   64.15    8.60
   6   0   1   79.69   10.00
   6   0   2   47.86    7.83
   6   0   3    1.79    1.38
   6   0   4    0.79    2.24
   6   0   5   12.51    4.28
   6   0   6   17.93    5.56
   6   0   7   16.16    5.42
   6   0   8   18.68    6.23
   6   0   9    4.13    3.55
   6   1 -17    2.10    2.25
   6   1 -16   -0.07    2.78
   6   1 -15   13.45    5.39
   6   1 -15    9.13    4.65
   6   1 -14   18.94    5.71
   6   1 -14   18.90    5.72
   6   1 -13    8.28    3.48
   6   1 -12    4.02    2.43
   6   1 -11   -1.94    2.02
   6   1 -10    9.34    2.61
   6   1  -9   35.50    6.46
   6   1  -8   93.64    9.98
   6   1  -7   81.87    7.85
   6   1  -7   82.80    9.35
   6   1  -6   69.11    7.99
   6   1  -6   73.26    7.87
   6   1  -5   18.67    3.91
   6   1  -4    7.28    2.24
   6   1  -3   -1.47    2.31
   6   1  -2   11.81    3.11
   6   1  -1   37.64    6.63
   6   1   0   77.20    9.87
   6   1   1   83.14   10.83
   6   1   2   71.60   10.31
   6   1   3    9.47    3.88
   6   1   4    1.75    1.04
   6   1   5    0.31    0.71
   6   1   6    6.01    3.74
   6   1   7    8.70    4.57
   6   1   8   10.33    5.19
   6   1   9   -0.04    3.48
   6   2 -17   -0.18    1.34
   6   2 -16    0.77    1.62
   6   2 -15   12.03    5.23
   6   2 -15    6.67    3.78
   6   2 -14   12.60    4.66
   6   2 -13   30.30    6.97
   6   2 -12   13.57    4.36
   6   2 -11    8.79    3.19
   6   2 -10   -2.33    2.58
   6   2  -9   12.78    3.92
   6   2  -8   42.95    7.03
   6   2  -7   65.67    7.12
   6   2  -7   73.03    8.91
   6   2  -6   50.69    6.66
   6   2  -6   54.67    7.48
   6   2  -5   39.90    6.28
   6   2  -5   41.39    6.30
   6   2  -4   30.27    5.71
   6   2  -3   12.14    3.75
   6   2  -2    5.76    2.86
   6   2  -1   26.19    5.74
   6   2   0   53.55    8.81
   6   2   1   75.05   10.54
   6   2   2   56.30    9.38
   6   2   3   30.35    7.08
   6   2   4    6.09    3.56
   6   2   5    4.07    3.22
   6   2   6    2.32    3.35
   6   2   7   -3.16    3.77
   6   2   8   -1.50    2.70
   6   2   9    0.21    1.88
   6   3 -16    6.02    4.21
   6   3 -16   -2.55    2.73
   6   3 -15    3.51    2.95
   6   3 -14    8.85    4.20
   6   3 -13   23.63    6.14
   6   3 -12   40.05    7.57
   6   3 -11   18.02    4.92
   6   3 -10   21.33    5.30
   6   3  -9    3.84    2.80
   6   3  -8    2.36    1.62
   6   3  -7   17.74    4.49
   6   3  -7   11.84    3.03
   6   3  -6   18.68    4.27
   6   3  -6   18.80    3.88
   6   3  -5   67.35    8.49
   6   3  -5   71.61    8.95
   6   3  -4   55.63    8.01
   6   3  -3   38.56    6.93
   6   3  -2   17.84    5.37
   6   3  -1    3.75    3.06
   6   3   0   11.66    4.71
   6   3   1   28.72    7.13
   6   3   2   52.14    9.48
   6   3   3   28.08    6.33
   6   3   4    6.82    1.58
   6   3   5    3.07    1.06
   6   3   6   -2.12    3.07
   6   3   7   -0.99    2.70
   6   3   8    4.30    3.42
   6   4 -16    3.37    3.99
   6   4 -15   -0.91    1.12
   6   4 -14    3.89    2.73
   6   4 -13    7.25    3.29
   6   4 -12   21.59    5.99
   6   4 -11   24.30    6.03
   6   4 -10   23.19    5.59
   6   4  -9   22.95    5.57
   6   4  -8    1.68    2.09
   6   4  -7    1.20    1.02
   6   4  -7   -0.01    1.11
   6   4  -6    4.36    2.29
   6   4  -6    6.65    2.73
   6   4  -5    9.62    2.91
   6   4  -5   12.86    3.55
   6   4  -4   58.52    8.30
   6   4  -4   53.27    7.94
   6   4  -3   62.97    9.08
   6   4  -2   24.37    5.54
   6   4  -1    6.12    2.57
   6   4   0   -1.07    2.24
   6   4   1   -0.26    1.59
   6   4   2    2.94    1.07
   6   4   3    8.21    3.12
   6   4   4    9.89    4.35
   6   4   5    8.44    4.31
   6   4   6    5.79    3.40
   6   4   7    1.16    2.46
   6   5 -15    0.12    1.18
   6   5 -14   -2.12    2.06
   6   5 -13    4.94    3.12
   6   5 -12    9.78    4.23
   6   5 -11   12.04    4.36
   6   5 -10   13.58    4.42
   6   5  -9   18.79    5.34
   6   5  -8    5.99    3.06
   6   5  -7    1.23    1.29
   6   5  -6    2.25    1.93
   6   5  -6    1.82    1.51
   6   5  -5   10.57    3.96
   6   5  -5   10.01    3.52
   6   5  -4   27.64    6.48
   6   5  -4   26.67    5.87
   6   5  -3   27.82    6.07
   6   5  -3   31.79    6.88
   6   5  -2   26.48    6.42
   6   5  -1   10.14    4.39
   6   5   0    4.37    2.26
   6   5   1   -1.37    2.18
   6   5   2   -0.62    1.78
   6   5   3    7.59    3.56
   6   5   4    0.69    1.81
   6   5   5    5.75    3.88
   6   5   6    8.05    4.94
   6   5   7    3.47    3.60
   6   6 -15    1.71    2.55
   6   6 -14    3.98    2.72
   6   6 -13   -0.53    1.06
   6   6 -12    0.68    1.01
   6   6 -11    3.37    2.13
   6   6 -10    8.54    3.23
   6   6  -9   18.77    5.19
   6   6  -8   10.62    4.09
   6   6  -7    4.74    2.72
   6   6  -6    0.40    1.53
   6   6  -6   -0.90    1.20
   6   6  -5    1.65    1.72
   6   6  -5    2.16    1.10
   6   6  -4   12.53    4.41
   6   6  -4    9.88    3.85
   6   6  -3   19.04    6.12
   6   6  -3   24.98    5.71
   6   6  -2   20.76    6.55
   6   6  -2   24.48    5.98
   6   6  -1   14.20    5.27
   6   6   0    7.04    4.00
   6   6   1    4.05    2.44
   6   6   2    1.99    2.53
   6   6   3    0.59    1.79
   6   6   4    3.42    3.06
   6   6   5    8.65    4.61
   6   6   6    4.99    3.80
   6   7 -14    3.64    3.15
   6   7 -13    1.58    1.62
   6   7 -12    3.51    2.96
   6   7 -11    0.48    1.09
   6   7 -10    4.14    2.55
   6   7  -9   11.22    3.82
   6   7  -8   20.42    5.80
   6   7  -7   19.75    5.53
   6   7  -6   10.81    4.34
   6   7  -5    1.30    1.22
   6   7  -5    5.36    3.31
   6   7  -4   -0.09    0.47
   6   7  -4    1.67    2.25
   6   7  -3    6.58    3.44
   6   7  -3    5.31    2.59
   6   7  -2    8.45    4.61
   6   7  -2    4.84    2.65
   6   7  -1    9.86    4.60
   6   7  -1   12.46    4.65
   6   7   0   12.64    5.27
   6   7   0   11.85    4.55
   6   7   1    9.65    4.89
   6   7   2    5.03    3.12
   6   7   3    0.93    1.85
   6   7   4    1.80    2.59
   6   8 -13    5.61    4.32
   6   8 -12    1.81    2.19
   6   8 -11    0.80    0.63
   6   8 -10   -0.04    0.74
   6   8  -9    0.67    0.84
   6   8  -8    8.09    3.16
   6   8  -7   16.51    5.40
   6   8  -6   14.79    5.09
   6   8  -5    8.59    3.78
   6   8  -4    2.84    2.36
   6   8  -3   -1.76    2.06
   6   8  -3    5.66    3.87
   6   8  -2   -0.49    1.29
   6   8  -2    4.28    3.45
   6   8  -1   -0.61    1.77
   6   8  -1    1.42    2.66
   6   8   0    8.64    4.73
   6   8   1    9.77    4.87
   6   8   2    2.77    2.66
   6   9 -11    1.62    2.50
   6   9 -10   -2.06    1.89
   6   9  -9   -1.11    2.05
   6   9  -8    2.11    1.15
   6   9  -7    4.40    2.40
   6   9  -6    6.39    3.57
   6   9  -5    8.10    3.93
   7 -14  -5    0.93    1.51
   7 -14  -4    2.58    2.25
   7 -14  -3   36.39    7.57
   7 -14  -2   33.30    8.23
   7 -14  -1   -0.21    0.91
   7 -13  -7   -2.24    2.58
   7 -13  -6    0.30    0.12
   7 -13  -5    2.04    2.66
   7 -13  -4    4.04    2.82
   7 -13  -3    6.95    3.60
   7 -13  -2   50.30    9.22
   7 -13  -1    9.10    4.44
   7 -13   0   -0.19    0.72
   7 -12  -9    3.43    2.88
   7 -12  -8    2.34    2.15
   7 -12  -7   -0.46    0.53
   7 -12  -6    0.51    0.58
   7 -12  -5    4.60    2.39
   7 -12  -4    5.60    2.97
   7 -12  -3   14.07    4.70
   7 -12  -2   30.82    6.95
   7 -12  -1   53.98   10.42
   7 -12   0    1.18    1.76
   7 -11  -9    3.59    2.79
   7 -11  -8   -1.32    1.09
   7 -11  -7    5.73    3.21
   7 -11  -6   -1.70    1.97
   7 -11  -5    0.26    0.91
   7 -11  -4    1.76    2.05
   7 -11  -3   10.18    3.88
   7 -11  -2   34.76    7.12
   7 -11  -1   85.56   11.49
   7 -11   0    1.62    2.75
   7 -10 -10    3.33    3.10
   7 -10  -9    8.38    3.93
   7 -10  -8    3.05    3.01
   7 -10  -8   15.68    5.02
   7 -10  -7    4.08    3.03
   7 -10  -7   11.26    4.27
   7 -10  -6    3.39    2.24
   7 -10  -5    5.80    2.89
   7 -10  -4   -0.07    0.66
   7 -10  -3    0.31    0.81
   7 -10  -2   16.01    5.21
   7 -10  -1   79.59   10.36
   7 -10   0    2.95    4.97
   7 -10   7    8.87    3.73
   7  -9 -12    4.38    2.90
   7  -9 -11   -2.29    2.67
   7  -9 -10   -1.08    1.08
   7  -9  -9    5.88    3.38
   7  -9  -8    9.72    3.96
   7  -9  -7   27.20    6.65
   7  -9  -7   29.82    6.29
   7  -9  -6   35.12    6.44
   7  -9  -6   28.53    6.38
   7  -9  -5   32.18    5.69
   7  -9  -5   26.46    5.57
   7  -9  -4   14.14    4.20
   7  -9  -3    0.78    0.74
   7  -9  -2    0.35    0.74
   7  -9  -1   33.63    7.24
   7  -9   0    8.84    3.93
   7  -9   6    1.91    1.00
   7  -9   7    3.82    2.26
   7  -8 -14    4.87    3.45
   7  -8 -13    9.69    4.41
   7  -8 -12    5.37    3.02
   7  -8 -11    1.39    1.06
   7  -8 -10   -0.19    1.41
   7  -8  -9    0.51    0.84
   7  -8  -8    7.31    3.10
   7  -8  -7   38.02    7.18
   7  -8  -6   72.45    9.34
   7  -8  -6   71.73    9.14
   7  -8  -5   53.41    7.48
   7  -8  -5   44.25    6.90
   7  -8  -4   42.35    6.05
   7  -8  -4   34.48    6.16
   7  -8  -3    7.04    3.19
   7  -8  -2   -4.32    2.04
   7  -8  -1    6.92    3.28
   7  -8   0    5.94    3.57
   7  -8   5    3.80    1.63
   7  -8   6    0.43    0.36
   7  -8   7    1.26    1.54
   7  -8   8    6.85    3.23
   7  -7 -14    2.79    2.15
   7  -7 -13    6.65    3.75
   7  -7 -12    7.45    3.29
   7  -7 -11    6.56    3.05
   7  -7 -10    6.72    3.26
   7  -7  -9    3.89    1.77
   7  -7  -8    0.41    0.97
   7  -7  -7   18.43    4.82
   7  -7  -6   57.56    8.30
   7  -7  -5   82.07    9.39
   7  -7  -5   48.99    8.41
   7  -7  -4   76.26    8.37
   7  -7  -4   60.16    7.39
   7  -7  -3   30.62    5.28
   7  -7  -2    7.70    2.29
   7  -7  -1   -0.97    1.44
   7  -7   0    5.27    3.14
   7  -7   4   34.85    6.66
   7  -7   5    8.70    3.25
   7  -7   6    4.86    2.60
   7  -7   7   -0.06    1.22
   7  -7   8    2.15    1.54
   7  -6 -15   -1.20    2.03
   7  -6 -14   -0.22    1.36
   7  -6 -13    0.81    1.22
   7  -6 -12    7.30    3.19
   7  -6 -11   21.30    5.93
   7  -6 -10   29.75    6.66
   7  -6  -9   37.00    7.20
   7  -6  -8   16.47    4.71
   7  -6  -7    2.35    2.27
   7  -6  -6   13.57    3.99
   7  -6  -5   19.38    4.39
   7  -6  -5   26.75    5.56
   7  -6  -4   44.54    6.69
   7  -6  -4   38.55    5.66
   7  -6  -3   65.09    7.45
   7  -6  -3   48.39    6.77
   7  -6  -2   37.51    5.51
   7  -6  -1   32.86    5.79
   7  -6   0    0.85    1.32
   7  -6   2   21.35    5.12
   7  -6   3   37.34    6.89
   7  -6   4   38.64    7.13
   7  -6   5   23.69    5.46
   7  -6   6    9.60    3.53
   7  -6   6    0.82    2.57
   7  -6   7    1.24    0.91
   7  -6   8    0.88    0.87
   7  -5 -16    2.98    2.12
   7  -5 -15    0.92    0.99
   7  -5 -14   -2.51    2.63
   7  -5 -13    0.60    1.12
   7  -5 -12    7.90    3.43
   7  -5 -11   22.21    5.74
   7  -5 -10   42.89    7.61
   7  -5  -9   51.05    8.46
   7  -5  -8   42.03    5.76
   7  -5  -8   51.30    7.72
   7  -5  -7    6.76    1.97
   7  -5  -7    6.22    2.97
   7  -5  -6   -0.45    0.62
   7  -5  -5    5.25    1.96
   7  -5  -4   11.84    2.66
   7  -5  -4   16.73    3.82
   7  -5  -3   65.41    7.73
   7  -5  -3   57.47    6.40
   7  -5  -2   68.64    7.61
   7  -5  -2   62.27    6.94
   7  -5  -1   86.10    8.83
   7  -5   0    0.62    1.74
   7  -5   0   34.56    5.95
   7  -5   1   15.28    3.82
   7  -5   2    0.26    1.13
   7  -5   3   16.57    4.54
   7  -5   4   21.70    5.20
   7  -5   5   16.51    4.44
   7  -5   6   16.28    5.00
   7  -5   7   10.52    4.36
   7  -5   8    2.29    1.81
   7  -5   9   -3.71    3.80
   7  -4 -16    0.37    1.36
   7  -4 -15    6.31    3.35
   7  -4 -14    2.28    1.64
   7  -4 -13   -0.28    0.76
   7  -4 -12    4.55    2.50
   7  -4 -11   14.41    4.65
   7  -4 -10   36.31    6.77
   7  -4  -9   53.94    6.94
   7  -4  -9   48.04    7.53
   7  -4  -8   50.94    6.30
   7  -4  -8   46.74    7.42
   7  -4  -7   15.19    3.29
   7  -4  -7   18.72    4.53
   7  -4  -6    3.86    2.08
   7  -4  -5    1.43    1.17
   7  -4  -4    1.57    1.41
   7  -4  -4    6.30    2.23
   7  -4  -3   27.99    5.39
   7  -4  -3   29.50    4.87
   7  -4  -2   84.36    9.14
   7  -4  -2  106.35    8.66
   7  -4  -1   89.18    9.51
   7  -4  -1  135.32   11.36
   7  -4   0   74.09    8.78
   7  -4   1   31.46    5.92
   7  -4   2    3.82    2.04
   7  -4   3    1.45    0.85
   7  -4   4    4.52    2.54
   7  -4   5    5.91    2.67
   7  -4   6   15.66    4.76
   7  -4   7   12.41    4.04
   7  -4   8    4.82    2.65
   7  -4   9   -0.78    2.35
   7  -3 -16    5.03    3.25
   7  -3 -15    6.84    3.31
   7  -3 -14   11.26    4.45
   7  -3 -13    8.10    3.55
   7  -3 -12   -0.07    0.68
   7  -3 -11    1.65    1.07
   7  -3 -11    1.28    1.47
   7  -3 -10   13.87    3.69
   7  -3 -10   14.88    4.05
   7  -3  -9   40.73    6.19
   7  -3  -9   28.34    5.53
   7  -3  -8   43.12    6.25
   7  -3  -8   38.75    5.84
   7  -3  -8   44.49    6.30
   7  -3  -7   37.57    5.62
   7  -3  -7   31.23    4.99
   7  -3  -6   19.86    4.37
   7  -3  -5   15.44    3.70
   7  -3  -4   -1.21    1.27
   7  -3  -4   -1.25    1.71
   7  -3  -3   12.88    2.84
   7  -3  -3   12.62    3.52
   7  -3  -2   85.21    7.75
   7  -3  -2   79.40    9.08
   7  -3  -1    4.11    3.44
   7  -3  -1   79.65    9.16
   7  -3   0   79.24    9.42
   7  -3   1   52.89    7.73
   7  -3   2   32.03    6.19
   7  -3   3    0.08    1.35
   7  -3   4    1.74    1.53
   7  -3   5    3.20    1.07
   7  -3   6    7.24    3.04
   7  -3   7   13.23    4.70
   7  -3   8    6.19    3.06
   7  -3   9    6.19    3.53
   7  -2 -17    1.02    1.32
   7  -2 -16    4.33    3.22
   7  -2 -15   11.75    4.65
   7  -2 -14   16.02    5.40
   7  -2 -13   16.90    5.35
   7  -2 -12   12.35    3.84
   7  -2 -12   14.41    4.10
   7  -2 -11    0.52    1.34
   7  -2 -11    1.80    1.09
   7  -2 -10    2.85    2.13
   7  -2 -10    1.46    0.96
   7  -2  -9    7.42    2.68
   7  -2  -8   20.04    4.10
   7  -2  -8   22.66    4.71
   7  -2  -7   45.22    6.21
   7  -2  -7   60.45    7.82
   7  -2  -6   44.77    6.77
   7  -2  -5   71.56    8.34
   7  -2  -4   41.46    4.80
   7  -2  -4   48.55    6.94
   7  -2  -3    0.93    0.27
   7  -2  -3    1.45    0.85
   7  -2  -2    8.01    2.70
   7  -2  -2   23.76    4.34
   7  -2  -1   40.22    6.77
   7  -2   0   63.45    8.69
   7  -2   1   71.60    9.48
   7  -2   2   23.88    5.84
   7  -2   3   21.13    5.31
   7  -2   4   -0.03    2.05
   7  -2   5    0.51    1.44
   7  -2   6    1.62    0.75
   7  -2   7   11.38    4.28
   7  -2   8   13.21    5.33
   7  -1 -17   -3.13    2.92
   7  -1 -16    1.51    1.57
   7  -1 -15    5.36    3.26
   7  -1 -14   22.70    6.30
   7  -1 -13   18.93    5.15
   7  -1 -13   17.82    4.96
   7  -1 -12   21.73    5.10
   7  -1 -12   21.04    5.28
   7  -1 -11    9.46    3.01
   7  -1 -10    4.75    2.58
   7  -1  -9    2.60    1.96
   7  -1  -8    5.55    2.22
   7  -1  -8    7.89    2.90
   7  -1  -7   20.48    4.37
   7  -1  -7   33.43    6.15
   7  -1  -6   71.30    9.00
   7  -1  -5  106.99   11.03
   7  -1  -4   89.46   10.64
   7  -1  -4   63.62    5.62
   7  -1  -3   42.81    7.48
   7  -1  -2    1.70    0.78
   7  -1  -1    0.65    1.04
   7  -1   0    6.21    2.77
   7  -1   1   25.72    5.82
   7  -1   2   46.01    8.20
   7  -1   3   19.19    5.37
   7  -1   4   14.96    4.68
   7  -1   5    8.44    3.37
   7  -1   6   -0.60    0.73
   7  -1   7   -2.11    2.06
   7  -1   8    5.96    4.38
   7   0 -17    1.35    1.42
   7   0 -16    0.12    1.06
   7   0 -15    1.89    1.50
   7   0 -14    9.39    3.99
   7   0 -14    6.67    3.04
   7   0 -13   20.14    5.28
   7   0 -13   27.24    6.48
   7   0 -12   11.56    3.72
   7   0 -11   15.36    4.15
   7   0 -10   15.06    4.58
   7   0  -9    4.58    2.18
   7   0  -8    1.27    0.80
   7   0  -7   13.59    3.74
   7   0  -7   10.61    2.72
   7   0  -6   55.25    7.18
   7   0  -6   68.06    9.16
   7   0  -5   81.33   10.04
   7   0  -4   98.97   11.47
   7   0  -3   41.53    7.27
   7   0  -2   17.30    4.47
   7   0  -1   -1.09    2.97
   7   0   0   -2.17    2.71
   7   0   1   12.45    4.28
   7   0   2   18.78    5.18
   7   0   3   29.92    7.01
   7   0   4   25.61    6.73
   7   0   5   17.69    5.60
   7   0   6    6.02    3.42
   7   0   7    2.84    3.07
   7   0   8    5.59    4.04
   7   1 -16   -2.32    2.86
   7   1 -15    0.93    2.55
   7   1 -14    2.57    1.93
   7   1 -13    7.90    3.56
   7   1 -12    9.10    3.50
   7   1 -11   22.22    5.35
   7   1 -10   24.60    5.63
   7   1  -9   23.57    5.33
   7   1  -8    1.38    0.29
   7   1  -7   -0.30    1.05
   7   1  -7    0.87    1.12
   7   1  -6   22.70    5.18
   7   1  -6   16.57    4.05
   7   1  -5   46.86    7.85
   7   1  -4   80.97   10.53
   7   1  -3   54.31    8.87
   7   1  -2   25.21    6.05
   7   1  -1    9.58    3.61
   7   1   0    3.89    2.07
   7   1   1   -0.04    1.52
   7   1   2   16.80    5.48
   7   1   3   24.59    6.49
   7   1   4   26.42    7.02
   7   1   5   15.79    5.65
   7   1   6   11.42    5.32
   7   1   7    2.66    2.71
   7   1   8   -4.26    4.06
   7   2 -16    4.30    3.93
   7   2 -15    2.95    3.04
   7   2 -14    3.67    2.29
   7   2 -13   -2.81    2.68
   7   2 -12    3.04    1.76
   7   2 -11   13.91    4.11
   7   2 -10   33.68    7.11
   7   2  -9   43.68    7.78
   7   2  -8   35.71    6.73
   7   2  -7    0.41    0.76
   7   2  -7    4.84    2.64
   7   2  -6    2.10    0.74
   7   2  -6    4.93    2.87
   7   2  -5   10.57    3.85
   7   2  -4   15.73    4.76
   7   2  -3   41.57    7.93
   7   2  -2   29.58    6.80
   7   2  -1   41.38    8.20
   7   2   0   12.06    4.89
   7   2   1    7.15    3.59
   7   2   2    6.27    3.79
   7   2   3    9.83    4.81
   7   2   4   16.12    5.91
   7   2   5   17.91    6.73
   7   2   6   -0.30    3.03
   7   2   7   -6.04    4.83
   7   3 -16    3.54    3.39
   7   3 -15    6.51    3.80
   7   3 -14    4.53    3.17
   7   3 -13    2.74    1.85
   7   3 -12   -0.67    1.10
   7   3 -11    3.00    1.87
   7   3 -10   25.71    6.19
   7   3  -9   32.38    6.76
   7   3  -8   36.52    7.10
   7   3  -7   24.82    5.71
   7   3  -6    6.38    2.37
   7   3  -6    3.22    0.77
   7   3  -5    0.48    1.67
   7   3  -5   -1.13    2.69
   7   3  -4    3.76    2.65
   7   3  -3   13.78    4.97
   7   3  -2   24.73    6.68
   7   3  -1   25.56    6.96
   7   3   0   46.38    9.44
   7   3   1   20.28    6.36
   7   3   2   -0.94    1.36
   7   3   3   -6.10    4.45
   7   3   4   -0.10    1.37
   7   3   5   -2.09    2.92
   7   3   6    1.80    1.08
   7   4 -14    5.04    3.53
   7   4 -13    2.73    2.64
   7   4 -12    0.88    0.93
   7   4 -11   -1.99    2.51
   7   4 -10   10.58    4.01
   7   4  -9   16.96    5.28
   7   4  -8   23.63    5.81
   7   4  -7   12.39    4.08
   7   4  -6   14.35    4.90
   7   4  -6   15.99    4.56
   7   4  -5    2.12    1.63
   7   4  -5    3.40    1.81
   7   4  -4   -2.29    2.95
   7   4  -4   -4.46    3.25
   7   4  -3   -1.63    3.29
   7   4  -2    7.09    2.98
   7   4  -1   11.10    4.66
   7   4   0   17.73    5.72
   7   4   1    6.98    2.76
   7   4   2    1.94    1.49
   7   4   3   -1.42    3.39
   7   4   4   -2.07    2.83
   7   4   5   -1.94    2.56
   7   5 -14    8.00    4.26
   7   5 -13   10.32    4.37
   7   5 -12    1.74    1.86
   7   5 -11   -1.11    1.35
   7   5 -10   -1.62    2.27
   7   5  -9    8.16    4.00
   7   5  -8   10.46    4.05
   7   5  -7   16.68    5.09
   7   5  -6   12.23    4.31
   7   5  -5    7.94    3.61
   7   5  -5   11.30    4.12
   7   5  -4    1.60    2.00
   7   5  -4   -2.05    2.91
   7   5  -3   -1.70    2.40
   7   5  -3   -2.11    3.23
   7   5  -2    4.43    3.46
   7   5  -1    3.91    1.67
   7   5   0   13.06    4.69
   7   5   1    9.81    4.38
   7   5   2    4.02    3.49
   7   5   3    3.59    2.56
   7   5   4   -0.52    1.55
   7   6 -13    4.73    3.31
   7   6 -12    6.33    3.54
   7   6 -11    2.99    1.51
   7   6 -10   -2.09    2.51
   7   6  -9    2.97    2.89
   7   6  -8    1.12    1.88
   7   6  -7    8.05    3.88
   7   6  -6   10.00    3.90
   7   6  -5   18.87    5.42
   7   6  -4    9.35    4.52
   7   6  -4   12.65    4.50
   7   6  -3    6.48    3.88
   7   6  -3   -1.51    3.27
   7   6  -2    2.87    2.26
   7   6  -2   -2.68    3.53
   7   6  -1    2.68    2.38
   7   6   0    5.03    3.52
   7   6   1    8.99    4.78
   7   6   2    4.93    3.58
   7   6   3    6.79    4.20
   7   7 -12    4.54    3.29
   7   7 -11    8.73    3.99
   7   7 -10    1.13    1.05
   7   7  -9    0.36    1.80
   7   7  -8    1.67    2.38
   7   7  -7   -0.09    0.47
   7   7  -6    6.30    3.51
   7   7  -5    8.70    3.70
   7   7  -4    7.80    3.81
   7   7  -3   11.33    4.89
   7   7  -2   -2.15    3.08
   7   7  -1    1.02    1.95
   7   8 -10    0.51    0.88
   7   8  -9    0.54    1.24
   7   8  -8    0.09    1.98
   7   8  -7    1.22    2.38
   7   8  -6    1.27    1.98
   7   8  -5    4.45    3.21
   8 -13  -6    6.45    3.78
   8 -13  -5    1.37    1.05
   8 -13  -4   -2.20    2.29
   8 -13  -3   30.78    7.05
   8 -13  -2   26.45    7.37
   8 -13  -1   -0.29    0.79
   8 -12  -8    3.40    2.92
   8 -12  -7    4.77    2.94
   8 -12  -6    8.86    3.75
   8 -12  -5    9.03    3.81
   8 -12  -4    1.90    1.41
   8 -12  -3   -1.80    1.79
   8 -12  -2   50.98    9.88
   8 -12  -1    2.26    2.21
   8 -11 -10    0.76    1.52
   8 -11  -9   -1.94    2.05
   8 -11  -8   -1.27    1.42
   8 -11  -7    5.03    2.86
   8 -11  -6    8.49    3.97
   8 -11  -5   10.14    3.89
   8 -11  -4    4.72    2.28
   8 -11  -3    8.20    3.47
   8 -11  -2   54.15    9.35
   8 -11  -1    6.39    3.57
   8 -11   0    1.11    1.98
   8 -10  -9    0.70    0.15
   8 -10  -8   -0.45    1.70
   8 -10  -7   -1.54    1.66
   8 -10  -6    2.00    1.84
   8 -10  -5   11.15    3.91
   8 -10  -4   18.71    4.95
   8 -10  -3   22.93    5.38
   8 -10  -2   36.19    7.36
   8 -10  -1   15.11    7.08
   8 -10   0    0.36    0.90
   8 -10   5    4.57    2.93
   8  -9  -8    2.99    2.70
   8  -9  -7   -1.83    1.73
   8  -9  -6   -1.50    2.32
   8  -9  -5    6.80    3.07
   8  -9  -4   20.94    5.02
   8  -9  -3   46.87    7.36
   8  -9  -2   35.56    7.14
   8  -9  -1   39.84    7.95
   8  -9   0   -0.68    1.00
   8  -9   4    6.81    3.38
   8  -9   5    5.83    2.87
   8  -9   6    6.43    3.29
   8  -8 -12    1.66    1.35
   8  -8 -11    7.29    3.86
   8  -8 -10    9.54    4.06
   8  -8  -9   15.74    5.11
   8  -8  -8    8.44    3.48
   8  -8  -7   -1.73    1.76
   8  -8  -7    2.01    1.53
   8  -8  -6   -4.18    2.23
   8  -8  -5   -0.16    1.30
   8  -8  -4   12.18    4.11
   8  -8  -3   38.34    6.83
   8  -8  -2   60.80    8.42
   8  -8  -1   47.14    8.36
   8  -8   0    0.13    0.20
   8  -8   3    1.61    0.24
   8  -8   4    3.48    1.72
   8  -8   5    8.68    3.90
   8  -8   6    9.28    4.18
   8  -8   7    5.91    2.88
   8  -7 -13    1.56    1.26
   8  -7 -12   -0.04    0.93
   8  -7 -11   -0.62    1.50
   8  -7 -10    3.85    2.41
   8  -7  -9   13.86    4.54
   8  -7  -8   16.10    4.79
   8  -7  -7   44.57    7.84
   8  -7  -7   56.05    9.33
   8  -7  -6    1.76    1.24
   8  -7  -6    2.58    1.51
   8  -7  -5   10.31    3.42
   8  -7  -4    0.89    0.76
   8  -7  -3   18.08    4.23
   8  -7  -2   36.20    6.25
   8  -7  -1   21.93    7.53
   8  -7   1    9.56    3.33
   8  -7   2    3.63    1.30
   8  -7   3   -2.13    2.14
   8  -7   4    1.10    1.09
   8  -7   5    4.89    2.69
   8  -7   6   13.29    4.57
   8  -7   7   10.87    4.32
   8  -6 -14    4.60    2.91
   8  -6 -13    3.48    2.46
   8  -6 -12   -0.32    1.05
   8  -6 -11    0.99    1.61
   8  -6 -10    2.75    2.35
   8  -6  -9   13.33    4.60
   8  -6  -8   35.00    7.21
   8  -6  -7   22.63    5.87
   8  -6  -6   15.28    4.45
   8  -6  -6   97.11   11.33
   8  -6  -5   16.05    4.17
   8  -6  -5   21.99    5.38
   8  -6  -4    3.06    1.61
   8  -6  -3    1.53    0.75
   8  -6  -2    5.45    3.04
   8  -6  -1    3.77    3.95
   8  -6  -1   16.05    4.31
   8  -6   0   15.15    4.27
   8  -6   1   25.87    5.96
   8  -6   2   18.36    4.78
   8  -6   3    4.56    1.79
   8  -6   4    0.23    1.00
   8  -6   5   -1.17    1.64
   8  -6   6    4.06    2.11
   8  -6   7    5.53    2.98
   8  -5 -15    0.67    0.18
   8  -5 -14    8.70    4.05
   8  -5 -13   10.74    4.48
   8  -5 -12    3.80    2.43
   8  -5 -11    2.34    1.96
   8  -5 -10   -1.31    1.73
   8  -5  -9    3.45    2.29
   8  -5  -8   31.21    6.18
   8  -5  -7   38.51    5.28
   8  -5  -7   55.70    8.60
   8  -5  -6    6.90    3.41
   8  -5  -6   48.29    7.64
   8  -5  -5   39.21    6.80
   8  -5  -5   21.62    4.63
   8  -5  -4   14.95    3.87
   8  -5  -4   20.05    4.39
   8  -5  -4   23.30    5.38
   8  -5  -3   -0.26    0.85
   8  -5  -3   -0.26    1.38
   8  -5  -2    0.98    1.15
   8  -5  -2   15.54    4.55
   8  -5  -1    1.08    1.47
   8  -5  -1    6.41    2.51
   8  -5   0   16.41    4.31
   8  -5   1   35.61    6.80
   8  -5   2   24.91    6.09
   8  -5   3   20.21    5.24
   8  -5   4    5.43    2.91
   8  -5   5    0.22    1.07
   8  -5   6    0.06    0.17
   8  -5   7    2.18    1.16
   8  -4 -15    2.62    2.34
   8  -4 -14    3.19    2.38
   8  -4 -13   10.17    4.09
   8  -4 -12    9.84    3.85
   8  -4 -11    8.88    3.67
   8  -4 -10    6.01    2.92
   8  -4  -9   -0.29    0.90
   8  -4  -9   -0.68    1.28
   8  -4  -8    5.00    1.74
   8  -4  -8    6.64    2.79
   8  -4  -8    4.20    2.17
   8  -4  -7   24.85    5.18
   8  -4  -7   17.81    3.68
   8  -4  -7   24.21    4.82
   8  -4  -6   31.61    5.89
   8  -4  -6   36.90    5.74
   8  -4  -6   24.13    5.42
   8  -4  -5   42.79    6.71
   8  -4  -5   42.95    6.70
   8  -4  -4   31.79    6.05
   8  -4  -4   36.66    5.27
   8  -4  -3    5.70    2.20
   8  -4  -3    6.62    2.53
   8  -4  -2    1.52    0.93
   8  -4  -2   22.34    6.00
   8  -4  -1    0.41    1.48
   8  -4   0    9.88    3.33
   8  -4   1   28.21    6.24
   8  -4   2   38.39    7.35
   8  -4   3   27.49    6.56
   8  -4   4   18.31    5.56
   8  -4   5    4.63    2.69
   8  -4   6   -0.74    2.17
   8  -4   7   -2.79    3.64
   8  -3 -15   -1.55    1.36
   8  -3 -14    1.53    2.15
   8  -3 -13    4.76    2.51
   8  -3 -12   14.23    4.25
   8  -3 -11   21.69    5.71
   8  -3 -10   24.31    5.27
   8  -3 -10   19.47    4.78
   8  -3  -9   13.20    3.60
   8  -3  -9   10.25    3.12
   8  -3  -8    0.38    0.64
   8  -3  -8   -1.20    1.19
   8  -3  -8   -0.22    1.22
   8  -3  -7    3.27    1.70
   8  -3  -7    1.08    0.83
   8  -3  -6    2.23    1.62
   8  -3  -6   11.40    3.45
   8  -3  -5   27.77    4.55
   8  -3  -5   27.47    5.79
   8  -3  -4   25.74    4.20
   8  -3  -4   20.91    5.10
   8  -3  -3   53.19    8.19
   8  -3  -2   15.63    4.17
   8  -3  -1   10.80    3.57
   8  -3   0   -0.66    1.09
   8  -3   1    6.75    3.02
   8  -3   2   35.26    7.23
   8  -3   3   17.21    5.30
   8  -3   4   16.65    5.02
   8  -3   5    6.50    2.61
   8  -3   6    1.05    1.48
   8  -3   7   -3.83    3.33
   8  -2 -16   -1.63    2.63
   8  -2 -15    2.26    1.61
   8  -2 -14   -0.27    0.34
   8  -2 -13    1.76    1.81
   8  -2 -12   10.30    3.51
   8  -2 -11   18.20    4.50
   8  -2 -11   17.51    5.24
   8  -2 -10   38.58    6.58
   8  -2  -9   14.74    4.01
   8  -2  -8    7.94    2.53
   8  -2  -7    2.17    1.29
   8  -2  -7   -0.24    1.28
   8  -2  -6   -1.49    1.20
   8  -2  -6    0.44    0.43
   8  -2  -5    9.69    3.68
   8  -2  -4   36.28    7.01
   8  -2  -3   38.17    7.26
   8  -2  -2   49.69    8.61
   8  -2  -1   38.96    7.83
   8  -2   0   16.50    5.58
   8  -2   1   -3.05    3.03
   8  -2   2   -0.18    2.50
   8  -2   3    7.99    3.62
   8  -2   4    8.98    3.92
   8  -2   5    9.30    4.07
   8  -2   6    7.49    3.99
   8  -2   7    1.08    1.59
   8  -1 -16    2.33    2.59
   8  -1 -15    4.92    3.41
   8  -1 -14    1.02    1.56
   8  -1 -13   -0.30    0.71
   8  -1 -12    2.59    1.71
   8  -1 -12    5.60    2.77
   8  -1 -11   13.83    4.00
   8  -1 -10   20.52    5.01
   8  -1  -9   24.50    5.20
   8  -1  -8   13.96    3.55
   8  -1  -7    1.32    1.24
   8  -1  -7    2.44    2.07
   8  -1  -6   -1.06    2.90
   8  -1  -5   -1.81    2.50
   8  -1  -4   17.19    4.98
   8  -1  -3   38.41    7.73
   8  -1  -2   57.06    9.60
   8  -1  -1   44.20    8.45
   8  -1   0   25.24    6.17
   8  -1   1   -0.10    2.52
   8  -1   2   -0.30    1.38
   8  -1   3    0.06    1.78
   8  -1   4   -1.49    2.45
   8  -1   5    8.60    3.67
   8  -1   6    7.81    4.48
   8   0 -16    2.73    2.84
   8   0 -15    4.20    4.15
   8   0 -14    3.49    2.99
   8   0 -13    1.38    1.71
   8   0 -12   -0.43    1.52
   8   0 -11    6.37    3.01
   8   0 -10    9.52    3.61
   8   0  -9   18.05    4.62
   8   0  -8   13.29    3.97
   8   0  -7   23.23    6.05
   8   0  -7   16.07    3.75
   8   0  -6    9.76    3.47
   8   0  -6    5.88    1.93
   8   0  -5   -0.21    2.76
   8   0  -4    1.90    0.50
   8   0  -3   16.95    5.00
   8   0  -2   39.05    8.26
   8   0  -1   40.91    8.67
   8   0   0   24.31    6.83
   8   0   1    8.75    2.77
   8   0   2   -1.18    1.83
   8   0   3   -1.08    1.09
   8   0   4    0.24    1.27
   8   0   5    5.53    3.33
   8   0   6    8.58    4.26
   8   1 -15   10.49    4.98
   8   1 -13    3.26    1.81
   8   1 -12    2.00    0.73
   8   1 -11    2.39    2.87
   8   1 -10    0.97    1.25
   8   1  -9    7.19    2.78
   8   1  -8   16.22    4.63
   8   1  -7   32.24    6.35
   8   1  -6   21.01    4.99
   8   1  -6   31.98    7.43
   8   1  -5   21.72    6.12
   8   1  -4    5.76    3.26
   8   1  -3    2.48    2.63
   8   1  -2    8.78    4.11
   8   1  -1   17.62    6.07
   8   1   0   21.73    6.35
   8   1   1   21.10    6.78
   8   1   2   10.33    4.48
   8   1   3    6.04    4.22
   8   1   4    3.61    3.23
   8   1   5    7.11    4.66
   8   2 -13    9.42    3.76
   8   2 -12    4.00    2.09
   8   2 -11    4.54    2.41
   8   2 -10    0.33    1.61
   8   2  -9    1.93    1.50
   8   2  -8    9.78    3.60
   8   2  -7   11.69    3.88
   8   2  -6   47.31    8.99
   8   2  -6   39.11    7.45
   8   2  -5   33.86    7.75
   8   2  -5   27.09    5.91
   8   2  -4   14.29    5.12
   8   2  -3    6.73    4.38
   8   2  -2    0.76    2.11
   8   2  -1    6.76    4.05
   8   2   0   10.71    5.43
   8   2   1   13.93    5.79
   8   2   2   13.37    5.48
   8   2   3   10.10    5.55
   8   2   4    4.22    2.01
   8   2   5   -2.98    3.39
   8   3 -13    5.11    3.00
   8   3 -12    5.76    3.14
   8   3 -11    5.30    3.24
   8   3 -10    3.35    2.80
   8   3  -9    0.87    0.59
   8   3  -8    2.99    1.97
   8   3  -7    9.08    3.68
   8   3  -6   16.96    5.30
   8   3  -5   16.54    4.77
   8   3  -5   14.12    4.16
   8   3  -4    6.43    2.72
   8   3  -3    0.04    1.72
   8   3  -2   -2.09    1.32
   8   3  -1   -4.89    3.29
   8   3   0   -4.84    4.91
   8   3   1    0.95    2.09
   8   3   2    0.06    2.19
   8   3   3    5.26    2.72
   8   3   4    2.56    2.40
   8   4 -13    1.03    1.17
   8   4 -12    4.46    2.80
   8   4 -11    5.95    2.91
   8   4 -10    9.18    4.55
   8   4  -9    4.86    3.47
   8   4  -8   -0.55    0.77
   8   4  -7   -1.59    2.21
   8   4  -6    5.64    2.71
   8   4  -5   14.14    4.99
   8   4  -4    6.97    3.50
   8   4  -4    7.02    3.72
   8   4  -3    1.36    0.90
   8   4  -2   -0.45    3.15
   8   4  -1   -0.74    2.34
   8   4   0   -4.74    4.15
   8   4   1   -3.47    3.47
   8   4   2    0.61    1.73
   8   5 -12    1.96    1.35
   8   5 -11    3.77    2.17
   8   5 -10   12.56    5.07
   8   5  -9    8.64    4.16
   8   5  -8    5.87    3.58
   8   5  -7   -0.41    0.52
   8   5  -6   -1.69    1.73
   8   5  -5    4.79    3.11
   8   5  -4    5.68    3.02
   8   5  -3    9.43    4.06
   8   5  -1    3.43    2.88
   8   6 -11    0.29    0.51
   8   6 -10    4.13    2.32
   8   6  -9    9.40    4.79
   8   6  -8    9.02    4.40
   8   6  -7    4.35    3.27
   8   6  -6    1.97    1.63
   8   6  -5   -1.65    2.83
   8   6  -4   -0.80    2.29
   8   6  -3   -2.21    3.49
   9 -12  -4    4.91    2.78
   9 -12  -3   67.32   11.51
   9 -11  -7    1.88    2.28
   9 -11  -6    1.27    1.67
   9 -11  -5   -1.53    1.55
   9 -11  -4    0.40    0.20
   9 -11  -3   51.60    9.79
   9 -11  -2    9.20    4.26
   9 -11  -1   -1.21    2.02
   9 -10  -9    1.49    1.46
   9 -10  -8    9.25    4.40
   9 -10  -7    6.51    3.89
   9 -10  -6    5.58    2.83
   9 -10  -5    0.03    0.77
   9 -10  -4   -0.79    1.42
   9 -10  -3   30.30    6.73
   9 -10  -2   27.48    7.47
   9 -10  -1    0.95    1.72
   9 -10   2    4.02    2.87
   9 -10   3    2.62    2.14
   9  -9 -10   -1.51    1.26
   9  -9  -9   -1.76    2.17
   9  -9  -8    7.82    3.37
   9  -9  -7   10.46    3.75
   9  -9  -6    4.36    2.82
   9  -9  -5    3.21    2.46
   9  -9  -4    0.37    1.05
   9  -9  -3   -0.09    0.70
   9  -9  -2   21.51    6.45
   9  -9  -1    0.06    1.50
   9  -9   1   21.14    5.98
   9  -9   2    7.19    3.62
   9  -9   3    1.77    1.01
   9  -9   4   -0.44    0.50
   9  -8  -9   -1.03    1.99
   9  -8  -8   -0.75    1.61
   9  -8  -7    2.91    2.25
   9  -8  -6    8.62    3.31
   9  -8  -5   14.99    4.14
   9  -8  -4   11.37    3.87
   9  -8  -3    7.87    3.07
   9  -8  -2   21.82    6.38
   9  -8  -1    1.28    1.26
   9  -8   0   11.84    4.50
   9  -8   1   13.52    4.59
   9  -8   2   10.94    4.23
   9  -8   3    6.18    2.79
   9  -8   4    0.07    1.42
   9  -8   5    0.36    0.90
   9  -7  -8   -2.62    2.38
   9  -7  -7    0.12    0.68
   9  -7  -6    3.17    1.80
   9  -7  -5   18.43    5.30
   9  -7  -4   25.56    5.93
   9  -7  -3   18.21    5.43
   9  -7  -2   10.82    5.90
   9  -7  -2    9.69    3.39
   9  -7  -1   -2.32    2.12
   9  -7   0    1.71    1.67
   9  -7   1    9.63    3.89
   9  -7   2    8.59    3.77
   9  -7   3    5.60    2.73
   9  -7   4    6.05    3.14
   9  -7   5    4.86    3.03
   9  -6 -10    7.69    3.74
   9  -6  -8   -3.29    2.18
   9  -6  -7   -3.52    2.53
   9  -6  -6    2.36    1.66
   9  -6  -6    4.61    2.18
   9  -6  -5   15.31    4.06
   9  -6  -5   15.86    4.31
   9  -6  -4   30.26    6.35
   9  -6  -4   43.41    6.95
   9  -6  -3   23.84    5.87
   9  -6  -3   60.47    8.92
   9  -6  -2   15.77    4.42
   9  -6  -1    3.94    1.80
   9  -6   0   -1.71    2.11
   9  -6   1    0.19    0.66
   9  -6   2    5.03    2.85
   9  -6   3    9.28    4.08
   9  -6   4    8.95    4.15
   9  -6   5    9.79    4.36
   9  -5 -12    3.61    2.29
   9  -5 -11    6.29    3.33
   9  -5 -10   10.54    4.00
   9  -5  -9    7.07    3.11
   9  -5  -8    5.65    2.86
   9  -5  -7    1.50    0.85
   9  -5  -7    1.93    1.16
   9  -5  -6   -2.01    1.90
   9  -5  -6   -1.13    2.08
   9  -5  -5    7.32    2.60
   9  -5  -5    7.78    3.06
   9  -5  -4   23.49    5.49
   9  -5  -3   22.82    5.56
   9  -5  -2   19.40    5.07
   9  -5  -1   14.18    4.49
   9  -5   0    3.06    2.31
   9  -5   1   -1.06    1.28
   9  -5   2    0.12    0.84
   9  -5   3    3.00    2.93
   9  -5   4    8.83    4.20
   9  -5   5    9.98    4.45
   9  -4 -13   -0.75    0.49
   9  -4 -12   -0.51    1.05
   9  -4 -11    3.51    2.27
   9  -4 -10    7.82    3.36
   9  -4  -9   16.57    4.56
   9  -4  -8   10.98    3.00
   9  -4  -8   15.23    4.32
   9  -4  -7    8.91    2.55
   9  -4  -7   15.87    4.32
   9  -4  -7   19.91    5.30
   9  -4  -6    3.86    2.42
   9  -4  -5    0.52    1.14
   9  -4  -4    5.52    2.82
   9  -4  -3   12.90    4.24
   9  -4  -2   15.58    4.62
   9  -4  -1   18.75    5.11
   9  -4   0   10.49    4.19
   9  -4   1    8.84    4.19
   9  -4   2    1.32    1.80
   9  -4   3   -0.65    2.65
   9  -4   4    0.92    2.67
   9  -4   5    3.51    1.85
   9  -3 -14    3.68    2.58
   9  -3 -13    0.42    0.31
   9  -3 -12    0.20    0.58
   9  -3 -11   -1.09    1.25
   9  -3 -10    3.75    2.07
   9  -3  -9    9.91    3.03
   9  -3  -9    9.41    3.46
   9  -3  -8   20.00    4.43
   9  -3  -8   20.20    5.11
   9  -3  -7   18.18    4.04
   9  -3  -6   19.55    5.73
   9  -3  -5    5.15    2.59
   9  -3  -4   -1.23    2.34
   9  -3  -3    1.87    1.10
   9  -3  -2    5.13    2.55
   9  -3  -1   16.54    5.29
   9  -3   0   22.97    6.39
   9  -3   1    9.17    4.17
   9  -3   2    5.55    2.40
   9  -3   3   -0.77    2.38
   9  -3   4   -5.46    4.32
   9  -3   5   -1.42    2.78
   9  -2 -14    1.56    1.74
   9  -2 -13    4.19    2.49
   9  -2 -12    1.76    2.06
   9  -2 -11   -0.32    0.69
   9  -2 -10    1.70    1.15
   9  -2  -9    5.05    2.07
   9  -2  -8   15.30    3.88
   9  -2  -7   14.68    3.63
   9  -2  -6   31.86    7.90
   9  -2  -5   10.82    4.45
   9  -2  -4    3.16    2.10
   9  -2  -3   -2.78    2.70
   9  -2  -2   -1.79    3.27
   9  -2  -1    2.49    2.00
   9  -2   0   13.79    4.41
   9  -2   1   19.67    5.68
   9  -2   2   12.26    4.72
   9  -2   3    8.00    3.85
   9  -2   4    2.38    0.65
   9  -2   5   -0.89    1.66
   9  -1 -14    1.40    2.27
   9  -1 -13    8.97    4.05
   9  -1 -12    6.00    3.33
   9  -1 -11    5.65    3.09
   9  -1 -10    1.35    1.49
   9  -1  -9    0.49    0.44
   9  -1  -8    4.03    1.93
   9  -1  -7    9.95    3.19
   9  -1  -6   24.84    6.75
   9  -1  -5   15.97    5.03
   9  -1  -4    4.79    2.60
   9  -1  -3    1.08    2.40
   9  -1  -2   -3.06    3.79
   9  -1  -1    1.25    1.33
   9  -1   0   12.00    4.70
   9  -1   1   13.05    5.22
   9  -1   2   10.53    4.84
   9  -1   3    7.09    3.39
   9  -1   4    5.10    3.54
   9   0 -14    1.86    1.80
   9   0 -11   12.99    4.44
   9   0 -10    8.18    3.44
   9   0  -9   -0.50    1.09
   9   0  -8   -0.49    1.23
   9   0  -7    3.80    1.88
   9   0  -6    4.27    2.14
   9   0  -5   26.06    7.39
   9   0  -4   16.97    5.77
   9   0  -3   19.94    6.75
   9   0  -2    5.95    3.73
   9   0  -1   -2.55    2.85
   9   0   0    1.88    0.77
   9   0   1    5.46    3.44
   9   0   2    6.33    3.42
   9   0   3    6.95    3.86
   9   1 -11    8.68    3.76
   9   1 -10   12.38    4.30
   9   1  -9    6.27    3.23
   9   1  -8   -0.63    1.76
   9   1  -7   -0.52    1.75
   9   1  -6    1.27    0.37
   9   1  -4   18.62    6.18
   9   1  -3   16.65    6.16
   9   1  -2   19.08    6.82
   9   1  -1    3.14    2.42
   9   1   0    3.10    3.36
   9   1   1    2.29    2.80
   9   1   2    4.13    3.54
   9   2 -11    6.83    3.51
   9   2 -10    7.73    3.95
   9   2  -9    4.36    2.74
   9   2  -8    4.80    2.42
   9   2  -7   -0.82    1.93
   9   2  -6   -1.22    2.61
   9   2  -5   -2.30    3.32
   9   2  -3   19.94    7.51
   9   2  -2   12.70    6.03
   9   2  -1   10.09    5.75
   9   2   0    7.49    4.83
   9   2   1   10.61    6.15
   9   3 -11    3.30    3.16
   9   3 -10    5.56    3.31
   9   3  -9    7.40    3.65
   9   3  -8    4.83    2.78
   9   3  -7    2.47    0.56
   9   3  -6   -3.81    3.61
   9   3  -5   -6.08    4.22
   9   3  -4   -3.60    3.56
   9   4 -10    1.71    1.74
   9   4  -9    6.93    3.77
   9   4  -8    6.09    3.21
   9   4  -7    8.01    4.20
   9   4  -6    2.57    2.04
   9   4  -5   -2.43    3.36
   9   4  -4   -5.15    4.34
   9   4  -3   -1.91    3.51
  10  -9  -2    4.58    2.75
  10  -9  -1    2.02    2.10
  10  -9   0    0.70    1.08
  10  -8  -4    2.41    2.18
  10  -8  -3    5.18    2.79
  10  -8  -2    5.46    2.72
  10  -8  -1    6.82    3.45
  10  -8   0    4.73    2.86
  10  -8   1    0.36    1.77
  10  -7  -4   -1.48    1.96
  10  -7  -3    2.54    1.77
  10  -7  -2    9.00    3.95
  10  -7  -1   11.82    4.33
  10  -7   0   12.00    4.35
  10  -7   1    6.23    3.33
  10  -7   2    3.75    2.62
  10  -6  -5   -1.39    2.16
  10  -6  -4   -0.89    1.78
  10  -6  -3    0.09    0.90
  10  -6  -2    3.91    2.43
  10  -6  -1    9.69    3.81
  10  -6   0   12.05    4.60
  10  -6   1    8.44    4.28
  10  -6   2    6.09    3.79
  10  -5  -4    3.06    2.12
  10  -5  -3    1.96    1.96
  10  -5  -2    0.97    1.13
  10  -5  -1    4.01    2.43
  10  -5   0    9.13    4.03
  10  -5   1    4.22    2.43
  10  -5   2    8.11    4.33
  10  -4  -4   14.32    5.29
  10  -4  -3    8.17    3.83
  10  -4  -2    3.51    2.48
  10  -4  -1    0.68    0.49
  10  -4   0   -1.87    2.69
  10  -4   1    3.19    1.69
  10  -4   2    2.18    0.70
  10  -3  -4   19.37    6.45
  10  -3  -3    8.58    4.55
  10  -3  -2    2.72    1.40
  10  -3  -1   -3.28    3.49
  10  -3   0   -3.28    3.81
  10  -3   1   -3.56    3.38
  10  -2  -7   -3.34    2.62
  10  -2  -3    7.53    3.18
  10  -2  -2    2.31    1.31
  10  -2  -1   -0.07    2.57
  10  -2   0   -0.98    1.79
  10  -1  -8    5.12    2.65
  10  -1  -7   -1.08    1.79
  10  -1  -6   -1.87    2.50
  10   0  -8   10.90    3.99
  10   0  -7    0.20    1.16
  10   0  -6   -0.76    1.95
  10   1  -8    3.80    2.20
  10   1  -7    1.89    1.33
  10   1  -6    4.33    1.92
  10   1  -5   -0.62    2.01
   0   0   0    0.00    0.00
;
_shelx_hkl_checksum              15244
_shelx_fab_file
;
    1    0    0    -24.16      0.00
    2    0    0      8.06      0.00
    3    0    0     -3.65      0.00
    4    0    0      2.87      0.00
    5    0    0     -1.11      0.00
    6    0    0      1.17      0.00
    7    0    0     -0.84      0.00
    8    0    0      0.09      0.00
    9    0    0     -0.37      0.00
  -10    1    0     -0.05      0.00
   -9    1    0      0.44      0.00
   -8    1    0     -0.30      0.00
   -7    1    0      0.84      0.00
   -6    1    0     -0.68      0.00
   -5    1    0     -0.26      0.00
   -4    1    0     -1.14      0.00
   -3    1    0      2.11      0.00
   -2    1    0     -4.66      0.00
   -1    1    0     17.72      0.00
    1    1    0     21.54      0.00
    2    1    0     -7.45      0.00
    3    1    0      3.57      0.00
    4    1    0     -3.25      0.00
    5    1    0      1.43      0.00
    6    1    0     -1.10      0.00
    7    1    0      0.56      0.00
    8    1    0      0.31      0.00
    9    1    0      0.11      0.00
  -10    2    0     -0.23      0.00
   -9    2    0     -0.17      0.00
   -8    2    0     -0.03      0.00
   -7    2    0     -0.39      0.00
   -6    2    0      0.02      0.00
   -5    2    0      1.80      0.00
   -4    2    0     -1.10      0.00
   -3    2    0      0.19      0.00
   -2    2    0     -0.69      0.00
   -1    2    0     -5.96      0.00
    0    2    0     15.20      0.00
    1    2    0    -12.24      0.00
    2    2    0      3.82      0.00
    3    2    0     -2.26      0.00
    4    2    0      2.33      0.00
    5    2    0     -0.59      0.00
    6    2    0      0.52      0.00
    7    2    0     -0.33      0.00
    8    2    0     -0.48      0.00
    9    2    0      0.04      0.00
  -10    3    0      0.38      0.00
   -9    3    0     -0.28      0.00
   -8    3    0      0.77      0.00
   -7    3    0     -0.32      0.00
   -6    3    0      0.19      0.00
   -5    3    0     -2.36      0.00
   -4    3    0      2.69      0.00
   -3    3    0     -2.02      0.00
   -2    3    0      4.80      0.00
   -1    3    0     -4.46      0.00
    0    3    0     -1.28      0.00
    1    3    0      2.53      0.00
    2    3    0     -0.20      0.00
    3    3    0      0.92      0.00
    4    3    0     -0.86      0.00
    5    3    0     -0.83      0.00
    6    3    0      0.29      0.00
    7    3    0      0.20      0.00
    8    3    0      0.38      0.00
    9    3    0      0.00      0.00
  -10    4    0     -0.29      0.00
   -9    4    0      0.56      0.00
   -8    4    0     -1.44      0.00
   -7    4    0      0.87      0.00
   -6    4    0      0.33      0.00
   -5    4    0      1.43      0.00
   -4    4    0     -2.93      0.00
   -3    4    0      2.71      0.00
   -2    4    0     -5.94      0.00
   -1    4    0      9.05      0.00
    0    4    0     -6.20      0.00
    1    4    0      2.65      0.00
    2    4    0     -1.17      0.00
    3    4    0     -0.37      0.00
    4    4    0     -0.34      0.00
    5    4    0      2.03      0.00
    6    4    0     -0.97      0.00
    7    4    0     -0.05      0.00
    8    4    0     -0.27      0.00
  -10    5    0      0.08      0.00
   -9    5    0     -0.53      0.00
   -8    5    0      1.61      0.00
   -7    5    0     -1.08      0.00
   -6    5    0     -1.15      0.00
   -5    5    0      0.40      0.00
   -4    5    0      1.99      0.00
   -3    5    0     -2.43      0.00
   -2    5    0      4.62      0.00
   -1    5    0     -7.99      0.00
    0    5    0      6.70      0.00
    1    5    0     -2.93      0.00
    2    5    0      0.59      0.00
    3    5    0      0.41      0.00
    4    5    0      0.87      0.00
    5    5    0     -2.37      0.00
    6    5    0      1.17      0.00
    7    5    0     -0.08      0.00
  -10    6    0      0.00      0.00
   -9    6    0      0.24      0.00
   -8    6    0     -1.11      0.00
   -7    6    0      0.96      0.00
   -6    6    0      1.52      0.00
   -5    6    0     -1.95      0.00
   -4    6    0     -0.58      0.00
   -3    6    0      1.64      0.00
   -2    6    0     -2.46      0.00
   -1    6    0      4.42      0.00
    0    6    0     -3.80      0.00
    1    6    0      1.20      0.00
    2    6    0      0.16      0.00
    3    6    0     -0.31      0.00
    4    6    0     -0.77      0.00
    5    6    0      1.69      0.00
    6    6    0     -0.67      0.00
    7    6    0     -0.04      0.00
  -10    7    0      0.09      0.00
   -9    7    0      0.22      0.00
   -8    7    0     -0.02      0.00
   -7    7    0     -0.47      0.00
   -6    7    0     -1.22      0.00
   -5    7    0      2.48      0.00
   -4    7    0     -0.65      0.00
   -3    7    0     -0.71      0.00
   -2    7    0      0.67      0.00
   -1    7    0     -1.28      0.00
    0    7    0      1.14      0.00
    1    7    0     -0.17      0.00
    2    7    0      0.10      0.00
    3    7    0     -0.21      0.00
    4    7    0      0.28      0.00
    5    7    0     -0.33      0.00
    6    7    0     -0.34      0.00
  -10    8    0     -0.10      0.00
   -9    8    0     -0.88      0.00
   -8    8    0      1.63      0.00
   -7    8    0     -0.59      0.00
   -6    8    0      0.79      0.00
   -5    8    0     -2.23      0.00
   -4    8    0      1.45      0.00
   -3    8    0     -0.15      0.00
   -2    8    0      0.35      0.00
   -1    8    0     -0.28      0.00
    0    8    0     -0.06      0.00
    1    8    0      0.31      0.00
    2    8    0     -0.94      0.00
    3    8    0      0.72      0.00
    4    8    0      0.39      0.00
    5    8    0     -0.99      0.00
    6    8    0      1.21      0.00
  -10    9    0     -0.18      0.00
   -8    9    0     -3.33      0.00
   -7    9    0      2.17      0.00
   -6    9    0     -0.92      0.00
   -5    9    0      1.90      0.00
   -4    9    0     -1.90      0.00
   -3    9    0      0.75      0.00
   -2    9    0     -0.64      0.00
   -1    9    0      0.56      0.00
    0    9    0      0.09      0.00
    1    9    0     -0.74      0.00
    2    9    0      1.34      0.00
    3    9    0     -0.70      0.00
    4    9    0     -0.99      0.00
    5    9    0      1.67      0.00
   -8   10    0      4.50      0.00
   -7   10    0     -3.73      0.00
   -6   10    0      1.66      0.00
   -5   10    0     -1.84      0.00
   -4   10    0      2.03      0.00
   -3   10    0     -0.95      0.00
   -2   10    0      0.51      0.00
   -1   10    0     -0.26      0.00
    0   10    0     -0.41      0.00
    1   10    0      0.81      0.00
    2   10    0     -0.94      0.00
    3   10    0      0.16      0.00
    4   10    0      1.33      0.00
    5   10    0     -1.58      0.00
   -9   11    0      2.24      0.00
   -8   11    0     -4.58      0.00
   -7   11    0      4.46      0.00
   -6   11    0     -2.32      0.00
   -5   11    0      1.78      0.00
   -4   11    0     -1.76      0.00
   -3   11    0      0.80      0.00
   -2   11    0     -0.34      0.00
   -1   11    0      0.03      0.00
    0   11    0      0.62      0.00
    1   11    0     -0.62      0.00
    2   11    0      0.22      0.00
    3   11    0      0.46      0.00
    4   11    0     -1.34      0.00
   -9   12    0     -1.56      0.00
   -8   12    0      3.55      0.00
   -7   12    0     -4.00      0.00
   -6   12    0      2.27      0.00
   -5   12    0     -1.30      0.00
   -4   12    0      1.06      0.00
   -3   12    0     -0.49      0.00
   -2   12    0      0.44      0.00
   -1   12    0     -0.20      0.00
    0   12    0     -0.62      0.00
    1   12    0      0.53      0.00
    2   12    0      0.21      0.00
    3   12    0     -0.75      0.00
   -8   13    0     -1.98      0.00
   -7   13    0      2.70      0.00
   -6   13    0     -1.51      0.00
   -5   13    0      0.46      0.00
   -4   13    0     -0.15      0.00
   -3   13    0      0.17      0.00
   -2   13    0     -0.78      0.00
   -1   13    0      0.70      0.00
    0   13    0      0.45      0.00
    1   13    0     -0.61      0.00
    2   13    0     -0.21      0.00
   -7   14    0     -1.29      0.00
   -6   14    0      0.60      0.00
   -5   14    0      0.26      0.00
   -4   14    0     -0.49      0.00
   -3   14    0      0.07      0.00
   -2   14    0      0.99      0.00
   -1   14    0     -1.08      0.00
    0   14    0     -0.22      0.00
    1   14    0      0.66      0.00
   -6   15    0     -0.03      0.00
   -5   15    0     -0.45      0.00
   -4   15    0      0.57      0.00
   -3   15    0     -0.16      0.00
   -2   15    0     -0.84      0.00
   -1   15    0      1.04      0.00
    1  -15    1     -1.04      0.00
    2  -15    1      0.98      0.00
    3  -15    1      0.01      0.00
    4  -15    1     -0.48      0.00
    5  -15    1      0.33      0.00
    6  -15    1      0.13      0.00
   -1  -14    1     -0.84      0.00
    0  -14    1      0.32      0.00
    1  -14    1      0.88      0.00
    2  -14    1     -0.88      0.00
    3  -14    1      0.16      0.00
    4  -14    1     -0.09      0.00
    5  -14    1      0.21      0.00
    6  -14    1     -0.41      0.00
    7  -14    1      0.76      0.00
   -2  -13    1     -0.50      0.00
   -1  -13    1      0.99      0.00
    0  -13    1     -0.68      0.00
    1  -13    1     -0.25      0.00
    2  -13    1      0.35      0.00
    3  -13    1     -0.28      0.00
    4  -13    1      0.94      0.00
    5  -13    1     -1.08      0.00
    6  -13    1      0.88      0.00
    7  -13    1     -1.28      0.00
    8  -13    1      1.24      0.00
   -4  -12    1     -1.13      0.00
   -3  -12    1      0.17      0.00
   -2  -12    1      0.71      0.00
   -1  -12    1     -1.20      0.00
    0  -12    1      1.06      0.00
    1  -12    1     -0.38      0.00
    2  -12    1      0.17      0.00
    3  -12    1      0.28      0.00
    4  -12    1     -1.50      0.00
    5  -12    1      1.62      0.00
    6  -12    1     -1.09      0.00
    7  -12    1      1.70      0.00
    8  -12    1     -1.98      0.00
   -4  -11    1      1.58      0.00
   -3  -11    1     -0.03      0.00
   -2  -11    1     -1.17      0.00
   -1  -11    1      1.51      0.00
    0  -11    1     -1.27      0.00
    1  -11    1      0.58      0.00
    2  -11    1     -0.27      0.00
    3  -11    1     -0.24      0.00
    4  -11    1      1.48      0.00
    5  -11    1     -1.48      0.00
    6  -11    1      0.77      0.00
    7  -11    1     -1.69      0.00
    8  -11    1      2.41      0.00
   -5  -10    1      2.00      0.00
   -4  -10    1     -1.65      0.00
   -3  -10    1     -0.30      0.00
   -2  -10    1      1.64      0.00
   -1  -10    1     -1.68      0.00
    0  -10    1      1.16      0.00
    1  -10    1     -0.30      0.00
    2  -10    1     -0.07      0.00
    3  -10    1      0.25      0.00
    4  -10    1     -1.13      0.00
    5  -10    1      1.07      0.00
    6  -10    1     -0.22      0.00
    7  -10    1      1.18      0.00
    8  -10    1     -2.27      0.00
   -5   -9    1     -1.76      0.00
   -4   -9    1      1.40      0.00
   -3   -9    1      0.37      0.00
   -2   -9    1     -1.52      0.00
   -1   -9    1      1.33      0.00
    0   -9    1     -0.79      0.00
    1   -9    1     -0.01      0.00
    2   -9    1      0.40      0.00
    3   -9    1     -0.23      0.00
    4   -9    1      0.85      0.00
    5   -9    1     -1.11      0.00
    6   -9    1      0.15      0.00
    7   -9    1     -0.51      0.00
    8   -9    1      1.61      0.00
    9   -9    1     -0.87      0.00
   -6   -8    1     -0.54      0.00
   -5   -8    1      0.95      0.00
   -4   -8    1     -1.09      0.00
   -3   -8    1      0.20      0.00
   -2   -8    1      0.56      0.00
   -1   -8    1     -0.56      0.00
    0   -8    1      0.72      0.00
    1   -8    1     -0.40      0.00
    2   -8    1     -0.18      0.00
    3   -8    1      0.04      0.00
    4   -8    1     -0.73      0.00
    5   -8    1      1.74      0.00
    6   -8    1     -0.85      0.00
    7   -8    1      0.09      0.00
    8   -8    1     -0.72      0.00
    9   -8    1      0.54      0.00
   10   -8    1      0.01      0.00
   -7   -7    1      0.30      0.00
   -6   -7    1     -0.25      0.00
   -5   -7    1      0.10      0.00
   -4   -7    1      0.86      0.00
   -3   -7    1     -1.15      0.00
   -2   -7    1      0.56      0.00
   -1   -7    1      0.26      0.00
    0   -7    1     -1.75      0.00
    1   -7    1      2.18      0.00
    2   -7    1     -0.93      0.00
    3   -7    1      0.37      0.00
    4   -7    1      0.47      0.00
    5   -7    1     -2.27      0.00
    6   -7    1      1.80      0.00
    7   -7    1      0.03      0.00
    8   -7    1     -0.11      0.00
    9   -7    1     -0.26      0.00
   10   -7    1      0.16      0.00
   -7   -6    1     -0.51      0.00
   -6   -6    1      0.86      0.00
   -5   -6    1     -1.01      0.00
   -4   -6    1     -0.67      0.00
   -3   -6    1      1.77      0.00
   -2   -6    1     -0.87      0.00
   -1   -6    1     -1.01      0.00
    0   -6    1      3.91      0.00
    1   -6    1     -5.10      0.00
    2   -6    1      2.73      0.00
    3   -6    1     -0.86      0.00
    4   -6    1      0.10      0.00
    5   -6    1      1.88      0.00
    6   -6    1     -2.13      0.00
    7   -6    1     -0.05      0.00
    8   -6    1      0.70      0.00
    9   -6    1     -0.01      0.00
   10   -6    1     -0.17      0.00
   -8   -5    1     -0.57      0.00
   -7   -5    1      0.49      0.00
   -6   -5    1     -1.04      0.00
   -5   -5    1      1.38      0.00
   -4   -5    1      0.61      0.00
   -3   -5    1     -1.79      0.00
   -2   -5    1      0.41      0.00
   -1   -5    1      1.66      0.00
    0   -5    1     -5.12      0.00
    1   -5    1      7.31      0.00
    2   -5    1     -4.33      0.00
    3   -5    1      1.09      0.00
    4   -5    1     -0.74      0.00
    5   -5    1     -0.59      0.00
    6   -5    1      1.57      0.00
    7   -5    1      0.09      0.00
    8   -5    1     -0.92      0.00
    9   -5    1      0.22      0.00
   10   -5    1     -0.05      0.00
   -8   -4    1      0.72      0.00
   -7   -4    1     -0.48      0.00
   -6   -4    1      0.76      0.00
   -5   -4    1     -0.98      0.00
   -4   -4    1     -0.99      0.00
   -3   -4    1      1.76      0.00
   -2   -4    1     -0.56      0.00
   -1   -4    1      0.41      0.00
    0   -4    1      1.92      0.00
    1   -4    1     -5.85      0.00
    2   -4    1      4.30      0.00
    3   -4    1     -0.66      0.00
    4   -4    1      0.86      0.00
    5   -4    1     -0.75      0.00
    6   -4    1     -0.65      0.00
    7   -4    1     -0.03      0.00
    8   -4    1      0.74      0.00
    9   -4    1     -0.27      0.00
   10   -4    1      0.32      0.00
   -9   -3    1      0.25      0.00
   -8   -3    1     -0.99      0.00
   -7   -3    1      0.51      0.00
   -6   -3    1     -0.16      0.00
   -5   -3    1     -0.09      0.00
   -4   -3    1      1.94      0.00
   -3   -3    1     -2.33      0.00
   -2   -3    1      2.47      0.00
   -1   -3    1     -6.63      0.00
    0   -3    1      7.36      0.00
    1   -3    1     -0.92      0.00
    2   -3    1     -1.73      0.00
    3   -3    1     -0.61      0.00
    4   -3    1     -0.09      0.00
    5   -3    1      1.23      0.00
    6   -3    1      0.12      0.00
    7   -3    1     -0.26      0.00
    8   -3    1     -0.30      0.00
    9   -3    1      0.11      0.00
   10   -3    1     -0.41      0.00
   -9   -2    1     -0.27      0.00
   -8   -2    1      1.04      0.00
   -7   -2    1     -0.39      0.00
   -6   -2    1     -0.50      0.00
   -5   -2    1      1.17      0.00
   -4   -2    1     -2.92      0.00
   -3   -2    1      3.23      0.00
   -2   -2    1     -5.25      0.00
   -1   -2    1     14.62      0.00
    0   -2    1    -19.62      0.00
    1   -2    1     10.93      0.00
    2   -2    1     -2.61      0.00
    3   -2    1      2.32      0.00
    4   -2    1     -1.30      0.00
    5   -2    1     -0.69      0.00
    6   -2    1     -0.18      0.00
    7   -2    1      0.60      0.00
    8   -2    1     -0.07      0.00
    9   -2    1      0.10      0.00
   10   -2    1      0.27      0.00
   -9   -1    1      0.02      0.00
   -8   -1    1     -0.65      0.00
   -7   -1    1      0.06      0.00
   -6   -1    1      0.83      0.00
   -5   -1    1     -1.35      0.00
   -4   -1    1      2.89      0.00
   -3   -1    1     -3.28      0.00
   -2   -1    1      6.35      0.00
   -1   -1    1    -19.10      0.00
    1   -1    1    -18.77      0.00
    2   -1    1      6.24      0.00
    3   -1    1     -3.58      0.00
    4   -1    1      2.60      0.00
    5   -1    1     -0.27      0.00
    6   -1    1      0.49      0.00
    7   -1    1     -0.74      0.00
    8   -1    1      0.10      0.00
    9   -1    1     -0.18      0.00
  -10    0    1     -0.22      0.00
   -9    0    1      0.31      0.00
   -8    0    1      0.07      0.00
   -7    0    1      0.28      0.00
   -6    0    1     -0.53      0.00
   -5    0    1      0.15      0.00
   -4    0    1     -1.25      0.00
   -3    0    1      1.71      0.00
   -2    0    1     -4.04      0.00
   -1    0    1     16.20      0.00
    1    0    1     19.59      0.00
    2    0    1     -6.80      0.00
    3    0    1      3.61      0.00
    4    0    1     -3.12      0.00
    5    0    1      0.87      0.00
    6    0    1     -0.66      0.00
    7    0    1      0.65      0.00
    8    0    1      0.11      0.00
    9    0    1      0.09      0.00
  -10    1    1      0.11      0.00
   -9    1    1     -0.39      0.00
   -8    1    1      0.20      0.00
   -7    1    1     -0.32      0.00
   -6    1    1     -0.20      0.00
   -5    1    1      1.85      0.00
   -4    1    1     -1.46      0.00
   -3    1    1      0.90      0.00
   -2    1    1     -0.68      0.00
   -1    1    1     -7.08      0.00
    0    1    1     16.62      0.00
    1    1    1    -13.13      0.00
    2    1    1      4.06      0.00
    3    1    1     -2.42      0.00
    4    1    1      2.63      0.00
    5    1    1     -0.71      0.00
    6    1    1      0.53      0.00
    7    1    1     -0.53      0.00
    8    1    1     -0.28      0.00
    9    1    1      0.03      0.00
  -10    2    1      0.03      0.00
   -9    2    1      0.15      0.00
   -8    2    1      0.08      0.00
   -7    2    1      0.00      0.00
   -6    2    1      0.72      0.00
   -5    2    1     -3.30      0.00
   -4    2    1      3.78      0.00
   -3    2    1     -3.06      0.00
   -2    2    1      4.87      0.00
   -1    2    1     -2.88      0.00
    0    2    1     -3.59      0.00
    1    2    1      3.90      0.00
    2    2    1     -0.24      0.00
    3    2    1      0.84      0.00
    4    2    1     -1.44      0.00
    5    2    1     -0.12      0.00
    6    2    1     -0.17      0.00
    7    2    1      0.50      0.00
    8    2    1      0.27      0.00
    9    2    1     -0.06      0.00
  -10    3    1     -0.02      0.00
   -9    3    1      0.18      0.00
   -8    3    1     -0.69      0.00
   -7    3    1      0.44      0.00
   -6    3    1     -0.49      0.00
   -5    3    1      3.14      0.00
   -4    3    1     -4.52      0.00
   -3    3    1      3.75      0.00
   -2    3    1     -6.26      0.00
   -1    3    1      8.50      0.00
    0    3    1     -5.36      0.00
    1    3    1      2.63      0.00
    2    3    1     -2.07      0.00
    3    3    1      0.21      0.00
    4    3    1      0.09      0.00
    5    3    1      1.19      0.00
    6    3    1     -0.27      0.00
    7    3    1     -0.48      0.00
    8    3    1     -0.20      0.00
  -10    4    1     -0.13      0.00
   -9    4    1     -0.37      0.00
   -8    4    1      1.22      0.00
   -7    4    1     -0.82      0.00
   -6    4    1     -0.31      0.00
   -5    4    1     -1.44      0.00
   -4    4    1      3.55      0.00
   -3    4    1     -3.06      0.00
   -2    4    1      4.88      0.00
   -1    4    1     -8.47      0.00
    0    4    1      7.58      0.00
    1    4    1     -4.25      0.00
    2    4    1      2.06      0.00
    3    4    1     -0.45      0.00
    4    4    1      0.86      0.00
    5    4    1     -1.89      0.00
    6    4    1      0.52      0.00
    7    4    1      0.42      0.00
    8    4    1      0.22      0.00
  -10    5    1      0.19      0.00
   -9    5    1      0.42      0.00
   -8    5    1     -1.40      0.00
   -7    5    1      1.10      0.00
   -6    5    1      0.96      0.00
   -5    5    1     -0.67      0.00
   -4    5    1     -1.65      0.00
   -3    5    1      1.77      0.00
   -2    5    1     -2.35      0.00
   -1    5    1      5.08      0.00
    0    5    1     -5.15      0.00
    1    5    1      2.63      0.00
    2    5    1     -0.93      0.00
    3    5    1      0.35      0.00
    4    5    1     -1.17      0.00
    5    5    1      1.78      0.00
    6    5    1     -0.27      0.00
    7    5    1     -0.51      0.00
  -10    6    1     -0.02      0.00
   -9    6    1     -0.34      0.00
   -8    6    1      1.04      0.00
   -7    6    1     -1.16      0.00
   -6    6    1     -0.93      0.00
   -5    6    1      1.99      0.00
   -4    6    1     -0.18      0.00
   -3    6    1     -0.51      0.00
   -2    6    1      0.20      0.00
   -1    6    1     -1.40      0.00
    0    6    1      1.76      0.00
    1    6    1     -0.65      0.00
    2    6    1      0.25      0.00
    3    6    1     -0.43      0.00
    4    6    1      0.93      0.00
    5    6    1     -0.93      0.00
    6    6    1     -0.45      0.00
    7    6    1      0.87      0.00
  -10    7    1     -0.20      0.00
   -9    7    1      0.04      0.00
   -8    7    1     -0.01      0.00
   -7    7    1      0.62      0.00
   -6    7    1      0.47      0.00
   -5    7    1     -2.18      0.00
   -4    7    1      1.38      0.00
   -3    7    1     -0.45      0.00
   -2    7    1      1.03      0.00
   -1    7    1     -0.87      0.00
    0    7    1      0.36      0.00
    1    7    1     -0.22      0.00
    2    7    1     -0.42      0.00
    3    7    1      0.76      0.00
    4    7    1     -0.49      0.00
    5    7    1     -0.06      0.00
    6    7    1      1.13      0.00
  -10    8    1      0.14      0.00
   -9    8    1      0.57      0.00
   -8    8    1     -1.63      0.00
   -7    8    1      0.81      0.00
   -6    8    1     -0.36      0.00
   -5    8    1      1.76      0.00
   -4    8    1     -1.86      0.00
   -3    8    1      1.03      0.00
   -2    8    1     -1.42      0.00
   -1    8    1      1.64      0.00
    0    8    1     -1.06      0.00
    1    8    1      0.29      0.00
    2    8    1      0.77      0.00
    3    8    1     -1.00      0.00
    4    8    1      0.20      0.00
    5    8    1      0.51      0.00
    6    8    1     -1.15      0.00
  -10    9    1      0.18      0.00
   -9    9    1     -1.25      0.00
   -8    9    1      3.32      0.00
   -7    9    1     -2.82      0.00
   -6    9    1      1.03      0.00
   -5    9    1     -1.37      0.00
   -4    9    1      1.78      0.00
   -3    9    1     -1.12      0.00
   -2    9    1      1.23      0.00
   -1    9    1     -1.46      0.00
    0    9    1      0.98      0.00
    1    9    1     -0.29      0.00
    2    9    1     -0.63      0.00
    3    9    1      0.84      0.00
    4    9    1     -0.11      0.00
    5    9    1     -0.27      0.00
   -9   10    1      1.48      0.00
   -8   10    1     -4.22      0.00
   -7   10    1      4.47      0.00
   -6   10    1     -2.03      0.00
   -5   10    1      1.16      0.00
   -4   10    1     -1.32      0.00
   -3   10    1      0.80      0.00
   -2   10    1     -0.77      0.00
   -1   10    1      0.93      0.00
    0   10    1     -0.61      0.00
    1   10    1      0.37      0.00
    2   10    1      0.07      0.00
    3   10    1     -0.35      0.00
    4   10    1      0.06      0.00
    5   10    1     -0.17      0.00
   -9   11    1     -0.95      0.00
   -8   11    1      3.80      0.00
   -7   11    1     -4.82      0.00
   -6   11    1      2.52      0.00
   -5   11    1     -0.88      0.00
   -4   11    1      0.64      0.00
   -3   11    1     -0.31      0.00
   -2   11    1      0.44      0.00
   -1   11    1     -0.55      0.00
    0   11    1      0.19      0.00
    1   11    1     -0.29      0.00
    2   11    1      0.38      0.00
    3   11    1     -0.15      0.00
    4   11    1      0.10      0.00
   -9   12    1     -0.03      0.00
   -8   12    1     -2.34      0.00
   -7   12    1      3.75      0.00
   -6   12    1     -2.06      0.00
   -5   12    1      0.34      0.00
   -4   12    1      0.04      0.00
   -3   12    1     -0.05      0.00
   -2   12    1     -0.45      0.00
   -1   12    1      0.57      0.00
    0   12    1      0.08      0.00
    1   12    1     -0.03      0.00
    2   12    1     -0.44      0.00
    3   12    1      0.41      0.00
   -8   13    1      0.75      0.00
   -7   13    1     -1.98      0.00
   -6   13    1      0.97      0.00
   -5   13    1      0.24      0.00
   -4   13    1     -0.46      0.00
   -3   13    1      0.18      0.00
   -2   13    1      0.64      0.00
   -1   13    1     -0.84      0.00
    0   13    1     -0.12      0.00
    1   13    1      0.35      0.00
    2   13    1      0.25      0.00
   -7   14    1      0.44      0.00
   -6   14    1      0.06      0.00
   -5   14    1     -0.53      0.00
   -4   14    1      0.47      0.00
   -3   14    1     -0.20      0.00
   -2   14    1     -0.65      0.00
   -1   14    1      0.96      0.00
    0   14    1     -0.01      0.00
   -6   15    1     -0.59      0.00
   -5   15    1      0.43      0.00
   -4   15    1     -0.19      0.00
   -3   15    1      0.19      0.00
   -2   15    1      0.31      0.00
   -1   15    1     -0.72      0.00
    1  -15    2      0.78      0.00
    2  -15    2     -0.58      0.00
    3  -15    2     -0.09      0.00
    4  -15    2      0.18      0.00
    5  -15    2     -0.10      0.00
    0  -14    2     -0.06      0.00
    1  -14    2     -0.61      0.00
    2  -14    2      0.28      0.00
    3  -14    2      0.08      0.00
    4  -14    2      0.50      0.00
    5  -14    2     -0.68      0.00
    6  -14    2     -0.03      0.00
    7  -14    2      0.38      0.00
   -3  -13    2     -0.58      0.00
   -2  -13    2      1.04      0.00
   -1  -13    2     -0.94      0.00
    0  -13    2      0.35      0.00
    1  -13    2      0.12      0.00
    2  -13    2      0.27      0.00
    3  -13    2     -0.29      0.00
    4  -13    2     -0.92      0.00
    5  -13    2      1.34      0.00
    6  -13    2     -0.20      0.00
    7  -13    2     -0.54      0.00
    8  -13    2      0.29      0.00
   -3  -12    2      0.42      0.00
   -2  -12    2     -1.20      0.00
   -1  -12    2      1.23      0.00
    0  -12    2     -0.75      0.00
    1  -12    2      0.28      0.00
    2  -12    2     -0.56      0.00
    3  -12    2      0.57      0.00
    4  -12    2      0.65      0.00
    5  -12    2     -1.16      0.00
    6  -12    2      0.06      0.00
    7  -12    2      0.61      0.00
    8  -12    2     -0.29      0.00
   -4  -11    2     -1.01      0.00
   -3  -11    2     -0.36      0.00
   -2  -11    2      1.50      0.00
   -1  -11    2     -1.67      0.00
    0  -11    2      1.14      0.00
    1  -11    2     -0.35      0.00
    2  -11    2      0.26      0.00
    3  -11    2     -0.56      0.00
    4  -11    2      0.05      0.00
    5  -11    2      0.24      0.00
    6  -11    2      0.50      0.00
    7  -11    2     -0.72      0.00
    8  -11    2      0.23      0.00
   -5  -10    2     -1.22      0.00
   -4  -10    2      1.21      0.00
   -3  -10    2      0.28      0.00
   -2  -10    2     -1.67      0.00
   -1  -10    2      1.91      0.00
    0  -10    2     -1.29      0.00
    1  -10    2      0.15      0.00
    2  -10    2      0.41      0.00
    3  -10    2      0.15      0.00
    4  -10    2     -0.49      0.00
    5  -10    2      0.52      0.00
    6  -10    2     -0.93      0.00
    7  -10    2      0.82      0.00
    8  -10    2     -0.21      0.00
    9  -10    2      0.27      0.00
   -5   -9    2      1.21      0.00
   -4   -9    2     -1.53      0.00
   -3   -9    2      0.30      0.00
   -2   -9    2      1.13      0.00
   -1   -9    2     -1.45      0.00
    0   -9    2      1.05      0.00
    1   -9    2     -0.02      0.00
    2   -9    2     -0.88      0.00
    3   -9    2      0.42      0.00
    4   -9    2      0.30      0.00
    5   -9    2     -0.32      0.00
    6   -9    2      0.54      0.00
    7   -9    2     -0.63      0.00
    9   -9    2     -0.20      0.00
   -6   -8    2      0.06      0.00
   -5   -8    2     -1.13      0.00
   -4   -8    2      2.05      0.00
   -3   -8    2     -1.48      0.00
   -2   -8    2      0.18      0.00
   -1   -8    2      0.40      0.00
    0   -8    2     -0.69      0.00
    1   -8    2      0.36      0.00
    2   -8    2      0.70      0.00
    3   -8    2     -0.76      0.00
    4   -8    2      0.28      0.00
    5   -8    2     -0.63      0.00
    6   -8    2      0.61      0.00
    7   -8    2      0.08      0.00
    8   -8    2     -0.18      0.00
    9   -8    2      0.02      0.00
   -7   -7    2     -0.74      0.00
   -6   -7    2      0.19      0.00
   -5   -7    2      0.85      0.00
   -4   -7    2     -2.39      0.00
   -3   -7    2      2.63      0.00
   -2   -7    2     -1.47      0.00
   -1   -7    2      0.44      0.00
    0   -7    2      0.81      0.00
    1   -7    2     -1.43      0.00
    2   -7    2      0.16      0.00
    3   -7    2      0.77      0.00
    4   -7    2     -0.67      0.00
    5   -7    2      1.37      0.00
    6   -7    2     -1.66      0.00
    7   -7    2      0.52      0.00
    8   -7    2      0.07      0.00
    9   -7    2      0.20      0.00
   10   -7    2     -0.40      0.00
   -7   -6    2      0.78      0.00
   -6   -6    2     -0.44      0.00
   -5   -6    2     -0.29      0.00
   -4   -6    2      2.17      0.00
   -3   -6    2     -3.02      0.00
   -2   -6    2      1.93      0.00
   -1   -6    2     -0.61      0.00
    0   -6    2     -1.33      0.00
    1   -6    2      2.81      0.00
    2   -6    2     -1.23      0.00
    3   -6    2     -0.71      0.00
    4   -6    2      0.70      0.00
    5   -6    2     -1.19      0.00
    6   -6    2      1.81      0.00
    7   -6    2     -0.77      0.00
    8   -6    2     -0.01      0.00
    9   -6    2     -0.31      0.00
   10   -6    2      0.43      0.00
   -7   -5    2     -0.82      0.00
   -6   -5    2      0.62      0.00
   -5   -5    2     -0.21      0.00
   -4   -5    2     -1.66      0.00
   -3   -5    2      2.72      0.00
   -2   -5    2     -1.83      0.00
   -1   -5    2      1.03      0.00
    0   -5    2      0.80      0.00
    1   -5    2     -3.13      0.00
    2   -5    2      1.72      0.00
    3   -5    2      0.97      0.00
    4   -5    2     -0.66      0.00
    5   -5    2      0.27      0.00
    6   -5    2     -1.07      0.00
    7   -5    2      0.61      0.00
    8   -5    2      0.04      0.00
    9   -5    2      0.24      0.00
   10   -5    2     -0.22      0.00
   -8   -4    2     -1.06      0.00
   -7   -4    2      0.93      0.00
   -6   -4    2     -0.53      0.00
   -5   -4    2      0.15      0.00
   -4   -4    2      1.56      0.00
   -3   -4    2     -2.55      0.00
   -2   -4    2      2.21      0.00
   -1   -4    2     -3.16      0.00
    0   -4    2      2.55      0.00
    1   -4    2      0.90      0.00
    2   -4    2     -0.94      0.00
    3   -4    2     -1.67      0.00
    4   -4    2      0.93      0.00
    5   -4    2      0.60      0.00
    6   -4    2      0.10      0.00
    7   -4    2     -0.31      0.00
    8   -4    2     -0.12      0.00
    9   -4    2     -0.03      0.00
   10   -4    2     -0.09      0.00
   -8   -3    2      1.27      0.00
   -7   -3    2     -0.98      0.00
   -6   -3    2      0.17      0.00
   -5   -3    2      0.48      0.00
   -4   -3    2     -2.06      0.00
   -3   -3    2      2.85      0.00
   -2   -3    2     -3.33      0.00
   -1   -3    2      6.95      0.00
    0   -3    2     -8.55      0.00
    1   -3    2      3.84      0.00
    2   -3    2     -1.01      0.00
    3   -3    2      2.58      0.00
    4   -3    2     -1.54      0.00
    5   -3    2     -0.87      0.00
    6   -3    2      0.48      0.00
    7   -3    2      0.12      0.00
    8   -3    2      0.21      0.00
    9   -3    2     -0.17      0.00
   -9   -2    2      0.45      0.00
   -8   -2    2     -1.13      0.00
   -7   -2    2      0.79      0.00
   -6   -2    2      0.15      0.00
   -5   -2    2     -0.89      0.00
   -4   -2    2      2.32      0.00
   -3   -2    2     -2.84      0.00
   -2   -2    2      3.83      0.00
   -1   -2    2     -9.80      0.00
    0   -2    2     13.95      0.00
    1   -2    2     -8.68      0.00
    2   -2    2      3.03      0.00
    3   -2    2     -3.21      0.00
    4   -2    2      2.19      0.00
    5   -2    2      0.60      0.00
    6   -2    2     -0.59      0.00
    7   -2    2     -0.03      0.00
    8   -2    2     -0.33      0.00
    9   -2    2      0.28      0.00
   -9   -1    2     -0.17      0.00
   -8   -1    2      0.57      0.00
   -7   -1    2     -0.40      0.00
   -6   -1    2     -0.02      0.00
   -5   -1    2      0.19      0.00
   -4   -1    2     -1.21      0.00
   -3   -1    2      1.43      0.00
   -2   -1    2     -2.04      0.00
   -1   -1    2      8.56      0.00
    0   -1    2    -14.62      0.00
    1   -1    2     10.30      0.00
    2   -1    2     -3.66      0.00
    3   -1    2      3.16      0.00
    4   -1    2     -2.54      0.00
    5   -1    2     -0.16      0.00
    6   -1    2      0.47      0.00
    7   -1    2     -0.04      0.00
    8   -1    2      0.46      0.00
    9   -1    2     -0.30      0.00
  -10    0    2      0.07      0.00
   -9    0    2     -0.13      0.00
   -8    0    2      0.09      0.00
   -7    0    2     -0.02      0.00
   -6    0    2     -0.54      0.00
   -5    0    2      1.61      0.00
   -4    0    2     -1.33      0.00
   -3    0    2      1.36      0.00
   -2    0    2     -1.97      0.00
   -1    0    2     -2.76      0.00
    0    0    2      9.20      0.00
    1    0    2     -7.26      0.00
    2    0    2      2.25      0.00
    3    0    2     -2.40      0.00
    4    0    2      2.47      0.00
    5    0    2     -0.15      0.00
    6    0    2     -0.29      0.00
    7    0    2      0.07      0.00
    8    0    2     -0.55      0.00
    9    0    2      0.26      0.00
  -10    1    2     -0.04      0.00
   -9    1    2      0.22      0.00
   -8    1    2     -0.47      0.00
   -7    1    2      0.38      0.00
   -6    1    2      0.95      0.00
   -5    1    2     -3.36      0.00
   -4    1    2      4.00      0.00
   -3    1    2     -4.07      0.00
   -2    1    2      5.98      0.00
   -1    1    2     -4.52      0.00
    0    1    2     -0.65      0.00
    1    1    2      1.43      0.00
    2    1    2      0.32      0.00
    3    1    2      1.24      0.00
    4    1    2     -1.95      0.00
    5    1    2      0.18      0.00
    6    1    2      0.09      0.00
    7    1    2      0.04      0.00
    8    1    2      0.53      0.00
    9    1    2     -0.20      0.00
  -10    2    2      0.08      0.00
   -9    2    2     -0.14      0.00
   -8    2    2      0.46      0.00
   -7    2    2     -0.67      0.00
   -6    2    2     -0.56      0.00
   -5    2    2      3.67      0.00
   -4    2    2     -5.16      0.00
   -3    2    2      5.05      0.00
   -2    2    2     -7.45      0.00
   -1    2    2      9.02      0.00
    0    2    2     -6.08      0.00
    1    2    2      3.52      0.00
    2    2    2     -2.38      0.00
    3    2    2     -0.17      0.00
    4    2    2      1.08      0.00
    5    2    2      0.10      0.00
    6    2    2      0.10      0.00
    7    2    2     -0.27      0.00
    8    2    2     -0.44      0.00
  -10    3    2     -0.29      0.00
   -9    3    2      0.04      0.00
   -8    3    2     -0.17      0.00
   -7    3    2      0.83      0.00
   -6    3    2     -0.57      0.00
   -5    3    2     -2.16      0.00
   -4    3    2      4.19      0.00
   -3    3    2     -3.90      0.00
   -2    3    2      5.74      0.00
   -1    3    2     -8.79      0.00
    0    3    2      7.98      0.00
    1    3    2     -5.17      0.00
    2    3    2      2.85      0.00
    3    3    2     -0.45      0.00
    4    3    2     -0.15      0.00
    5    3    2     -0.47      0.00
    6    3    2     -0.30      0.00
    7    3    2      0.51      0.00
    8    3    2      0.38      0.00
  -10    4    2      0.51      0.00
   -9    4    2      0.05      0.00
   -8    4    2     -0.25      0.00
   -7    4    2     -0.66      0.00
   -6    4    2      1.65      0.00
   -5    4    2     -0.19      0.00
   -4    4    2     -1.88      0.00
   -3    4    2      1.60      0.00
   -2    4    2     -2.30      0.00
   -1    4    2      5.16      0.00
    0    4    2     -5.74      0.00
    1    4    2      3.84      0.00
    2    4    2     -1.99      0.00
    3    4    2      0.57      0.00
    4    4    2     -0.44      0.00
    5    4    2      0.59      0.00
    6    4    2      0.61      0.00
    7    4    2     -0.78      0.00
    8    4    2     -0.33      0.00
  -10    5    2     -0.46      0.00
   -9    5    2     -0.21      0.00
   -8    5    2      0.65      0.00
   -7    5    2      0.07      0.00
   -6    5    2     -1.82      0.00
   -5    5    2      1.92      0.00
   -4    5    2     -0.41      0.00
   -3    5    2      0.52      0.00
   -2    5    2     -0.81      0.00
   -1    5    2     -0.98      0.00
    0    5    2      2.13      0.00
    1    5    2     -1.55      0.00
    2    5    2      0.87      0.00
    3    5    2     -0.42      0.00
    4    5    2      0.50      0.00
    5    5    2     -0.27      0.00
    6    5    2     -1.07      0.00
    7    5    2      1.14      0.00
  -10    6    2      0.15      0.00
   -9    6    2      0.40      0.00
   -8    6    2     -0.77      0.00
   -7    6    2      0.54      0.00
   -6    6    2      1.03      0.00
   -5    6    2     -2.28      0.00
   -4    6    2      1.73      0.00
   -3    6    2     -1.70      0.00
   -2    6    2      2.45      0.00
   -1    6    2     -1.74      0.00
    0    6    2      0.54      0.00
    1    6    2     -0.09      0.00
    2    6    2     -0.23      0.00
    3    6    2      0.31      0.00
    4    6    2     -0.30      0.00
    5    6    2     -0.12      0.00
    6    6    2      1.37      0.00
    7    6    2     -1.44      0.00
  -10    7    2      0.16      0.00
   -9    7    2     -0.44      0.00
   -8    7    2      0.34      0.00
   -7    7    2     -0.53      0.00
   -6    7    2     -0.07      0.00
   -5    7    2      1.59      0.00
   -4    7    2     -1.93      0.00
   -3    7    2      1.88      0.00
   -2    7    2     -2.63      0.00
   -1    7    2      2.61      0.00
    0    7    2     -1.70      0.00
    1    7    2      0.80      0.00
    2    7    2      0.07      0.00
    3    7    2     -0.42      0.00
    4    7    2      0.35      0.00
    5    7    2     -0.01      0.00
    6    7    2     -1.03      0.00
  -10    8    2     -0.29      0.00
   -9    8    2      0.35      0.00
   -8    8    2      0.56      0.00
   -7    8    2     -0.41      0.00
   -6    8    2     -0.20      0.00
   -5    8    2     -0.67      0.00
   -4    8    2      1.39      0.00
   -3    8    2     -1.36      0.00
   -2    8    2      1.88      0.00
   -1    8    2     -2.23      0.00
    0    8    2      1.80      0.00
    1    8    2     -1.03      0.00
    2    8    2     -0.02      0.00
    3    8    2      0.69      0.00
    4    8    2     -0.85      0.00
    5    8    2      0.81      0.00
    6    8    2      0.00      0.00
  -10    9    2      0.43      0.00
   -9    9    2     -0.46      0.00
   -8    9    2     -1.31      0.00
   -7    9    2      1.77      0.00
   -6    9    2     -0.34      0.00
   -5    9    2      0.09      0.00
   -4    9    2     -0.61      0.00
   -3    9    2      0.54      0.00
   -2    9    2     -0.84      0.00
   -1    9    2      1.34      0.00
    0    9    2     -1.40      0.00
    1    9    2      1.07      0.00
    2    9    2     -0.09      0.00
    3    9    2     -0.94      0.00
    4    9    2      1.47      0.00
    5    9    2     -1.70      0.00
   -9   10    2      1.10      0.00
   -8   10    2      1.27      0.00
   -7   10    2     -2.63      0.00
   -6   10    2      1.04      0.00
   -5   10    2      0.12      0.00
   -4   10    2     -0.05      0.00
   -3   10    2      0.15      0.00
   -2   10    2      0.06      0.00
   -1   10    2     -0.55      0.00
    0   10    2      0.79      0.00
    1   10    2     -0.82      0.00
    2   10    2      0.09      0.00
    3   10    2      1.04      0.00
    4   10    2     -1.68      0.00
   -9   11    2     -2.04      0.00
   -8   11    2     -0.39      0.00
   -7   11    2      2.38      0.00
   -6   11    2     -1.18      0.00
   -5   11    2     -0.23      0.00
   -4   11    2      0.38      0.00
   -3   11    2     -0.42      0.00
   -2   11    2      0.14      0.00
   -1   11    2      0.23      0.00
    0   11    2     -0.24      0.00
    1   11    2      0.30      0.00
    2   11    2      0.08      0.00
    3   11    2     -0.94      0.00
    4   11    2      1.31      0.00
   -9   12    2      2.55      0.00
   -8   12    2     -0.68      0.00
   -7   12    2     -1.26      0.00
   -6   12    2      0.61      0.00
   -5   12    2      0.35      0.00
   -4   12    2     -0.34      0.00
   -3   12    2      0.26      0.00
   -2   12    2      0.12      0.00
   -1   12    2     -0.37      0.00
    0   12    2     -0.01      0.00
    1   12    2      0.19      0.00
    2   12    2     -0.28      0.00
    3   12    2      0.65      0.00
   -8   13    2      1.15      0.00
   -7   13    2      0.04      0.00
   -6   13    2      0.24      0.00
   -5   13    2     -0.41      0.00
   -4   13    2      0.04      0.00
   -3   13    2      0.03      0.00
   -2   13    2     -0.37      0.00
   -1   13    2      0.62      0.00
    0   13    2     -0.03      0.00
    1   13    2     -0.37      0.00
    2   13    2      0.27      0.00
   -7   14    2      0.66      0.00
   -6   14    2     -0.84      0.00
   -5   14    2      0.32      0.00
   -4   14    2      0.30      0.00
   -3   14    2     -0.12      0.00
   -2   14    2      0.24      0.00
   -1   14    2     -0.61      0.00
    0   14    2      0.18      0.00
   -6   15    2      0.96      0.00
   -5   15    2     -0.12      0.00
   -4   15    2     -0.50      0.00
   -3   15    2     -0.02      0.00
   -2   15    2      0.18      0.00
    2  -15    3      0.05      0.00
    3  -15    3      0.34      0.00
    4  -15    3      0.03      0.00
    5  -15    3     -0.27      0.00
    0  -14    3     -0.53      0.00
    1  -14    3      0.71      0.00
    2  -14    3      0.08      0.00
    3  -14    3     -0.47      0.00
    4  -14    3     -0.46      0.00
    5  -14    3      1.13      0.00
    6  -14    3     -0.30      0.00
   -2  -13    3     -0.85      0.00
   -1  -13    3      0.43      0.00
    0  -13    3      0.41      0.00
    1  -13    3     -0.68      0.00
    2  -13    3     -0.15      0.00
    3  -13    3      0.72      0.00
    4  -13    3      0.30      0.00
    5  -13    3     -1.40      0.00
    6  -13    3      0.65      0.00
    7  -13    3      0.69      0.00
   -3  -12    3     -0.31      0.00
   -2  -12    3      0.89      0.00
   -1  -12    3     -0.84      0.00
    0  -12    3      0.12      0.00
    1  -12    3      0.51      0.00
    2  -12    3     -0.10      0.00
    3  -12    3     -0.77      0.00
    4  -12    3      0.45      0.00
    5  -12    3      0.60      0.00
    6  -12    3     -0.37      0.00
    7  -12    3     -0.80      0.00
    8  -12    3      1.08      0.00
   -4  -11    3      0.42      0.00
   -3  -11    3      0.17      0.00
   -2  -11    3     -1.11      0.00
   -1  -11    3      1.51      0.00
    0  -11    3     -0.95      0.00
    1  -11    3     -0.18      0.00
    2  -11    3      0.59      0.00
    3  -11    3      0.37      0.00
    4  -11    3     -1.17      0.00
    5  -11    3      0.73      0.00
    6  -11    3     -0.39      0.00
    7  -11    3      0.95      0.00
    8  -11    3     -1.27      0.00
   -4  -10    3     -0.84      0.00
   -3  -10    3      0.22      0.00
   -2  -10    3      1.07      0.00
   -1  -10    3     -1.83      0.00
    0  -10    3      1.54      0.00
    1  -10    3     -0.25      0.00
    2  -10    3     -0.92      0.00
    3  -10    3      0.33      0.00
    4  -10    3      1.23      0.00
    5  -10    3     -1.52      0.00
    6  -10    3      0.89      0.00
    7  -10    3     -0.95      0.00
    9  -10    3     -0.97      0.00
   -5   -9    3     -0.89      0.00
   -4   -9    3      1.74      0.00
   -3   -9    3     -1.21      0.00
   -2   -9    3     -0.23      0.00
   -1   -9    3      1.13      0.00
    0   -9    3     -1.25      0.00
    1   -9    3      0.52      0.00
    2   -9    3      0.83      0.00
    3   -9    3     -0.91      0.00
    4   -9    3     -0.58      0.00
    5   -9    3      1.22      0.00
    6   -9    3     -0.57      0.00
    7   -9    3      0.50      0.00
    8   -9    3     -1.00      0.00
    9   -9    3      0.82      0.00
   -6   -8    3      0.04      0.00
   -5   -8    3      1.38      0.00
   -4   -8    3     -2.65      0.00
   -3   -8    3      2.46      0.00
   -2   -8    3     -1.23      0.00
   -1   -8    3      0.46      0.00
    0   -8    3      0.07      0.00
    1   -8    3     -0.40      0.00
    2   -8    3     -0.46      0.00
    3   -8    3      1.14      0.00
    4   -8    3     -0.24      0.00
    5   -8    3     -0.31      0.00
    6   -8    3     -0.31      0.00
    7   -8    3      0.27      0.00
    8   -8    3      0.43      0.00
    9   -8    3     -0.39      0.00
   -7   -7    3      0.90      0.00
   -6   -7    3     -0.12      0.00
   -5   -7    3     -1.26      0.00
   -4   -7    3      2.76      0.00
   -3   -7    3     -3.13      0.00
   -2   -7    3      2.44      0.00
   -1   -7    3     -2.06      0.00
    0   -7    3      1.35      0.00
    1   -7    3     -0.06      0.00
    2   -7    3      0.24      0.00
    3   -7    3     -1.20      0.00
    4   -7    3      0.78      0.00
    5   -7    3     -0.30      0.00
    6   -7    3      0.88      0.00
    7   -7    3     -0.86      0.00
    8   -7    3      0.13      0.00
    9   -7    3     -0.10      0.00
   -8   -6    3      0.69      0.00
   -7   -6    3     -0.88      0.00
   -6   -6    3      0.38      0.00
   -5   -6    3      0.51      0.00
   -4   -6    3     -1.91      0.00
   -3   -6    3      2.83      0.00
   -2   -6    3     -2.83      0.00
   -1   -6    3      2.99      0.00
    0   -6    3     -2.44      0.00
    1   -6    3      0.69      0.00
    2   -6    3     -0.43      0.00
    3   -6    3      1.46      0.00
    4   -6    3     -1.00      0.00
    5   -6    3      0.17      0.00
    6   -6    3     -0.66      0.00
    7   -6    3      0.86      0.00
    8   -6    3     -0.36      0.00
    9   -6    3      0.34      0.00
   -8   -5    3     -0.58      0.00
   -7   -5    3      0.80      0.00
   -6   -5    3     -0.53      0.00
   -5   -5    3      0.18      0.00
   -4   -5    3      0.94      0.00
   -3   -5    3     -2.23      0.00
   -2   -5    3      2.83      0.00
   -1   -5    3     -3.56      0.00
    0   -5    3      3.34      0.00
    1   -5    3     -1.46      0.00
    2   -5    3      0.97      0.00
    3   -5    3     -1.98      0.00
    4   -5    3      1.14      0.00
    5   -5    3      0.39      0.00
    6   -5    3     -0.12      0.00
    7   -5    3     -0.38      0.00
    8   -5    3      0.15      0.00
    9   -5    3     -0.17      0.00
   -9   -4    3     -0.12      0.00
   -8   -4    3      0.56      0.00
   -7   -4    3     -0.61      0.00
   -6   -4    3      0.31      0.00
   -5   -4    3     -0.18      0.00
   -4   -4    3     -0.73      0.00
   -3   -4    3      2.13      0.00
   -2   -4    3     -3.10      0.00
   -1   -4    3      4.33      0.00
    0   -4    3     -4.46      0.00
    1   -4    3      2.38      0.00
    2   -4    3     -1.54      0.00
    3   -4    3      2.47      0.00
    4   -4    3     -1.30      0.00
    5   -4    3     -0.86      0.00
    6   -4    3      0.83      0.00
    7   -4    3     -0.13      0.00
    8   -4    3      0.26      0.00
    9   -4    3     -0.25      0.00
   -8   -3    3     -0.46      0.00
   -7   -3    3      0.30      0.00
   -6   -3    3      0.07      0.00
   -5   -3    3     -0.21      0.00
   -4   -3    3      1.06      0.00
   -3   -3    3     -2.32      0.00
   -2   -3    3      3.26      0.00
   -1   -3    3     -4.82      0.00
    0   -3    3      5.35      0.00
    1   -3    3     -3.09      0.00
    2   -3    3      1.76      0.00
    3   -3    3     -2.58      0.00
    4   -3    3      1.41      0.00
    5   -3    3      1.02      0.00
    6   -3    3     -1.13      0.00
    7   -3    3      0.40      0.00
    8   -3    3     -0.57      0.00
    9   -3    3      0.60      0.00
   -9   -2    3     -0.22      0.00
   -8   -2    3      0.12      0.00
   -7   -2    3      0.06      0.00
   -6   -2    3     -0.10      0.00
   -5   -2    3      0.02      0.00
   -4   -2    3     -0.72      0.00
   -3   -2    3      1.60      0.00
   -2   -2    3     -2.03      0.00
   -1   -2    3      3.54      0.00
    0   -2    3     -4.63      0.00
    1   -2    3      2.76      0.00
    2   -2    3     -1.39      0.00
    3   -2    3      2.32      0.00
    4   -2    3     -1.45      0.00
    5   -2    3     -0.89      0.00
    6   -2    3      1.09      0.00
    7   -2    3     -0.44      0.00
    8   -2    3      0.67      0.00
    9   -2    3     -0.65      0.00
   -9   -1    3      0.07      0.00
   -8   -1    3      0.40      0.00
   -7   -1    3     -0.42      0.00
   -6   -1    3     -0.39      0.00
   -5   -1    3      1.30      0.00
   -4   -1    3     -1.08      0.00
   -3   -1    3      0.79      0.00
   -2   -1    3     -1.30      0.00
   -1   -1    3      0.36      0.00
    0   -1    3      1.37      0.00
    1   -1    3     -0.83      0.00
    2   -1    3      0.42      0.00
    3   -1    3     -1.90      0.00
    4   -1    3      1.54      0.00
    5   -1    3      0.54      0.00
    6   -1    3     -0.85      0.00
    7   -1    3      0.41      0.00
    8   -1    3     -0.63      0.00
    9   -1    3      0.45      0.00
  -10    0    3      0.19      0.00
   -9    0    3     -0.02      0.00
   -8    0    3     -0.84      0.00
   -7    0    3      0.83      0.00
   -6    0    3      0.88      0.00
   -5    0    3     -2.97      0.00
   -4    0    3      3.59      0.00
   -3    0    3     -3.94      0.00
   -2    0    3      5.50      0.00
   -1    0    3     -5.60      0.00
    0    0    3      3.50      0.00
    1    0    3     -2.19      0.00
    2    0    3      0.91      0.00
    3    0    3      1.43      0.00
    4    0    3     -1.64      0.00
    5    0    3     -0.06      0.00
    6    0    3      0.47      0.00
    7    0    3     -0.33      0.00
    8    0    3      0.56      0.00
    9    0    3     -0.21      0.00
  -10    1    3     -0.26      0.00
   -9    1    3      0.11      0.00
   -8    1    3      1.03      0.00
   -7    1    3     -1.40      0.00
   -6    1    3     -0.54      0.00
   -5    1    3      3.53      0.00
   -4    1    3     -5.03      0.00
   -3    1    3      5.85      0.00
   -2    1    3     -8.09      0.00
   -1    1    3      9.32      0.00
    0    1    3     -7.43      0.00
    1    1    3      4.78      0.00
    2    1    3     -2.10      0.00
    3    1    3     -0.79      0.00
    4    1    3      1.44      0.00
    5    1    3     -0.32      0.00
    6    1    3      0.03      0.00
    7    1    3      0.15      0.00
    8    1    3     -0.53      0.00
  -10    2    3      0.13      0.00
   -9    2    3     -0.20      0.00
   -8    2    3     -0.98      0.00
   -7    2    3      2.06      0.00
   -6    2    3     -0.85      0.00
   -5    2    3     -2.20      0.00
   -4    2    3      4.24      0.00
   -3    2    3     -5.19      0.00
   -2    2    3      7.39      0.00
   -1    2    3     -9.36      0.00
    0    2    3      8.31      0.00
    1    2    3     -5.57      0.00
    2    2    3      2.66      0.00
    3    2    3     -0.01      0.00
    4    2    3     -0.80      0.00
    5    2    3      0.43      0.00
    6    2    3     -0.56      0.00
    7    2    3      0.16      0.00
    8    2    3      0.52      0.00
  -10    3    3      0.22      0.00
   -9    3    3      0.16      0.00
   -8    3    3      0.74      0.00
   -7    3    3     -2.46      0.00
   -6    3    3      2.54      0.00
   -5    3    3     -0.31      0.00
   -4    3    3     -1.70      0.00
   -3    3    3      2.41      0.00
   -2    3    3     -3.92      0.00
   -1    3    3      6.00      0.00
    0    3    3     -6.04      0.00
    1    3    3      4.38      0.00
    2    3    3     -2.40      0.00
    3    3    3      0.64      0.00
    4    3    3      0.04      0.00
    5    3    3     -0.35      0.00
    6    3    3      1.02      0.00
    7    3    3     -0.56      0.00
    8    3    3     -0.47      0.00
  -10    4    3     -0.51      0.00
   -9    4    3     -0.08      0.00
   -8    4    3     -0.35      0.00
   -7    4    3      2.21      0.00
   -6    4    3     -3.39      0.00
   -5    4    3      2.45      0.00
   -4    4    3     -1.01      0.00
   -3    4    3      0.75      0.00
   -2    4    3     -0.19      0.00
   -1    4    3     -1.46      0.00
    0    4    3      2.41      0.00
    1    4    3     -2.20      0.00
    2    4    3      1.52      0.00
    3    4    3     -0.71      0.00
    4    4    3      0.29      0.00
    5    4    3      0.34      0.00
    6    4    3     -1.38      0.00
    7    4    3      0.97      0.00
  -10    5    3      0.50      0.00
   -9    5    3      0.13      0.00
   -8    5    3     -0.13      0.00
   -7    5    3     -1.31      0.00
   -6    5    3      2.87      0.00
   -5    5    3     -3.06      0.00
   -4    5    3      2.50      0.00
   -3    5    3     -2.70      0.00
   -2    5    3      2.92      0.00
   -1    5    3     -1.91      0.00
    0    5    3      0.55      0.00
    1    5    3      0.25      0.00
    2    5    3     -0.47      0.00
    3    5    3      0.22      0.00
    4    5    3     -0.09      0.00
    5    5    3     -0.40      0.00
    6    5    3      1.48      0.00
    7    5    3     -1.26      0.00
  -10    6    3     -0.23      0.00
   -9    6    3     -0.30      0.00
   -8    6    3      0.48      0.00
   -7    6    3      0.28      0.00
   -6    6    3     -1.43      0.00
   -5    6    3      2.21      0.00
   -4    6    3     -2.46      0.00
   -3    6    3      2.94      0.00
   -2    6    3     -3.51      0.00
   -1    6    3      3.09      0.00
    0    6    3     -1.94      0.00
    1    6    3      0.89      0.00
    2    6    3     -0.36      0.00
    3    6    3      0.33      0.00
    4    6    3     -0.11      0.00
    5    6    3      0.12      0.00
    6    6    3     -1.03      0.00
    7    6    3      1.20      0.00
  -10    7    3     -0.12      0.00
   -9    7    3      0.58      0.00
   -8    7    3     -0.58      0.00
   -7    7    3      0.29      0.00
   -6    7    3      0.06      0.00
   -5    7    3     -0.80      0.00
   -4    7    3      1.48      0.00
   -3    7    3     -1.96      0.00
   -2    7    3      2.46      0.00
   -1    7    3     -2.50      0.00
    0    7    3      2.00      0.00
    1    7    3     -1.32      0.00
    2    7    3      0.74      0.00
    3    7    3     -0.38      0.00
    4    7    3     -0.28      0.00
    5    7    3      0.79      0.00
    6    7    3     -0.04      0.00
  -10    8    3      0.55      0.00
   -9    8    3     -1.11      0.00
   -8    8    3      0.62      0.00
   -7    8    3     -0.24      0.00
   -6    8    3      0.55      0.00
   -5    8    3     -0.30      0.00
   -4    8    3     -0.34      0.00
   -3    8    3      0.61      0.00
   -2    8    3     -0.83      0.00
   -1    8    3      1.17      0.00
    0    8    3     -1.41      0.00
    1    8    3      1.29      0.00
    2    8    3     -0.64      0.00
    3    8    3     -0.22      0.00
    4    8    3      1.24      0.00
    5    8    3     -1.97      0.00
   -9    9    3      2.09      0.00
   -8    9    3     -0.98      0.00
   -7    9    3     -0.05      0.00
   -6    9    3     -0.47      0.00
   -5    9    3      0.77      0.00
   -4    9    3     -0.41      0.00
   -3    9    3      0.40      0.00
   -2    9    3     -0.43      0.00
   -1    9    3      0.01      0.00
    0    9    3      0.68      0.00
    1    9    3     -0.93      0.00
    2    9    3      0.14      0.00
    3    9    3      1.09      0.00
    4    9    3     -2.11      0.00
    5    9    3      2.62      0.00
   -9   10    3     -3.30      0.00
   -8   10    3      1.74      0.00
   -7   10    3      0.06      0.00
   -6   10    3      0.23      0.00
   -5   10    3     -0.75      0.00
   -4   10    3      0.59      0.00
   -3   10    3     -0.71      0.00
   -2   10    3      0.86      0.00
   -1   10    3     -0.52      0.00
    0   10    3     -0.10      0.00
    1   10    3      0.33      0.00
    2   10    3      0.50      0.00
    3   10    3     -1.71      0.00
    4   10    3      2.27      0.00
   -9   11    3      4.01      0.00
   -8   11    3     -2.44      0.00
   -7   11    3      0.30      0.00
   -6   11    3     -0.21      0.00
   -5   11    3      0.51      0.00
   -4   11    3     -0.26      0.00
   -3   11    3      0.37      0.00
   -2   11    3     -0.54      0.00
   -1   11    3      0.39      0.00
    0   11    3     -0.18      0.00
    1   11    3      0.24      0.00
    2   11    3     -0.96      0.00
    3   11    3      1.75      0.00
   -9   12    3     -3.59      0.00
   -8   12    3      2.46      0.00
   -7   12    3     -0.74      0.00
   -6   12    3      0.45      0.00
   -5   12    3     -0.21      0.00
   -4   12    3     -0.32      0.00
   -3   12    3      0.20      0.00
   -2   12    3      0.01      0.00
   -1   12    3      0.03      0.00
    0   12    3      0.15      0.00
    1   12    3     -0.49      0.00
    2   12    3      0.97      0.00
   -8   13    3     -1.67      0.00
   -7   13    3      0.90      0.00
   -6   13    3     -0.71      0.00
   -5   13    3     -0.05      0.00
   -4   13    3      0.82      0.00
   -3   13    3     -0.51      0.00
   -2   13    3      0.18      0.00
   -1   13    3     -0.29      0.00
    0   13    3      0.04      0.00
    1   13    3      0.36      0.00
   -7   14    3     -0.70      0.00
   -6   14    3      0.76      0.00
   -5   14    3      0.24      0.00
   -4   14    3     -1.00      0.00
   -3   14    3      0.39      0.00
   -2   14    3      0.07      0.00
   -1   14    3      0.23      0.00
    0   14    3     -0.19      0.00
   -5   15    3     -0.34      0.00
   -4   15    3      0.86      0.00
   -3   15    3     -0.04      0.00
   -2   15    3     -0.42      0.00
    0  -14    4      0.90      0.00
    1  -14    4     -1.09      0.00
    2  -14    4      0.31      0.00
    3  -14    4      0.32      0.00
    4  -14    4      0.30      0.00
    5  -14    4     -1.39      0.00
    6  -14    4      1.25      0.00
   -1  -13    4     -0.21      0.00
    0  -13    4     -0.67      0.00
    1  -13    4      1.28      0.00
    2  -13    4     -0.77      0.00
    3  -13    4     -0.22      0.00
    4  -13    4      0.04      0.00
    5  -13    4      1.37      0.00
    6  -13    4     -1.76      0.00
    7  -13    4      0.55      0.00
   -2  -12    4     -0.29      0.00
   -1  -12    4      0.77      0.00
    0  -12    4     -0.20      0.00
    1  -12    4     -0.90      0.00
    2  -12    4      1.18      0.00
    3  -12    4     -0.12      0.00
    4  -12    4     -0.64      0.00
    5  -12    4     -0.40      0.00
    6  -12    4      1.42      0.00
    7  -12    4     -0.51      0.00
    8  -12    4     -0.52      0.00
   -3  -11    4      0.51      0.00
   -2  -11    4      0.33      0.00
   -1  -11    4     -1.39      0.00
    0  -11    4      1.36      0.00
    1  -11    4     -0.09      0.00
    2  -11    4     -1.14      0.00
    3  -11    4      0.62      0.00
    4  -11    4      0.96      0.00
    5  -11    4     -0.81      0.00
    6  -11    4     -0.55      0.00
    7  -11    4      0.24      0.00
   -4  -10    4      0.90      0.00
   -3  -10    4     -1.02      0.00
   -2  -10    4      0.03      0.00
   -1  -10    4      1.31      0.00
    0  -10    4     -1.91      0.00
    1  -10    4      1.18      0.00
    2  -10    4      0.50      0.00
    3  -10    4     -0.95      0.00
    4  -10    4     -0.68      0.00
    5  -10    4      1.38      0.00
    6  -10    4     -0.09      0.00
    7  -10    4     -0.11      0.00
   -5   -9    4      0.86      0.00
   -4   -9    4     -1.71      0.00
   -3   -9    4      1.83      0.00
   -2   -9    4     -1.01      0.00
   -1   -9    4     -0.10      0.00
    0   -9    4      1.12      0.00
    1   -9    4     -1.54      0.00
    2   -9    4      0.37      0.00
    3   -9    4      0.89      0.00
    4   -9    4      0.03      0.00
    5   -9    4     -1.07      0.00
    6   -9    4      0.09      0.00
    7   -9    4      0.37      0.00
    8   -9    4      0.73      0.00
    9   -9    4     -0.88      0.00
   -6   -8    4     -0.10      0.00
   -5   -8    4     -1.06      0.00
   -4   -8    4      2.02      0.00
   -3   -8    4     -2.33      0.00
   -2   -8    4      2.12      0.00
   -1   -8    4     -1.82      0.00
    0   -8    4      0.89      0.00
    1   -8    4      0.68      0.00
    2   -8    4     -0.76      0.00
    3   -8    4     -0.63      0.00
    4   -8    4      0.53      0.00
    5   -8    4      0.44      0.00
    6   -8    4      0.20      0.00
    7   -8    4     -0.77      0.00
    8   -8    4     -0.17      0.00
    9   -8    4      0.49      0.00
   -7   -7    4     -0.80      0.00
   -6   -7    4      0.43      0.00
   -5   -7    4      0.47      0.00
   -4   -7    4     -1.30      0.00
   -3   -7    4      2.00      0.00
   -2   -7    4     -2.69      0.00
   -1   -7    4      3.42      0.00
    0   -7    4     -3.08      0.00
    1   -7    4      1.05      0.00
    2   -7    4      0.22      0.00
    3   -7    4      0.58      0.00
    4   -7    4     -0.79      0.00
    5   -7    4     -0.10      0.00
    6   -7    4     -0.21      0.00
    7   -7    4      0.83      0.00
    8   -7    4     -0.21      0.00
    9   -7    4     -0.11      0.00
   -8   -6    4     -0.05      0.00
   -7   -6    4      0.65      0.00
   -6   -6    4     -0.69      0.00
   -5   -6    4      0.42      0.00
   -4   -6    4      0.05      0.00
   -3   -6    4     -1.15      0.00
   -2   -6    4      2.69      0.00
   -1   -6    4     -4.12      0.00
    0   -6    4      4.38      0.00
    1   -6    4     -2.66      0.00
    2   -6    4      0.90      0.00
    3   -6    4     -0.91      0.00
    4   -6    4      0.82      0.00
    5   -6    4      0.20      0.00
    6   -6    4     -0.21      0.00
    7   -6    4     -0.40      0.00
    8   -6    4      0.11      0.00
    9   -6    4      0.09      0.00
   -8   -5    4     -0.29      0.00
   -7   -5    4     -0.16      0.00
   -6   -5    4      0.46      0.00
   -5   -5    4     -0.77      0.00
   -4   -5    4      0.67      0.00
   -3   -5    4      0.72      0.00
   -2   -5    4     -2.72      0.00
   -1   -5    4      4.15      0.00
    0   -5    4     -4.40      0.00
    1   -5    4      3.22      0.00
    2   -5    4     -1.76      0.00
    3   -5    4      1.30      0.00
    4   -5    4     -0.70      0.00
    5   -5    4     -0.50      0.00
    6   -5    4      0.69      0.00
    7   -5    4     -0.16      0.00
    8   -5    4      0.32      0.00
    9   -5    4     -0.43      0.00
   -9   -4    4     -0.35      0.00
   -8   -4    4      0.62      0.00
   -7   -4    4     -0.57      0.00
   -6   -4    4      0.23      0.00
   -5   -4    4      0.39      0.00
   -4   -4    4     -0.46      0.00
   -3   -4    4     -1.05      0.00
   -2   -4    4      3.09      0.00
   -1   -4    4     -3.88      0.00
    0   -4    4      3.42      0.00
    1   -4    4     -2.50      0.00
    2   -4    4      1.76      0.00
    3   -4    4     -1.34      0.00
    4   -4    4      0.44      0.00
    5   -4    4      0.75      0.00
    6   -4    4     -0.87      0.00
    7   -4    4      0.43      0.00
    8   -4    4     -0.65      0.00
    9   -4    4      0.79      0.00
   -9   -3    4      0.27      0.00
   -8   -3    4     -0.99      0.00
   -7   -3    4      1.28      0.00
   -6   -3    4     -0.75      0.00
   -5   -3    4     -0.10      0.00
   -4   -3    4      0.18      0.00
   -3   -3    4      1.27      0.00
   -2   -3    4     -3.02      0.00
   -1   -3    4      3.05      0.00
    0   -3    4     -1.73      0.00
    1   -3    4      0.88      0.00
    2   -3    4     -1.02      0.00
    3   -3    4      1.07      0.00
    4   -3    4     -0.16      0.00
    5   -3    4     -0.86      0.00
    6   -3    4      0.75      0.00
    7   -3    4     -0.31      0.00
    8   -3    4      0.60      0.00
    9   -3    4     -0.83      0.00
   -8   -2    4      1.34      0.00
   -7   -2    4     -1.71      0.00
   -6   -2    4      0.57      0.00
   -5   -2    4      0.76      0.00
   -4   -2    4     -0.96      0.00
   -3   -2    4     -0.14      0.00
   -2   -2    4      1.34      0.00
   -1   -2    4     -0.95      0.00
    0   -2    4     -0.62      0.00
    1   -2    4      1.06      0.00
    2   -2    4      0.12      0.00
    3   -2    4     -0.90      0.00
    4   -2    4      0.15      0.00
    5   -2    4      0.72      0.00
    6   -2    4     -0.50      0.00
    7   -2    4      0.08      0.00
    8   -2    4     -0.31      0.00
    9   -2    4      0.48      0.00
   -9   -1    4      0.09      0.00
   -8   -1    4     -1.49      0.00
   -7   -1    4      1.84      0.00
   -6   -1    4      0.09      0.00
   -5   -1    4     -2.15      0.00
   -4   -1    4      2.75      0.00
   -3   -1    4     -2.40      0.00
   -2   -1    4      2.01      0.00
   -1   -1    4     -2.43      0.00
    0   -1    4      3.36      0.00
    1   -1    4     -2.84      0.00
    2   -1    4      0.55      0.00
    3   -1    4      0.99      0.00
    4   -1    4     -0.52      0.00
    5   -1    4     -0.28      0.00
    6   -1    4      0.19      0.00
    7   -1    4      0.01      0.00
    8   -1    4      0.08      0.00
    9   -1    4     -0.04      0.00
   -9    0    4      0.24      0.00
   -8    0    4      1.32      0.00
   -7    0    4     -1.90      0.00
   -6    0    4     -0.35      0.00
   -5    0    4      3.01      0.00
   -4    0    4     -4.15      0.00
   -3    0    4      4.77      0.00
   -2    0    4     -5.41      0.00
   -1    0    4      5.76      0.00
    0    0    4     -5.66      0.00
    1    0    4      4.09      0.00
    2    0    4     -1.07      0.00
    3    0    4     -0.96      0.00
    4    0    4      0.85      0.00
    5    0    4     -0.29      0.00
    6    0    4      0.20      0.00
    7    0    4      0.01      0.00
    8    0    4     -0.09      0.00
   -9    1    4     -0.60      0.00
   -8    1    4     -0.92      0.00
   -7    1    4      2.12      0.00
   -6    1    4     -0.44      0.00
   -5    1    4     -2.21      0.00
   -4    1    4      3.70      0.00
   -3    1    4     -5.14      0.00
   -2    1    4      6.70      0.00
   -1    1    4     -7.14      0.00
    0    1    4      6.38      0.00
    1    1    4     -4.46      0.00
    2    1    4      1.60      0.00
    3    1    4      0.35      0.00
    4    1    4     -0.64      0.00
    5    1    4      0.64      0.00
    6    1    4     -0.64      0.00
    7    1    4      0.03      0.00
    8    1    4      0.26      0.00
  -10    2    4     -0.29      0.00
   -9    2    4      0.72      0.00
   -8    2    4      0.50      0.00
   -7    2    4     -2.45      0.00
   -6    2    4      2.02      0.00
   -5    2    4     -0.02      0.00
   -4    2    4     -1.39      0.00
   -3    2    4      3.02      0.00
   -2    2    4     -4.99      0.00
   -1    2    4      5.66      0.00
    0    2    4     -5.04      0.00
    1    2    4      3.76      0.00
    2    2    4     -1.98      0.00
    3    2    4      0.66      0.00
    4    2    4     -0.14      0.00
    5    2    4     -0.58      0.00
    6    2    4      1.00      0.00
    7    2    4     -0.21      0.00
    8    2    4     -0.38      0.00
  -10    3    4     -0.10      0.00
   -9    3    4     -0.55      0.00
   -8    3    4     -0.20      0.00
   -7    3    4      2.59      0.00
   -6    3    4     -3.40      0.00
   -5    3    4      2.30      0.00
   -4    3    4     -1.34      0.00
   -3    3    4      0.22      0.00
   -2    3    4      1.42      0.00
   -1    3    4     -2.25      0.00
    0    3    4      2.29      0.00
    1    3    4     -2.24      0.00
    2    3    4      1.82      0.00
    3    3    4     -1.29      0.00
    4    3    4      0.82      0.00
    5    3    4      0.29      0.00
    6    3    4     -1.17      0.00
    7    3    4      0.50      0.00
    8    3    4      0.34      0.00
  -10    4    4      0.33      0.00
   -9    4    4      0.25      0.00
   -8    4    4      0.02      0.00
   -7    4    4     -2.26      0.00
   -6    4    4      3.69      0.00
   -5    4    4     -3.27      0.00
   -4    4    4      2.90      0.00
   -3    4    4     -2.65      0.00
   -2    4    4      1.83      0.00
   -1    4    4     -1.10      0.00
    0    4    4      0.43      0.00
    1    4    4      0.51      0.00
    2    4    4     -0.97      0.00
    3    4    4      0.94      0.00
    4    4    4     -0.80      0.00
    5    4    4     -0.06      0.00
    6    4    4      1.10      0.00
    7    4    4     -0.73      0.00
  -10    5    4     -0.27      0.00
   -9    5    4     -0.04      0.00
   -8    5    4      0.08      0.00
   -7    5    4      1.51      0.00
   -6    5    4     -2.81      0.00
   -5    5    4      2.69      0.00
   -4    5    4     -2.75      0.00
   -3    5    4      3.24      0.00
   -2    5    4     -3.19      0.00
   -1    5    4      2.75      0.00
    0    5    4     -1.95      0.00
    1    5    4      0.78      0.00
    2    5    4     -0.17      0.00
    3    5    4      0.10      0.00
    4    5    4      0.25      0.00
    5    5    4     -0.14      0.00
    6    5    4     -0.70      0.00
    7    5    4      0.73      0.00
  -10    6    4      0.04      0.00
   -9    6    4      0.00      0.00
   -8    6    4     -0.17      0.00
   -7    6    4     -0.64      0.00
   -6    6    4      1.37      0.00
   -5    6    4     -1.29      0.00
   -4    6    4      1.57      0.00
   -3    6    4     -2.31      0.00
   -2    6    4      2.57      0.00
   -1    6    4     -2.44      0.00
    0    6    4      2.04      0.00
    1    6    4     -1.32      0.00
    2    6    4      0.99      0.00
    3    6    4     -0.91      0.00
    4    6    4      0.10      0.00
    5    6    4      0.59      0.00
    6    6    4     -0.04      0.00
  -10    7    4      0.24      0.00
   -9    7    4     -0.26      0.00
   -8    7    4      0.35      0.00
   -7    7    4     -0.05      0.00
   -6    7    4     -0.14      0.00
   -5    7    4      0.03      0.00
   -4    7    4     -0.33      0.00
   -3    7    4      0.86      0.00
   -2    7    4     -0.96      0.00
   -1    7    4      1.03      0.00
    0    7    4     -1.28      0.00
    1    7    4      1.24      0.00
    2    7    4     -1.06      0.00
    3    7    4      0.80      0.00
    4    7    4      0.26      0.00
    5    7    4     -1.32      0.00
    6    7    4      0.90      0.00
  -10    8    4     -0.67      0.00
   -9    8    4      0.99      0.00
   -8    8    4     -0.81      0.00
   -7    8    4      0.49      0.00
   -6    8    4     -0.52      0.00
   -5    8    4      0.63      0.00
   -4    8    4     -0.39      0.00
   -3    8    4      0.24      0.00
   -2    8    4     -0.49      0.00
   -1    8    4      0.36      0.00
    0    8    4      0.41      0.00
    1    8    4     -0.82      0.00
    2    8    4      0.49      0.00
    3    8    4      0.08      0.00
    4    8    4     -1.03      0.00
    5    8    4      1.89      0.00
   -9    9    4     -2.12      0.00
   -8    9    4      1.55      0.00
   -7    9    4     -0.75      0.00
   -6    9    4      0.66      0.00
   -5    9    4     -0.72      0.00
   -4    9    4      0.53      0.00
   -3    9    4     -0.64      0.00
   -2    9    4      1.12      0.00
   -1    9    4     -1.05      0.00
    0    9    4      0.15      0.00
    1    9    4      0.32      0.00
    2    9    4      0.31      0.00
    3    9    4     -1.07      0.00
    4    9    4      1.54      0.00
   -9   10    4      3.12      0.00
   -8   10    4     -2.23      0.00
   -7   10    4      0.89      0.00
   -6   10    4     -0.54      0.00
   -5   10    4      0.45      0.00
   -4   10    4     -0.23      0.00
   -3   10    4      0.43      0.00
   -2   10    4     -0.97      0.00
   -1   10    4      1.00      0.00
    0   10    4     -0.35      0.00
    1   10    4      0.12      0.00
    2   10    4     -0.90      0.00
    3   10    4      1.53      0.00
    4   10    4     -1.35      0.00
   -9   11    4     -3.30      0.00
   -8   11    4      2.36      0.00
   -7   11    4     -0.86      0.00
   -6   11    4      0.35      0.00
   -5   11    4     -0.04      0.00
   -4   11    4     -0.28      0.00
   -3   11    4      0.05      0.00
   -2   11    4      0.44      0.00
   -1   11    4     -0.58      0.00
    0   11    4      0.31      0.00
    1   11    4     -0.36      0.00
    2   11    4      1.04      0.00
    3   11    4     -1.32      0.00
   -9   12    4      2.42      0.00
   -8   12    4     -1.74      0.00
   -7   12    4      0.63      0.00
   -6   12    4     -0.20      0.00
   -5   12    4     -0.33      0.00
   -4   12    4      0.74      0.00
   -3   12    4     -0.41      0.00
   -2   12    4     -0.06      0.00
   -1   12    4      0.17      0.00
    0   12    4     -0.16      0.00
    1   12    4      0.35      0.00
    2   12    4     -0.78      0.00
   -8   13    4      0.73      0.00
   -7   13    4     -0.29      0.00
   -6   13    4      0.11      0.00
   -5   13    4      0.54      0.00
   -4   13    4     -0.92      0.00
   -3   13    4      0.39      0.00
   -2   13    4      0.05      0.00
   -1   13    4      0.01      0.00
    0   13    4      0.00      0.00
    1   13    4     -0.20      0.00
   -7   14    4     -0.01      0.00
   -6   14    4     -0.01      0.00
   -5   14    4     -0.59      0.00
   -4   14    4      0.79      0.00
   -3   14    4     -0.06      0.00
   -2   14    4     -0.26      0.00
   -1   14    4     -0.06      0.00
   -4   15    4     -0.51      0.00
   -3   15    4     -0.23      0.00
    1  -14    5      1.09      0.00
    2  -14    5     -0.83      0.00
    3  -14    5      0.21      0.00
    4  -14    5     -0.20      0.00
    5  -14    5      1.17      0.00
    0  -13    5      0.07      0.00
    1  -13    5     -1.09      0.00
    2  -13    5      1.35      0.00
    3  -13    5     -0.54      0.00
    4  -13    5     -0.05      0.00
    5  -13    5     -1.00      0.00
    6  -13    5      2.12      0.00
   -2  -12    5     -0.31      0.00
   -1  -12    5     -0.81      0.00
    0  -12    5      0.75      0.00
    1  -12    5      0.44      0.00
    2  -12    5     -1.44      0.00
    3  -12    5      0.94      0.00
    4  -12    5      0.32      0.00
    5  -12    5      0.20      0.00
    6  -12    5     -1.76      0.00
    7  -12    5      1.32      0.00
   -3  -11    5     -1.19      0.00
   -2  -11    5      0.69      0.00
   -1  -11    5      0.73      0.00
    0  -11    5     -1.45      0.00
    1  -11    5      0.73      0.00
    2  -11    5      0.81      0.00
    3  -11    5     -1.17      0.00
    4  -11    5     -0.27      0.00
    5  -11    5      0.58      0.00
    6  -11    5      1.00      0.00
    7  -11    5     -1.07      0.00
   -5  -10    5      0.59      0.00
   -4  -10    5     -0.88      0.00
   -3  -10    5      1.42      0.00
   -2  -10    5     -1.26      0.00
   -1  -10    5      0.02      0.00
    0  -10    5      1.37      0.00
    1  -10    5     -1.74      0.00
    2  -10    5      0.37      0.00
    3  -10    5      1.02      0.00
    4  -10    5     -0.16      0.00
    5  -10    5     -0.77      0.00
    6  -10    5     -0.46      0.00
    7  -10    5      0.94      0.00
    8  -10    5      0.40      0.00
   -6   -9    5      0.37      0.00
   -5   -9    5     -0.77      0.00
   -4   -9    5      0.97      0.00
   -3   -9    5     -1.47      0.00
   -2   -9    5      1.87      0.00
   -1   -9    5     -1.33      0.00
    0   -9    5     -0.23      0.00
    1   -9    5      1.81      0.00
    2   -9    5     -1.40      0.00
    3   -9    5     -0.53      0.00
    4   -9    5      0.67      0.00
    5   -9    5      0.38      0.00
    6   -9    5      0.33      0.00
    7   -9    5     -1.01      0.00
    8   -9    5     -0.13      0.00
   -7   -8    5     -0.28      0.00
   -6   -8    5      0.07      0.00
   -5   -8    5      0.33      0.00
   -4   -8    5     -0.42      0.00
   -3   -8    5      0.99      0.00
   -2   -8    5     -2.10      0.00
   -1   -8    5      2.56      0.00
    0   -8    5     -1.48      0.00
    1   -8    5     -0.73      0.00
    2   -8    5      1.56      0.00
    3   -8    5      0.05      0.00
    4   -8    5     -0.95      0.00
    5   -8    5      0.11      0.00
    6   -8    5     -0.31      0.00
    7   -8    5      0.98      0.00
    8   -8    5     -0.15      0.00
    9   -8    5     -0.39      0.00
   -7   -7    5      0.41      0.00
   -6   -7    5     -0.66      0.00
   -5   -7    5      0.56      0.00
   -4   -7    5     -0.63      0.00
   -3   -7    5     -0.07      0.00
   -2   -7    5      1.78      0.00
   -1   -7    5     -3.05      0.00
    0   -7    5      2.79      0.00
    1   -7    5     -0.90      0.00
    2   -7    5     -0.75      0.00
    3   -7    5      0.12      0.00
    4   -7    5      0.89      0.00
    5   -7    5     -0.35      0.00
    6   -7    5      0.14      0.00
    7   -7    5     -0.61      0.00
    8   -7    5      0.09      0.00
    9   -7    5      0.33      0.00
   -8   -6    5     -0.62      0.00
   -7   -6    5     -0.19      0.00
   -6   -6    5      0.81      0.00
   -5   -6    5     -1.12      0.00
   -4   -6    5      1.45      0.00
   -3   -6    5     -0.69      0.00
   -2   -6    5     -1.30      0.00
   -1   -6    5      2.75      0.00
    0   -6    5     -2.97      0.00
    1   -6    5      1.98      0.00
    2   -6    5     -0.34      0.00
    3   -6    5     -0.07      0.00
    4   -6    5     -0.55      0.00
    5   -6    5      0.29      0.00
    6   -6    5      0.12      0.00
    7   -6    5      0.04      0.00
    8   -6    5      0.31      0.00
    9   -6    5     -0.54      0.00
   -8   -5    5      0.95      0.00
   -7   -5    5     -0.53      0.00
   -6   -5    5     -0.20      0.00
   -5   -5    5      0.89      0.00
   -4   -5    5     -1.48      0.00
   -3   -5    5      0.73      0.00
   -2   -5    5      1.26      0.00
   -1   -5    5     -2.22      0.00
    0   -5    5      2.09      0.00
    1   -5    5     -1.85      0.00
    2   -5    5      0.89      0.00
    3   -5    5      0.10      0.00
    4   -5    5      0.01      0.00
    5   -5    5     -0.09      0.00
    6   -5    5     -0.20      0.00
    7   -5    5      0.29      0.00
    8   -5    5     -0.66      0.00
    9   -5    5      0.82      0.00
   -9   -4    5      0.58      0.00
   -8   -4    5     -1.32      0.00
   -7   -4    5      1.51      0.00
   -6   -4    5     -0.75      0.00
   -5   -4    5     -0.29      0.00
   -4   -4    5      1.05      0.00
   -3   -4    5     -0.31      0.00
   -2   -4    5     -1.63      0.00
   -1   -4    5      1.93      0.00
    0   -4    5     -0.82      0.00
    1   -4    5      0.74      0.00
    2   -4    5     -0.71      0.00
    3   -4    5     -0.27      0.00
    4   -4    5      0.57      0.00
    5   -4    5     -0.15      0.00
    6   -4    5      0.04      0.00
    7   -4    5     -0.16      0.00
    8   -4    5      0.58      0.00
    9   -4    5     -0.83      0.00
   -9   -3    5     -0.48      0.00
   -8   -3    5      1.68      0.00
   -7   -3    5     -2.34      0.00
   -6   -3    5      1.27      0.00
   -5   -3    5      0.23      0.00
   -4   -3    5     -1.08      0.00
   -3   -3    5      0.37      0.00
   -2   -3    5      1.61      0.00
   -1   -3    5     -1.68      0.00
    0   -3    5     -0.27      0.00
    1   -3    5      0.56      0.00
    2   -3    5      0.28      0.00
    3   -3    5      0.28      0.00
    4   -3    5     -0.85      0.00
    5   -3    5      0.29      0.00
    6   -3    5      0.19      0.00
    7   -3    5     -0.20      0.00
    8   -3    5     -0.11      0.00
    9   -3    5      0.44      0.00
   -9   -2    5      0.33      0.00
   -8   -2    5     -1.82      0.00
   -7   -2    5      2.65      0.00
   -6   -2    5     -1.01      0.00
   -5   -2    5     -1.04      0.00
   -4   -2    5      1.96      0.00
   -3   -2    5     -1.48      0.00
   -2   -2    5     -0.40      0.00
   -1   -2    5      0.84      0.00
    0   -2    5      1.10      0.00
    1   -2    5     -1.46      0.00
    2   -2    5     -0.07      0.00
    3   -2    5      0.10      0.00
    4   -2    5      0.60      0.00
    5   -2    5     -0.17      0.00
    6   -2    5     -0.35      0.00
    7   -2    5      0.42      0.00
    8   -2    5     -0.34      0.00
    9   -2    5      0.11      0.00
  -10   -1    5      0.06      0.00
   -8   -1    5      1.52      0.00
   -7   -1    5     -2.40      0.00
   -6   -1    5      0.39      0.00
   -5   -1    5      1.96      0.00
   -4   -1    5     -2.89      0.00
   -3   -1    5      2.99      0.00
   -2   -1    5     -1.72      0.00
   -1   -1    5      0.73      0.00
    0   -1    5     -1.83      0.00
    1   -1    5      1.94      0.00
    2   -1    5     -0.01      0.00
    3   -1    5     -0.54      0.00
    4   -1    5     -0.08      0.00
    5   -1    5     -0.21      0.00
    6   -1    5      0.51      0.00
    7   -1    5     -0.34      0.00
    8   -1    5      0.45      0.00
   -9    0    5     -0.36      0.00
   -8    0    5     -0.81      0.00
   -7    0    5      1.88      0.00
   -6    0    5     -0.20      0.00
   -5    0    5     -1.88      0.00
   -4    0    5      2.63      0.00
   -3    0    5     -3.48      0.00
   -2    0    5      3.40      0.00
   -1    0    5     -2.26      0.00
    0    0    5      2.35      0.00
    1    0    5     -2.19      0.00
    2    0    5      0.39      0.00
    3    0    5      0.39      0.00
    4    0    5     -0.11      0.00
    5    0    5      0.60      0.00
    6    0    5     -0.74      0.00
    7    0    5      0.15      0.00
    8    0    5     -0.21      0.00
   -9    1    5      0.60      0.00
   -8    1    5     -0.01      0.00
   -7    1    5     -1.41      0.00
   -6    1    5      0.75      0.00
   -5    1    5      0.51      0.00
   -4    1    5     -0.80      0.00
   -3    1    5      2.11      0.00
   -2    1    5     -3.31      0.00
   -1    1    5      2.61      0.00
    0    1    5     -2.21      0.00
    1    1    5      2.19      0.00
    2    1    5     -1.11      0.00
    3    1    5      0.51      0.00
    4    1    5     -0.37      0.00
    5    1    5     -0.66      0.00
    6    1    5      0.98      0.00
    7    1    5     -0.09      0.00
    8    1    5     -0.09      0.00
   -9    2    5     -0.55      0.00
   -8    2    5      0.60      0.00
   -7    2    5      1.14      0.00
   -6    2    5     -1.68      0.00
   -5    2    5      1.28      0.00
   -4    2    5     -1.55      0.00
   -3    2    5      0.43      0.00
   -2    2    5      1.41      0.00
   -1    2    5     -1.37      0.00
    0    2    5      1.12      0.00
    1    2    5     -1.69      0.00
    2    2    5      1.63      0.00
    3    2    5     -1.46      0.00
    4    2    5      1.13      0.00
    5    2    5      0.33      0.00
    6    2    5     -1.06      0.00
    7    2    5      0.17      0.00
    8    2    5      0.23      0.00
   -9    3    5      0.33      0.00
   -8    3    5     -0.79      0.00
   -7    3    5     -1.01      0.00
   -6    3    5      2.28      0.00
   -5    3    5     -2.29      0.00
   -4    3    5      2.89      0.00
   -3    3    5     -2.55      0.00
   -2    3    5      1.00      0.00
   -1    3    5     -0.65      0.00
    0    3    5      0.48      0.00
    1    3    5      0.69      0.00
    2    3    5     -1.37      0.00
    3    3    5      1.59      0.00
    4    3    5     -1.46      0.00
    5    3    5      0.13      0.00
    6    3    5      0.86      0.00
    7    3    5     -0.28      0.00
   -9    4    5     -0.10      0.00
   -8    4    5      0.64      0.00
   -7    4    5      0.87      0.00
   -6    4    5     -2.19      0.00
   -5    4    5      2.05      0.00
   -4    4    5     -2.59      0.00
   -3    4    5      3.08      0.00
   -2    4    5     -2.39      0.00
   -1    4    5      2.07      0.00
    0    4    5     -1.71      0.00
    1    4    5      0.38      0.00
    2    4    5      0.44      0.00
    3    4    5     -0.73      0.00
    4    4    5      1.08      0.00
    5    4    5     -0.48      0.00
    6    4    5     -0.43      0.00
    7    4    5      0.25      0.00
   -9    5    5     -0.07      0.00
   -8    5    5     -0.32      0.00
   -7    5    5     -0.63      0.00
   -6    5    5      1.55      0.00
   -5    5    5     -1.05      0.00
   -4    5    5      1.27      0.00
   -3    5    5     -2.19      0.00
   -2    5    5      2.21      0.00
   -1    5    5     -2.14      0.00
    0    5    5      1.95      0.00
    1    5    5     -0.98      0.00
    2    5    5      0.49      0.00
    3    5    5     -0.36      0.00
    4    5    5     -0.40      0.00
    5    5    5      0.70      0.00
    6    5    5     -0.10      0.00
  -10    6    5      0.50      0.00
   -9    6    5      0.19      0.00
   -8    6    5      0.01      0.00
   -7    6    5      0.31      0.00
   -6    6    5     -0.73      0.00
   -5    6    5      0.10      0.00
   -4    6    5     -0.06      0.00
   -3    6    5      0.87      0.00
   -2    6    5     -1.06      0.00
   -1    6    5      1.15      0.00
    0    6    5     -1.35      0.00
    1    6    5      0.96      0.00
    2    6    5     -0.78      0.00
    3    6    5      0.82      0.00
    4    6    5      0.06      0.00
    5    6    5     -0.89      0.00
    6    6    5      0.56      0.00
   -9    7    5     -0.17      0.00
   -8    7    5      0.11      0.00
   -7    7    5      0.03      0.00
   -6    7    5      0.07      0.00
   -5    7    5      0.36      0.00
   -4    7    5     -0.48      0.00
   -3    7    5      0.03      0.00
   -2    7    5     -0.09      0.00
   -1    7    5      0.04      0.00
    0    7    5      0.55      0.00
    1    7    5     -0.59      0.00
    2    7    5      0.40      0.00
    3    7    5     -0.43      0.00
    4    7    5     -0.19      0.00
    5    7    5      0.99      0.00
   -9    8    5     -0.15      0.00
   -8    8    5      0.04      0.00
   -7    8    5     -0.27      0.00
   -6    8    5      0.26      0.00
   -5    8    5     -0.40      0.00
   -4    8    5      0.46      0.00
   -3    8    5     -0.36      0.00
   -2    8    5      0.72      0.00
   -1    8    5     -0.75      0.00
    0    8    5     -0.03      0.00
    1    8    5      0.26      0.00
    2    8    5      0.19      0.00
    3    8    5     -0.27      0.00
    4    8    5      0.40      0.00
    5    8    5     -0.78      0.00
   -9    9    5      0.73      0.00
   -8    9    5     -0.38      0.00
   -7    9    5      0.31      0.00
   -6    9    5     -0.23      0.00
   -5    9    5      0.19      0.00
   -4    9    5     -0.25      0.00
   -3    9    5      0.35      0.00
   -2    9    5     -0.81      0.00
   -1    9    5      0.91      0.00
    0    9    5     -0.14      0.00
    1    9    5     -0.10      0.00
    2    9    5     -0.53      0.00
    3    9    5      0.65      0.00
    4    9    5     -0.25      0.00
   -9   10    5     -1.21      0.00
   -8   10    5      0.62      0.00
   -7   10    5     -0.13      0.00
   -6   10    5     -0.07      0.00
   -5   10    5      0.12      0.00
   -4   10    5      0.03      0.00
   -3   10    5     -0.24      0.00
   -2   10    5      0.62      0.00
   -1   10    5     -0.75      0.00
    0   10    5      0.17      0.00
    1   10    5      0.06      0.00
    2   10    5      0.51      0.00
    3   10    5     -0.51      0.00
   -9   11    5      1.19      0.00
   -8   11    5     -0.57      0.00
   -7   11    5     -0.13      0.00
   -6   11    5      0.39      0.00
   -5   11    5     -0.41      0.00
   -4   11    5      0.15      0.00
   -3   11    5      0.12      0.00
   -2   11    5     -0.35      0.00
   -1   11    5      0.49      0.00
    0   11    5     -0.17      0.00
    1   11    5     -0.04      0.00
    2   11    5     -0.28      0.00
   -8   12    5      0.25      0.00
   -7   12    5      0.32      0.00
   -6   12    5     -0.54      0.00
   -5   12    5      0.56      0.00
   -4   12    5     -0.23      0.00
   -3   12    5     -0.11      0.00
   -2   12    5      0.16      0.00
   -1   12    5     -0.22      0.00
    0   12    5      0.12      0.00
    1   12    5      0.03      0.00
   -8   13    5      0.07      0.00
   -7   13    5     -0.37      0.00
   -6   13    5      0.50      0.00
   -5   13    5     -0.54      0.00
   -4   13    5      0.13      0.00
   -3   13    5      0.27      0.00
   -2   13    5     -0.12      0.00
   -1   13    5     -0.05      0.00
    0   13    5      0.02      0.00
   -7   14    5      0.32      0.00
   -6   14    5     -0.44      0.00
   -5   14    5      0.45      0.00
   -4   14    5      0.07      0.00
   -3   14    5     -0.51      0.00
   -2   14    5      0.15      0.00
   -1   14    5      0.27      0.00
    0  -13    6      0.39      0.00
    1  -13    6      0.42      0.00
    2  -13    6     -0.84      0.00
    3  -13    6      0.33      0.00
    4  -13    6      0.46      0.00
    5  -13    6      0.10      0.00
   -1  -12    6      0.08      0.00
    0  -12    6     -0.45      0.00
    1  -12    6     -0.14      0.00
    2  -12    6      0.84      0.00
    3  -12    6     -0.57      0.00
    4  -12    6     -0.61      0.00
    5  -12    6      0.48      0.00
    6  -12    6      0.94      0.00
   -3  -11    6      1.19      0.00
   -2  -11    6     -1.53      0.00
   -1  -11    6      0.70      0.00
    0  -11    6      0.25      0.00
    1  -11    6     -0.36      0.00
    2  -11    6     -0.41      0.00
    3  -11    6      0.77      0.00
    4  -11    6      0.33      0.00
    5  -11    6     -0.80      0.00
    6  -11    6     -0.53      0.00
   -5  -10    6     -0.86      0.00
   -4  -10    6      0.26      0.00
   -3  -10    6     -0.79      0.00
   -2  -10    6      1.78      0.00
   -1  -10    6     -1.54      0.00
    0  -10    6      0.22      0.00
    1  -10    6      0.80      0.00
    2  -10    6     -0.30      0.00
    3  -10    6     -0.79      0.00
    4  -10    6      0.30      0.00
    5  -10    6      0.55      0.00
    6  -10    6      0.35      0.00
    7  -10    6     -0.98      0.00
   -6   -9    6     -0.86      0.00
   -5   -9    6      0.63      0.00
   -4   -9    6      0.21      0.00
   -3   -9    6      0.18      0.00
   -2   -9    6     -1.70      0.00
   -1   -9    6      2.11      0.00
    0   -9    6     -0.78      0.00
    1   -9    6     -0.84      0.00
    2   -9    6      0.86      0.00
    3   -9    6      0.60      0.00
    4   -9    6     -0.92      0.00
    5   -9    6      0.04      0.00
    6   -9    6     -0.41      0.00
    7   -9    6      1.04      0.00
    8   -9    6     -0.26      0.00
   -7   -8    6     -0.18      0.00
   -6   -8    6      0.14      0.00
   -5   -8    6      0.08      0.00
   -4   -8    6     -0.84      0.00
   -3   -8    6      0.50      0.00
   -2   -8    6      1.20      0.00
   -1   -8    6     -2.02      0.00
    0   -8    6      1.08      0.00
    1   -8    6      0.45      0.00
    2   -8    6     -0.91      0.00
    3   -8    6     -0.30      0.00
    4   -8    6      1.17      0.00
    5   -8    6     -0.57      0.00
    6   -8    6      0.44      0.00
    7   -8    6     -0.85      0.00
    8   -8    6      0.28      0.00
   -7   -7    6     -0.13      0.00
   -6   -7    6      0.64      0.00
   -5   -7    6     -0.82      0.00
   -4   -7    6      1.35      0.00
   -3   -7    6     -1.14      0.00
   -2   -7    6     -0.31      0.00
   -1   -7    6      1.11      0.00
    0   -7    6     -0.72      0.00
    1   -7    6      0.00      0.00
    2   -7    6      0.53      0.00
    3   -7    6     -0.03      0.00
    4   -7    6     -0.93      0.00
    5   -7    6      0.79      0.00
    6   -7    6     -0.36      0.00
    7   -7    6      0.38      0.00
    8   -7    6      0.03      0.00
   -8   -6    6      0.60      0.00
   -7   -6    6      0.12      0.00
   -6   -6    6     -0.84      0.00
   -5   -6    6      1.03      0.00
   -4   -6    6     -1.47      0.00
   -3   -6    6      1.59      0.00
   -2   -6    6     -0.71      0.00
   -1   -6    6      0.27      0.00
    0   -6    6     -0.32      0.00
    1   -6    6     -0.01      0.00
    2   -6    6     -0.14      0.00
    3   -6    6      0.41      0.00
    4   -6    6      0.31      0.00
    5   -6    6     -0.74      0.00
    6   -6    6      0.30      0.00
    7   -6    6      0.06      0.00
    8   -6    6     -0.43      0.00
   -8   -5    6     -0.63      0.00
   -7   -5    6      0.39      0.00
   -6   -5    6      0.29      0.00
   -5   -5    6     -0.66      0.00
   -4   -5    6      1.27      0.00
   -3   -5    6     -1.84      0.00
   -2   -5    6      1.46      0.00
   -1   -5    6     -1.38      0.00
    0   -5    6      1.52      0.00
    1   -5    6     -0.52      0.00
    2   -5    6      0.07      0.00
    3   -5    6     -0.78      0.00
    4   -5    6      0.42      0.00
    5   -5    6      0.52      0.00
    6   -5    6     -0.36      0.00
    7   -5    6     -0.19      0.00
    8   -5    6      0.55      0.00
   -9   -4    6     -0.19      0.00
   -8   -4    6      0.76      0.00
   -7   -4    6     -1.23      0.00
   -6   -4    6      0.57      0.00
   -5   -4    6      0.24      0.00
   -4   -4    6     -1.19      0.00
   -3   -4    6      2.08      0.00
   -2   -4    6     -1.76      0.00
   -1   -4    6      1.61      0.00
    0   -4    6     -2.10      0.00
    1   -4    6      1.14      0.00
    2   -4    6     -0.17      0.00
    3   -4    6      0.91      0.00
    4   -4    6     -0.91      0.00
    5   -4    6     -0.27      0.00
    6   -4    6      0.46      0.00
    7   -4    6      0.01      0.00
    8   -4    6     -0.25      0.00
   -9   -3    6      0.03      0.00
   -8   -3    6     -0.91      0.00
   -7   -3    6      1.94      0.00
   -6   -3    6     -1.09      0.00
   -5   -3    6     -0.32      0.00
   -4   -3    6      1.54      0.00
   -3   -3    6     -2.48      0.00
   -2   -3    6      1.78      0.00
   -1   -3    6     -1.01      0.00
    0   -3    6      1.74      0.00
    1   -3    6     -1.36      0.00
    2   -3    6      0.13      0.00
    3   -3    6     -0.62      0.00
    4   -3    6      0.95      0.00
    5   -3    6      0.09      0.00
    6   -3    6     -0.42      0.00
    7   -3    6      0.15      0.00
    8   -3    6     -0.20      0.00
   -9   -2    6      0.06      0.00
   -8   -2    6      0.87      0.00
   -7   -2    6     -2.10      0.00
   -6   -2    6      1.00      0.00
   -5   -2    6      0.82      0.00
   -4   -2    6     -1.99      0.00
   -3   -2    6      2.82      0.00
   -2   -2    6     -1.79      0.00
   -1   -2    6      0.22      0.00
    0   -2    6     -0.85      0.00
    1   -2    6      1.16      0.00
    2   -2    6      0.04      0.00
    3   -2    6      0.08      0.00
    4   -2    6     -0.59      0.00
    5   -2    6     -0.11      0.00
    6   -2    6      0.30      0.00
    7   -2    6     -0.07      0.00
    8   -2    6      0.44      0.00
  -10   -1    6     -0.51      0.00
   -9   -1    6     -0.05      0.00
   -8   -1    6     -0.50      0.00
   -7   -1    6      1.65      0.00
   -6   -1    6     -0.59      0.00
   -5   -1    6     -1.08      0.00
   -4   -1    6      1.75      0.00
   -3   -1    6     -2.49      0.00
   -2   -1    6      1.72      0.00
   -1   -1    6      0.22      0.00
    0   -1    6      0.10      0.00
    1   -1    6     -0.94      0.00
    2   -1    6      0.01      0.00
    3   -1    6      0.19      0.00
    4   -1    6      0.23      0.00
    5   -1    6      0.33      0.00
    6   -1    6     -0.32      0.00
    7   -1    6     -0.14      0.00
    8   -1    6     -0.32      0.00
  -10    0    6      0.83      0.00
   -9    0    6     -0.14      0.00
   -8    0    6     -0.09      0.00
   -7    0    6     -0.82      0.00
   -6    0    6      0.30      0.00
   -5    0    6      0.59      0.00
   -4    0    6     -0.41      0.00
   -3    0    6      1.06      0.00
   -2    0    6     -1.17      0.00
   -1    0    6     -0.36      0.00
    0    0    6      0.21      0.00
    1    0    6      0.97      0.00
    2    0    6     -0.50      0.00
    3    0    6      0.16      0.00
    4    0    6     -0.24      0.00
    5    0    6     -0.58      0.00
    6    0    6      0.59      0.00
    7    0    6      0.22      0.00
    8    0    6      0.04      0.00
  -10    1    6     -1.26      0.00
   -9    1    6      0.47      0.00
   -8    1    6      0.64      0.00
   -7    1    6      0.02      0.00
   -6    1    6     -0.30      0.00
   -5    1    6      0.39      0.00
   -4    1    6     -1.45      0.00
   -3    1    6      1.07      0.00
   -2    1    6     -0.03      0.00
   -1    1    6      0.65      0.00
    0    1    6     -0.39      0.00
    1    1    6     -1.05      0.00
    2    1    6      1.12      0.00
    3    1    6     -0.85      0.00
    4    1    6      0.63      0.00
    5    1    6      0.64      0.00
    6    1    6     -0.95      0.00
    7    1    6     -0.07      0.00
   -9    2    6     -0.70      0.00
   -8    2    6     -0.95      0.00
   -7    2    6      0.49      0.00
   -6    2    6      0.44      0.00
   -5    2    6     -1.07      0.00
   -4    2    6      2.61      0.00
   -3    2    6     -2.77      0.00
   -2    2    6      1.41      0.00
   -1    2    6     -1.24      0.00
    0    2    6      0.76      0.00
    1    2    6      0.83      0.00
    2    2    6     -1.29      0.00
    3    2    6      1.22      0.00
    4    2    6     -1.00      0.00
    5    2    6     -0.42      0.00
    6    2    6      1.08      0.00
    7    2    6     -0.14      0.00
   -9    3    6      0.61      0.00
   -8    3    6      1.02      0.00
   -7    3    6     -0.66      0.00
   -6    3    6     -0.50      0.00
   -5    3    6      0.97      0.00
   -4    3    6     -2.33      0.00
   -3    3    6      3.09      0.00
   -2    3    6     -2.17      0.00
   -1    3    6      1.76      0.00
    0    3    6     -1.23      0.00
    1    3    6     -0.28      0.00
    2    3    6      0.85      0.00
    3    3    6     -0.89      0.00
    4    3    6      0.99      0.00
    5    3    6      0.05      0.00
    6    3    6     -0.83      0.00
    7    3    6      0.18      0.00
   -9    4    6     -0.23      0.00
   -8    4    6     -0.90      0.00
   -7    4    6      0.61      0.00
   -6    4    6      0.39      0.00
   -5    4    6     -0.33      0.00
   -4    4    6      1.04      0.00
   -3    4    6     -2.12      0.00
   -2    4    6      1.93      0.00
   -1    4    6     -1.75      0.00
    0    4    6      1.43      0.00
    1    4    6     -0.23      0.00
    2    4    6     -0.18      0.00
    3    4    6      0.18      0.00
    4    4    6     -0.67      0.00
    5    4    6      0.33      0.00
    6    4    6      0.34      0.00
   -9    5    6     -0.10      0.00
   -8    5    6      0.62      0.00
   -7    5    6     -0.51      0.00
   -6    5    6     -0.20      0.00
   -5    5    6     -0.25      0.00
   -4    5    6      0.19      0.00
   -3    5    6      0.82      0.00
   -2    5    6     -1.08      0.00
   -1    5    6      1.20      0.00
    0    5    6     -1.21      0.00
    1    5    6      0.39      0.00
    2    5    6     -0.11      0.00
    3    5    6      0.26      0.00
    4    5    6      0.35      0.00
    5    5    6     -0.57      0.00
    6    5    6      0.09      0.00
   -9    6    6      0.09      0.00
   -8    6    6     -0.22      0.00
   -7    6    6      0.45      0.00
   -6    6    6     -0.02      0.00
   -5    6    6      0.42      0.00
   -4    6    6     -0.66      0.00
   -3    6    6     -0.02      0.00
   -2    6    6      0.27      0.00
   -1    6    6     -0.49      0.00
    0    6    6      0.81      0.00
    1    6    6     -0.25      0.00
    2    6    6     -0.11      0.00
    3    6    6     -0.12      0.00
    4    6    6     -0.24      0.00
    5    6    6      0.58      0.00
    6    6    6     -0.25      0.00
   -9    7    6      0.17      0.00
   -8    7    6     -0.20      0.00
   -7    7    6     -0.37      0.00
   -6    7    6      0.16      0.00
   -5    7    6     -0.27      0.00
   -4    7    6      0.54      0.00
   -3    7    6     -0.22      0.00
   -2    7    6      0.19      0.00
   -1    7    6     -0.03      0.00
    0    7    6     -0.50      0.00
    1    7    6      0.11      0.00
    2    7    6      0.51      0.00
    3    7    6     -0.28      0.00
    4    7    6      0.17      0.00
    5    7    6     -0.31      0.00
   -9    8    6     -0.38      0.00
   -8    8    6      0.50      0.00
   -7    8    6      0.17      0.00
   -6    8    6     -0.11      0.00
   -5    8    6      0.05      0.00
   -4    8    6     -0.35      0.00
   -3    8    6      0.31      0.00
   -2    8    6     -0.44      0.00
   -1    8    6      0.35      0.00
    0    8    6      0.32      0.00
    1    8    6     -0.13      0.00
    2    8    6     -0.65      0.00
    3    8    6      0.44      0.00
    4    8    6      0.13      0.00
   -9    9    6      0.32      0.00
   -8    9    6     -0.60      0.00
   -7    9    6      0.17      0.00
   -6    9    6     -0.18      0.00
   -5    9    6      0.15      0.00
   -4    9    6      0.35      0.00
   -3    9    6     -0.50      0.00
   -2    9    6      0.61      0.00
   -1    9    6     -0.58      0.00
    0    9    6     -0.12      0.00
    1    9    6      0.24      0.00
    2    9    6      0.38      0.00
    3    9    6     -0.14      0.00
    4    9    6     -0.63      0.00
   -9   10    6     -0.10      0.00
   -8   10    6      0.50      0.00
   -7   10    6     -0.46      0.00
   -6   10    6      0.54      0.00
   -5   10    6     -0.33      0.00
   -4   10    6     -0.42      0.00
   -3   10    6      0.64      0.00
   -2   10    6     -0.60      0.00
   -1   10    6      0.66      0.00
    0   10    6     -0.11      0.00
    1   10    6     -0.30      0.00
    2   10    6      0.05      0.00
    3   10    6     -0.33      0.00
   -9   11    6     -0.04      0.00
   -8   11    6     -0.29      0.00
   -7   11    6      0.52      0.00
   -6   11    6     -0.73      0.00
   -5   11    6      0.42      0.00
   -4   11    6      0.44      0.00
   -3   11    6     -0.59      0.00
   -2   11    6      0.31      0.00
   -1   11    6     -0.44      0.00
    0   11    6      0.22      0.00
    1   11    6      0.29      0.00
    2   11    6     -0.34      0.00
   -8   12    6      0.08      0.00
   -7   12    6     -0.35      0.00
   -6   12    6      0.63      0.00
   -5   12    6     -0.36      0.00
   -4   12    6     -0.46      0.00
   -3   12    6      0.47      0.00
   -2   12    6      0.13      0.00
   -1   12    6     -0.04      0.00
    0   12    6     -0.10      0.00
    1   12    6     -0.24      0.00
   -8   13    6      0.09      0.00
   -7   13    6      0.09      0.00
   -6   13    6     -0.40      0.00
   -5   13    6      0.21      0.00
   -4   13    6      0.55      0.00
   -3   13    6     -0.48      0.00
   -2   13    6     -0.38      0.00
   -1   13    6      0.50      0.00
    0   13    6     -0.16      0.00
   -5   14    6     -0.11      0.00
   -4   14    6     -0.63      0.00
   -3   14    6      0.63      0.00
    2  -13    7     -0.07      0.00
    3  -13    7      0.83      0.00
    4  -13    7     -1.43      0.00
   -1  -12    7      1.13      0.00
    0  -12    7     -0.80      0.00
    1  -12    7      0.67      0.00
    2  -12    7     -0.33      0.00
    3  -12    7     -0.58      0.00
    4  -12    7      1.62      0.00
    5  -12    7     -1.34      0.00
    6  -12    7      0.07      0.00
   -4  -11    7     -0.23      0.00
   -3  -11    7     -0.16      0.00
   -2  -11    7      1.40      0.00
   -1  -11    7     -1.74      0.00
    0  -11    7      1.23      0.00
    1  -11    7     -0.81      0.00
    2  -11    7      0.66      0.00
    3  -11    7     -0.07      0.00
    4  -11    7     -1.13      0.00
    5  -11    7      1.31      0.00
    6  -11    7     -0.09      0.00
   -5  -10    7      0.77      0.00
   -4  -10    7      0.78      0.00
   -3  -10    7     -0.67      0.00
   -2  -10    7     -1.12      0.00
   -1  -10    7      1.95      0.00
    0  -10    7     -1.23      0.00
    1  -10    7      0.56      0.00
    2  -10    7     -0.75      0.00
    3  -10    7      0.80      0.00
    4  -10    7      0.17      0.00
    5  -10    7     -0.75      0.00
    6  -10    7     -0.11      0.00
    7  -10    7      0.66      0.00
   -6   -9    7      1.01      0.00
   -5   -9    7     -0.44      0.00
   -4   -9    7     -1.09      0.00
   -3   -9    7      1.07      0.00
   -2   -9    7      0.81      0.00
   -1   -9    7     -1.72      0.00
    0   -9    7      0.82      0.00
    1   -9    7     -0.12      0.00
    2   -9    7      0.64      0.00
    3   -9    7     -1.23      0.00
    4   -9    7      0.69      0.00
    5   -9    7      0.06      0.00
    6   -9    7      0.33      0.00
    7   -9    7     -0.77      0.00
   -7   -8    7      0.21      0.00
   -6   -8    7     -0.10      0.00
   -5   -8    7     -0.18      0.00
   -4   -8    7      1.08      0.00
   -3   -8    7     -1.07      0.00
   -2   -8    7     -0.34      0.00
   -1   -8    7      0.88      0.00
    0   -8    7     -0.01      0.00
    1   -8    7     -0.31      0.00
    2   -8    7     -0.46      0.00
    3   -8    7      1.18      0.00
    4   -8    7     -0.98      0.00
    5   -8    7      0.38      0.00
    6   -8    7     -0.39      0.00
    7   -8    7      0.57      0.00
    8   -8    7     -0.22      0.00
   -7   -7    7      0.35      0.00
   -6   -7    7     -0.86      0.00
   -5   -7    7      0.74      0.00
   -4   -7    7     -0.91      0.00
   -3   -7    7      1.15      0.00
   -2   -7    7     -0.77      0.00
   -1   -7    7      0.79      0.00
    0   -7    7     -1.25      0.00
    1   -7    7      0.76      0.00
    2   -7    7      0.26      0.00
    3   -7    7     -0.69      0.00
    4   -7    7      0.66      0.00
    5   -7    7     -0.47      0.00
    6   -7    7      0.30      0.00
    7   -7    7     -0.16      0.00
    8   -7    7     -0.08      0.00
   -8   -6    7     -0.02      0.00
   -7   -6    7     -0.63      0.00
   -6   -6    7      1.25      0.00
   -5   -6    7     -0.91      0.00
   -4   -6    7      0.78      0.00
   -3   -6    7     -1.73      0.00
   -2   -6    7      2.61      0.00
   -1   -6    7     -3.05      0.00
    0   -6    7      2.82      0.00
    1   -6    7     -1.35      0.00
    2   -6    7      0.04      0.00
    3   -6    7      0.02      0.00
    4   -6    7     -0.06      0.00
    5   -6    7      0.39      0.00
    6   -6    7     -0.22      0.00
    7   -6    7     -0.18      0.00
    8   -6    7      0.35      0.00
   -8   -5    7     -0.26      0.00
   -7   -5    7      0.40      0.00
   -6   -5    7     -0.87      0.00
   -5   -5    7      0.68      0.00
   -4   -5    7     -0.84      0.00
   -3   -5    7      2.70      0.00
   -2   -5    7     -4.52      0.00
   -1   -5    7      4.95      0.00
    0   -5    7     -4.09      0.00
    1   -5    7      2.01      0.00
    2   -5    7     -0.42      0.00
    3   -5    7      0.52      0.00
    4   -5    7     -0.44      0.00
    5   -5    7     -0.28      0.00
    6   -5    7      0.19      0.00
    7   -5    7      0.31      0.00
    8   -5    7     -0.37      0.00
   -9   -4    7     -0.44      0.00
   -8   -4    7      0.40      0.00
   -7   -4    7      0.21      0.00
   -6   -4    7      0.05      0.00
   -5   -4    7     -0.36      0.00
   -4   -4    7      1.10      0.00
   -3   -4    7     -3.52      0.00
   -2   -4    7      5.50      0.00
   -1   -4    7     -5.42      0.00
    0   -4    7      4.29      0.00
    1   -4    7     -2.36      0.00
    2   -4    7      0.72      0.00
    3   -4    7     -0.68      0.00
    4   -4    7      0.61      0.00
    5   -4    7      0.15      0.00
    6   -4    7     -0.05      0.00
    7   -4    7     -0.38      0.00
    8   -4    7      0.18      0.00
   -9   -3    7      0.59      0.00
   -8   -3    7     -0.43      0.00
   -7   -3    7     -0.77      0.00
   -6   -3    7      0.63      0.00
   -5   -3    7      0.26      0.00
   -4   -3    7     -1.38      0.00
   -3   -3    7      3.68      0.00
   -2   -3    7     -5.04      0.00
   -1   -3    7      4.15      0.00
    0   -3    7     -3.16      0.00
    1   -3    7      2.13      0.00
    2   -3    7     -0.76      0.00
    3   -3    7      0.46      0.00
    4   -3    7     -0.46      0.00
    5   -3    7      0.00      0.00
    6   -3    7     -0.26      0.00
    7   -3    7      0.55      0.00
    8   -3    7      0.00      0.00
   -9   -2    7     -0.40      0.00
   -8   -2    7      0.41      0.00
   -7   -2    7      0.91      0.00
   -6   -2    7     -0.84      0.00
   -5   -2    7     -0.33      0.00
   -4   -2    7      1.33      0.00
   -3   -2    7     -2.96      0.00
   -2   -2    7      3.44      0.00
   -1   -2    7     -1.90      0.00
    0   -2    7      1.32      0.00
    1   -2    7     -1.50      0.00
    2   -2    7      0.61      0.00
    3   -2    7     -0.10      0.00
    4   -2    7      0.17      0.00
    5   -2    7     -0.04      0.00
    6   -2    7      0.53      0.00
    7   -2    7     -0.80      0.00
    8   -2    7     -0.01      0.00
  -10   -1    7      0.93      0.00
   -9   -1    7     -0.23      0.00
   -8   -1    7     -0.37      0.00
   -7   -1    7     -0.57      0.00
   -6   -1    7      0.63      0.00
   -5   -1    7      0.27      0.00
   -4   -1    7     -0.67      0.00
   -3   -1    7      1.44      0.00
   -2   -1    7     -1.42      0.00
   -1   -1    7     -0.19      0.00
    0   -1    7      0.25      0.00
    1   -1    7      0.91      0.00
    2   -1    7     -0.51      0.00
    3   -1    7     -0.12      0.00
    4   -1    7      0.08      0.00
    5   -1    7     -0.16      0.00
    6   -1    7     -0.39      0.00
    7   -1    7      0.85      0.00
    8   -1    7     -0.11      0.00
  -10    0    7     -1.66      0.00
   -9    0    7      1.17      0.00
   -8    0    7      0.26      0.00
   -7    0    7     -0.03      0.00
   -6    0    7     -0.29      0.00
   -5    0    7      0.04      0.00
   -4    0    7     -0.48      0.00
   -3    0    7      0.43      0.00
   -2    0    7     -0.38      0.00
   -1    0    7      1.42      0.00
    0    0    7     -0.99      0.00
    1    0    7     -0.65      0.00
    2    0    7      0.56      0.00
    3    0    7      0.07      0.00
    4    0    7     -0.16      0.00
    5    0    7      0.56      0.00
    6    0    7     -0.23      0.00
    7    0    7     -0.54      0.00
  -10    1    7      2.13      0.00
   -9    1    7     -1.94      0.00
   -8    1    7     -0.15      0.00
   -7    1    7      0.60      0.00
   -6    1    7     -0.01      0.00
   -5    1    7     -0.36      0.00
   -4    1    7      1.44      0.00
   -3    1    7     -1.93      0.00
   -2    1    7      1.57      0.00
   -1    1    7     -1.80      0.00
    0    1    7      1.01      0.00
    1    1    7      0.66      0.00
    2    1    7     -0.65      0.00
    3    1    7      0.08      0.00
    4    1    7      0.08      0.00
    5    1    7     -0.89      0.00
    6    1    7      0.97      0.00
    7    1    7      0.03      0.00
  -10    2    7     -1.85      0.00
   -9    2    7      2.03      0.00
   -8    2    7      0.16      0.00
   -7    2    7     -0.97      0.00
   -6    2    7      0.21      0.00
   -5    2    7      0.37      0.00
   -4    2    7     -1.56      0.00
   -3    2    7      2.38      0.00
   -2    2    7     -1.94      0.00
   -1    2    7      1.64      0.00
    0    2    7     -0.77      0.00
    1    2    7     -0.66      0.00
    2    2    7      0.60      0.00
    3    2    7     -0.13      0.00
    4    2    7      0.07      0.00
    5    2    7      0.91      0.00
    6    2    7     -1.37      0.00
    7    2    7      0.35      0.00
   -9    3    7     -1.33      0.00
   -8    3    7     -0.37      0.00
   -7    3    7      1.13      0.00
   -6    3    7     -0.34      0.00
   -5    3    7     -0.04      0.00
   -4    3    7      0.84      0.00
   -3    3    7     -1.77      0.00
   -2    3    7      1.57      0.00
   -1    3    7     -1.24      0.00
    0    3    7      0.58      0.00
    1    3    7      0.52      0.00
    2    3    7     -0.41      0.00
    3    3    7      0.03      0.00
    4    3    7     -0.21      0.00
    5    3    7     -0.57      0.00
    6    3    7      1.21      0.00
   -9    4    7      0.25      0.00
   -8    4    7      0.67      0.00
   -7    4    7     -1.17      0.00
   -6    4    7      0.39      0.00
   -5    4    7     -0.28      0.00
   -4    4    7      0.06      0.00
   -3    4    7      0.73      0.00
   -2    4    7     -0.86      0.00
   -1    4    7      0.84      0.00
    0    4    7     -0.56      0.00
    1    4    7     -0.30      0.00
    2    4    7      0.27      0.00
    3    4    7      0.05      0.00
    4    4    7      0.32      0.00
    5    4    7      0.09      0.00
    6    4    7     -0.74      0.00
   -9    5    7      0.54      0.00
   -8    5    7     -0.83      0.00
   -7    5    7      1.17      0.00
   -6    5    7     -0.40      0.00
   -5    5    7      0.32      0.00
   -4    5    7     -0.50      0.00
   -3    5    7      0.00      0.00
   -2    5    7      0.27      0.00
   -1    5    7     -0.55      0.00
    0    5    7      0.66      0.00
    1    5    7      0.10      0.00
    2    5    7     -0.36      0.00
    3    5    7      0.10      0.00
    4    5    7     -0.41      0.00
    5    5    7      0.25      0.00
    6    5    7      0.32      0.00
   -9    6    7     -0.69      0.00
   -8    6    7      0.70      0.00
   -7    6    7     -1.11      0.00
   -6    6    7      0.41      0.00
   -5    6    7     -0.14      0.00
   -4    6    7      0.45      0.00
   -3    6    7     -0.28      0.00
   -2    6    7      0.10      0.00
   -1    6    7      0.33      0.00
    0    6    7     -0.76      0.00
    1    6    7      0.03      0.00
    2    6    7      0.63      0.00
    3    6    7     -0.42      0.00
    4    6    7      0.41      0.00
    5    6    7     -0.30      0.00
   -9    7    7      0.38      0.00
   -8    7    7     -0.34      0.00
   -7    7    7      0.92      0.00
   -6    7    7     -0.38      0.00
   -5    7    7     -0.02      0.00
   -4    7    7     -0.35      0.00
   -3    7    7      0.45      0.00
   -2    7    7     -0.43      0.00
   -1    7    7      0.00      0.00
    0    7    7      0.68      0.00
    1    7    7     -0.11      0.00
    2    7    7     -0.83      0.00
    3    7    7      0.64      0.00
    4    7    7     -0.25      0.00
   -9    8    7     -0.07      0.00
   -8    8    7      0.01      0.00
   -7    8    7     -0.61      0.00
   -6    8    7      0.23      0.00
   -5    8    7      0.08      0.00
   -4    8    7      0.49      0.00
   -3    8    7     -0.77      0.00
   -2    8    7      0.83      0.00
   -1    8    7     -0.51      0.00
    0    8    7     -0.32      0.00
    1    8    7      0.14      0.00
    2    8    7      0.73      0.00
    3    8    7     -0.53      0.00
    4    8    7     -0.12      0.00
   -9    9    7      0.04      0.00
   -8    9    7      0.09      0.00
   -7    9    7      0.30      0.00
   -6    9    7      0.04      0.00
   -5    9    7     -0.12      0.00
   -4    9    7     -0.69      0.00
   -3    9    7      1.01      0.00
   -2    9    7     -1.00      0.00
   -1    9    7      0.92      0.00
    0    9    7     -0.16      0.00
    1    9    7     -0.14      0.00
    2    9    7     -0.35      0.00
    3    9    7      0.12      0.00
   -9   10    7     -0.21      0.00
   -8   10    7      0.07      0.00
   -7   10    7     -0.16      0.00
   -6   10    7     -0.27      0.00
   -5   10    7      0.20      0.00
   -4   10    7      0.71      0.00
   -3   10    7     -0.83      0.00
   -2   10    7      0.59      0.00
   -1   10    7     -0.83      0.00
    0   10    7      0.45      0.00
    1   10    7      0.15      0.00
    2   10    7     -0.10      0.00
   -9   11    7      0.31      0.00
   -8   11    7     -0.30      0.00
   -7   11    7      0.21      0.00
   -6   11    7      0.31      0.00
   -5   11    7     -0.24      0.00
   -4   11    7     -0.55      0.00
   -3   11    7      0.29      0.00
   -2   11    7      0.31      0.00
   -1   11    7      0.17      0.00
    0   11    7     -0.36      0.00
    1   11    7     -0.20      0.00
   -8   12    7      0.43      0.00
   -7   12    7     -0.35      0.00
   -6   12    7     -0.18      0.00
   -5   12    7      0.17      0.00
   -4   12    7      0.42      0.00
   -3   12    7      0.14      0.00
   -2   12    7     -1.10      0.00
   -1   12    7      0.63      0.00
    0   12    7      0.01      0.00
   -7   13    7      0.41      0.00
   -6   13    7      0.04      0.00
   -5   13    7     -0.07      0.00
   -4   13    7     -0.43      0.00
   -3   13    7     -0.13      0.00
   -2   13    7      1.26      0.00
   -1   13    7     -1.02      0.00
   -2  -12    8      0.83      0.00
   -1  -12    8     -1.37      0.00
    0  -12    8      1.28      0.00
    1  -12    8     -0.95      0.00
    2  -12    8      0.16      0.00
    3  -12    8      1.31      0.00
    4  -12    8     -2.34      0.00
   -4  -11    8      1.25      0.00
   -3  -11    8     -1.38      0.00
   -2  -11    8     -0.17      0.00
   -1  -11    8      1.19      0.00
    0  -11    8     -1.03      0.00
    1  -11    8      0.88      0.00
    2  -11    8     -0.85      0.00
    3  -11    8     -0.21      0.00
    4  -11    8      1.62      0.00
    5  -11    8     -1.32      0.00
   -6  -10    8      0.93      0.00
   -5  -10    8     -0.21      0.00
   -4  -10    8     -1.67      0.00
   -3  -10    8      1.96      0.00
   -2  -10    8     -0.14      0.00
   -1  -10    8     -0.97      0.00
    0  -10    8      0.44      0.00
    1  -10    8     -0.36      0.00
    2  -10    8      1.26      0.00
    3  -10    8     -1.03      0.00
    4  -10    8     -0.48      0.00
    5  -10    8      0.75      0.00
    6  -10    8      0.29      0.00
   -6   -9    8     -0.42      0.00
   -5   -9    8     -0.10      0.00
   -4   -9    8      1.44      0.00
   -3   -9    8     -1.54      0.00
   -2   -9    8     -0.07      0.00
   -1   -9    8      0.81      0.00
    0   -9    8      0.15      0.00
    1   -9    8     -0.23      0.00
    2   -9    8     -1.32      0.00
    3   -9    8      1.80      0.00
    4   -9    8     -0.40      0.00
    5   -9    8     -0.31      0.00
    6   -9    8     -0.36      0.00
    7   -9    8      0.54      0.00
   -7   -8    8      0.19      0.00
   -6   -8    8     -0.53      0.00
   -5   -8    8      0.59      0.00
   -4   -8    8     -0.87      0.00
   -3   -8    8      0.81      0.00
   -2   -8    8      0.01      0.00
   -1   -8    8     -0.16      0.00
    0   -8    8     -0.77      0.00
    1   -8    8      0.64      0.00
    2   -8    8      1.10      0.00
    3   -8    8     -1.81      0.00
    4   -8    8      0.60      0.00
    5   -8    8      0.22      0.00
    6   -8    8      0.17      0.00
    7   -8    8     -0.29      0.00
   -7   -7    8     -0.70      0.00
   -6   -7    8      1.40      0.00
   -5   -7    8     -1.01      0.00
   -4   -7    8      0.42      0.00
   -3   -7    8     -0.74      0.00
   -2   -7    8      1.32      0.00
   -1   -7    8     -1.64      0.00
    0   -7    8      1.79      0.00
    1   -7    8     -0.97      0.00
    2   -7    8     -0.68      0.00
    3   -7    8      1.24      0.00
    4   -7    8     -0.31      0.00
    5   -7    8     -0.31      0.00
    6   -7    8      0.09      0.00
    7   -7    8     -0.05      0.00
   -8   -6    8     -0.24      0.00
   -7   -6    8      0.91      0.00
   -6   -6    8     -1.62      0.00
   -5   -6    8      1.06      0.00
   -4   -6    8     -0.29      0.00
   -3   -6    8      1.58      0.00
   -2   -6    8     -3.77      0.00
   -1   -6    8      4.33      0.00
    0   -6    8     -3.24      0.00
    1   -6    8      1.51      0.00
    2   -6    8      0.05      0.00
    3   -6    8     -0.46      0.00
    4   -6    8     -0.05      0.00
    5   -6    8      0.30      0.00
    6   -6    8     -0.20      0.00
    7   -6    8      0.30      0.00
    8   -6    8     -0.35      0.00
   -8   -5    8      0.57      0.00
   -7   -5    8     -0.69      0.00
   -6   -5    8      1.07      0.00
   -5   -5    8     -0.68      0.00
   -4   -5    8      0.35      0.00
   -3   -5    8     -2.66      0.00
   -2   -5    8      6.00      0.00
   -1   -5    8     -6.51      0.00
    0   -5    8      4.44      0.00
    1   -5    8     -2.17      0.00
    2   -5    8      0.70      0.00
    3   -5    8     -0.20      0.00
    4   -5    8      0.19      0.00
    5   -5    8     -0.15      0.00
    6   -5    8      0.24      0.00
    7   -5    8     -0.44      0.00
    8   -5    8      0.37      0.00
   -9   -4    8      0.60      0.00
   -8   -4    8     -0.83      0.00
   -7   -4    8      0.22      0.00
   -6   -4    8     -0.13      0.00
   -5   -4    8      0.17      0.00
   -4   -4    8     -0.48      0.00
   -3   -4    8      3.16      0.00
   -2   -4    8     -6.51      0.00
   -1   -4    8      6.67      0.00
    0   -4    8     -4.43      0.00
    1   -4    8      2.50      0.00
    2   -4    8     -1.30      0.00
    3   -4    8      0.52      0.00
    4   -4    8     -0.11      0.00
    5   -4    8      0.07      0.00
    6   -4    8     -0.44      0.00
    7   -4    8      0.62      0.00
    8   -4    8     -0.29      0.00
   -9   -3    8     -0.70      0.00
   -8   -3    8      0.95      0.00
   -7   -3    8      0.16      0.00
   -6   -3    8     -0.62      0.00
   -5   -3    8      0.10      0.00
   -4   -3    8      0.66      0.00
   -3   -3    8     -2.80      0.00
   -2   -3    8      5.04      0.00
   -1   -3    8     -4.60      0.00
    0   -3    8      2.92      0.00
    1   -3    8     -2.12      0.00
    2   -3    8      1.40      0.00
    3   -3    8     -0.43      0.00
    4   -3    8     -0.09      0.00
    5   -3    8     -0.13      0.00
    6   -3    8      0.80      0.00
    7   -3    8     -0.88      0.00
   -9   -2    8      0.30      0.00
   -8   -2    8     -0.82      0.00
   -7   -2    8     -0.24      0.00
   -6   -2    8      0.88      0.00
   -5   -2    8     -0.05      0.00
   -4   -2    8     -0.83      0.00
   -3   -2    8      1.91      0.00
   -2   -2    8     -2.56      0.00
   -1   -2    8      1.53      0.00
    0   -2    8     -0.72      0.00
    1   -2    8      1.15      0.00
    2   -2    8     -0.94      0.00
    3   -2    8     -0.03      0.00
    4   -2    8      0.38      0.00
    5   -2    8      0.14      0.00
    6   -2    8     -0.99      0.00
    7   -2    8      1.04      0.00
  -10   -1    8     -0.83      0.00
   -9   -1    8      0.62      0.00
   -8   -1    8      0.40      0.00
   -7   -1    8      0.07      0.00
   -6   -1    8     -0.73      0.00
   -5   -1    8     -0.06      0.00
   -4   -1    8      0.80      0.00
   -3   -1    8     -0.91      0.00
   -2   -1    8      0.38      0.00
   -1   -1    8      0.88      0.00
    0   -1    8     -0.96      0.00
    1   -1    8     -0.22      0.00
    2   -1    8      0.23      0.00
    3   -1    8      0.59      0.00
    4   -1    8     -0.67      0.00
    5   -1    8      0.14      0.00
    6   -1    8      0.64      0.00
    7   -1    8     -0.86      0.00
  -10    0    8      1.43      0.00
   -9    0    8     -1.70      0.00
   -8    0    8      0.18      0.00
   -7    0    8      0.19      0.00
   -6    0    8      0.41      0.00
   -5    0    8      0.04      0.00
   -4    0    8     -0.51      0.00
   -3    0    8      0.11      0.00
   -2    0    8      0.79      0.00
   -1    0    8     -1.77      0.00
    0    0    8      1.38      0.00
    1    0    8     -0.12      0.00
    2    0    8      0.24      0.00
    3    0    8     -0.89      0.00
    4    0    8      0.79      0.00
    5    0    8     -0.62      0.00
    6    0    8      0.21      0.00
    7    0    8      0.30      0.00
  -10    1    8     -1.60      0.00
   -9    1    8      2.35      0.00
   -8    1    8     -0.65      0.00
   -7    1    8     -0.41      0.00
   -6    1    8     -0.10      0.00
   -5    1    8      0.04      0.00
   -4    1    8      0.17      0.00
   -3    1    8      0.31      0.00
   -2    1    8     -0.98      0.00
   -1    1    8      1.42      0.00
    0    1    8     -0.79      0.00
    1    1    8     -0.15      0.00
    2    1    8     -0.24      0.00
    3    1    8      0.74      0.00
    4    1    8     -0.57      0.00
    5    1    8      0.95      0.00
    6    1    8     -1.09      0.00
    7    1    8      0.34      0.00
   -9    2    8     -2.14      0.00
   -8    2    8      0.73      0.00
   -7    2    8      0.59      0.00
   -6    2    8     -0.15      0.00
   -5    2    8     -0.05      0.00
   -4    2    8     -0.06      0.00
   -3    2    8     -0.30      0.00
   -2    2    8      0.62      0.00
   -1    2    8     -0.65      0.00
    0    2    8      0.03      0.00
    1    2    8      0.58      0.00
    2    2    8     -0.03      0.00
    3    2    8     -0.34      0.00
    4    2    8      0.07      0.00
    5    2    8     -0.84      0.00
    6    2    8      1.50      0.00
   -9    3    8      1.17      0.00
   -8    3    8     -0.36      0.00
   -7    3    8     -0.74      0.00
   -6    3    8      0.30      0.00
   -5    3    8      0.01      0.00
   -4    3    8      0.16      0.00
   -3    3    8      0.01      0.00
   -2    3    8     -0.15      0.00
   -1    3    8      0.13      0.00
    0    3    8      0.25      0.00
    1    3    8     -0.68      0.00
    2    3    8      0.21      0.00
    3    3    8      0.00      0.00
    4    3    8      0.40      0.00
    5    3    8      0.41      0.00
    6    3    8     -1.33      0.00
   -9    4    8     -0.01      0.00
   -8    4    8     -0.23      0.00
   -7    4    8      0.91      0.00
   -6    4    8     -0.33      0.00
   -5    4    8     -0.07      0.00
   -4    4    8     -0.21      0.00
   -3    4    8      0.26      0.00
   -2    4    8     -0.19      0.00
   -1    4    8     -0.03      0.00
    0    4    8      0.04      0.00
    1    4    8      0.36      0.00
    2    4    8     -0.22      0.00
    3    4    8      0.13      0.00
    4    4    8     -0.60      0.00
    5    4    8      0.04      0.00
   -9    5    8     -0.79      0.00
   -8    5    8      0.73      0.00
   -7    5    8     -1.07      0.00
   -6    5    8      0.33      0.00
   -5    5    8      0.23      0.00
   -4    5    8      0.11      0.00
   -3    5    8     -0.40      0.00
   -2    5    8      0.42      0.00
   -1    5    8      0.08      0.00
    0    5    8     -0.52      0.00
    1    5    8      0.06      0.00
    2    5    8      0.24      0.00
    3    5    8     -0.21      0.00
    4    5    8      0.57      0.00
    5    5    8     -0.31      0.00
   -9    6    8      1.03      0.00
   -8    6    8     -0.97      0.00
   -7    6    8      1.21      0.00
   -6    6    8     -0.38      0.00
   -5    6    8     -0.31      0.00
   -4    6    8     -0.09      0.00
   -3    6    8      0.58      0.00
   -2    6    8     -0.73      0.00
   -1    6    8      0.11      0.00
    0    6    8      0.70      0.00
    1    6    8     -0.27      0.00
    2    6    8     -0.44      0.00
    3    6    8      0.41      0.00
    4    6    8     -0.48      0.00
   -9    7    8     -0.97      0.00
   -8    7    8      1.01      0.00
   -7    7    8     -1.28      0.00
   -6    7    8      0.47      0.00
   -5    7    8      0.18      0.00
   -4    7    8      0.31      0.00
   -3    7    8     -0.91      0.00
   -2    7    8      1.16      0.00
   -1    7    8     -0.62      0.00
    0    7    8     -0.42      0.00
    1    7    8      0.20      0.00
    2    7    8      0.70      0.00
    3    7    8     -0.67      0.00
    4    7    8      0.42      0.00
   -9    8    8      0.92      0.00
   -8    8    8     -1.01      0.00
   -7    8    8      1.26      0.00
   -6    8    8     -0.52      0.00
   -5    8    8      0.04      0.00
   -4    8    8     -0.64      0.00
   -3    8    8      1.14      0.00
   -2    8    8     -1.39      0.00
   -1    8    8      1.14      0.00
    0    8    8     -0.11      0.00
    1    8    8     -0.04      0.00
    2    8    8     -0.75      0.00
    3    8    8      0.74      0.00
   -9    9    8     -0.97      0.00
   -8    9    8      1.03      0.00
   -7    9    8     -1.15      0.00
   -6    9    8      0.44      0.00
   -5    9    8     -0.13      0.00
   -4    9    8      0.73      0.00
   -3    9    8     -0.89      0.00
   -2    9    8      0.96      0.00
   -1    9    8     -1.17      0.00
    0    9    8      0.50      0.00
    1    9    8     -0.01      0.00
    2    9    8      0.47      0.00
   -9   10    8      0.94      0.00
   -8   10    8     -0.97      0.00
   -7   10    8      0.96      0.00
   -6   10    8     -0.27      0.00
   -5   10    8      0.03      0.00
   -4   10    8     -0.47      0.00
   -3   10    8      0.10      0.00
   -2   10    8      0.18      0.00
   -1   10    8      0.52      0.00
    0   10    8     -0.51      0.00
    1   10    8     -0.09      0.00
    2   10    8     -0.05      0.00
   -8   11    8      0.73      0.00
   -7   11    8     -0.69      0.00
   -6   11    8      0.09      0.00
   -5   11    8      0.13      0.00
   -4   11    8      0.10      0.00
   -3   11    8      0.74      0.00
   -2   11    8     -1.42      0.00
   -1   11    8      0.44      0.00
    0   11    8      0.22      0.00
    1   11    8      0.22      0.00
   -8   12    8     -0.37      0.00
   -7   12    8      0.41      0.00
   -6   12    8      0.03      0.00
   -5   12    8     -0.22      0.00
   -4   12    8      0.09      0.00
   -3   12    8     -1.06      0.00
   -2   12    8      2.00      0.00
   -1   12    8     -1.08      0.00
    0   12    8      0.06      0.00
   -6   13    8     -0.06      0.00
   -3   13    8      0.73      0.00
    3  -13    9      1.72      0.00
    4  -13    9     -2.05      0.00
   -2  -12    9      0.47      0.00
   -1  -12    9      0.20      0.00
    0  -12    9      0.02      0.00
    1  -12    9     -0.25      0.00
    2  -12    9      0.33      0.00
    3  -12    9     -1.23      0.00
    4  -12    9      1.99      0.00
    5  -12    9     -0.94      0.00
   -4  -11    9     -1.92      0.00
   -3  -11    9      2.37      0.00
   -2  -11    9     -1.19      0.00
   -1  -11    9      0.38      0.00
    0  -11    9     -0.87      0.00
    1  -11    9      0.92      0.00
    2  -11    9      0.05      0.00
    3  -11    9      0.09      0.00
    4  -11    9     -1.17      0.00
    5  -11    9      0.61      0.00
   -5  -10    9     -0.64      0.00
   -4  -10    9      2.02      0.00
   -3  -10    9     -2.30      0.00
   -2  -10    9      0.99      0.00
   -1  -10    9     -0.33      0.00
    0  -10    9      1.33      0.00
    1  -10    9     -1.50      0.00
    2  -10    9     -0.33      0.00
    3  -10    9      1.10      0.00
    4  -10    9      0.15      0.00
    5  -10    9     -0.29      0.00
    6  -10    9     -0.75      0.00
   -6   -9    9     -0.54      0.00
   -5   -9    9      0.89      0.00
   -4   -9    9     -1.45      0.00
   -3   -9    9      1.34      0.00
   -2   -9    9     -0.29      0.00
   -1   -9    9     -0.07      0.00
    0   -9    9     -1.17      0.00
    1   -9    9      1.58      0.00
    2   -9    9      0.47      0.00
    3   -9    9     -1.76      0.00
    4   -9    9      0.44      0.00
    5   -9    9      0.31      0.00
    6   -9    9      0.45      0.00
   -7   -8    9     -0.39      0.00
   -6   -8    9      1.12      0.00
   -5   -8    9     -1.12      0.00
   -4   -8    9      0.73      0.00
   -3   -8    9     -0.51      0.00
   -2   -8    9      0.29      0.00
   -1   -8    9     -0.18      0.00
    0   -8    9      0.89      0.00
    1   -8    9     -1.19      0.00
    2   -8    9     -0.46      0.00
    3   -8    9      1.70      0.00
    4   -8    9     -0.46      0.00
    5   -8    9     -0.59      0.00
    6   -8    9      0.02      0.00
    7   -8    9      0.11      0.00
   -7   -7    9      0.45      0.00
   -6   -7    9     -1.39      0.00
   -5   -7    9      1.15      0.00
   -4   -7    9     -0.20      0.00
   -3   -7    9      0.49      0.00
   -2   -7    9     -1.66      0.00
   -1   -7    9      1.75      0.00
    0   -7    9     -1.18      0.00
    1   -7    9      0.83      0.00
    2   -7    9      0.23      0.00
    3   -7    9     -1.13      0.00
    4   -7    9      0.23      0.00
    5   -7    9      0.73      0.00
    6   -7    9     -0.32      0.00
    7   -7    9      0.09      0.00
   -8   -6    9     -0.29      0.00
   -7   -6    9     -0.27      0.00
   -6   -6    9      1.06      0.00
   -5   -6    9     -0.76      0.00
   -4   -6    9     -0.17      0.00
   -3   -6    9     -0.99      0.00
   -2   -6    9      3.65      0.00
   -1   -6    9     -3.98      0.00
    0   -6    9      2.09      0.00
    1   -6    9     -0.95      0.00
    2   -6    9      0.36      0.00
    3   -6    9      0.36      0.00
    4   -6    9     -0.09      0.00
    5   -6    9     -0.53      0.00
    6   -6    9      0.30      0.00
    7   -6    9     -0.13      0.00
   -8   -5    9      0.11      0.00
   -7   -5    9     -0.08      0.00
   -6   -5    9     -0.26      0.00
   -5   -5    9      0.11      0.00
   -4   -5    9      0.44      0.00
   -3   -5    9      1.27      0.00
   -2   -5    9     -4.69      0.00
   -1   -5    9      5.22      0.00
    0   -5    9     -2.79      0.00
    1   -5    9      1.39      0.00
    2   -5    9     -1.17      0.00
    3   -5    9      0.35      0.00
    4   -5    9      0.14      0.00
    5   -5    9      0.16      0.00
    6   -5    9     -0.18      0.00
    7   -5    9      0.10      0.00
   -9   -4    9     -0.10      0.00
   -8   -4    9      0.15      0.00
   -7   -4    9      0.37      0.00
   -6   -4    9     -0.55      0.00
   -5   -4    9      0.38      0.00
   -4   -4    9     -0.40      0.00
   -3   -4    9     -1.08      0.00
   -2   -4    9      3.92      0.00
   -1   -4    9     -4.36      0.00
    0   -4    9      2.33      0.00
    1   -4    9     -1.52      0.00
    2   -4    9      1.70      0.00
    3   -4    9     -0.70      0.00
    4   -4    9     -0.29      0.00
    5   -4    9      0.06      0.00
    6   -4    9      0.27      0.00
    7   -4    9     -0.16      0.00
   -9   -3    9      0.22      0.00
   -8   -3    9     -0.39      0.00
   -7   -3    9     -0.38      0.00
   -6   -3    9      0.96      0.00
   -5   -3    9     -0.38      0.00
   -4   -3    9     -0.16      0.00
   -3   -3    9      0.79      0.00
   -2   -3    9     -1.95      0.00
   -1   -3    9      1.83      0.00
    0   -3    9     -0.68      0.00
    1   -3    9      0.86      0.00
    2   -3    9     -1.42      0.00
    3   -3    9      0.44      0.00
    4   -3    9      0.54      0.00
    5   -3    9     -0.08      0.00
    6   -3    9     -0.53      0.00
    7   -3    9      0.32      0.00
   -9   -2    9     -0.03      0.00
   -8   -2    9      0.47      0.00
   -7   -2    9      0.12      0.00
   -6   -2    9     -0.90      0.00
   -5   -2    9      0.04      0.00
   -4   -2    9      1.04      0.00
   -3   -2    9     -0.86      0.00
   -2   -2    9      0.16      0.00
   -1   -2    9      0.73      0.00
    0   -2    9     -1.15      0.00
    1   -2    9      0.29      0.00
    2   -2    9      0.38      0.00
    3   -2    9      0.34      0.00
    4   -2    9     -0.87      0.00
    5   -2    9      0.12      0.00
    6   -2    9      0.63      0.00
    7   -2    9     -0.40      0.00
   -9   -1    9     -0.46      0.00
   -8   -1    9     -0.27      0.00
   -7   -1    9      0.23      0.00
   -6   -1    9      0.58      0.00
   -5   -1    9      0.26      0.00
   -4   -1    9     -1.70      0.00
   -3   -1    9      1.23      0.00
   -2   -1    9      0.57      0.00
   -1   -1    9     -1.92      0.00
    0   -1    9      1.97      0.00
    1   -1    9     -1.09      0.00
    2   -1    9      0.71      0.00
    3   -1    9     -1.09      0.00
    4   -1    9      1.04      0.00
    5   -1    9     -0.29      0.00
    6   -1    9     -0.30      0.00
    7   -1    9      0.21      0.00
   -9    0    9      1.03      0.00
   -8    0    9     -0.14      0.00
   -7    0    9     -0.49      0.00
   -6    0    9     -0.19      0.00
   -5    0    9     -0.31      0.00
   -4    0    9      1.78      0.00
   -3    0    9     -1.51      0.00
   -2    0    9     -0.31      0.00
   -1    0    9      1.53      0.00
    0    0    9     -1.42      0.00
    1    0    9      0.96      0.00
    2    0    9     -1.08      0.00
    3    0    9      1.16      0.00
    4    0    9     -0.72      0.00
    5    0    9      0.41      0.00
    6    0    9     -0.34      0.00
   -9    1    9     -1.33      0.00
   -8    1    9      0.57      0.00
   -7    1    9      0.59      0.00
   -6    1    9     -0.16      0.00
   -5    1    9      0.21      0.00
   -4    1    9     -1.39      0.00
   -3    1    9      1.49      0.00
   -2    1    9     -0.28      0.00
   -1    1    9     -0.43      0.00
    0    1    9      0.20      0.00
    1    1    9     -0.18      0.00
    2    1    9      0.69      0.00
    3    1    9     -0.53      0.00
    4    1    9     -0.10      0.00
    5    1    9     -0.25      0.00
    6    1    9      0.88      0.00
   -9    2    9      1.13      0.00
   -8    2    9     -0.76      0.00
   -7    2    9     -0.54      0.00
   -6    2    9      0.38      0.00
   -5    2    9     -0.09      0.00
   -4    2    9      0.86      0.00
   -3    2    9     -1.21      0.00
   -2    2    9      0.68      0.00
   -1    2    9     -0.40      0.00
    0    2    9      0.64      0.00
    1    2    9     -0.46      0.00
    2    2    9     -0.15      0.00
    3    2    9     -0.20      0.00
    4    2    9      0.94      0.00
    5    2    9     -0.14      0.00
    6    2    9     -1.03      0.00
   -9    3    9     -0.56      0.00
   -8    3    9      0.63      0.00
   -7    3    9      0.43      0.00
   -6    3    9     -0.39      0.00
   -5    3    9     -0.07      0.00
   -4    3    9     -0.38      0.00
   -3    3    9      0.87      0.00
   -2    3    9     -0.78      0.00
   -1    3    9      0.59      0.00
    0    3    9     -0.64      0.00
    1    3    9      0.47      0.00
    2    3    9     -0.02      0.00
    3    3    9      0.43      0.00
    4    3    9     -1.24      0.00
    5    3    9      0.47      0.00
   -9    4    9     -0.08      0.00
   -8    4    9     -0.24      0.00
   -7    4    9     -0.36      0.00
   -6    4    9      0.20      0.00
   -5    4    9      0.33      0.00
   -4    4    9     -0.01      0.00
   -3    4    9     -0.61      0.00
   -2    4    9      0.77      0.00
   -1    4    9     -0.43      0.00
    0    4    9      0.12      0.00
    1    4    9     -0.06      0.00
    2    4    9     -0.11      0.00
    3    4    9     -0.20      0.00
    4    4    9      0.96      0.00
    5    4    9     -0.55      0.00
   -9    5    9      0.54      0.00
   -8    5    9     -0.26      0.00
   -7    5    9      0.46      0.00
   -6    5    9     -0.04      0.00
   -5    5    9     -0.54      0.00
   -4    5    9      0.23      0.00
   -3    5    9      0.52      0.00
   -2    5    9     -0.87      0.00
   -1    5    9      0.37      0.00
    0    5    9      0.31      0.00
    1    5    9     -0.25      0.00
    2    5    9      0.07      0.00
    3    5    9      0.04      0.00
    4    5    9     -0.55      0.00
   -8    6    9      0.74      0.00
   -7    6    9     -0.75      0.00
   -6    6    9      0.10      0.00
   -5    6    9      0.48      0.00
   -4    6    9     -0.13      0.00
   -3    6    9     -0.63      0.00
   -2    6    9      1.10      0.00
   -1    6    9     -0.60      0.00
    0    6    9     -0.36      0.00
    1    6    9      0.25      0.00
    2    6    9      0.29      0.00
    3    6    9     -0.29      0.00
    4    6    9      0.42      0.00
   -8    7    9     -1.13      0.00
   -7    7    9      1.12      0.00
   -6    7    9     -0.40      0.00
   -5    7    9     -0.10      0.00
   -4    7    9     -0.22      0.00
   -3    7    9      0.74      0.00
   -2    7    9     -1.21      0.00
   -1    7    9      0.90      0.00
    0    7    9      0.15      0.00
    1    7    9     -0.16      0.00
    2    7    9     -0.66      0.00
    3    7    9      0.73      0.00
   -9    8    9     -1.07      0.00
   -8    8    9      1.33      0.00
   -7    8    9     -1.34      0.00
   -6    8    9      0.67      0.00
   -5    8    9     -0.31      0.00
   -4    8    9      0.53      0.00
   -3    8    9     -0.57      0.00
   -2    8    9      0.85      0.00
   -1    8    9     -0.92      0.00
    0    8    9      0.03      0.00
    1    8    9      0.22      0.00
    2    8    9      0.64      0.00
   -9    9    9      1.07      0.00
   -7    9    9      1.22      0.00
   -6    9    9     -0.67      0.00
   -5    9    9      0.45      0.00
   -4    9    9     -0.51      0.00
   -3    9    9     -0.03      0.00
   -2    9    9      0.08      0.00
   -1    9    9      0.48      0.00
    0    9    9     -0.04      0.00
    1    9    9     -0.43      0.00
    2    9    9     -0.24      0.00
   -9   10    9     -0.82      0.00
   -8   10    9      0.74      0.00
   -7   10    9     -0.73      0.00
   -6   10    9      0.34      0.00
   -5   10    9     -0.26      0.00
   -4   10    9      0.21      0.00
   -3   10    9      0.81      0.00
   -2   10    9     -1.22      0.00
   -1   10    9      0.24      0.00
    0   10    9     -0.03      0.00
    1   10    9      0.54      0.00
   -8   11    9     -0.11      0.00
   -7   11    9      0.12      0.00
   -6   11    9      0.09      0.00
   -5   11    9     -0.06      0.00
   -4   11    9      0.08      0.00
   -3   11    9     -1.25      0.00
   -2   11    9      1.93      0.00
   -1   11    9     -0.80      0.00
    0   11    9      0.05      0.00
   -7   12    9      0.30      0.00
   -6   12    9     -0.34      0.00
   -5   12    9      0.26      0.00
   -4   12    9     -0.15      0.00
   -3   12    9      1.09      0.00
   -2   12    9     -1.85      0.00
   -1   12    9      0.89      0.00
   -1  -12   10      1.05      0.00
    0  -12   10     -1.75      0.00
    1  -12   10      2.18      0.00
    2  -12   10     -1.30      0.00
    3  -12   10      0.78      0.00
   -3  -11   10     -2.13      0.00
   -2  -11   10      1.59      0.00
   -1  -11   10     -1.40      0.00
    0  -11   10      2.48      0.00
    1  -11   10     -3.00      0.00
    2  -11   10      1.37      0.00
    3  -11   10      0.03      0.00
    4  -11   10      0.23      0.00
   -5  -10   10      1.11      0.00
   -4  -10   10     -1.62      0.00
   -3  -10   10      1.67      0.00
   -2  -10   10     -1.13      0.00
   -1  -10   10      1.04      0.00
    0  -10   10     -2.37      0.00
    1  -10   10      3.19      0.00
    2  -10   10     -1.25      0.00
    3  -10   10     -0.80      0.00
    4  -10   10      0.44      0.00
    5  -10   10     -0.19      0.00
   -6   -9   10      0.83      0.00
   -5   -9   10     -1.06      0.00
   -4   -9   10      1.00      0.00
   -3   -9   10     -0.85      0.00
   -2   -9   10      0.61      0.00
   -1   -9   10     -0.51      0.00
    0   -9   10      1.53      0.00
    1   -9   10     -2.53      0.00
    2   -9   10      0.97      0.00
    3   -9   10      1.15      0.00
    4   -9   10     -0.67      0.00
    5   -9   10     -0.17      0.00
    6   -9   10     -0.35      0.00
   -7   -8   10      0.02      0.00
   -6   -8   10     -0.77      0.00
   -5   -8   10      0.86      0.00
   -4   -8   10     -0.36      0.00
   -3   -8   10      0.35      0.00
   -2   -8   10     -0.84      0.00
   -1   -8   10      0.66      0.00
    0   -8   10     -0.63      0.00
    1   -8   10      1.37      0.00
    2   -8   10     -0.62      0.00
    3   -8   10     -1.04      0.00
    4   -8   10      0.54      0.00
    5   -8   10      0.57      0.00
    6   -8   10     -0.13      0.00
   -7   -7   10      0.33      0.00
   -6   -7   10      0.42      0.00
   -5   -7   10     -0.48      0.00
   -4   -7   10     -0.17      0.00
   -3   -7   10     -0.25      0.00
   -2   -7   10      1.75      0.00
   -1   -7   10     -1.64      0.00
    0   -7   10      0.33      0.00
    1   -7   10     -0.43      0.00
    2   -7   10      0.48      0.00
    3   -7   10      0.59      0.00
    4   -7   10     -0.36      0.00
    5   -7   10     -0.65      0.00
    6   -7   10      0.27      0.00
   -8   -6   10      0.95      0.00
   -7   -6   10     -0.76      0.00
   -6   -6   10      0.19      0.00
   -5   -6   10     -0.05      0.00
   -4   -6   10      0.61      0.00
   -3   -6   10      0.10      0.00
   -2   -6   10     -2.40      0.00
   -1   -6   10      2.65      0.00
    0   -6   10     -0.61      0.00
    1   -6   10      0.19      0.00
    2   -6   10     -0.82      0.00
    3   -6   10      0.04      0.00
    4   -6   10      0.30      0.00
    5   -6   10      0.36      0.00
    6   -6   10     -0.08      0.00
    7   -6   10     -0.30      0.00
   -8   -5   10     -0.99      0.00
   -7   -5   10      1.10      0.00
   -6   -5   10     -0.79      0.00
   -5   -5   10      0.47      0.00
   -4   -5   10     -0.80      0.00
   -3   -5   10      0.30      0.00
   -2   -5   10      1.92      0.00
   -1   -5   10     -2.56      0.00
    0   -5   10      0.76      0.00
    1   -5   10     -0.44      0.00
    2   -5   10      1.42      0.00
    3   -5   10     -0.65      0.00
    4   -5   10     -0.34      0.00
    5   -5   10      0.03      0.00
    6   -5   10     -0.14      0.00
    7   -5   10      0.48      0.00
   -9   -4   10     -0.53      0.00
   -8   -4   10      0.77      0.00
   -7   -4   10     -1.07      0.00
   -6   -4   10      1.09      0.00
   -5   -4   10     -0.51      0.00
   -4   -4   10      0.46      0.00
   -3   -4   10     -0.61      0.00
   -2   -4   10     -0.48      0.00
   -1   -4   10      1.11      0.00
    0   -4   10     -0.17      0.00
    1   -4   10      0.43      0.00
    2   -4   10     -1.64      0.00
    3   -4   10      0.83      0.00
    4   -4   10      0.49      0.00
    5   -4   10     -0.27      0.00
    6   -4   10      0.15      0.00
    7   -4   10     -0.51      0.00
   -9   -3   10      0.23      0.00
   -8   -3   10     -0.26      0.00
   -7   -3   10      0.57      0.00
   -6   -3   10     -0.94      0.00
   -5   -3   10      0.19      0.00
   -4   -3   10      0.44      0.00
   -3   -3   10      0.33      0.00
   -2   -3   10     -0.90      0.00
   -1   -3   10      0.84      0.00
    0   -3   10     -0.99      0.00
    1   -3   10      0.21      0.00
    2   -3   10      0.98      0.00
    3   -3   10     -0.32      0.00
    4   -3   10     -0.78      0.00
    5   -3   10      0.36      0.00
    6   -3   10      0.00      0.00
    7   -3   10      0.40      0.00
   -9   -2   10      0.08      0.00
   -8   -2   10     -0.35      0.00
   -7   -2   10      0.25      0.00
   -6   -2   10      0.46      0.00
   -5   -2   10      0.19      0.00
   -4   -2   10     -1.42      0.00
   -3   -2   10      0.54      0.00
   -2   -2   10      1.33      0.00
   -1   -2   10     -2.00      0.00
    0   -2   10      1.83      0.00
    1   -2   10     -1.09      0.00
    2   -2   10      0.26      0.00
    3   -2   10     -0.57      0.00
    4   -2   10      1.04      0.00
    5   -2   10     -0.38      0.00
    6   -2   10     -0.09      0.00
   -9   -1   10     -0.22      0.00
   -8   -1   10      0.74      0.00
   -7   -1   10     -1.04      0.00
   -6   -1   10      0.15      0.00
   -5   -1   10     -0.41      0.00
   -4   -1   10      1.94      0.00
   -3   -1   10     -1.45      0.00
   -2   -1   10     -0.77      0.00
   -1   -1   10      1.80      0.00
    0   -1   10     -1.62      0.00
    1   -1   10      1.40      0.00
    2   -1   10     -1.18      0.00
    3   -1   10      1.08      0.00
    4   -1   10     -0.86      0.00
    5   -1   10      0.25      0.00
    6   -1   10      0.01      0.00
   -9    0   10      0.11      0.00
   -8    0   10     -0.69      0.00
   -7    0   10      1.49      0.00
   -6    0   10     -0.75      0.00
   -5    0   10      0.48      0.00
   -4    0   10     -1.83      0.00
   -3    0   10      1.88      0.00
   -2    0   10     -0.12      0.00
   -1    0   10     -0.71      0.00
    0    0   10      0.54      0.00
    1    0   10     -0.88      0.00
    2    0   10      1.22      0.00
    3    0   10     -0.73      0.00
    4    0   10      0.02      0.00
    5    0   10      0.15      0.00
    6    0   10      0.16      0.00
   -9    1   10      0.11      0.00
   -8    1   10      0.26      0.00
   -7    1   10     -1.46      0.00
   -6    1   10      1.15      0.00
   -5    1   10     -0.52      0.00
   -4    1   10      1.35      0.00
   -3    1   10     -1.73      0.00
   -2    1   10      0.72      0.00
   -1    1   10     -0.33      0.00
    0    1   10      0.57      0.00
    1    1   10      0.06      0.00
    2    1   10     -0.69      0.00
    3    1   10     -0.08      0.00
    4    1   10      1.07      0.00
    5    1   10     -0.72      0.00
   -9    2   10     -0.25      0.00
   -8    2   10      0.26      0.00
   -7    2   10      1.00      0.00
   -6    2   10     -1.17      0.00
   -5    2   10      0.47      0.00
   -4    2   10     -0.78      0.00
   -3    2   10      1.25      0.00
   -2    2   10     -0.86      0.00
   -1    2   10      0.78      0.00
    0    2   10     -1.02      0.00
    1    2   10      0.39      0.00
    2    2   10      0.28      0.00
    3    2   10      0.56      0.00
    4    2   10     -1.67      0.00
    5    2   10      1.09      0.00
   -9    3   10      0.22      0.00
   -8    3   10     -0.57      0.00
   -7    3   10     -0.36      0.00
   -6    3   10      0.75      0.00
   -5    3   10     -0.19      0.00
   -4    3   10      0.22      0.00
   -3    3   10     -0.73      0.00
   -2    3   10      0.76      0.00
   -1    3   10     -0.72      0.00
    0    3   10      0.82      0.00
    1    3   10     -0.35      0.00
    2    3   10     -0.22      0.00
    3    3   10     -0.40      0.00
    4    3   10      1.44      0.00
   -9    4   10     -0.09      0.00
   -8    4   10      0.54      0.00
   -7    4   10     -0.11      0.00
   -6    4   10     -0.13      0.00
   -5    4   10     -0.29      0.00
   -4    4   10      0.28      0.00
   -3    4   10      0.31      0.00
   -2    4   10     -0.64      0.00
   -1    4   10      0.54      0.00
    0    4   10     -0.41      0.00
    1    4   10      0.21      0.00
    2    4   10      0.15      0.00
    3    4   10      0.04      0.00
    4    4   10     -0.76      0.00
   -9    5   10     -0.05      0.00
   -8    5   10     -0.21      0.00
   -7    5   10      0.18      0.00
   -6    5   10     -0.27      0.00
   -5    5   10      0.60      0.00
   -4    5   10     -0.56      0.00
   -3    5   10     -0.02      0.00
   -2    5   10      0.55      0.00
   -1    5   10     -0.43      0.00
    0    5   10      0.11      0.00
    1    5   10     -0.20      0.00
    2    5   10      0.21      0.00
    3    5   10     -0.05      0.00
   -9    6   10      0.19      0.00
   -8    6   10     -0.28      0.00
   -7    6   10      0.15      0.00
   -6    6   10      0.19      0.00
   -5    6   10     -0.44      0.00
   -4    6   10      0.45      0.00
   -3    6   10     -0.14      0.00
   -2    6   10     -0.38      0.00
   -1    6   10      0.33      0.00
    0    6   10      0.16      0.00
    1    6   10      0.11      0.00
    2    6   10     -0.63      0.00
    3    6   10      0.45      0.00
   -8    7   10      0.67      0.00
   -7    7   10     -0.58      0.00
   -6    7   10      0.22      0.00
   -5    7   10     -0.11      0.00
   -4    7   10     -0.03      0.00
   -3    7   10      0.26      0.00
   -2    7   10      0.04      0.00
   -1    7   10     -0.13      0.00
    0    7   10     -0.47      0.00
    1    7   10      0.30      0.00
    2    7   10      0.63      0.00
   -8    8   10     -0.76      0.00
   -7    8   10      0.75      0.00
   -6    8   10     -0.53      0.00
   -5    8   10      0.62      0.00
   -4    8   10     -0.37      0.00
   -3    8   10     -0.44      0.00
   -2    8   10      0.47      0.00
   -1    8   10     -0.14      0.00
    0    8   10      0.73      0.00
    1    8   10     -0.87      0.00
    2    8   10     -0.16      0.00
   -9    9   10     -0.38      0.00
   -7    9   10     -0.47      0.00
   -6    9   10      0.42      0.00
   -5    9   10     -0.73      0.00
   -4    9   10      0.52      0.00
   -3    9   10      0.69      0.00
   -2    9   10     -1.01      0.00
   -1    9   10      0.39      0.00
    0    9   10     -0.72      0.00
    1    9   10      1.16      0.00
   -7   10   10     -0.09      0.00
   -6   10   10      0.02      0.00
   -5   10   10      0.45      0.00
   -4   10   10     -0.45      0.00
   -3   10   10     -0.79      0.00
   -2   10   10      1.33      0.00
   -1   10   10     -0.51      0.00
    0   10   10      0.44      0.00
   -8   11   10     -0.55      0.00
   -6   11   10     -0.42      0.00
   -5   11   10     -0.09      0.00
   -4   11   10      0.37      0.00
   -3   11   10      0.59      0.00
   -2   11   10     -1.24      0.00
   -1   11   10      0.46      0.00
   -4   12   10     -0.37      0.00
   -3   12   10     -0.15      0.00
   -1  -12   11     -1.15      0.00
    0  -12   11      2.10      0.00
    1  -12   11     -2.96      0.00
    2  -12   11      1.98      0.00
   -3  -11   11      0.87      0.00
   -2  -11   11     -1.02      0.00
   -1  -11   11      1.36      0.00
    0  -11   11     -2.48      0.00
    1  -11   11      3.50      0.00
    2  -11   11     -2.24      0.00
    3  -11   11      0.10      0.00
    4  -11   11      0.35      0.00
   -5  -10   11     -0.59      0.00
   -4  -10   11      0.45      0.00
   -3  -10   11     -0.44      0.00
   -2  -10   11      0.84      0.00
   -1  -10   11     -1.22      0.00
    0  -10   11      2.16      0.00
    1  -10   11     -3.29      0.00
    2  -10   11      2.17      0.00
    3  -10   11      0.20      0.00
    4  -10   11     -0.61      0.00
    5  -10   11      0.17      0.00
   -6   -9   11     -0.14      0.00
   -5   -9   11      0.15      0.00
   -4   -9   11      0.07      0.00
   -3   -9   11      0.09      0.00
   -2   -9   11     -0.80      0.00
   -1   -9   11      0.99      0.00
    0   -9   11     -1.20      0.00
    1   -9   11      2.21      0.00
    2   -9   11     -1.70      0.00
    3   -9   11     -0.33      0.00
    4   -9   11      0.57      0.00
    5   -9   11      0.26      0.00
   -6   -8   11     -0.23      0.00
   -5   -8   11      0.20      0.00
   -4   -8   11     -0.35      0.00
   -3   -8   11     -0.02      0.00
   -2   -8   11      1.07      0.00
   -1   -8   11     -0.99      0.00
    0   -8   11      0.16      0.00
    1   -8   11     -0.73      0.00
    2   -8   11      1.00      0.00
    3   -8   11      0.31      0.00
    4   -8   11     -0.40      0.00
    5   -8   11     -0.60      0.00
    6   -8   11      0.30      0.00
   -7   -7   11     -0.72      0.00
   -6   -7   11      0.59      0.00
   -5   -7   11     -0.34      0.00
   -4   -7   11      0.36      0.00
   -3   -7   11      0.03      0.00
   -2   -7   11     -1.32      0.00
   -1   -7   11      1.24      0.00
    0   -7   11      0.35      0.00
    1   -7   11     -0.30      0.00
    2   -7   11     -0.57      0.00
    3   -7   11     -0.12      0.00
    4   -7   11      0.27      0.00
    5   -7   11      0.67      0.00
    6   -7   11     -0.35      0.00
   -8   -6   11     -0.97      0.00
   -7   -6   11      1.12      0.00
   -6   -6   11     -0.86      0.00
   -5   -6   11      0.29      0.00
   -4   -6   11     -0.20      0.00
   -3   -6   11      0.13      0.00
   -2   -6   11      1.05      0.00
   -1   -6   11     -1.36      0.00
    0   -6   11     -0.18      0.00
    1   -6   11      0.35      0.00
    2   -6   11      0.77      0.00
    3   -6   11     -0.31      0.00
    4   -6   11     -0.18      0.00
    5   -6   11     -0.49      0.00
    6   -6   11      0.20      0.00
   -8   -5   11      1.20      0.00
   -7   -5   11     -1.31      0.00
   -6   -5   11      0.96      0.00
   -5   -5   11     -0.11      0.00
   -4   -5   11     -0.10      0.00
   -3   -5   11     -0.42      0.00
   -2   -5   11     -0.16      0.00
   -1   -5   11      0.92      0.00
    0   -5   11     -0.19      0.00
    1   -5   11      0.23      0.00
    2   -5   11     -1.31      0.00
    3   -5   11      0.76      0.00
    4   -5   11      0.16      0.00
    5   -5   11      0.23      0.00
    6   -5   11     -0.02      0.00
   -8   -4   11     -0.95      0.00
   -7   -4   11      1.00      0.00
   -6   -4   11     -0.79      0.00
   -5   -4   11     -0.10      0.00
   -4   -4   11      0.52      0.00
   -3   -4   11      0.53      0.00
   -2   -4   11     -0.91      0.00
   -1   -4   11      0.03      0.00
    0   -4   11      0.21      0.00
    1   -4   11     -0.56      0.00
    2   -4   11      1.43      0.00
    3   -4   11     -0.78      0.00
    4   -4   11     -0.31      0.00
    5   -4   11      0.03      0.00
    6   -4   11     -0.07      0.00
   -9   -3   11     -0.16      0.00
   -8   -3   11      0.16      0.00
   -7   -3   11     -0.12      0.00
   -6   -3   11      0.34      0.00
   -5   -3   11      0.22      0.00
   -4   -3   11     -0.92      0.00
   -3   -3   11     -0.21      0.00
   -2   -3   11      1.49      0.00
   -1   -3   11     -0.92      0.00
    0   -3   11      0.14      0.00
    1   -3   11      0.24      0.00
    2   -3   11     -0.71      0.00
    3   -3   11      0.18      0.00
    4   -3   11      0.63      0.00
    5   -3   11     -0.23      0.00
    6   -3   11      0.06      0.00
   -9   -2   11     -0.37      0.00
   -8   -2   11      0.81      0.00
   -7   -2   11     -1.04      0.00
   -6   -2   11      0.33      0.00
   -5   -2   11     -0.27      0.00
   -4   -2   11      1.15      0.00
   -3   -2   11     -0.38      0.00
   -2   -2   11     -1.30      0.00
   -1   -2   11      1.16      0.00
    0   -2   11     -0.35      0.00
    1   -2   11      0.35      0.00
    2   -2   11     -0.41      0.00
    3   -2   11      0.62      0.00
    4   -2   11     -0.82      0.00
    5   -2   11      0.26      0.00
    6   -2   11      0.01      0.00
   -9   -1   11      0.59      0.00
   -8   -1   11     -1.39      0.00
   -7   -1   11      1.99      0.00
   -6   -1   11     -1.09      0.00
   -5   -1   11      0.38      0.00
   -4   -1   11     -1.15      0.00
   -3   -1   11      0.91      0.00
   -2   -1   11      0.62      0.00
   -1   -1   11     -0.69      0.00
    0   -1   11      0.04      0.00
    1   -1   11     -0.57      0.00
    2   -1   11      1.13      0.00
    3   -1   11     -0.93      0.00
    4   -1   11      0.50      0.00
    5   -1   11      0.02      0.00
   -9    0   11     -0.42      0.00
   -8    0   11      1.30      0.00
   -7    0   11     -2.31      0.00
   -6    0   11      1.70      0.00
   -5    0   11     -0.62      0.00
   -4    0   11      1.02      0.00
   -3    0   11     -1.12      0.00
   -2    0   11      0.03      0.00
   -1    0   11     -0.02      0.00
    0    0   11      0.58      0.00
    1    0   11      0.28      0.00
    2    0   11     -1.15      0.00
    3    0   11      0.59      0.00
    4    0   11      0.29      0.00
    5    0   11     -0.55      0.00
   -9    1   11      0.09      0.00
   -8    1   11     -0.70      0.00
   -7    1   11      1.93      0.00
   -6    1   11     -1.89      0.00
   -5    1   11      0.83      0.00
   -4    1   11     -0.79      0.00
   -3    1   11      0.96      0.00
   -2    1   11     -0.35      0.00
   -1    1   11      0.49      0.00
    0    1   11     -1.05      0.00
    1    1   11      0.16      0.00
    2    1   11      0.81      0.00
    3    1   11     -0.10      0.00
    4    1   11     -1.01      0.00
   -9    2   11      0.15      0.00
   -8    2   11      0.00      0.00
   -7    2   11     -1.09      0.00
   -6    2   11      1.49      0.00
   -5    2   11     -0.71      0.00
   -4    2   11      0.38      0.00
   -3    2   11     -0.56      0.00
   -2    2   11      0.34      0.00
   -1    2   11     -0.58      0.00
    0    2   11      1.14      0.00
    1    2   11     -0.47      0.00
    2    2   11     -0.48      0.00
    3    2   11     -0.06      0.00
    4    2   11      1.13      0.00
   -9    3   11     -0.23      0.00
   -8    3   11      0.44      0.00
   -7    3   11      0.19      0.00
   -6    3   11     -0.66      0.00
   -5    3   11      0.16      0.00
   -4    3   11      0.22      0.00
   -3    3   11      0.02      0.00
   -2    3   11     -0.18      0.00
   -1    3   11      0.48      0.00
    0    3   11     -1.00      0.00
    1    3   11      0.71      0.00
    2    3   11      0.12      0.00
    3    3   11     -0.03      0.00
   -9    4   11      0.23      0.00
   -8    4   11     -0.52      0.00
   -7    4   11      0.39      0.00
   -6    4   11     -0.17      0.00
   -5    4   11      0.48      0.00
   -4    4   11     -0.81      0.00
   -3    4   11      0.53      0.00
   -2    4   11     -0.06      0.00
   -1    4   11     -0.29      0.00
    0    4   11      0.77      0.00
    1    4   11     -0.92      0.00
    2    4   11      0.42      0.00
    3    4   11     -0.02      0.00
   -9    5   11     -0.23      0.00
   -8    5   11      0.30      0.00
   -7    5   11     -0.47      0.00
   -6    5   11      0.54      0.00
   -5    5   11     -0.71      0.00
   -4    5   11      1.04      0.00
   -3    5   11     -0.94      0.00
   -2    5   11      0.39      0.00
   -1    5   11      0.00      0.00
    0    5   11     -0.34      0.00
    1    5   11      0.87      0.00
    2    5   11     -0.90      0.00
   -8    6   11      0.02      0.00
   -7    6   11      0.20      0.00
   -6    6   11     -0.35      0.00
   -5    6   11      0.33      0.00
   -4    6   11     -0.74      0.00
   -3    6   11      1.11      0.00
   -2    6   11     -0.74      0.00
   -1    6   11      0.37      0.00
    0    6   11     -0.30      0.00
    1    6   11     -0.30      0.00
    2    6   11      0.90      0.00
   -8    7   11     -0.25      0.00
   -7    7   11      0.11      0.00
   -6    7   11     -0.05      0.00
   -5    7   11      0.34      0.00
   -4    7   11      0.12      0.00
   -3    7   11     -1.02      0.00
   -2    7   11      0.97      0.00
   -1    7   11     -0.62      0.00
    0    7   11      0.88      0.00
    1    7   11     -0.60      0.00
   -8    8   11      0.24      0.00
   -7    8   11     -0.16      0.00
   -6    8   11      0.24      0.00
   -5    8   11     -0.79      0.00
   -4    8   11      0.46      0.00
   -3    8   11      0.78      0.00
   -2    8   11     -0.98      0.00
   -1    8   11      0.57      0.00
    0    8   11     -1.04      0.00
    1    8   11      1.25      0.00
   -7    9   11     -0.07      0.00
   -6    9   11     -0.06      0.00
   -5    9   11      0.78      0.00
   -4    9   11     -0.75      0.00
   -3    9   11     -0.44      0.00
   -2    9   11      0.79      0.00
   -1    9   11     -0.29      0.00
    0    9   11      0.71      0.00
   -6   10   11     -0.26      0.00
   -5   10   11     -0.46      0.00
   -4   10   11      0.82      0.00
   -3   10   11      0.02      0.00
   -2   10   11     -0.46      0.00
   -1   10   11      0.01      0.00
   -5   11   11      0.17      0.00
   -4   11   11     -0.80      0.00
   -3   11   11      0.41      0.00
   -2   11   11      0.11      0.00
   -3  -11   12      0.62      0.00
   -2  -11   12      0.19      0.00
   -1  -11   12     -1.02      0.00
    0  -11   12      1.61      0.00
    1  -11   12     -2.48      0.00
    2  -11   12      2.13      0.00
    3  -11   12     -0.44      0.00
   -4  -10   12      0.96      0.00
   -3  -10   12     -0.91      0.00
   -2  -10   12     -0.27      0.00
   -1  -10   12      1.15      0.00
    0  -10   12     -1.38      0.00
    1  -10   12      2.10      0.00
    2  -10   12     -2.02      0.00
    3  -10   12      0.46      0.00
    4  -10   12      0.17      0.00
   -5   -9   12      0.92      0.00
   -4   -9   12     -1.12      0.00
   -3   -9   12      0.84      0.00
   -2   -9   12      0.35      0.00
   -1   -9   12     -0.89      0.00
    0   -9   12      0.44      0.00
    1   -9   12     -0.89      0.00
    2   -9   12      1.33      0.00
    3   -9   12     -0.35      0.00
    4   -9   12     -0.02      0.00
    5   -9   12     -0.59      0.00
   -6   -8   12      0.74      0.00
   -5   -8   12     -0.80      0.00
   -4   -8   12      0.61      0.00
   -3   -8   12     -0.35      0.00
   -2   -8   12     -0.47      0.00
   -1   -8   12      0.55      0.00
    0   -8   12      0.57      0.00
    1   -8   12     -0.49      0.00
    2   -8   12     -0.43      0.00
    3   -8   12      0.16      0.00
    4   -8   12     -0.12      0.00
    5   -8   12      0.89      0.00
   -7   -7   12      0.39      0.00
   -6   -7   12     -0.65      0.00
   -5   -7   12      0.18      0.00
   -4   -7   12      0.34      0.00
   -3   -7   12     -0.27      0.00
   -2   -7   12      0.56      0.00
   -1   -7   12     -0.50      0.00
    0   -7   12     -0.77      0.00
    1   -7   12      1.01      0.00
    2   -7   12      0.03      0.00
    3   -7   12     -0.14      0.00
    4   -7   12      0.24      0.00
    5   -7   12     -1.05      0.00
   -7   -6   12     -0.68      0.00
   -6   -6   12      0.49      0.00
   -5   -6   12      0.50      0.00
   -4   -6   12     -1.19      0.00
   -3   -6   12      0.63      0.00
   -2   -6   12     -0.42      0.00
   -1   -6   12      0.72      0.00
    0   -6   12     -0.04      0.00
    1   -6   12     -0.29      0.00
    2   -6   12     -0.45      0.00
    3   -6   12      0.44      0.00
    4   -6   12     -0.37      0.00
    5   -6   12      1.04      0.00
   -8   -5   12     -0.67      0.00
   -7   -5   12      0.76      0.00
   -6   -5   12     -0.33      0.00
   -5   -5   12     -0.83      0.00
   -4   -5   12      1.51      0.00
   -3   -5   12     -0.54      0.00
   -2   -5   12     -0.04      0.00
   -1   -5   12     -0.86      0.00
    0   -5   12      1.17      0.00
    1   -5   12     -0.92      0.00
    2   -5   12      1.13      0.00
    3   -5   12     -0.78      0.00
    4   -5   12      0.41      0.00
    5   -5   12     -0.86      0.00
   -8   -4   12      0.33      0.00
   -7   -4   12     -0.35      0.00
   -6   -4   12      0.12      0.00
   -5   -4   12      0.69      0.00
   -4   -4   12     -1.25      0.00
   -3   -4   12      0.17      0.00
   -2   -4   12      0.64      0.00
   -1   -4   12      0.65      0.00
    0   -4   12     -1.76      0.00
    1   -4   12      1.54      0.00
    2   -4   12     -1.22      0.00
    3   -4   12      0.64      0.00
    4   -4   12     -0.19      0.00
    5   -4   12      0.54      0.00
   -8   -3   12      0.46      0.00
   -7   -3   12     -0.52      0.00
   -6   -3   12      0.25      0.00
   -5   -3   12     -0.35      0.00
   -4   -3   12      0.76      0.00
   -3   -3   12      0.10      0.00
   -2   -3   12     -1.00      0.00
   -1   -3   12     -0.25      0.00
    0   -3   12      1.61      0.00
    1   -3   12     -1.21      0.00
    2   -3   12      0.45      0.00
    3   -3   12      0.04      0.00
    4   -3   12     -0.22      0.00
    5   -3   12     -0.21      0.00
   -8   -2   12     -1.16      0.00
   -7   -2   12      1.44      0.00
   -6   -2   12     -0.78      0.00
   -5   -2   12      0.20      0.00
   -4   -2   12     -0.46      0.00
   -3   -2   12     -0.02      0.00
   -2   -2   12      0.91      0.00
   -1   -2   12     -0.01      0.00
    0   -2   12     -1.15      0.00
    1   -2   12      0.43      0.00
    2   -2   12      0.63      0.00
    3   -2   12     -0.82      0.00
    4   -2   12      0.53      0.00
    5   -2   12      0.07      0.00
   -9   -1   12     -0.19      0.00
   -8   -1   12      1.32      0.00
   -7   -1   12     -1.94      0.00
   -6   -1   12      1.31      0.00
   -5   -1   12     -0.39      0.00
   -4   -1   12      0.49      0.00
   -3   -1   12     -0.32      0.00
   -2   -1   12     -0.50      0.00
   -1   -1   12      0.00      0.00
    0   -1   12      0.84      0.00
    1   -1   12      0.10      0.00
    2   -1   12     -1.29      0.00
    3   -1   12      1.17      0.00
    4   -1   12     -0.47      0.00
    5   -1   12     -0.18      0.00
   -8    0   12     -0.93      0.00
   -7    0   12      1.82      0.00
   -6    0   12     -1.55      0.00
   -5    0   12      0.70      0.00
   -4    0   12     -0.63      0.00
   -3    0   12      0.58      0.00
   -2    0   12      0.14      0.00
   -1    0   12      0.09      0.00
    0    0   12     -0.75      0.00
    1    0   12     -0.15      0.00
    2    0   12      1.34      0.00
    3    0   12     -1.04      0.00
    4    0   12      0.14      0.00
   -9    1   12      0.45      0.00
   -8    1   12      0.35      0.00
   -7    1   12     -1.21      0.00
   -6    1   12      1.32      0.00
   -5    1   12     -0.70      0.00
   -4    1   12      0.48      0.00
   -3    1   12     -0.46      0.00
   -2    1   12     -0.03      0.00
   -1    1   12     -0.11      0.00
    0    1   12      0.76      0.00
    1    1   12     -0.12      0.00
    2    1   12     -0.96      0.00
    3    1   12      0.75      0.00
   -9    2   12     -0.41      0.00
   -8    2   12      0.08      0.00
   -7    2   12      0.45      0.00
   -6    2   12     -0.66      0.00
   -5    2   12      0.23      0.00
   -4    2   12      0.11      0.00
   -3    2   12     -0.05      0.00
   -2    2   12      0.16      0.00
   -1    2   12      0.10      0.00
    0    2   12     -0.81      0.00
    1    2   12      0.57      0.00
    2    2   12      0.37      0.00
    3    2   12     -0.47      0.00
   -9    3   12      0.27      0.00
   -8    3   12     -0.26      0.00
   -7    3   12      0.16      0.00
   -6    3   12     -0.11      0.00
   -5    3   12      0.47      0.00
   -4    3   12     -0.88      0.00
   -3    3   12      0.72      0.00
   -2    3   12     -0.37      0.00
   -1    3   12     -0.10      0.00
    0    3   12      0.88      0.00
    1    3   12     -1.07      0.00
    2    3   12      0.35      0.00
   -9    4   12     -0.20      0.00
   -8    4   12      0.24      0.00
   -7    4   12     -0.45      0.00
   -6    4   12      0.60      0.00
   -5    4   12     -0.89      0.00
   -4    4   12      1.34      0.00
   -3    4   12     -1.21      0.00
   -2    4   12      0.57      0.00
   -1    4   12      0.03      0.00
    0    4   12     -0.77      0.00
    1    4   12      1.30      0.00
   -9    5   12      0.19      0.00
   -8    5   12     -0.09      0.00
   -7    5   12      0.41      0.00
   -6    5   12     -0.63      0.00
   -5    5   12      0.72      0.00
   -4    5   12     -1.21      0.00
   -3    5   12      1.36      0.00
   -2    5   12     -0.73      0.00
   -1    5   12      0.14      0.00
    0    5   12      0.34      0.00
    1    5   12     -0.98      0.00
   -8    6   12     -0.12      0.00
   -7    6   12     -0.18      0.00
   -6    6   12      0.31      0.00
   -5    6   12     -0.10      0.00
   -4    6   12      0.59      0.00
   -3    6   12     -1.18      0.00
   -2    6   12      0.78      0.00
   -1    6   12     -0.28      0.00
    0    6   12      0.22      0.00
    1    6   12      0.18      0.00
   -8    7   12      0.29      0.00
   -7    7   12     -0.03      0.00
   -6    7   12      0.02      0.00
   -5    7   12     -0.52      0.00
   -4    7   12      0.13      0.00
   -3    7   12      0.80      0.00
   -2    7   12     -0.65      0.00
   -1    7   12      0.19      0.00
    0    7   12     -0.51      0.00
    1    7   12      0.57      0.00
   -8    8   12     -0.35      0.00
   -7    8   12      0.11      0.00
   -6    8   12     -0.09      0.00
   -5    8   12      0.75      0.00
   -4    8   12     -0.61      0.00
   -3    8   12     -0.37      0.00
   -2    8   12      0.37      0.00
   -1    8   12      0.12      0.00
    0    8   12      0.36      0.00
   -7    9   12     -0.10      0.00
   -6    9   12     -0.05      0.00
   -5    9   12     -0.58      0.00
   -4    9   12      0.78      0.00
   -3    9   12     -0.05      0.00
   -2    9   12     -0.03      0.00
   -1    9   12     -0.41      0.00
   -6   10   12      0.18      0.00
   -5   10   12      0.24      0.00
   -4   10   12     -0.75      0.00
   -3   10   12      0.43      0.00
   -2   10   12     -0.24      0.00
   -2  -11   13      0.39      0.00
   -1  -11   13      0.93      0.00
    0  -11   13     -1.07      0.00
    1  -11   13      1.25      0.00
    2  -11   13     -1.46      0.00
   -4  -10   13     -1.60      0.00
   -3  -10   13      1.77      0.00
   -2  -10   13     -0.50      0.00
   -1  -10   13     -0.78      0.00
    0  -10   13      0.68      0.00
    1  -10   13     -0.71      0.00
    2  -10   13      1.20      0.00
    3  -10   13     -0.82      0.00
   -5   -9   13     -0.99      0.00
   -4   -9   13      1.16      0.00
   -3   -9   13     -1.30      0.00
   -2   -9   13      0.58      0.00
   -1   -9   13      0.11      0.00
    0   -9   13      0.41      0.00
    1   -9   13     -0.51      0.00
    2   -9   13     -0.38      0.00
    3   -9   13      0.63      0.00
    4   -9   13     -0.52      0.00
   -6   -8   13     -0.40      0.00
   -5   -8   13      0.31      0.00
   -4   -8   13      0.07      0.00
   -3   -8   13      0.25      0.00
   -2   -8   13     -0.41      0.00
   -1   -8   13      0.38      0.00
    0   -8   13     -1.17      0.00
    1   -8   13      1.44      0.00
    2   -8   13     -0.38      0.00
    3   -8   13     -0.36      0.00
    4   -8   13      0.65      0.00
   -6   -7   13      0.12      0.00
   -5   -7   13      0.63      0.00
   -4   -7   13     -1.43      0.00
   -3   -7   13      0.82      0.00
   -2   -7   13      0.02      0.00
   -1   -7   13     -0.17      0.00
    0   -7   13      0.75      0.00
    1   -7   13     -1.15      0.00
    2   -7   13      0.40      0.00
    3   -7   13      0.35      0.00
    4   -7   13     -0.80      0.00
    5   -7   13      1.28      0.00
   -7   -6   13      0.22      0.00
   -6   -6   13      0.04      0.00
   -5   -6   13     -1.18      0.00
   -4   -6   13      2.07      0.00
   -3   -6   13     -1.21      0.00
   -2   -6   13      0.17      0.00
   -1   -6   13     -0.50      0.00
    0   -6   13      0.65      0.00
    1   -6   13     -0.18      0.00
    2   -6   13      0.27      0.00
    3   -6   13     -0.60      0.00
    4   -6   13      0.93      0.00
    5   -6   13     -1.32      0.00
   -7   -5   13     -0.26      0.00
   -6   -5   13     -0.05      0.00
   -5   -5   13      1.04      0.00
   -4   -5   13     -1.67      0.00
   -3   -5   13      0.71      0.00
   -2   -5   13      0.12      0.00
   -1   -5   13      0.96      0.00
    0   -5   13     -1.94      0.00
    1   -5   13      1.44      0.00
    2   -5   13     -0.83      0.00
    3   -5   13      0.71      0.00
    4   -5   13     -0.89      0.00
    5   -5   13      1.13      0.00
   -8   -4   13      0.35      0.00
   -7   -4   13     -0.05      0.00
   -6   -4   13      0.06      0.00
   -5   -4   13     -0.51      0.00
   -4   -4   13      0.75      0.00
   -3   -4   13      0.14      0.00
   -2   -4   13     -0.68      0.00
   -1   -4   13     -0.84      0.00
    0   -4   13      2.28      0.00
    1   -4   13     -1.67      0.00
    2   -4   13      0.58      0.00
    3   -4   13     -0.30      0.00
    4   -4   13      0.56      0.00
    5   -4   13     -0.80      0.00
   -8   -3   13     -0.77      0.00
   -7   -3   13      0.53      0.00
   -6   -3   13     -0.20      0.00
   -5   -3   13      0.16      0.00
   -4   -3   13     -0.17      0.00
   -3   -3   13     -0.53      0.00
   -2   -3   13      0.98      0.00
   -1   -3   13      0.38      0.00
    0   -3   13     -1.70      0.00
    1   -3   13      0.93      0.00
    2   -3   13      0.35      0.00
    3   -3   13     -0.50      0.00
    4   -3   13     -0.04      0.00
   -8   -2   13      0.86      0.00
   -7   -2   13     -0.83      0.00
   -6   -2   13      0.43      0.00
   -5   -2   13     -0.26      0.00
   -4   -2   13      0.31      0.00
   -3   -2   13      0.18      0.00
   -2   -2   13     -0.78      0.00
   -1   -2   13      0.05      0.00
    0   -2   13      0.81      0.00
    1   -2   13      0.04      0.00
    2   -2   13     -1.25      0.00
    3   -2   13      1.19      0.00
    4   -2   13     -0.41      0.00
   -9   -1   13     -0.37      0.00
   -8   -1   13     -0.56      0.00
   -7   -1   13      0.74      0.00
   -6   -1   13     -0.52      0.00
   -5   -1   13      0.55      0.00
   -4   -1   13     -0.80      0.00
   -3   -1   13      0.47      0.00
   -2   -1   13      0.35      0.00
   -1   -1   13     -0.32      0.00
    0   -1   13     -0.11      0.00
    1   -1   13     -0.61      0.00
    2   -1   13      1.57      0.00
    3   -1   13     -1.40      0.00
    4   -1   13      0.59      0.00
   -8    0   13      0.15      0.00
   -7    0   13     -0.37      0.00
   -6    0   13      0.33      0.00
   -5    0   13     -0.57      0.00
   -4    0   13      0.91      0.00
   -3    0   13     -0.72      0.00
   -2    0   13     -0.12      0.00
   -1    0   13      0.49      0.00
    0    0   13     -0.25      0.00
    1    0   13      0.63      0.00
    2    0   13     -1.28      0.00
    3    0   13      1.15      0.00
   -9    1   13     -0.69      0.00
   -8    1   13      0.09      0.00
   -7    1   13     -0.03      0.00
   -6    1   13      0.10      0.00
   -5    1   13      0.10      0.00
   -4    1   13     -0.35      0.00
   -3    1   13      0.31      0.00
   -2    1   13      0.20      0.00
   -1    1   13     -0.53      0.00
    0    1   13      0.26      0.00
    1    1   13     -0.25      0.00
    2    1   13      0.65      0.00
   -9    2   13      0.46      0.00
   -8    2   13     -0.14      0.00
   -7    2   13      0.30      0.00
   -6    2   13     -0.55      0.00
   -5    2   13      0.57      0.00
   -4    2   13     -0.57      0.00
   -3    2   13      0.41      0.00
   -2    2   13     -0.34      0.00
   -1    2   13      0.35      0.00
    0    2   13      0.02      0.00
    1    2   13     -0.31      0.00
   -9    3   13     -0.25      0.00
   -8    3   13      0.10      0.00
   -7    3   13     -0.41      0.00
   -6    3   13      0.79      0.00
   -5    3   13     -0.99      0.00
   -4    3   13      1.21      0.00
   -3    3   13     -0.91      0.00
   -2    3   13      0.27      0.00
   -1    3   13      0.05      0.00
    0    3   13     -0.40      0.00
    1    3   13      0.79      0.00
   -9    4   13      0.13      0.00
   -8    4   13     -0.02      0.00
   -7    4   13      0.38      0.00
   -6    4   13     -0.73      0.00
   -5    4   13      0.88      0.00
   -4    4   13     -1.20      0.00
   -3    4   13      0.96      0.00
   -2    4   13     -0.05      0.00
   -1    4   13     -0.44      0.00
    0    4   13      0.59      0.00
    1    4   13     -0.90      0.00
   -8    5   13     -0.12      0.00
   -7    5   13     -0.22      0.00
   -6    5   13      0.42      0.00
   -5    5   13     -0.33      0.00
   -4    5   13      0.68      0.00
   -3    5   13     -0.72      0.00
   -2    5   13     -0.14      0.00
   -1    5   13      0.63      0.00
    0    5   13     -0.48      0.00
    1    5   13      0.56      0.00
   -8    6   13      0.33      0.00
   -7    6   13     -0.01      0.00
   -6    6   13     -0.05      0.00
   -5    6   13     -0.31      0.00
   -4    6   13     -0.05      0.00
   -3    6   13      0.46      0.00
   -2    6   13      0.17      0.00
   -1    6   13     -0.66      0.00
    0    6   13      0.29      0.00
   -8    7   13     -0.50      0.00
   -7    7   13      0.21      0.00
   -6    7   13     -0.18      0.00
   -5    7   13      0.69      0.00
   -4    7   13     -0.39      0.00
   -3    7   13     -0.30      0.00
   -2    7   13     -0.11      0.00
   -1    7   13      0.67      0.00
    0    7   13     -0.26      0.00
   -8    8   13      0.57      0.00
   -7    8   13     -0.33      0.00
   -6    8   13      0.20      0.00
   -5    8   13     -0.68      0.00
   -4    8   13      0.54      0.00
   -3    8   13      0.18      0.00
   -2    8   13      0.06      0.00
   -1    8   13     -0.65      0.00
   -7    9   13      0.37      0.00
   -6    9   13     -0.06      0.00
   -5    9   13      0.39      0.00
   -4    9   13     -0.49      0.00
   -3    9   13      0.00      0.00
   -2    9   13     -0.08      0.00
   -5   10   13      0.01      0.00
   -4   10   13      0.33      0.00
    0  -11   14      0.93      0.00
   -3  -10   14     -1.62      0.00
   -2  -10   14      0.99      0.00
   -1  -10   14      0.24      0.00
    0  -10   14     -0.23      0.00
    1  -10   14     -0.21      0.00
    2  -10   14     -0.25      0.00
   -4   -9   14     -0.28      0.00
   -3   -9   14      0.90      0.00
   -2   -9   14     -1.03      0.00
   -1   -9   14      0.51      0.00
    0   -9   14     -0.78      0.00
    1   -9   14      1.19      0.00
    2   -9   14     -0.41      0.00
    3   -9   14     -0.51      0.00
   -5   -8   14      0.40      0.00
   -4   -8   14     -0.86      0.00
   -3   -8   14      0.21      0.00
   -2   -8   14      0.62      0.00
   -1   -8   14     -0.70      0.00
    0   -8   14      1.07      0.00
    1   -8   14     -1.50      0.00
    2   -8   14      0.72      0.00
    3   -8   14      0.43      0.00
    4   -8   14     -0.80      0.00
   -6   -7   14      0.06      0.00
   -5   -7   14     -0.83      0.00
   -4   -7   14      1.56      0.00
   -3   -7   14     -0.89      0.00
   -2   -7   14     -0.16      0.00
   -1   -7   14      0.23      0.00
    0   -7   14     -0.31      0.00
    1   -7   14      0.78      0.00
    2   -7   14     -0.42      0.00
    3   -7   14     -0.52      0.00
    4   -7   14      0.96      0.00
   -6   -6   14      0.08      0.00
   -5   -6   14      0.69      0.00
   -4   -6   14     -1.27      0.00
   -3   -6   14      0.59      0.00
   -2   -6   14      0.18      0.00
   -1   -6   14      0.33      0.00
    0   -6   14     -0.83      0.00
    1   -6   14      0.32      0.00
    2   -6   14     -0.06      0.00
    3   -6   14      0.58      0.00
    4   -6   14     -1.00      0.00
   -7   -5   14      0.24      0.00
   -6   -5   14     -0.31      0.00
   -5   -5   14     -0.17      0.00
   -4   -5   14      0.34      0.00
   -3   -5   14      0.38      0.00
   -2   -5   14     -0.72      0.00
   -1   -5   14     -0.43      0.00
    0   -5   14      1.43      0.00
    1   -5   14     -0.86      0.00
    2   -5   14      0.07      0.00
    3   -5   14     -0.32      0.00
    4   -5   14      0.83      0.00
   -7   -4   14     -0.16      0.00
   -6   -4   14      0.42      0.00
   -5   -4   14     -0.15      0.00
   -4   -4   14      0.27      0.00
   -3   -4   14     -1.06      0.00
   -2   -4   14      1.22      0.00
   -1   -4   14      0.08      0.00
    0   -4   14     -1.15      0.00
    1   -4   14      0.49      0.00
    2   -4   14      0.52      0.00
    3   -4   14     -0.31      0.00
    4   -4   14     -0.45      0.00
   -8   -3   14      0.52      0.00
   -7   -3   14      0.12      0.00
   -6   -3   14     -0.36      0.00
   -5   -3   14     -0.06      0.00
   -4   -3   14      0.03      0.00
   -3   -3   14      0.78      0.00
   -2   -3   14     -1.18      0.00
   -1   -3   14      0.39      0.00
    0   -3   14      0.31      0.00
    1   -3   14      0.35      0.00
    2   -3   14     -1.25      0.00
    3   -3   14      0.95      0.00
    4   -3   14     -0.01      0.00
   -8   -2   14     -0.30      0.00
   -7   -2   14     -0.24      0.00
   -6   -2   14      0.33      0.00
   -5   -2   14      0.55      0.00
   -4   -2   14     -0.91      0.00
   -3   -2   14      0.13      0.00
   -2   -2   14      0.72      0.00
   -1   -2   14     -0.76      0.00
    0   -2   14      0.59      0.00
    1   -2   14     -1.05      0.00
    2   -2   14      1.56      0.00
    3   -2   14     -1.21      0.00
   -7   -1   14      0.48      0.00
   -6   -1   14     -0.48      0.00
   -5   -1   14     -0.73      0.00
   -4   -1   14      1.44      0.00
   -3   -1   14     -0.79      0.00
   -2   -1   14     -0.35      0.00
   -1   -1   14      1.05      0.00
    0   -1   14     -1.26      0.00
    1   -1   14      1.33      0.00
    2   -1   14     -1.30      0.00
    3   -1   14      0.96      0.00
   -9    0   14     -0.46      0.00
   -8    0   14      0.10      0.00
   -7    0   14     -0.65      0.00
   -6    0   14      0.78      0.00
   -5    0   14      0.35      0.00
   -4    0   14     -1.10      0.00
   -3    0   14      0.66      0.00
   -2    0   14      0.30      0.00
   -1    0   14     -1.19      0.00
    0    0   14      1.54      0.00
    1    0   14     -1.23      0.00
    2    0   14      0.73      0.00
   -9    1   14      0.39      0.00
   -8    1   14     -0.07      0.00
   -7    1   14      0.65      0.00
   -6    1   14     -1.02      0.00
   -5    1   14      0.32      0.00
   -4    1   14      0.18      0.00
   -3    1   14     -0.05      0.00
   -2    1   14     -0.29      0.00
   -1    1   14      0.91      0.00
    0    1   14     -1.29      0.00
    1    1   14      0.84      0.00
   -9    2   14     -0.28      0.00
   -8    2   14      0.01      0.00
   -7    2   14     -0.52      0.00
   -6    2   14      1.02      0.00
   -5    2   14     -0.76      0.00
   -4    2   14      0.58      0.00
   -3    2   14     -0.37      0.00
   -2    2   14     -0.06      0.00
   -1    2   14     -0.12      0.00
    0    2   14      0.58      0.00
    1    2   14     -0.30      0.00
   -9    3   14      0.20      0.00
   -8    3   14      0.00      0.00
   -7    3   14      0.38      0.00
   -6    3   14     -0.78      0.00
   -5    3   14      0.71      0.00
   -4    3   14     -0.71      0.00
   -3    3   14      0.28      0.00
   -2    3   14      0.72      0.00
   -1    3   14     -0.86      0.00
    0    3   14      0.22      0.00
   -8    4   14     -0.05      0.00
   -7    4   14     -0.23      0.00
   -6    4   14      0.42      0.00
   -5    4   14     -0.26      0.00
   -4    4   14      0.36      0.00
   -3    4   14      0.02      0.00
   -2    4   14     -1.20      0.00
   -1    4   14      1.49      0.00
    0    4   14     -0.70      0.00
   -8    5   14      0.19      0.00
   -7    5   14      0.04      0.00
   -6    5   14     -0.02      0.00
   -5    5   14     -0.29      0.00
   -4    5   14      0.06      0.00
   -3    5   14     -0.10      0.00
   -2    5   14      1.12      0.00
   -1    5   14     -1.50      0.00
    0    5   14      0.73      0.00
   -8    6   14     -0.33      0.00
   -7    6   14      0.16      0.00
   -6    6   14     -0.30      0.00
   -5    6   14      0.71      0.00
   -4    6   14     -0.31      0.00
   -3    6   14     -0.13      0.00
   -2    6   14     -0.55      0.00
   -1    6   14      1.06      0.00
   -7    7   14     -0.29      0.00
   -6    7   14      0.45      0.00
   -5    7   14     -0.88      0.00
   -4    7   14      0.39      0.00
   -3    7   14      0.43      0.00
   -2    7   14     -0.08      0.00
   -1    7   14     -0.54      0.00
   -7    8   14      0.28      0.00
   -6    8   14     -0.37      0.00
   -5    8   14      0.76      0.00
   -4    8   14     -0.38      0.00
   -3    8   14     -0.51      0.00
   -2    8   14      0.42      0.00
   -5    9   14     -0.39      0.00
   -4    9   14      0.28      0.00
   -2  -10   15     -0.79      0.00
   -1  -10   15     -0.03      0.00
    0  -10   15      0.10      0.00
   -3   -9   15     -0.16      0.00
   -2   -9   15      0.53      0.00
   -1   -9   15     -0.21      0.00
    0   -9   15      0.41      0.00
    1   -9   15     -1.05      0.00
    2   -9   15      0.65      0.00
   -5   -8   15     -0.38      0.00
   -4   -8   15      0.75      0.00
   -3   -8   15     -0.40      0.00
   -2   -8   15     -0.05      0.00
   -1   -8   15      0.01      0.00
    0   -8   15     -0.33      0.00
    1   -8   15      0.99      0.00
    2   -8   15     -0.61      0.00
   -5   -7   15      0.09      0.00
   -4   -7   15     -0.46      0.00
   -3   -7   15      0.29      0.00
   -2   -7   15     -0.12      0.00
   -1   -7   15      0.37      0.00
    0   -7   15     -0.19      0.00
    1   -7   15     -0.50      0.00
    2   -7   15      0.41      0.00
    3   -7   15      0.48      0.00
   -6   -6   15     -0.60      0.00
   -5   -6   15      0.46      0.00
   -4   -6   15     -0.34      0.00
   -3   -6   15      0.49      0.00
   -2   -6   15     -0.24      0.00
   -1   -6   15     -0.50      0.00
    0   -6   15      0.63      0.00
    1   -6   15      0.11      0.00
    2   -6   15     -0.42      0.00
    3   -6   15     -0.23      0.00
   -6   -5   15      0.91      0.00
   -5   -5   15     -0.80      0.00
   -4   -5   15      0.90      0.00
   -3   -5   15     -1.23      0.00
   -2   -5   15      0.80      0.00
   -1   -5   15      0.27      0.00
    0   -5   15     -0.61      0.00
    1   -5   15     -0.16      0.00
    2   -5   15      0.76      0.00
    3   -5   15     -0.26      0.00
   -6   -4   15     -0.96      0.00
   -5   -4   15      0.51      0.00
   -4   -4   15     -0.57      0.00
   -3   -4   15      1.23      0.00
   -2   -4   15     -1.06      0.00
   -1   -4   15      0.16      0.00
    0   -4   15      0.13      0.00
    1   -4   15      0.55      0.00
    2   -4   15     -1.18      0.00
    3   -4   15      0.76      0.00
   -7   -3   15     -0.67      0.00
   -6   -3   15      0.82      0.00
   -5   -3   15      0.25      0.00
   -4   -3   15     -0.48      0.00
   -3   -3   15     -0.51      0.00
   -2   -3   15      0.96      0.00
   -1   -3   15     -0.65      0.00
    0   -3   15      0.61      0.00
    1   -3   15     -1.03      0.00
    2   -3   15      1.34      0.00
    3   -3   15     -0.95      0.00
   -7   -2   15      0.74      0.00
   -6   -2   15     -0.73      0.00
   -5   -2   15     -0.85      0.00
   -4   -2   15      1.41      0.00
   -3   -2   15     -0.19      0.00
   -2   -2   15     -0.82      0.00
   -1   -2   15      1.16      0.00
    0   -2   15     -1.43      0.00
    1   -2   15      1.43      0.00
    2   -2   15     -1.13      0.00
   -8   -1   15     -0.10      0.00
   -7   -1   15     -0.75      0.00
   -6   -1   15      0.81      0.00
   -5   -1   15      0.83      0.00
   -4   -1   15     -1.49      0.00
   -3   -1   15      0.29      0.00
   -2   -1   15      0.82      0.00
   -1   -1   15     -1.50      0.00
    0   -1   15      2.03      0.00
    1   -1   15     -1.67      0.00
   -8    0   15      0.16      0.00
   -7    0   15      0.66      0.00
   -6    0   15     -0.93      0.00
   -5    0   15     -0.33      0.00
   -4    0   15      0.84      0.00
   -3    0   15      0.04      0.00
   -2    0   15     -0.68      0.00
   -1    0   15      1.28      0.00
    0    0   15     -2.05      0.00
    1    0   15      1.63      0.00
   -8    1   15     -0.20      0.00
   -7    1   15     -0.47      0.00
   -6    1   15      0.91      0.00
   -5    1   15     -0.14      0.00
   -4    1   15     -0.18      0.00
   -3    1   15     -0.18      0.00
   -2    1   15      0.01      0.00
   -1    1   15     -0.28      0.00
    0    1   15      1.32      0.00
   -8    2   15      0.18      0.00
   -7    2   15      0.28      0.00
   -6    2   15     -0.67      0.00
   -5    2   15      0.22      0.00
   -4    2   15     -0.01      0.00
   -3    2   15     -0.17      0.00
   -2    2   15      1.09      0.00
   -1    2   15     -1.12      0.00
    0    2   15     -0.19      0.00
   -8    3   15     -0.15      0.00
   -7    3   15     -0.14      0.00
   -6    3   15      0.33      0.00
   -5    3   15      0.03      0.00
   -4    3   15     -0.19      0.00
   -3    3   15      0.64      0.00
   -2    3   15     -1.92      0.00
   -1    3   15      2.13      0.00
   -8    4   15      0.16      0.00
   -7    4   15      0.02      0.00
   -6    4   15      0.01      0.00
   -5    4   15     -0.37      0.00
   -4    4   15      0.36      0.00
   -3    4   15     -0.65      0.00
   -2    4   15      1.85      0.00
   -1    4   15     -2.15      0.00
   -8    5   15     -0.17      0.00
   -7    5   15      0.11      0.00
   -6    5   15     -0.31      0.00
   -5    5   15      0.66      0.00
   -4    5   15     -0.31      0.00
   -3    5   15      0.09      0.00
   -2    5   15     -0.91      0.00
   -1    5   15      1.31      0.00
   -7    6   15     -0.19      0.00
   -6    6   15      0.54      0.00
   -5    6   15     -0.86      0.00
   -4    6   15      0.22      0.00
   -3    6   15      0.59      0.00
   -2    6   15     -0.24      0.00
   -6    7   15     -0.57      0.00
   -5    7   15      0.95      0.00
   -4    7   15     -0.25      0.00
   -3    7   15     -0.88      0.00
   -5    8   15     -0.81      0.00
   -4    8   15      0.35      0.00
   -2   -9   16      0.23      0.00
   -1   -9   16     -0.55      0.00
    0   -9   16      0.17      0.00
   -3   -8   16      0.15      0.00
   -2   -8   16     -0.62      0.00
   -1   -8   16      0.93      0.00
    0   -8   16     -0.28      0.00
    1   -8   16     -0.63      0.00
   -4   -7   16     -0.59      0.00
   -3   -7   16      0.22      0.00
   -2   -7   16      0.69      0.00
   -1   -7   16     -1.20      0.00
    0   -7   16      0.49      0.00
    1   -7   16      0.55      0.00
    2   -7   16     -0.52      0.00
   -5   -6   16     -1.09      0.00
   -4   -6   16      1.08      0.00
   -3   -6   16     -0.69      0.00
   -2   -6   16     -0.47      0.00
   -1   -6   16      1.27      0.00
    0   -6   16     -0.67      0.00
    1   -6   16     -0.44      0.00
    2   -6   16      0.69      0.00
   -5   -5   16      1.04      0.00
   -4   -5   16     -0.93      0.00
   -3   -5   16      0.84      0.00
   -2   -5   16      0.15      0.00
   -1   -5   16     -1.06      0.00
    0   -5   16      0.65      0.00
    1   -5   16      0.36      0.00
    2   -5   16     -0.82      0.00
   -6   -4   16      1.06      0.00
   -5   -4   16     -0.35      0.00
   -4   -4   16      0.08      0.00
   -3   -4   16     -0.60      0.00
   -2   -4   16      0.23      0.00
   -1   -4   16      0.52      0.00
    0   -4   16     -0.28      0.00
    1   -4   16     -0.43      0.00
    2   -4   16      0.81      0.00
   -7   -3   16      0.59      0.00
   -6   -3   16     -0.75      0.00
   -5   -3   16     -0.53      0.00
   -4   -3   16      0.87      0.00
   -3   -3   16      0.35      0.00
   -2   -3   16     -0.75      0.00
   -1   -3   16      0.34      0.00
    0   -3   16     -0.51      0.00
    1   -3   16      0.76      0.00
   -7   -2   16     -0.48      0.00
   -6   -2   16      0.53      0.00
   -5   -2   16      0.98      0.00
   -4   -2   16     -1.26      0.00
   -3   -2   16     -0.43      0.00
   -2   -2   16      1.27      0.00
   -1   -2   16     -1.13      0.00
    0   -2   16      1.39      0.00
    1   -2   16     -1.28      0.00
   -7   -1   16      0.39      0.00
   -6   -1   16     -0.51      0.00
   -5   -1   16     -0.84      0.00
   -4   -1   16      0.98      0.00
   -3   -1   16      0.69      0.00
   -2   -1   16     -1.37      0.00
   -1   -1   16      1.24      0.00
    0   -1   16     -1.78      0.00
   -8    0   16     -0.30      0.00
   -7    0   16     -0.27      0.00
   -6    0   16      0.54      0.00
   -5    0   16      0.46      0.00
   -4    0   16     -0.54      0.00
   -3    0   16     -0.61      0.00
   -2    0   16      0.62      0.00
   -1    0   16     -0.33      0.00
    0    0   16      1.29      0.00
   -8    1   16      0.34      0.00
   -7    1   16      0.10      0.00
   -6    1   16     -0.44      0.00
   -5    1   16     -0.25      0.00
   -4    1   16      0.42      0.00
   -3    1   16     -0.03      0.00
   -2    1   16      0.79      0.00
   -1    1   16     -1.23      0.00
   -8    2   16     -0.38      0.00
   -7    2   16      0.06      0.00
   -6    2   16      0.23      0.00
   -5    2   16      0.29      0.00
   -4    2   16     -0.59      0.00
   -3    2   16      0.80      0.00
   -2    2   16     -2.02      0.00
   -1    2   16      2.48      0.00
   -7    3   16     -0.18      0.00
   -6    3   16      0.01      0.00
   -5    3   16     -0.41      0.00
   -4    3   16      0.65      0.00
   -3    3   16     -1.01      0.00
   -2    3   16      2.22      0.00
   -7    4   16      0.22      0.00
   -6    4   16     -0.22      0.00
   -5    4   16      0.48      0.00
   -4    4   16     -0.41      0.00
   -3    4   16      0.43      0.00
   -2    4   16     -1.29      0.00
   -7    5   16     -0.21      0.00
   -6    5   16      0.40      0.00
   -5    5   16     -0.56      0.00
   -4    5   16      0.08      0.00
   -3    5   16      0.45      0.00
   -6    6   16     -0.49      0.00
   -5    6   16      0.68      0.00
   -4    6   16      0.01      0.00
   -3    6   16     -0.95      0.00
   -3   -7   17     -0.15      0.00
   -2   -7   17     -1.08      0.00
   -1   -7   17      1.58      0.00
   -3   -6   17      0.10      0.00
   -2   -6   17      1.21      0.00
   -1   -6   17     -1.87      0.00
    0   -6   17      0.93      0.00
   -4   -5   17      0.27      0.00
   -3   -5   17     -0.04      0.00
   -2   -5   17     -0.90      0.00
   -1   -5   17      1.68      0.00
    0   -5   17     -1.07      0.00
   -4   -4   17      0.40      0.00
   -3   -4   17      0.17      0.00
   -2   -4   17      0.07      0.00
   -1   -4   17     -0.84      0.00
    0   -4   17      0.61      0.00
   -5   -3   17      0.64      0.00
   -4   -3   17     -0.85      0.00
   -3   -3   17     -0.57      0.00
   -2   -3   17      0.99      0.00
   -1   -3   17     -0.26      0.00
    0   -3   17      0.27      0.00
   -6   -2   17     -0.21      0.00
   -5   -2   17     -0.87      0.00
   -4   -2   17      0.82      0.00
   -3   -2   17      1.03      0.00
   -2   -2   17     -1.61      0.00
   -1   -2   17      0.82      0.00
   -6   -1   17      0.27      0.00
   -5   -1   17      0.67      0.00
   -4   -1   17     -0.56      0.00
   -3   -1   17     -1.07      0.00
   -2   -1   17      1.25      0.00
   -1   -1   17     -0.30      0.00
   -7    0   17      0.12      0.00
   -6    0   17     -0.32      0.00
   -5    0   17     -0.40      0.00
   -4    0   17      0.43      0.00
   -3    0   17      0.50      0.00
   -2    0   17      0.00      0.00
   -1    0   17     -1.05      0.00
   -7    1   17      0.09      0.00
   -6    1   17      0.23      0.00
   -5    1   17      0.28      0.00
   -4    1   17     -0.56      0.00
   -3    1   17      0.37      0.00
   -2    1   17     -1.36      0.00
   -7    2   17     -0.31      0.00
   -6    2   17     -0.05      0.00
   -5    2   17     -0.28      0.00
   -4    2   17      0.66      0.00
   -3    2   17     -0.89      0.00
   -2    2   17      1.94      0.00
   -6    3   17     -0.10      0.00
   -5    3   17      0.26      0.00
   -4    3   17     -0.48      0.00
   -3    3   17      0.67      0.00
   -6    4   17      0.19      0.00
   -5    4   17     -0.21      0.00
   -4    4   17      0.10      0.00
   -3   -2   18     -0.87      0.00
   -3   -1   18      0.68      0.00
   10    0    0      0.23      0.00
    0    1    0    -29.29      0.00
    8    5    0      0.30      0.00
    7    7    0      0.50      0.00
   -9    9    0      1.67      0.00
    6    9    0     -1.35      0.00
  -10   10    0      0.65      0.00
   -9   10    0     -2.25      0.00
    0   15    0      0.05      0.00
    3  -16    1     -0.05      0.00
    0  -15    1     -0.10      0.00
   -3  -13    1     -0.09      0.00
    9  -12    1      1.11      0.00
   -5  -11    1     -1.62      0.00
    9  -11    1     -1.29      0.00
    9  -10    1      1.17      0.00
   -6   -9    1      1.08      0.00
   10   -9    1     -0.10      0.00
   -7   -8    1      0.13      0.00
   -8   -6    1      0.56      0.00
    0   -1    1     27.98      0.00
   10   -1    1     -0.04      0.00
    0    0    1    -26.82      0.00
    8    5    1     -0.21      0.00
    7    7    1     -1.28      0.00
    6    9    1      0.43      0.00
  -10   10    1     -0.43      0.00
    1   14    1     -0.43      0.00
    3  -16    2      0.19      0.00
    0  -15    2     -0.05      0.00
    6  -15    2      0.17      0.00
   -2  -14    2     -0.83      0.00
   -1  -14    2      0.74      0.00
   -4  -12    2      0.65      0.00
   -5  -11    2      1.10      0.00
    9  -11    2     -0.22      0.00
   -6   -9    2     -0.29      0.00
    8   -9    2      0.23      0.00
   -7   -8    2      0.54      0.00
   10   -8    2      0.12      0.00
   -8   -6    2     -0.81      0.00
   -8   -5    2      0.84      0.00
   -9   -4    2      0.27      0.00
   -9   -3    2     -0.47      0.00
   10   -3    2      0.28      0.00
  -10   -1    2     -0.01      0.00
    9    2    2      0.17      0.00
  -10   10    2     -0.82      0.00
    5   10    2      1.93      0.00
    1   14    2      0.22      0.00
   -1   15    2      0.30      0.00
    0  -15    3      0.39      0.00
    1  -15    3     -0.58      0.00
    6  -15    3     -0.15      0.00
   -2  -14    3      0.83      0.00
   -1  -14    3     -0.31      0.00
    7  -14    3     -0.57      0.00
   -3  -13    3      0.52      0.00
    8  -13    3     -0.75      0.00
   -4  -12    3     -0.29      0.00
   -5  -11    3     -0.26      0.00
    9  -11    3      0.84      0.00
   -6  -10    3      0.17      0.00
   -5  -10    3      0.39      0.00
    8  -10    3      1.28      0.00
   -6   -9    3     -0.14      0.00
   -7   -8    3     -0.80      0.00
   -9   -3    3      0.25      0.00
  -10   -1    3     -0.14      0.00
    9    1    3      0.10      0.00
    8    4    3      0.30      0.00
    6    8    3      1.24      0.00
  -10    9    3     -1.20      0.00
  -10   10    3      1.98      0.00
    3   12    3     -1.24      0.00
   -6   15    3     -0.57      0.00
    0  -15    4     -0.70      0.00
    1  -15    4      0.63      0.00
    2  -15    4      0.01      0.00
    3  -15    4     -0.32      0.00
    4  -15    4     -0.15      0.00
    5  -15    4      0.63      0.00
   -2  -14    4     -0.48      0.00
   -1  -14    4      0.01      0.00
    7  -14    4     -0.33      0.00
   -3  -13    4      0.12      0.00
   -2  -13    4      0.32      0.00
   -4  -12    4      0.30      0.00
   -3  -12    4     -0.32      0.00
   -5  -11    4     -0.06      0.00
   -4  -11    4     -0.36      0.00
    8  -11    4      0.91      0.00
   -6  -10    4     -0.14      0.00
   -5  -10    4     -0.26      0.00
    8  -10    4     -1.04      0.00
    9  -10    4      0.95      0.00
   -6   -9    4      0.04      0.00
   -7   -8    4      0.69      0.00
   -8   -7    4      0.36      0.00
  -10   -2    4     -0.05      0.00
   -9   -2    4     -0.23      0.00
  -10   -1    4      0.15      0.00
  -10    0    4     -0.37      0.00
    9    0    4     -0.20      0.00
  -10    1    4      0.49      0.00
  -11    4    4     -0.06      0.00
  -11    5    4     -0.15      0.00
  -11    6    4      0.32      0.00
  -10    9    4      1.30      0.00
    5    9    4     -1.80      0.00
  -10   10    4     -1.85      0.00
    0   14    4      0.13      0.00
   -5   15    4      0.56      0.00
    0  -15    5      0.62      0.00
    1  -15    5     -0.68      0.00
    2  -15    5      0.28      0.00
    3  -15    5     -0.02      0.00
    4  -15    5      0.19      0.00
    5  -15    5     -0.64      0.00
   -2  -14    5      0.28      0.00
   -1  -14    5     -0.27      0.00
    0  -14    5     -0.55      0.00
    6  -14    5     -1.66      0.00
   -3  -13    5     -0.69      0.00
   -2  -13    5      0.01      0.00
   -1  -13    5      0.54      0.00
    7  -13    5     -1.34      0.00
   -4  -12    5     -0.52      0.00
   -3  -12    5      0.97      0.00
    8  -12    5      0.05      0.00
   -5  -11    5     -0.24      0.00
   -4  -11    5      0.60      0.00
    8  -11    5     -0.37      0.00
   -6  -10    5     -0.41      0.00
    9   -9    5      0.59      0.00
   -8   -7    5      0.30      0.00
   -9   -5    5     -0.69      0.00
  -10   -2    5     -0.22      0.00
   -9   -1    5     -0.03      0.00
  -10    0    5      0.08      0.00
  -10    1    5      0.02      0.00
  -10    2    5     -0.28      0.00
  -11    3    5      0.21      0.00
  -10    3    5      0.41      0.00
  -11    4    5     -0.53      0.00
  -10    4    5     -0.18      0.00
  -11    5    5      0.88      0.00
  -10    5    5     -0.24      0.00
  -11    6    5     -0.92      0.00
  -10    7    5     -0.53      0.00
  -10    8    5      0.54      0.00
  -10    9    5     -0.67      0.00
  -10   10    5      0.75      0.00
    3   11    5      0.13      0.00
   -9   12    5     -0.69      0.00
    2   12    5      0.08      0.00
    0  -15    6     -0.11      0.00
    1  -15    6      0.32      0.00
    2  -15    6     -0.25      0.00
    3  -15    6      0.13      0.00
    4  -15    6     -0.02      0.00
   -2  -14    6     -0.26      0.00
   -1  -14    6      0.68      0.00
    0  -14    6     -0.16      0.00
    1  -14    6     -0.45      0.00
    2  -14    6      0.56      0.00
    3  -14    6     -0.18      0.00
    4  -14    6     -0.15      0.00
    5  -14    6     -0.42      0.00
    6  -14    6      1.03      0.00
   -3  -13    6      0.95      0.00
   -2  -13    6     -0.33      0.00
   -1  -13    6     -0.57      0.00
    6  -13    6     -1.24      0.00
    7  -13    6      0.84      0.00
   -4  -12    6      0.59      0.00
   -3  -12    6     -1.26      0.00
   -2  -12    6      1.00      0.00
    7  -12    6     -0.91      0.00
   -5  -11    6      0.64      0.00
   -4  -11    6     -0.51      0.00
    7  -11    6      0.90      0.00
    8  -11    6      0.20      0.00
   -6  -10    6      1.05      0.00
    8  -10    6      0.01      0.00
   -8   -7    6     -0.59      0.00
    9   -6    6      0.49      0.00
   -9   -5    6      0.41      0.00
    9   -5    6     -0.55      0.00
  -10   -2    6      0.41      0.00
    8    1    6      0.15      0.00
  -10    2    6      1.38      0.00
  -11    3    6     -0.36      0.00
  -10    3    6     -0.87      0.00
  -11    4    6      0.96      0.00
  -10    4    6     -0.10      0.00
    7    4    6     -0.06      0.00
  -11    5    6     -1.34      0.00
  -10    5    6      0.93      0.00
  -11    6    6      1.22      0.00
  -10    6    6     -1.17      0.00
  -10    7    6      0.88      0.00
  -10    8    6     -0.46      0.00
  -10    9    6      0.19      0.00
  -10   10    6     -0.06      0.00
   -9   12    6      0.02      0.00
   -6   14    6      0.26      0.00
   -2   14    6      0.32      0.00
    1  -15    7      0.23      0.00
    2  -15    7     -0.32      0.00
    3  -15    7      0.31      0.00
   -2  -14    7     -0.06      0.00
   -1  -14    7     -0.41      0.00
    0  -14    7      0.26      0.00
    1  -14    7     -0.12      0.00
    2  -14    7      0.32      0.00
    3  -14    7     -0.68      0.00
    4  -14    7      0.85      0.00
    5  -14    7     -0.37      0.00
   -3  -13    7     -0.98      0.00
   -2  -13    7      0.87      0.00
   -1  -13    7     -0.28      0.00
    0  -13    7      0.17      0.00
    1  -13    7     -0.25      0.00
    5  -13    7      0.89      0.00
    6  -13    7      0.09      0.00
   -4  -12    7     -0.24      0.00
   -3  -12    7      0.88      0.00
   -2  -12    7     -1.40      0.00
    7  -12    7      0.13      0.00
   -5  -11    7     -0.70      0.00
    7  -11    7     -0.38      0.00
   -6  -10    7     -1.34      0.00
    8  -10    7     -0.14      0.00
    8   -9    7      0.31      0.00
   -8   -7    7      0.31      0.00
   -9   -5    7      0.12      0.00
  -10   -2    7     -0.43      0.00
  -10    3    7      0.78      0.00
    7    3    7     -0.40      0.00
  -11    4    7     -0.95      0.00
  -10    4    7      0.55      0.00
  -11    5    7      1.12      0.00
  -10    5    7     -1.40      0.00
  -10    6    7      1.51      0.00
  -10    7    7     -1.12      0.00
    5    7    7      0.09      0.00
  -10    8    7      0.71      0.00
  -10    9    7     -0.49      0.00
  -10   10    7      0.37      0.00
    2   11    7      0.37      0.00
   -6   14    7      0.02      0.00
   -5   14    7      0.02      0.00
   -4   14    7      0.47      0.00
   -3   14    7     -0.20      0.00
    2  -15    8      0.74      0.00
   -1  -14    8     -0.46      0.00
    0  -14    8      0.37      0.00
    1  -14    8      0.07      0.00
    2  -14    8     -0.85      0.00
    3  -14    8      1.48      0.00
    4  -14    8     -1.40      0.00
   -3  -13    8      0.67      0.00
   -2  -13    8     -1.10      0.00
   -1  -13    8      1.12      0.00
    0  -13    8     -0.98      0.00
    1  -13    8      0.51      0.00
    2  -13    8      0.52      0.00
    3  -13    8     -1.76      0.00
    4  -13    8      2.20      0.00
    5  -13    8     -1.28      0.00
    6  -13    8      0.32      0.00
   -4  -12    8     -0.45      0.00
   -3  -12    8      0.18      0.00
    5  -12    8      1.58      0.00
    6  -12    8     -0.27      0.00
   -5  -11    8      0.30      0.00
    6  -11    8      0.00      0.00
    7  -11    8      0.23      0.00
    7  -10    8     -0.51      0.00
    8   -8    8      0.02      0.00
   -8   -7    8     -0.07      0.00
    8   -7    8      0.19      0.00
   -9   -5    8     -0.28      0.00
    8   -3    8      0.20      0.00
  -10   -2    8      0.27      0.00
  -10    2    8      1.07      0.00
  -10    3    8     -0.08      0.00
  -10    4    8     -0.84      0.00
    6    4    8      0.86      0.00
  -10    5    8      1.29      0.00
  -10    6    8     -1.26      0.00
    5    6    8      0.38      0.00
  -10    7    8      1.08      0.00
  -10    8    8     -1.01      0.00
  -10    9    8      1.02      0.00
    3    9    8     -0.54      0.00
   -9   11    8     -0.70      0.00
   -7   13    8     -0.21      0.00
   -5   13    8      0.21      0.00
   -4   13    8     -0.03      0.00
   -2   13    8     -1.64      0.00
   -1  -14    9      0.90      0.00
    0  -14    9     -0.71      0.00
    1  -14    9      0.10      0.00
    2  -14    9      0.72      0.00
    3  -14    9     -1.43      0.00
    4  -14    9      1.35      0.00
   -2  -13    9      0.49      0.00
   -1  -13    9     -0.82      0.00
    0  -13    9      0.62      0.00
    1  -13    9     -0.11      0.00
    2  -13    9     -0.64      0.00
    5  -13    9      0.90      0.00
   -4  -12    9      1.10      0.00
   -3  -12    9     -1.33      0.00
    6  -12    9     -0.31      0.00
   -5  -11    9      0.39      0.00
    6  -11    9      0.66      0.00
   -6  -10    9      0.03      0.00
    7  -10    9      0.51      0.00
    7   -9    9     -0.38      0.00
  -10   -1    9      0.10      0.00
  -10    0    9     -0.24      0.00
    7    0    9      0.22      0.00
  -10    1    9      0.16      0.00
  -10    2    9      0.15      0.00
  -10    3    9     -0.52      0.00
    6    3    9      0.83      0.00
  -10    4    9      0.72      0.00
  -10    5    9     -0.69      0.00
    5    5    9      0.49      0.00
  -10    6    9      0.59      0.00
   -9    6    9     -0.78      0.00
  -10    7    9     -0.62      0.00
   -9    7    9      0.94      0.00
    4    7    9     -0.54      0.00
  -10    8    9      0.81      0.00
    3    8    9     -0.91      0.00
  -10    9    9     -0.95      0.00
   -8    9    9     -1.21      0.00
   -8   12    9     -0.37      0.00
   -6   13    9      0.31      0.00
   -5   13    9     -0.26      0.00
   -4   13    9      0.04      0.00
   -3   13    9     -0.52      0.00
    0  -14   10      0.13      0.00
    1  -14   10      0.36      0.00
    2  -14   10     -0.55      0.00
   -2  -13   10      0.43      0.00
   -1  -13   10     -0.22      0.00
    0  -13   10      0.69      0.00
    1  -13   10     -1.17      0.00
    2  -13   10      1.02      0.00
    3  -13   10     -1.12      0.00
    4  -13   10      1.21      0.00
   -3  -12   10      1.69      0.00
   -2  -12   10     -1.30      0.00
    4  -12   10     -0.95      0.00
    5  -12   10      0.07      0.00
   -4  -11   10      1.81      0.00
    5  -11   10      0.20      0.00
    6  -11   10     -1.05      0.00
    6  -10   10      0.87      0.00
    7   -8   10     -0.09      0.00
    7   -7   10      0.12      0.00
  -10   -1   10      0.55      0.00
  -10    0   10     -0.63      0.00
  -10    1   10      0.66      0.00
    6    1   10     -0.24      0.00
  -10    2   10     -0.65      0.00
  -10    3   10      0.57      0.00
    5    3   10     -1.02      0.00
  -10    4   10     -0.37      0.00
    5    4   10      0.66      0.00
  -10    5   10      0.09      0.00
    4    5   10      0.28      0.00
  -10    6   10      0.10      0.00
    4    6   10     -0.26      0.00
  -10    7   10     -0.06      0.00
   -9    7   10     -0.34      0.00
    3    7   10     -0.76      0.00
  -10    8   10     -0.15      0.00
   -9    8   10      0.44      0.00
   -8    9   10      0.46      0.00
   -9   10   10      0.16      0.00
   -8   10   10      0.08      0.00
   -7   11   10      0.56      0.00
   -7   12   10     -0.66      0.00
   -6   12   10      0.49      0.00
   -5   12   10     -0.09      0.00
   -2   12   10      0.78      0.00
   -1  -13   11      0.65      0.00
    0  -13   11     -1.35      0.00
    1  -13   11      2.05      0.00
    2  -13   11     -1.45      0.00
    3  -13   11      0.60      0.00
   -3  -12   11     -0.98      0.00
   -2  -12   11      0.98      0.00
    3  -12   11     -0.47      0.00
    4  -12   11      0.10      0.00
   -4  -11   11     -0.90      0.00
    5  -11   11     -0.38      0.00
    6   -9   11      0.01      0.00
   -7   -8   11      0.37      0.00
   -9   -4   11      0.62      0.00
    6   -1   11     -0.13      0.00
  -10    0   11      0.26      0.00
    6    0   11      0.26      0.00
  -10    1   11     -0.23      0.00
    5    1   11      1.02      0.00
  -10    2   11      0.28      0.00
    5    2   11     -1.08      0.00
  -10    3   11     -0.30      0.00
    4    3   11     -0.70      0.00
  -10    4   11      0.13      0.00
    4    4   11      0.19      0.00
  -10    5   11      0.19      0.00
    3    5   11      0.32      0.00
    4    5   11      0.03      0.00
  -10    6   11     -0.44      0.00
   -9    6   11      0.21      0.00
    3    6   11     -0.55      0.00
  -10    7   11      0.47      0.00
   -9    7   11     -0.14      0.00
    2    7   11     -0.31      0.00
   -9    8   11      0.07      0.00
    2    8   11     -0.37      0.00
   -9    9   11     -0.06      0.00
   -8    9   11     -0.02      0.00
    1    9   11     -1.25      0.00
   -8   10   11     -0.22      0.00
   -7   10   11      0.32      0.00
    0   10   11     -0.23      0.00
   -7   11   11     -0.36      0.00
   -6   11   11      0.38      0.00
   -5   12   11     -0.05      0.00
   -4   12   11      0.72      0.00
    0  -13   12      0.74      0.00
    1  -13   12     -1.58      0.00
   -2  -12   12     -0.11      0.00
   -1  -12   12      0.58      0.00
    0  -12   12     -1.23      0.00
    1  -12   12      2.15      0.00
    2  -12   12     -1.81      0.00
    3  -12   12      0.40      0.00
   -4  -11   12     -0.37      0.00
    4  -11   12     -0.23      0.00
   -5  -10   12     -0.48      0.00
    5  -10   12      0.26      0.00
   -6   -9   12     -0.59      0.00
    6   -6   12     -0.73      0.00
    6   -5   12      0.57      0.00
    6   -4   12     -0.33      0.00
   -9   -3   12     -0.26      0.00
   -9   -2   12      0.42      0.00
   -9    0   12     -0.21      0.00
    5    0   12      0.42      0.00
  -10    1   12     -0.59      0.00
    4    1   12      0.11      0.00
    5    1   12     -0.55      0.00
  -10    2   12      0.21      0.00
    4    2   12     -0.11      0.00
  -10    3   12      0.06      0.00
    3    3   12      0.17      0.00
    4    3   12     -0.06      0.00
  -10    4   12     -0.04      0.00
    2    4   12     -0.96      0.00
    3    4   12      0.18      0.00
  -10    5   12     -0.17      0.00
    2    5   12      1.08      0.00
    3    5   12     -0.37      0.00
   -9    6   12     -0.15      0.00
    2    6   12     -0.61      0.00
   -9    7   12      0.05      0.00
    2    7   12     -0.06      0.00
   -9    8   12      0.04      0.00
    1    8   12     -0.81      0.00
   -8    9   12      0.33      0.00
    0    9   12     -0.03      0.00
   -7   10   12      0.15      0.00
   -6   11   12     -0.14      0.00
   -5   11   12      0.02      0.00
   -4   11   12      0.63      0.00
   -3   11   12     -0.68      0.00
   -1  -12   13     -0.45      0.00
    0  -12   13      0.60      0.00
    1  -12   13     -0.98      0.00
    2  -12   13      1.16      0.00
   -3  -11   13     -1.59      0.00
    3  -11   13      0.72      0.00
    4  -10   13      0.35      0.00
    5   -8   13     -1.05      0.00
   -7   -7   13      0.03      0.00
   -8   -5   13      0.02      0.00
    5   -3   13      0.46      0.00
   -9   -2   13     -0.17      0.00
    5   -2   13     -0.23      0.00
   -9    0   13      0.71      0.00
    4    0   13     -0.53      0.00
    3    1   13     -0.70      0.00
    4    1   13      0.36      0.00
    2    2   13      0.06      0.00
    3    2   13      0.24      0.00
    4    2   13     -0.23      0.00
    2    3   13     -0.63      0.00
    3    3   13      0.09      0.00
    2    4   13      0.82      0.00
    3    4   13     -0.19      0.00
   -9    5   13     -0.01      0.00
    2    5   13     -0.56      0.00
   -9    6   13     -0.13      0.00
    1    6   13     -0.08      0.00
   -9    7   13      0.23      0.00
    1    7   13     -0.16      0.00
    0    8   13      0.35      0.00
   -1    9   13      0.53      0.00
   -6   10   13     -0.09      0.00
   -3   10   13     -0.19      0.00
   -2  -11   14     -0.66      0.00
   -1  -11   14     -0.83      0.00
    1  -11   14     -0.50      0.00
    2  -11   14      0.68      0.00
    3  -10   14      0.66      0.00
   -5   -9   14      0.21      0.00
   -7   -6   14     -0.18      0.00
   -8   -4   14     -0.49      0.00
    4   -2   14      0.34      0.00
   -9   -1   14      0.34      0.00
   -8   -1   14      0.03      0.00
    4   -1   14     -0.42      0.00
    3    0   14     -0.43      0.00
    2    1   14     -0.13      0.00
    3    1   14     -0.08      0.00
    2    2   14     -0.28      0.00
    3    2   14      0.33      0.00
    1    3   14     -0.14      0.00
    2    3   14      0.42      0.00
   -9    4   14     -0.06      0.00
    1    4   14      0.28      0.00
    2    4   14     -0.28      0.00
   -9    5   14     -0.11      0.00
    1    5   14     -0.17      0.00
    0    6   14     -0.53      0.00
   -8    7   14      0.38      0.00
    0    7   14      0.35      0.00
   -6    9   14      0.10      0.00
   -3    9   14      0.36      0.00
    1  -10   15      0.55      0.00
   -4   -9   15     -0.41      0.00
    3   -8   15     -0.46      0.00
   -7   -5   15     -0.46      0.00
   -7   -4   15      0.58      0.00
   -8   -3   15     -0.16      0.00
   -8   -2   15      0.10      0.00
    3   -2   15      0.71      0.00
    2   -1   15      0.71      0.00
    3   -1   15     -0.20      0.00
    2    0   15     -0.31      0.00
    3    0   15     -0.30      0.00
    1    1   15     -1.24      0.00
    2    1   15      0.02      0.00
    1    2   15      0.65      0.00
    2    2   15      0.13      0.00
    0    3   15     -0.70      0.00
    1    3   15     -0.15      0.00
    0    4   15      0.91      0.00
    1    4   15     -0.02      0.00
    0    5   15     -0.54      0.00
   -8    6   15      0.12      0.00
   -1    6   15     -0.28      0.00
   -7    7   15      0.16      0.00
   -2    7   15      0.90      0.00
   -6    8   15      0.36      0.00
   -3    8   15      0.71      0.00
   -4   -8   16     -0.01      0.00
   -5   -7   16      0.60      0.00
   -6   -5   16     -1.16      0.00
   -7   -4   16     -0.63      0.00
    2   -3   16     -0.70      0.00
    2   -2   16      0.60      0.00
    1   -1   16      1.66      0.00
    2   -1   16     -0.53      0.00
    1    0   16     -1.58      0.00
    2    0   16      0.42      0.00
    0    1   16     -0.16      0.00
    1    1   16      1.04      0.00
    0    2   16     -0.86      0.00
    1    2   16     -0.39      0.00
   -8    3   16      0.39      0.00
   -1    3   16     -2.60      0.00
    0    3   16      1.13      0.00
   -1    4   16      1.62      0.00
    0    4   16     -0.64      0.00
   -2    5   16     -0.07      0.00
   -1    5   16     -0.29      0.00
   -2    6   16      0.95      0.00
    0   -7   17     -0.52      0.00
   -4   -6   17     -0.71      0.00
    1   -6   17      0.17      0.00
   -5   -5   17     -0.74      0.00
    1   -5   17      0.17      0.00
   -6   -4   17     -0.72      0.00
   -5   -4   17      0.04      0.00
    1   -4   17     -0.10      0.00
   -6   -3   17      0.36      0.00
    1   -3   17     -0.45      0.00
    0   -2   17     -0.89      0.00
    1   -2   17      1.08      0.00
   -7   -1   17     -0.19      0.00
    0   -1   17      0.71      0.00
    1   -1   17     -1.29      0.00
    0    0   17      0.17      0.00
   -1    1   17      2.29      0.00
    0    1   17     -1.06      0.00
   -1    2   17     -2.57      0.00
   -7    3   17      0.38      0.00
   -2    3   17     -1.42      0.00
   -1    3   17      1.77      0.00
   -3    4   17      0.04      0.00
   -2    4   17      0.33      0.00
   -5    5   17      0.22      0.00
   -4    5   17      0.15      0.00
   -3   -5   18     -0.13      0.00
   -2   -5   18      0.52      0.00
   -1   -5   18     -1.07      0.00
   -4   -4   18     -0.50      0.00
   -3   -4   18     -0.20      0.00
   -2   -4   18      0.38      0.00
   -1   -4   18      0.26      0.00
   -5   -3   18     -0.52      0.00
   -4   -3   18      0.66      0.00
   -3   -3   18      0.64      0.00
   -2   -3   18     -1.15      0.00
   -1   -3   18      0.37      0.00
   -5   -2   18      0.55      0.00
   -4   -2   18     -0.56      0.00
   -2   -2   18      1.24      0.00
   -1   -2   18     -0.23      0.00
   -5   -1   18     -0.32      0.00
   -4   -1   18      0.38      0.00
   -2   -1   18     -0.57      0.00
   -1   -1   18     -0.64      0.00
   -5    0   18      0.12      0.00
   -4    0   18     -0.33      0.00
   -3    0   18     -0.16      0.00
   -2    0   18     -0.40      0.00
   -1    0   18      1.55      0.00
   -5    1   18     -0.07      0.00
   -4    1   18      0.38      0.00
   -3    1   18     -0.34      0.00
   -2    1   18      1.01      0.00
   -5    2   18      0.06      0.00
   -4    2   18     -0.35      0.00
   -3    2   18      0.47      0.00
    0    0    0      0.00      0.00
# SQUEEZE RESULTS (Version = 220119)
# Note: Data are Listed for all Voids in the P1 Unit Cell
# i.e. Centre of Gravity, Solvent Accessible Volume,
# Recovered number of Electrons in the Void and
# Details about the Squeezed Material
loop_
  _platon_squeeze_void_nr
  _platon_squeeze_void_average_x
  _platon_squeeze_void_average_y
  _platon_squeeze_void_average_z
  _platon_squeeze_void_volume
  _platon_squeeze_void_count_electrons
  _platon_squeeze_void_content
   1  0.499  0.500  0.500        69        29 ' '
# Missing Reflections Below sin(th)/lambda = 0.25
loop_
  _platon_missing_refln_index_h
  _platon_missing_refln_index_k
  _platon_missing_refln_index_l
  _platon_missing_refln_theta
    0    1    0     2.063
    0   -1    1     2.448
    0    0    1     1.767
_platon_squeeze_void_probe_radius                  1.20
_platon_squeeze_details
)
TITL x_dummy          P -1         R = 0.08
CELL    7.2646   10.5090   12.2616     95.18    106.79    106.92
SPGR P-1
# Solvent Accessible Volume =        68
# Electrons Found in S.A.V. =        29
# Note: Atoms in Void are Labelled as Cxxx and Qxxx for all Others
Q101 0.494 0.947 0.215 !       6.69 eA-3
Q102 0.526 0.428 0.372 !       5.00 eA-3
Q103 0.304 0.152 0.421 !       2.88 eA-3
Q104 0.256 0.262 0.207 !       2.87 eA-3
C105 0.475 0.469 0.423 !       2.67 eA-3
Q106 0.567 0.900 0.358 !       2.62 eA-3
Q107 0.551 0.359 0.490 !       2.57 eA-3
Q108 0.451 0.232 0.502 !       2.30 eA-3
Q109 0.198 0.984 0.455 !       2.22 eA-3
Q110 0.488 0.596 0.343 !       2.18 eA-3
Q111 0.506 0.421 0.282 !       2.14 eA-3
Q112 0.946 0.457 0.060 !       2.14 eA-3
Q113 0.851 0.410 0.013 !       2.09 eA-3
Q114 0.754 0.424 0.436 !       2.07 eA-3
Q115 0.971 0.645 0.326 !       2.07 eA-3
Q116 0.998 0.762 0.403 !       2.03 eA-3
Q117 0.116 0.608 0.105 !       2.02 eA-3
Q118 0.158 0.585 0.044 !       1.99 eA-3
Q119 0.781 0.138 0.407 !       1.97 eA-3
Q120 0.261 0.167 0.307 !       1.96 eA-3
Q121 0.033 0.406 0.204 !       1.95 eA-3
Q122 0.407 0.338 0.363 !       1.94 eA-3
Q123 0.325 0.591 0.045 !       1.92 eA-3
Q124 0.649 0.452 0.110 !       1.91 eA-3
Q125 0.814 0.435 0.247 !       1.87 eA-3
Q126 0.442 0.784 0.184 !       1.85 eA-3
Q127 0.873 0.491 0.081 !       1.84 eA-3
C128 0.535 0.510 0.468 !       1.83 eA-3
Q129 0.114 0.909 0.344 !       1.82 eA-3
Q130 0.308 0.236 0.448 !       1.82 eA-3
Q131 0.030 0.471 0.158 !       1.81 eA-3
Q132 0.971 0.073 0.073 !       1.80 eA-3
Q133 0.467 0.786 0.377 !       1.79 eA-3
Q134 0.653 0.435 0.301 !       1.79 eA-3
Q135 0.328 0.285 0.278 !       1.73 eA-3
Q136 0.997 0.425 0.128 !       1.69 eA-3
Q137 0.899 0.404 0.189 !       1.66 eA-3
Q138 0.292 0.595 0.359 !       1.66 eA-3
Q139 0.922 0.411 0.243 !       1.66 eA-3
Q140 0.750 0.503 0.014 !       1.65 eA-3
Q141 0.364 0.626 0.190 !       1.64 eA-3
Q142 0.751 0.672 0.204 !       1.64 eA-3
Q143 0.213 0.452 0.299 !       1.63 eA-3
Q144 0.738 0.561 0.077 !       1.62 eA-3
Q145 0.594 0.383 0.077 !       1.61 eA-3
Q146 0.579 0.564 0.345 !       1.61 eA-3
Q147 0.722 0.581 0.015 !       1.61 eA-3
Q148 0.409 0.544 0.186 !       1.61 eA-3
Q149 0.395 0.534 0.299 !       1.58 eA-3
Q150 0.790 0.134 0.268 !       1.58 eA-3
Q151 0.780 0.263 0.112 !       1.56 eA-3
Q152 0.365 0.551 0.030 !       1.55 eA-3
Q153 0.611 0.204 0.437 !       1.55 eA-3
Q154 0.854 0.357 0.342 !       1.54 eA-3
Q155 0.022 0.812 0.371 !       1.53 eA-3
Q156 0.883 0.043 0.377 !       1.53 eA-3
Q157 0.796 0.813 0.484 !       1.52 eA-3
Q158 0.088 0.406 0.504 !       1.52 eA-3
Q159 0.356 0.544 0.453 !       1.51 eA-3
Q160 0.719 0.361 0.504 !       1.51 eA-3
Q161 0.663 0.364 0.060 !       1.51 eA-3
Q162 0.343 0.389 0.361 !       1.51 eA-3
C163 0.676 0.442 0.503 !       1.50 eA-3
Q164 0.760 0.437 0.999 !       1.50 eA-3
Q165 0.069 0.752 0.277 !       1.49 eA-3
Q166 0.026 0.532 0.044 !       1.49 eA-3
Q167 0.529 0.471 0.076 !       1.48 eA-3
Q168 0.280 0.481 0.052 !       1.47 eA-3
Q169 0.720 0.130 0.122 !       1.47 eA-3
Q170 0.698 0.376 0.380 !       1.46 eA-3
Q171 0.042 0.624 0.223 !       1.46 eA-3
Q172 0.789 0.347 0.181 !       1.46 eA-3
Q173 0.588 0.333 0.252 !       1.45 eA-3
Q174 0.718 0.155 0.327 !       1.45 eA-3
Q175 0.818 0.441 0.358 !       1.44 eA-3
Q176 0.592 0.295 0.471 !       1.44 eA-3
Q177 0.623 0.504 0.234 !       1.43 eA-3
Q178 0.763 0.774 0.190 !       1.43 eA-3
Q179 0.369 0.364 0.277 !       1.42 eA-3
Q180 0.303 0.472 0.234 !       1.41 eA-3
Q181 0.753 0.202 0.072 !       1.40 eA-3
Q182 0.752 0.221 0.425 !       1.40 eA-3
Q183 0.887 0.014 0.437 !       1.39 eA-3
Q184 0.686 0.127 0.018 !       1.39 eA-3
Q185 0.907 0.992 0.093 !       1.38 eA-3
Q186 0.778 0.047 0.015 !       1.38 eA-3
Q187 0.411 0.920 0.019 !       1.38 eA-3
Q188 0.660 0.606 0.409 !       1.36 eA-3
Q189 0.261 0.286 0.499 !       1.35 eA-3
Q190 0.759 0.769 0.435 !       1.35 eA-3
Q191 1.014 0.520 0.092 !       1.35 eA-3
Q192 0.981 0.329 0.126 !       1.35 eA-3
Q193 0.474 0.408 0.235 !       1.34 eA-3
Q194 0.887 0.481 0.264 !       1.33 eA-3
Q195 1.000 0.500 0.500 !       1.33 eA-3
Q196 0.568 0.642 0.044 !       1.33 eA-3
Q197 0.711 0.720 0.389 !       1.33 eA-3
Q198 0.226 0.503 0.450 !       1.32 eA-3
Q199 0.568 0.289 0.061 !       1.32 eA-3
)
;
_shelx_fab_checksum              74064
_platon_squeeze_void_probe_radius 1.20
_olex2_submission_special_instructions 'No special instructions were received'
loop_
_space_group_symop_operation_xyz
'x, y, z'
'-x, -y, -z'
loop_
_atom_site_label
_atom_site_type_symbol
_atom_site_fract_x
_atom_site_fract_y
_atom_site_fract_z
_atom_site_U_iso_or_equiv
_atom_site_adp_type
_atom_site_occupancy
_atom_site_site_symmetry_order
_atom_site_calc_flag
_atom_site_refinement_flags_posn
_atom_site_refinement_flags_adp
_atom_site_refinement_flags_occupancy
_atom_site_disorder_assembly
_atom_site_disorder_group
Bi1 Bi 0.75463(6) 0.42782(4) 0.06516(3) 0.04132(18) Uani 1 1 d . . . . .
Cl1 Cl 1.0297(6) 0.6835(4) 0.0380(4) 0.0577(9) Uani 1 1 d . . . . .
Cl2 Cl 1.0030(7) 0.4620(5) 0.2650(3) 0.0724(11) Uani 1 1 d . . . . .
Cl3 Cl 0.5404(6) 0.5595(4) 0.1545(3) 0.0615(10) Uani 1 1 d . . . . .
Cl4 Cl 0.5373(7) 0.1963(4) 0.0748(4) 0.0706(11) Uani 1 1 d . . . . .
Cl5 Cl 0.0241(10) -0.2967(6) 0.5263(7) 0.115(2) Uani 1 1 d . . . . .
C1 C 0.1476(12) 0.1705(9) 0.2013(9) 0.087(4) Uani 1 1 d . U . . .
H1 H 0.180456 0.244694 0.166035 0.104 Uiso 1 1 calc R . . . .
C2 C -0.0040(12) 0.0505(11) 0.1374(7) 0.090(4) Uani 1 1 d G U . . .
H2 H -0.072586 0.044495 0.059224 0.108 Uiso 1 1 calc R . . . .
C3 C -0.0531(11) -0.0604(9) 0.1901(8) 0.083(3) Uani 1 1 d DG U . . .
H3 H -0.154579 -0.140616 0.147316 0.100 Uiso 1 1 calc R . . . .
C4 C 0.0493(11) -0.0513(8) 0.3069(8) 0.073(3) Uani 1 1 d G U . . .
C5 C 0.2009(10) 0.0686(9) 0.3709(7) 0.067(2) Uani 1 1 d DG U . . .
N1 N 0.2501(9) 0.1795(8) 0.3181(8) 0.068(2) Uani 1 1 d G U . . .
H1A H 0.343873 0.253739 0.357720 0.081 Uiso 1 1 calc R . . . .
C6 C 0.2953(9) 0.0721(8) 0.4834(7) 0.068(3) Uani 1 1 d D U . . .
C7 C 0.2468(9) -0.0385(8) 0.5367(8) 0.065(2) Uani 1 1 d G U . . .
C8 C 0.3498(13) -0.0288(10) 0.6535(8) 0.076(3) Uani 1 1 d DG U . . .
H8 H 0.317399 -0.102795 0.689098 0.091 Uiso 1 1 calc R . . . .
C9 C 0.5013(13) 0.0914(12) 0.7170(7) 0.086(3) Uani 1 1 d G U . . .
H9 H 0.570179 0.097855 0.795170 0.103 Uiso 1 1 calc R . . . .
C10 C 0.5497(11) 0.2020(10) 0.6638(9) 0.076(3) Uani 1 1 d G U . . .
H10 H 0.651075 0.282394 0.706283 0.092 Uiso 1 1 calc R . . . .
N2 N 0.4468(11) 0.1923(8) 0.5470(9) 0.076(3) Uani 1 1 d G U . . .
C11 C 0.0011(15) -0.1601(16) 0.3586(13) 0.076(3) Uani 1 1 d D U . . .
H11 H -0.101029 -0.238780 0.313369 0.091 Uiso 1 1 calc R . . . .
C12 C 0.0922(18) -0.1610(15) 0.4716(12) 0.072(3) Uani 1 1 d D U . . .
loop_
_atom_site_aniso_label
_atom_site_aniso_U_11
_atom_site_aniso_U_22
_atom_site_aniso_U_33
_atom_site_aniso_U_23
_atom_site_aniso_U_13
_atom_site_aniso_U_12
Bi1 0.0377(3) 0.0441(3) 0.0421(3) 0.00648(19) 0.01191(19) 0.01530(19)
Cl1 0.065(2) 0.0474(17) 0.067(2) 0.0062(15) 0.0282(17) 0.0241(16)
Cl2 0.072(2) 0.087(3) 0.051(2) 0.0100(19) 0.0037(17) 0.033(2)
Cl3 0.0529(18) 0.080(2) 0.0482(18) -0.0079(17) 0.0119(14) 0.0273(18)
Cl4 0.069(2) 0.054(2) 0.083(3) 0.0168(19) 0.029(2) 0.0070(17)
Cl5 0.139(5) 0.084(3) 0.152(6) 0.044(4) 0.079(5) 0.046(4)
C1 0.091(6) 0.090(6) 0.083(5) 0.016(5) 0.029(5) 0.035(5)
C2 0.097(6) 0.096(6) 0.074(6) 0.020(5) 0.023(5) 0.032(5)
C3 0.087(6) 0.091(6) 0.072(5) 0.009(5) 0.025(5) 0.032(5)
C4 0.078(5) 0.078(5) 0.069(4) 0.001(4) 0.028(4) 0.037(4)
C5 0.069(5) 0.077(5) 0.071(4) 0.002(4) 0.038(4) 0.034(4)
N1 0.068(5) 0.076(5) 0.072(5) 0.005(4) 0.033(4) 0.037(4)
C6 0.057(4) 0.079(5) 0.078(4) 0.007(4) 0.029(4) 0.033(4)
C7 0.061(5) 0.073(4) 0.078(4) 0.007(4) 0.033(4) 0.039(4)
C8 0.065(5) 0.082(5) 0.086(5) 0.009(5) 0.029(5) 0.032(5)
C9 0.071(6) 0.079(6) 0.108(6) -0.005(5) 0.025(5) 0.034(5)
C10 0.066(5) 0.074(5) 0.093(6) -0.008(5) 0.033(5) 0.030(4)
N2 0.055(5) 0.080(5) 0.094(5) -0.005(4) 0.031(4) 0.027(4)
C11 0.080(5) 0.081(5) 0.077(5) -0.001(4) 0.028(4) 0.043(4)
C12 0.071(5) 0.083(5) 0.077(5) 0.010(4) 0.031(4) 0.041(4)
loop_
_atom_type_symbol
_atom_type_description
_atom_type_scat_dispersion_real
_atom_type_scat_dispersion_imag
_atom_type_scat_source
C C 0.0033 0.0016 'International Tables Vol C Tables 4.2.6.8 and 6.1.1.4'
H H 0.0000 0.0000 'International Tables Vol C Tables 4.2.6.8 and 6.1.1.4'
Bi Bi -4.1077 10.2566 'International Tables Vol C Tables 4.2.6.8 and 6.1.1.4'
Cl Cl 0.1484 0.1585 'International Tables Vol C Tables 4.2.6.8 and 6.1.1.4'
N N 0.0061 0.0033 'International Tables Vol C Tables 4.2.6.8 and 6.1.1.4'
loop_
_geom_angle_atom_site_label_1
_geom_angle_atom_site_label_2
_geom_angle_atom_site_label_3
_geom_angle
_geom_angle_site_symmetry_1
_geom_angle_site_symmetry_3
_geom_angle_publ_flag
Cl1 Bi1 Cl1 82.73(11) 2_765 . ?
Cl1 Bi1 Cl3 86.24(13) . 2_665 ?
Cl1 Bi1 Cl3 174.03(12) 2_765 . ?
Cl1 Bi1 Cl3 95.21(11) 2_765 2_665 ?
Cl2 Bi1 Cl1 87.60(15) . . ?
Cl2 Bi1 Cl1 93.31(14) . 2_765 ?
Cl2 Bi1 Cl3 90.01(14) . . ?
Cl2 Bi1 Cl3 168.77(13) . 2_665 ?
Cl2 Bi1 Cl4 93.62(17) . . ?
Cl3 Bi1 Cl1 92.47(12) . . ?
Cl3 Bi1 Cl3 80.89(11) . 2_665 ?
Cl4 Bi1 Cl1 173.51(12) . . ?
Cl4 Bi1 Cl1 90.84(14) . 2_765 ?
Cl4 Bi1 Cl3 93.90(14) . . ?
Cl4 Bi1 Cl3 93.55(15) . 2_665 ?
Bi1 Cl1 Bi1 97.28(11) 2_765 . ?
Bi1 Cl3 Bi1 99.11(11) . 2_665 ?
C2 C1 H1 120.0 . . ?
C2 C1 N1 120.0 . . ?
N1 C1 H1 120.0 . . ?
C1 C2 H2 120.0 . . ?
C3 C2 C1 120.0 . . ?
C3 C2 H2 120.0 . . ?
C2 C3 H3 120.0 . . ?
C2 C3 C4 120.0 . . ?
C4 C3 H3 120.0 . . ?
C5 C4 C3 120.0 . . ?
C11 C4 C3 120.0(4) . . ?
C11 C4 C5 120.0(4) . . ?
N1 C5 C4 120.0 . . ?
C6 C5 C4 117.7(8) . . ?
C6 C5 N1 122.3(8) . . ?
C1 N1 H1A 120.0 . . ?
C5 N1 C1 120.0 . . ?
C5 N1 H1A 120.0 . . ?
C5 C6 C7 122.6(7) . . ?
C5 C6 N2 117.4(7) . . ?
C7 C6 N2 120.0 . . ?
C6 C7 C8 120.0 . . ?
C6 C7 C12 119.9(4) . . ?
C8 C7 C12 120.1(4) . . ?
C7 C8 H8 120.0 . . ?
C9 C8 C7 120.0 . . ?
C9 C8 H8 120.0 . . ?
C8 C9 H9 120.0 . . ?
C10 C9 C8 120.0 . . ?
C10 C9 H9 120.0 . . ?
C9 C10 H10 120.0 . . ?
C9 C10 N2 120.0 . . ?
N2 C10 H10 120.0 . . ?
C10 N2 C6 120.0 . . ?
C4 C11 H11 117.9 . . ?
C12 C11 C4 124.3(11) . . ?
C12 C11 H11 117.9 . . ?
C7 C12 Cl5 123.5(8) . . ?
C11 C12 Cl5 120.9(14) . . ?
C11 C12 C7 115.6(12) . . ?
loop_
_geom_bond_atom_site_label_1
_geom_bond_atom_site_label_2
_geom_bond_distance
_geom_bond_site_symmetry_2
_geom_bond_publ_flag
Bi1 Cl1 2.957(4) . ?
Bi1 Cl1 2.714(3) 2_765 ?
Bi1 Cl2 2.510(4) . ?
Bi1 Cl3 2.960(4) 2_665 ?
Bi1 Cl3 2.739(3) . ?
Bi1 Cl4 2.520(4) . ?
Cl5 C12 1.637(16) . ?
C1 H1 0.9300 . ?
C1 C2 1.3900 . ?
C1 N1 1.3900 . ?
C2 H2 0.9300 . ?
C2 C3 1.3900 . ?
C3 H3 0.9300 . ?
C3 C4 1.3900 . ?
C4 C5 1.3900 . ?
C4 C11 1.36(2) . ?
C5 N1 1.3900 . ?
C5 C6 1.343(13) . ?
N1 H1A 0.8600 . ?
C6 C7 1.3900 . ?
C6 N2 1.3900 . ?
C7 C8 1.3900 . ?
C7 C12 1.419(17) . ?
C8 H8 0.9300 . ?
C8 C9 1.3900 . ?
C9 H9 0.9300 . ?
C9 C10 1.3900 . ?
C10 H10 0.9300 . ?
C10 N2 1.3900 . ?
C11 H11 0.9300 . ?
C11 C12 1.35(2) . ?
loop_
_geom_torsion_atom_site_label_1
_geom_torsion_atom_site_label_2
_geom_torsion_atom_site_label_3
_geom_torsion_atom_site_label_4
_geom_torsion
_geom_torsion_site_symmetry_1
_geom_torsion_site_symmetry_2
_geom_torsion_site_symmetry_3
_geom_torsion_site_symmetry_4
_geom_torsion_publ_flag
C1 C2 C3 C4 0.0 . . . . ?
C2 C1 N1 C5 0.0 . . . . ?
C2 C3 C4 C5 0.0 . . . . ?
C2 C3 C4 C11 179.99(6) . . . . ?
C3 C4 C5 N1 0.0 . . . . ?
C3 C4 C5 C6 180.0 . . . . ?
C3 C4 C11 C12 180.00(6) . . . . ?
C4 C5 N1 C1 0.0 . . . . ?
C4 C5 C6 C7 0.0 . . . . ?
C4 C5 C6 N2 -180.0 . . . . ?
C4 C11 C12 Cl5 -179.99(5) . . . . ?
C4 C11 C12 C7 0.00(11) . . . . ?
C5 C4 C11 C12 0.00(9) . . . . ?
C5 C6 C7 C8 -180.0 . . . . ?
C5 C6 C7 C12 0.0 . . . . ?
C5 C6 N2 C10 180.0 . . . . ?
N1 C1 C2 C3 0.0 . . . . ?
N1 C5 C6 C7 180.0 . . . . ?
N1 C5 C6 N2 0.00(5) . . . . ?
C6 C5 N1 C1 180.0 . . . . ?
C6 C7 C8 C9 0.0 . . . . ?
C6 C7 C12 Cl5 180.00(3) . . . . ?
C6 C7 C12 C11 0.00(8) . . . . ?
C7 C6 N2 C10 0.0 . . . . ?
C7 C8 C9 C10 0.0 . . . . ?
C8 C7 C12 Cl5 -0.01(8) . . . . ?
C8 C7 C12 C11 179.99(5) . . . . ?
C8 C9 C10 N2 0.0 . . . . ?
C9 C10 N2 C6 0.0 . . . . ?
N2 C6 C7 C8 0.0 . . . . ?
N2 C6 C7 C12 179.99(5) . . . . ?
C11 C4 C5 N1 -179.99(6) . . . . ?
C11 C4 C5 C6 0.0 . . . . ?
C12 C7 C8 C9 -179.99(5) . . . . ?
loop_
_platon_squeeze_void_nr
_platon_squeeze_void_average_x
_platon_squeeze_void_average_y
_platon_squeeze_void_average_z
_platon_squeeze_void_volume
_platon_squeeze_void_count_electrons
_platon_squeeze_void_content
1 0.499 0.500 0.500 69 29 ' '
