#------------------------------------------------------------------------------
#$Date: 2022-02-16 02:04:42 +0200 (Wed, 16 Feb 2022) $
#$Revision: 272984 $
#$URL: file:///home/coder/svn-repositories/cod/cif/7/70/95/7709522.cif $
#------------------------------------------------------------------------------
#
# This file is available in the Crystallography Open Database (COD),
# http://www.crystallography.net/
#
# All data on this site have been placed in the public domain by the
# contributors.
#
data_7709522
loop_
_publ_author_name
'Dodonov, Vladimir Alekseevich'
'Kushnerova, Olga A.'
'Rumyantcev, Roman V.'
'Novikov, Alexander S.'
'Osmanov, Vladimir K.'
'Fedushkin, Igor Leonidovich'
_publ_section_title
;
 Cycloaddition of isoselenocyanates to sodium and magnesium metallacycles
;
_journal_name_full               'Dalton Transactions'
_journal_paper_doi               10.1039/D1DT04366H
_journal_year                    2022
_chemical_formula_moiety         'C8 H7 N O Se'
_chemical_formula_sum            'C8 H7 N O Se'
_chemical_formula_weight         212.11
_space_group_crystal_system      monoclinic
_space_group_IT_number           14
_space_group_name_Hall           '-P 2yn'
_space_group_name_H-M_alt        'P 1 21/n 1'
_atom_sites_solution_hydrogens   geom
_atom_sites_solution_primary     dual
_atom_sites_solution_secondary   difmap
_audit_creation_method           SHELXL-2018/3
_audit_update_record
;
2022-02-11 deposited with the CCDC.	2022-02-15 downloaded from the CCDC.
;
_cell_angle_alpha                90
_cell_angle_beta                 93.743(6)
_cell_angle_gamma                90
_cell_formula_units_Z            4
_cell_length_a                   11.1882(8)
_cell_length_b                   5.1560(4)
_cell_length_c                   14.7709(11)
_cell_measurement_reflns_used    4379
_cell_measurement_temperature    298(2)
_cell_measurement_theta_max      25.9390
_cell_measurement_theta_min      2.7520
_cell_volume                     850.26(11)
_computing_cell_refinement       'CrysAlis Pro 1.171.41.117a'
_computing_data_collection       'CrysAlis Pro 1.171.41.117a'
_computing_data_reduction        'CrysAlis Pro 1.171.41.117a'
_computing_structure_refinement  'SHELXL 2018/3'
_computing_structure_solution    'SHELXT 2018/2'
_diffrn_ambient_temperature      298(2)
_diffrn_measured_fraction_theta_full 1.000
_diffrn_measured_fraction_theta_max 0.999
_diffrn_measurement_device_type  'Rigaku OD Xcalibur E (CCD)'
_diffrn_measurement_method       '\w scans'
_diffrn_radiation_type           MoK\a
_diffrn_radiation_wavelength     0.71073
_diffrn_reflns_av_R_equivalents  0.0573
_diffrn_reflns_av_unetI/netI     0.0385
_diffrn_reflns_Laue_measured_fraction_full 1.000
_diffrn_reflns_Laue_measured_fraction_max 0.999
_diffrn_reflns_limit_h_max       13
_diffrn_reflns_limit_h_min       -13
_diffrn_reflns_limit_k_max       6
_diffrn_reflns_limit_k_min       -6
_diffrn_reflns_limit_l_max       18
_diffrn_reflns_limit_l_min       -18
_diffrn_reflns_number            4282
_diffrn_reflns_point_group_measured_fraction_full 1.000
_diffrn_reflns_point_group_measured_fraction_max 0.999
_diffrn_reflns_theta_full        25.242
_diffrn_reflns_theta_max         26.024
_diffrn_reflns_theta_min         2.215
_diffrn_source                   'fine-focus sealed tube'
_exptl_absorpt_coefficient_mu    4.356
_exptl_absorpt_correction_T_max  0.289
_exptl_absorpt_correction_T_min  0.098
_exptl_absorpt_correction_type   analytical
_exptl_absorpt_process_details
;
CrysAlis Pro 1.171.41.117a. Analytical numeric absorption correction using
a multifaceted crystal model based on expressions derived
by R.C. Clark & J.S. Reid. Empirical absorption correction using spherical
harmonics, implemented in SCALE3 ABSPACK scaling algorithm.
;
_exptl_crystal_colour            colourless
_exptl_crystal_density_diffrn    1.657
_exptl_crystal_description       prism
_exptl_crystal_F_000             416
_exptl_crystal_size_max          0.720
_exptl_crystal_size_mid          0.580
_exptl_crystal_size_min          0.400
_refine_diff_density_max         0.452
_refine_diff_density_min         -0.450
_refine_diff_density_rms         0.130
_refine_ls_extinction_method     none
_refine_ls_goodness_of_fit_ref   1.012
_refine_ls_hydrogen_treatment    constr
_refine_ls_matrix_type           full
_refine_ls_number_parameters     102
_refine_ls_number_reflns         4282
_refine_ls_number_restraints     0
_refine_ls_restrained_S_all      1.012
_refine_ls_R_factor_all          0.0768
_refine_ls_R_factor_gt           0.0440
_refine_ls_shift/su_max          0.000
_refine_ls_shift/su_mean         0.000
_refine_ls_structure_factor_coef Fsqd
_refine_ls_weighting_details
'w=1/[\s^2^(Fo^2^)+(0.0983P)^2^] where P=(Fo^2^+2Fc^2^)/3'
_refine_ls_weighting_scheme      calc
_refine_ls_wR_factor_gt          0.1589
_refine_ls_wR_factor_ref         0.1690
_reflns_Friedel_coverage         0.000
_reflns_number_gt                2343
_reflns_number_total             4282
_reflns_threshold_expression     'I > 2\s(I)'
_cod_data_source_file            d1dt04366h3.cif
_cod_data_source_block           C8H7NOSe
_cod_original_sg_symbol_H-M      'P 21/n'
_cod_database_code               7709522
_shelx_shelxl_version_number     2018/3
_shelx_space_group_comment
;
The symmetry employed for this shelxl refinement is uniquely defined
by the following loop, which should always be used as a source of
symmetry information in preference to the above space-group names.
They are only intended as comments.
;
_shelx_estimated_absorpt_t_min   0.146
_shelx_estimated_absorpt_t_max   0.275
_shelx_res_file
;
TITL 1078 [P2(1)/n]
    C8H7NOSe.res
    created by SHELXL-2018/3 at 14:52:27 on 12-Oct-2021
CELL  0.71073  11.1882   5.1560  14.7709   90.000   93.743   90.000
ZERR    4.000   0.0008   0.0004   0.0011    0.000    0.006    0.000
LATT  1
SYMM 1/2-X, 1/2+Y, 1/2-Z
SFAC C  H  N  O  SE
UNIT 32 28 4  4  4
SIZE 0.72 0.58 0.40
TEMP 25.0

L.S. 10
BOND $H
LIST 4
FMAP 2
PLAN 20

ACTA

WGHT    0.098300
BASF   0.11212
FVAR       6.45059
N1    3    0.706371    0.202050    0.498397    11.00000    0.06655    0.07829 =
         0.06302   -0.00802    0.00265   -0.00441
O1    4    0.869714    0.525919    0.568757    11.00000    0.04982    0.09652 =
         0.07839   -0.00989    0.01541   -0.01044
SE1   5    0.760655   -0.122263    0.346583    11.00000    0.08392    0.08850 =
         0.07444   -0.01650    0.02642   -0.01305
C1    1    0.759207    0.548937    0.600119    11.00000    0.04690    0.05495 =
         0.05202    0.00829    0.00301   -0.00344
C2    1    0.675372    0.370732    0.564395    11.00000    0.05287    0.05611 =
         0.04736    0.00323   -0.00190    0.00192
C3    1    0.560255    0.367321    0.594856    11.00000    0.04914    0.06988 =
         0.06569    0.00701   -0.00288   -0.01263
AFIX  43
H3A   2    0.505065    0.244630    0.572381    11.00000   -1.20000
AFIX   0
C4    1    0.528366    0.544098    0.657729    11.00000    0.04760    0.08087 =
         0.06983    0.01047    0.00637    0.00531
AFIX  43
H4A   2    0.451398    0.542870    0.677999    11.00000   -1.20000
AFIX   0
C5    1    0.610552    0.723561    0.690826    11.00000    0.06683    0.06516 =
         0.07040   -0.00563    0.00957    0.00526
AFIX  43
H5A   2    0.588164    0.845753    0.732830    11.00000   -1.20000
AFIX   0
C6    1    0.724829    0.725937    0.663137    11.00000    0.06218    0.05754 =
         0.06769   -0.00538    0.00617   -0.00759
AFIX  43
H6A   2    0.779546    0.847693    0.686997    11.00000   -1.20000
AFIX   0
C7    1    0.958195    0.715824    0.597368    11.00000    0.05230    0.11421 =
         0.09968    0.00011    0.01009   -0.02744
AFIX 137
H7A   2    1.032076    0.677323    0.570605    11.00000   -1.50000
H7B   2    0.970747    0.712107    0.662272    11.00000   -1.50000
H7C   2    0.930904    0.884979    0.578351    11.00000   -1.50000
AFIX   0
C8    1    0.729174    0.074315    0.437566    11.00000    0.04647    0.06246 =
         0.06426    0.00473    0.00479   -0.01396

HKLF 5




REM  1078 [P2(1)/n]
REM wR2 = 0.169042, GooF = S = 1.01239, Restrained GooF = 1.01239 for all data
REM R1 = 0.044000 for 2343 Fo > 4sig(Fo) and 0.076766 for all 4282 data
REM 102 parameters refined using 0 restraints

END

WGHT      0.0889      0.0000

REM Highest difference peak  0.452,  deepest hole -0.450,  1-sigma level  0.130
Q1    1   0.7786  0.0662  0.3161  11.00000  0.05    0.45
Q2    1   0.7603  0.0413  0.3788  11.00000  0.05    0.44
Q3    1   0.7439  0.7792  0.6584  11.00000  0.05    0.41
Q4    1   0.7538 -0.1197  0.4199  11.00000  0.05    0.38
Q5    1   0.6351  0.7607  0.6213  11.00000  0.05    0.37
Q6    1   0.5480  0.7696  0.5775  11.00000  0.05    0.36
Q7    1   0.6544  0.2570  0.5982  11.00000  0.05    0.35
Q8    1   0.6748  0.2883  0.6233  11.00000  0.05    0.35
Q9    1   1.1189  0.4521  0.6998  11.00000  0.05    0.33
Q10   1   0.8188 -0.0084  0.2779  11.00000  0.05    0.33
Q11   1   0.6233  0.2659  0.6408  11.00000  0.05    0.33
Q12   1   0.4979  0.2421  0.5304  11.00000  0.05    0.32
Q13   1   0.8408 -0.4984  0.3049  11.00000  0.05    0.31
Q14   1   0.5711  0.2603  0.6046  11.00000  0.05    0.31
Q15   1   0.9617  0.9532  0.4786  11.00000  0.05    0.31
Q16   1   0.9803  0.5332  0.5055  11.00000  0.05    0.31
Q17   1   0.6071  0.2549  0.5382  11.00000  0.05    0.30
Q18   1   0.4111  0.2357  0.4834  11.00000  0.05    0.30
Q19   1   0.7739  0.7782  0.8013  11.00000  0.05    0.29
Q20   1   0.4180  0.5503  0.7768  11.00000  0.05    0.28
;
_shelx_res_checksum              26538
_shelx_hkl_file
;
   0   0   2 12017.9 54.8861   1
   0   0   4 574871. 1179.78   1
   0   0   6 111409. 495.976   1
   0   0  -8 11761.3 359.430   1
   0   0  10 45738.5 297.712   1
   0   0  12 36543.5 402.968   1
   0  -1  12 46861.0 595.774  -2
   0   0  12 46861.0 595.774   1
   0  -1  14 9934.11 668.846  -2
   0   0  14 9934.11 668.846   1
   0   1 -16 4100.62 766.418  -2
   0   0 -16 4100.62 766.418   1
   0   0 -18 309.864 1287.35   1
   0  -1  -1 2596.27 32.3414   1
   0  -1  -2 26233.0 61.6261   1
   0   1   3 35259.1 103.141  -2
   0   1   2 35259.1 103.141   1
   0   1   3 65242.4 103.743   1
   0  -1   2 68984.4 245.286  -2
   0  -1   3 68984.4 245.286   1
   0   1   4 69989.0 688.854  -2
   0   1   3 69989.0 688.854   1
   0  -1  -4 5055.23 68.6008   1
   0   1  -5 57339.8 108.648   1
   0   1   6 39340.8 146.279   1
   0   1   7 118061. 324.400   1
   0  -1   8 38617.6 205.787   1
   0   1  -9 17669.6 238.319   1
   0  -1  10 92.3473 175.201   1
   0  -1  11 6619.07 286.357   1
   0   2 -10 7573.05 774.208  -2
   0   1 -11 7573.05 774.208   1
   0  -1  12 15629.0 737.233   1
   0   0  12 24630.0 608.398  -2
   0   1  12 24630.0 608.398   1
   0   2 -11 22386.1 874.880  -2
   0   1 -12 22386.1 874.880   1
   0   1  13 6622.00 149.136   1
   0   2 -12 7163.16 614.408  -2
   0   1 -13 7163.16 614.408   1
   0   0 -14 4543.02 684.727  -2
   0  -1 -14 4543.02 684.727   1
   0   2 -13 3054.43 651.956  -2
   0   1 -14 3054.43 651.956   1
   0  -1 -15 239.824 171.798   1
   0  -2  14 398.802 704.911  -2
   0  -1  15 398.802 704.911   1
   0   0  16 1425.57 1000.14  -2
   0   1  16 1425.57 1000.14   1
   0  -2  15 1461.64 759.521  -2
   0  -1  16 1461.64 759.521   1
   0   1  17-4.42141 265.523   1
   0  -2  16-47.7152 815.700  -2
   0  -1  17-47.7152 815.700   1
   0   2   1 28412.6 102.759  -2
   0   2   0 28412.6 102.759   1
   0  -2   0 192530. 554.689  -2
   0  -2   1 192530. 554.689   1
   0   2   2 185984. 514.216  -2
   0   2   1 185984. 514.216   1
   0   2  -2 1825.51 84.6843   1
   0   2  -1 23478.3 139.642  -2
   0   2  -2 23478.3 139.642   1
   0   2   3 1721.24 115.275  -2
   0   2   2 1721.24 115.275   1
   0  -2  -3 1228.30 96.8713   1
   0  -2   2 1401.68 211.442  -2
   0  -2   3 1401.68 211.442   1
   0   2   4 1407.79 174.670  -2
   0   2   3 1407.79 174.670   1
   0  -2   4 5154.33 96.6302   1
   0   2   5 30519.6 363.326  -2
   0   2   4 30519.6 363.326   1
   0   2   5 254276. 687.861   1
   0   2  -6 13116.6 168.231   1
   0   2  -7 22582.5 194.853   1
   0  -2  -8 5661.57 231.116   1
   0  -2   9 33441.4 279.798   1
   0  -2  10 2494.69 335.132   1
   0  -2  11 17611.2 552.191   1
   0   1  12 20430.8 579.856  -2
   0   2  11 20430.8 579.856   1
   0  -2  12 386.032 581.013   1
   0  -1 -13 529.000 613.395  -2
   0  -2 -12 529.000 613.395   1
   0  -2  13 469.462 618.244   1
   0  -1 -14 977.783 657.853  -2
   0  -2 -13 977.783 657.853   1
   0   1  15 39.5462 699.813  -2
   0   2  14 39.5462 699.813   1
   0  -3  13 731.145 703.257  -2
   0  -2  14 731.145 703.257   1
   0  -1 -16 5288.01 756.081  -2
   0  -2 -15 5288.01 756.081   1
   0   3 -14 5419.04 746.423  -2
   0   2 -15 5419.04 746.423   1
   0   1  17 541.703 792.535  -2
   0   2  16 541.703 792.535   1
   0  -3  15 130.220 788.388  -2
   0  -2  16 130.220 788.388   1
   0  -2  17 1700.97 807.191   1
   0   3   1 22577.3 181.100   1
   0   3   1 25102.0 217.257  -2
   0   3  -1 25102.0 217.257   1
   0   3   3 25674.4 212.282  -2
   0   3   1 25674.4 212.282   1
   0  -3  -2 49651.3 60.2557   1
   0   3   4 53055.4 181.121  -2
   0   3   2 53055.4 181.121   1
   0   3   3 20609.6 153.553   1
   0  -3   1 23220.2 347.735  -2
   0  -3   3 23220.2 347.735   1
   0  -3  -4 40850.7 121.533   1
   0  -3   2 49163.5 558.175  -2
   0  -3   4 49163.5 558.175   1
   0   3  -5 252.330 143.415   1
   0  -3  -6 3733.68 177.306   1
   0  -3  -7 31041.1 214.726   1
   0   3   8 20053.9 226.544   1
   0   3   9 1356.00 248.433   1
   0  -3  10 2240.16 305.597   1
   0   3  11 1642.36 449.302   1
   0  -2 -12 2437.34 907.890  -2
   0  -3 -11 2437.34 907.890   1
   0   4  -9 2260.18 817.595  -2
   0   3 -11 2260.18 817.595   1
   0   3  12 965.035 588.811   1
   0  -2 -13 1189.09 663.053  -2
   0  -3 -12 1189.09 663.053   1
   0   4 -10 1072.02 882.571  -2
   0   3 -12 1072.02 882.571   1
   0   2  14 4903.26 715.492  -2
   0   3  13 4903.26 715.492   1
   0  -4  11 4763.77 705.020  -2
   0  -3  13 4763.77 705.020   1
   0   2  15 3789.66 780.849  -2
   0   3  14 3789.66 780.849   1
   0   4 -12 3448.65 762.119  -2
   0   3 -14 3448.65 762.119   1
   0  -2 -16 266.574 828.004  -2
   0  -3 -15 266.574 828.004   1
   0  -4  13 275.521 811.458  -2
   0  -3  15 275.521 811.458   1
   0   2  17 8.81380 870.746  -2
   0   3  16 8.81380 870.746   1
   0   4 -14 551.522 849.849  -2
   0   3 -16 551.522 849.849   1
   0   4   2 19250.9 197.747  -2
   0   4   0 19250.9 197.747   1
   0  -4  -1-92.6797 346.783   1
   0  -4  -1 90.7030 82.6964  -2
   0  -4   1 90.7030 82.6964   1
   0   4   3 71.2259 129.398  -2
   0   4   1 71.2259 129.398   1
   0  -4  -2 1095.64 313.130   1
   0   4   0 3452.77 227.541  -2
   0   4  -2 3452.77 227.541   1
   0   4   4 2595.23 271.164  -2
   0   4   2 2595.23 271.164   1
   0  -4  -3-24.0886 404.906   1
   0   4  -1 53.3821 305.019  -2
   0   4  -3 53.3821 305.019   1
   0   4   5 65.0300 286.226  -2
   0   4   3 65.0300 286.226   1
   0   4  -4 12304.9 203.969   1
   0  -4   2 13106.4 787.768  -2
   0  -4   4 13106.4 787.768   1
   0  -4   5 95.4604 193.254   1
   0   4  -6 5863.53 215.830   1
   0   4   7 16.0554 223.664   1
   0   4   8 123.997 242.513   1
   0  -4   9 86.3938 272.771   1
   0  -3 -11-148.120 667.872  -2
   0  -4  -9-148.120 667.872   1
   0  -4 -10 7523.96 365.368   1
   0  -3 -12 8288.49 601.018  -2
   0  -4 -10 8288.49 601.018   1
   0  -4  11 366.506 523.856   1
   0  -3 -13 1052.62 676.611  -2
   0  -4 -11 1052.62 676.611   1
   0  -4  12 29.3029 925.344   1
   0   3  14 585.526 732.646  -2
   0   4  12 585.526 732.646   1
   0   5  -9 945.927 750.010  -2
   0   4 -12 945.927 750.010   1
   0  -3 -15 1194.27 801.716  -2
   0  -4 -13 1194.27 801.716   1
   0  -5  10 771.901 792.641  -2
   0  -4  13 771.901 792.641   1
   0   3  16 2061.01 1187.98  -2
   0   4  14 2061.01 1187.98   1
   0  -5  11 607.417 848.492  -2
   0  -4  14 607.417 848.492   1
   0   5   2 2717.30 187.281  -2
   0   5  -1 2717.30 187.281   1
   0  -5  -4 3097.74 558.182  -2
   0  -5  -1 3097.74 558.182   1
   0  -5  -2 15582.2 829.560   1
   0  -5  -1 13336.0 185.601  -2
   0  -5   2 13336.0 185.601   1
   0   5   5 16821.6 814.342  -2
   0   5   2 16821.6 814.342   1
   0  -5  -3 7700.92 138.081   1
   0  -5  -4-142.893 456.859   1
   0  -5   1 1810.56 843.270  -2
   0  -5   4 1810.56 843.270   1
   0   5  -5 147.699 396.521   1
   0  -5   2 3540.29 883.560  -2
   0  -5   5 3540.29 883.560   1
   0   5  -6 664.486 385.242   1
   0  -5  -7 709.990 401.523   1
   0   5   8 1086.99 428.400   1
   0   5   9 2933.85 418.274   1
   0   5  10 12.7417 438.344   1
   0   5 -11 28.7229 746.796   1
   0  -4 -14 144.205 256.712  -2
   0  -5 -11 144.205 256.712   1
   0   6   3 627.578 698.367  -2
   0   6   0 627.578 698.367   1
   0   6   2-312.704 704.384  -2
   0   6  -1-312.704 704.384   1
   0  -6  -4-154.418 719.811  -2
   0  -6  -1-154.418 719.811   1
   0  -6  -2 115.474 1014.81   1
   0  -6  -1 110.799 708.377  -2
   0  -6   2 110.799 708.377   1
   0   6   5-589.121 984.147  -2
   0   6   2-589.121 984.147   1
   0  -6  -3 123.513 682.665   1
   0   6   0 455.166 714.585  -2
   0   6  -3 455.166 714.585   1
   0   6   4 48.2728 719.789   1
   0   6  -1 114.258 732.398  -2
   0   6  -4 114.258 732.398   1
   0   6   5 1307.28 518.860   1
   0   6   6 7.96229 535.576   1
   1   1 -17 2014.66 810.253  -2
   1   0 -17 2014.66 810.253   1
  -1  -1  15 9124.07 696.891  -2
  -1   0  15 9124.07 696.891   1
  -1  -1  13 1713.37 602.838  -2
  -1   0  13 1713.37 602.838   1
  -1   0  11 45051.6 703.844   1
   1   1 -11 51455.4 799.307  -2
   1   0 -11 51455.4 799.307   1
  -1   0   9 100906. 232.228   1
  -1   0   7 31554.3 152.470   1
  -1   0   5 505895. 821.471   1
   1   0  -3 3744.39 77.2573   1
  -1   0   3 4018.10 197.205  -2
  -1   0   3 4018.10 197.205   1
  -1   0   1 19572.3 96.4724   1
  -1   0   1 23505.5 202.924  -2
  -1   0   1 23505.5 202.924   1
  -1   0  -1 68556.2 493.950   1
   1   0   1 74413.3 365.372  -2
   1   0   1 74413.3 365.372   1
   1   0   3 34617.4 90.9367   1
   1   0   5 125838. 207.966   1
   1   0   7 49508.5 279.441   1
   1   0   9 82013.4 485.942   1
   1   0  11 19959.4 684.769   1
  -1   1 -11 22653.8 860.972  -2
  -1   0 -11 22653.8 860.972   1
   1   0  13 753.034 482.895   1
   1  -1  13 1416.10 625.192  -2
   1   0  13 1416.10 625.192   1
   1  -1  15 5970.42 722.677  -2
   1   0  15 5970.42 722.677   1
   1  -1  17 1487.20 1094.17  -2
   1   0  17 1487.20 1094.17   1
   1  -1 -18 697.251 362.018   1
  -1  -2  17 747.634 871.705  -2
  -1  -1  18 747.634 871.705   1
  -1   0  17 3311.61 819.993  -2
  -1   1  17 3311.61 819.993   1
   1   2 -16 3299.16 799.503  -2
   1   1 -17 3299.16 799.503   1
  -1   1  16 93.3036 187.661   1
  -1  -2  15 70.3083 219.968  -2
  -1  -1  16 70.3083 219.968   1
  -1   0  15 3469.01 702.614  -2
  -1   1  15 3469.01 702.614   1
  -1  -2  14 2845.56 703.778  -2
  -1  -1  15 2845.56 703.778   1
   1  -1 -14 5350.34 156.746   1
   1   2 -13 4866.28 660.839  -2
   1   1 -14 4866.28 660.839   1
   1   0 -13 7751.58 635.186  -2
   1  -1 -13 7751.58 635.186   1
   1   2 -12 7850.16 612.143  -2
   1   1 -13 7850.16 612.143   1
   1  -1 -12 12909.6 136.245   1
   1   2 -11 14621.5 846.737  -2
   1   1 -12 14621.5 846.737   1
  -1   1  11 3488.21 400.385   1
   1   2 -10 6878.28 726.518  -2
   1   1 -11 6878.28 726.518   1
  -1  -1  10 15562.3 189.909   1
  -1   1   9 47716.3 203.404   1
   1  -1  -8 44395.4 184.811   1
  -1   1   7 22013.9 182.163   1
  -1   1   6 561.782 121.111   1
  -1  -1   5 19693.6 91.6209   1
  -1   1   4 14030.8 74.2725   1
  -1  -1   3 231491. 448.343   1
  -1  -1   2 314155. 1697.40  -2
  -1  -1   3 314155. 1697.40   1
  -1  -1   2 448144. 601.096   1
  -1   1   3 496840. 837.538  -2
  -1   1   2 496840. 837.538   1
   1   1  -1 28281.5 58.6052   1
   1   1   0 11530.4 38.7017   1
  -1   1   1 15034.9 197.163  -2
  -1   1   0 15034.9 197.163   1
  -1   1  -1 33410.6 45.2780   1
   1  -1   0 34974.1 167.407  -2
   1  -1   1 34974.1 167.407   1
   1   1   2 127966. 900.568  -2
   1   1   1 127966. 900.568   1
   1   1   2 739904. 751.840   1
  -1   1  -1 776451. 867.098  -2
  -1   1  -2 776451. 867.098   1
   1   1   3 876703. 2324.26  -2
   1   1   2 876703. 2324.26   1
   1   1   3 888119. 711.783   1
   1   1   4 7346.50 74.9939   1
   1  -1   5 8172.43 87.9483   1
  -1   1  -6 32171.1 146.160   1
  -1   1  -7 121138. 259.030   1
  -1  -1  -8 27813.5 180.651   1
   1   1   9 14301.8 150.598   1
   1   1  10 8642.30 156.258   1
  -1   2  -9 11225.9 720.480  -2
  -1   1 -10 11225.9 720.480   1
   1   1  11 3342.34 335.915   1
  -1   2 -10 8488.95 789.801  -2
  -1   1 -11 8488.95 789.801   1
   1   1  12 17157.1 189.688   1
   1  -2  11 15693.8 396.679  -2
   1  -1  12 15693.8 396.679   1
   1   0  13 2783.03 624.181  -2
   1   1  13 2783.03 624.181   1
   1  -2  12 3009.05 406.877  -2
   1  -1  13 3009.05 406.877   1
   1   1  14 4364.62 154.250   1
   1  -2  13 4626.44 670.762  -2
   1  -1  14 4626.44 670.762   1
  -1   0 -15 2058.10 722.801  -2
  -1  -1 -15 2058.10 722.801   1
  -1   2 -14 2632.94 719.613  -2
  -1   1 -15 2632.94 719.613   1
  -1  -1 -16 76.2189 186.818   1
   1  -2  15 657.617 766.533  -2
   1  -1  16 657.617 766.533   1
  -1   0 -17 1542.04 817.818  -2
  -1  -1 -17 1542.04 817.818   1
  -1   2 -16 1085.84 826.331  -2
  -1   1 -17 1085.84 826.331   1
   1   3 -16-98.8746 841.791  -2
   1   2 -17-98.8746 841.791   1
  -1   1  17 4391.83 790.344  -2
  -1   2  16 4391.83 790.344   1
   1   3 -15 4815.74 805.687  -2
   1   2 -16 4815.74 805.687   1
  -1   1  16 631.893 735.406  -2
  -1   2  15 631.893 735.406   1
   1   3 -14 226.812 751.509  -2
   1   2 -15 226.812 751.509   1
  -1   1  15 3351.41 928.584  -2
  -1   2  14 3351.41 928.584   1
   1   3 -13 3136.06 702.783  -2
   1   2 -14 3136.06 702.783   1
  -1   1  14 1085.72 829.205  -2
  -1   2  13 1085.72 829.205   1
  -1  -3  12 236.530 200.577  -2
  -1  -2  13 236.530 200.577   1
  -1  -2  12 5861.41 568.435   1
   1  -1 -13 7033.08 634.207  -2
   1  -2 -12 7033.08 634.207   1
  -1  -2  11 374.269 514.154   1
   1  -1 -12 2255.23 587.507  -2
   1  -2 -11 2255.23 587.507   1
  -1   2  10 43782.7 381.469   1
   1  -1 -11 40531.3 899.996  -2
   1  -2 -10 40531.3 899.996   1
   1   2  -9 194.444 281.647   1
  -1   2   8 3577.99 249.072   1
   1  -2  -7 2387.61 206.247   1
   1  -2  -6 76434.7 212.379   1
  -1  -2   5 1514.07 116.643   1
   1  -2  -4 207360. 560.866   1
  -1   2   5 217602. 1414.45  -2
  -1   2   4 217602. 1414.45   1
   1  -2  -3 1260.27 113.298   1
  -1   2   4 20894.6 176.910  -2
  -1   2   3 20894.6 176.910   1
   1   2  -2 13885.5 181.441  -2
   1   2  -3 13885.5 181.441   1
   1  -2  -2 103007. 181.524   1
  -1   2   3 110975. 224.038  -2
  -1   2   2 110975. 224.038   1
   1   2  -1 111757. 187.224  -2
   1   2  -2 111757. 187.224   1
  -1   2   2 26525.7 126.494  -2
  -1   2   1 26525.7 126.494   1
  -1  -2   0 32917.6 143.145  -2
  -1  -2   1 32917.6 143.145   1
   1  -2  -1 155201. 277.330  -2
   1  -2   0 155201. 277.330   1
  -1  -2  -1 152548. 515.159  -2
  -1  -2   0 152548. 515.159   1
  -1   2   0 20923.6 110.854  -2
  -1   2  -1 20923.6 110.854   1
   1   2   2 3542.40 94.7935  -2
   1   2   1 3542.40 94.7935   1
  -1  -2  -2 9289.56 131.697   1
   1  -2   1 9888.20 126.740  -2
   1  -2   2 9888.20 126.740   1
   1   2   3 13191.5 152.374  -2
   1   2   2 13191.5 152.374   1
  -1  -2  -3 23960.4 104.650   1
   1  -2   2 27624.4 168.485  -2
   1  -2   3 27624.4 168.485   1
   1   2   4 30396.0 204.801  -2
   1   2   3 30396.0 204.801   1
   1  -2   4 42556.0 99.4763   1
  -1  -2  -5 12055.9 116.138   1
   1   2   6 55009.4 179.389   1
  -1   2  -7 25553.0 205.642   1
  -1   2  -8 498.127 210.351   1
   1   2   9-67.3377 235.347   1
  -1   2 -10 45271.0 305.050   1
   1  -2  11 2072.70 384.378   1
   1   1  12 3577.84 424.620  -2
   1   2  11 3577.84 424.620   1
  -1   2 -12 2483.97 578.377   1
   1   1  13 2592.78 468.534  -2
   1   2  12 2592.78 468.534   1
   1  -2  13 200.353 608.567   1
  -1  -1 -14 667.167 674.175  -2
  -1  -2 -13 667.167 674.175   1
  -1   2 -14 2431.67 674.550   1
   1   1  15 3639.46 726.339  -2
   1   2  14 3639.46 726.339   1
   1   1  16 1580.33 770.965  -2
   1   2  15 1580.33 770.965   1
   1  -3  14 737.725 757.729  -2
   1  -2  15 737.725 757.729   1
   1  -2  16 1963.64 760.879   1
   1   1  17 2892.34 823.961  -2
   1   2  16 2892.34 823.961   1
  -1  -2 -17 145.310 687.124   1
   1  -2 -17 1231.49 854.666  -2
   1  -3 -16 1231.49 854.666   1
  -1  -4  14 147.912 873.942  -2
  -1  -3  16 147.912 873.942   1
  -1   2  16 2641.62 802.844  -2
  -1   3  15 2641.62 802.844   1
  -1  -4  13 3014.59 810.412  -2
  -1  -3  15 3014.59 810.412   1
  -1   2  15 851.585 746.509  -2
  -1   3  14 851.585 746.509   1
  -1  -4  12 651.519 758.212  -2
  -1  -3  14 651.519 758.212   1
   1  -2 -14 3746.89 576.650  -2
   1  -3 -13 3746.89 576.650   1
   1   4 -11 4639.82 688.046  -2
   1   3 -13 4639.82 688.046   1
  -1  -3  12 4001.10 591.032   1
   1  -2 -13 4334.18 680.962  -2
   1  -3 -12 4334.18 680.962   1
   1   4 -10 6584.63 882.117  -2
   1   3 -12 6584.63 882.117   1
  -1  -3  11 103.033 389.065   1
   1  -2 -12 1423.08 940.851  -2
   1  -3 -11 1423.08 940.851   1
   1   4  -9 98.2778 822.375  -2
   1   3 -11 98.2778 822.375   1
  -1   3  10-72.1367 299.089   1
   1  -3  -9 5481.70 262.406   1
  -1  -3   8 10161.3 252.317   1
   1  -3  -7 27814.4 234.732   1
  -1   3   6 15526.0 170.500   1
  -1  -3   5 4853.07 140.034   1
   1   3  -4 24995.3 118.413   1
  -1  -3   2 31411.6 514.909  -2
  -1  -3   4 31411.6 514.909   1
  -1   3   3 24793.1 150.318   1
   1   3  -1 24304.5 207.119  -2
   1   3  -3 24304.5 207.119   1
   1  -3  -2 43164.2 484.411   1
  -1   3   4 47284.1 162.667  -2
  -1   3   2 47284.1 162.667   1
   1   3   0 45593.8 257.159  -2
   1   3  -2 45593.8 257.159   1
  -1   3   1 12989.1 159.990   1
  -1   3   3 15064.1 333.061  -2
  -1   3   1 15064.1 333.061   1
   1   3   1 12592.7 229.318  -2
   1   3  -1 12592.7 229.318   1
  -1   3   0 3108.04 96.7722   1
  -1   3   2 9403.58 173.165  -2
  -1   3   0 9403.58 173.165   1
  -1  -3  -2 6124.52 146.963  -2
  -1  -3   0 6124.52 146.963   1
  -1  -3  -1 9442.81 195.062   1
  -1   3   1 10996.6 227.505  -2
  -1   3  -1 10996.6 227.505   1
   1   3   3 12364.2 160.313  -2
   1   3   1 12364.2 160.313   1
  -1  -3  -2 28466.9 496.682   1
  -1   3   0 28561.5 183.737  -2
  -1   3  -2 28561.5 183.737   1
   1   3   4 29453.5 189.034  -2
   1   3   2 29453.5 189.034   1
  -1  -3  -3 27641.1 167.554   1
  -1   3  -1 29629.9 207.298  -2
  -1   3  -3 29629.9 207.298   1
   1   3   4 12387.8 147.043   1
   1  -3   2 15666.7 542.223  -2
   1  -3   4 15666.7 542.223   1
   1   3   5-113.057 152.814   1
  -1  -3  -6 1818.64 179.274   1
  -1   3  -7 24025.1 198.333   1
   1   3   8 26358.0 237.522   1
   1  -3   9 122.175 284.656   1
   1  -3  10 8.23844 306.715   1
  -1  -3 -11 4.79099 405.125   1
  -1  -2 -12 255.114 167.560  -2
  -1  -3 -11 255.114 167.560   1
  -1   4  -9-60.3947 839.044  -2
  -1   3 -11-60.3947 839.044   1
   1   3  12 3800.80 443.625   1
  -1  -2 -13 5183.65 920.308  -2
  -1  -3 -12 5183.65 920.308   1
  -1   4 -10 4119.38 903.144  -2
  -1   3 -12 4119.38 903.144   1
  -1  -2 -14 3790.78 716.098  -2
  -1  -3 -13 3790.78 716.098   1
  -1   4 -11 3268.06 678.149  -2
  -1   3 -13 3268.06 678.149   1
  -1  -2 -15 50.1491 780.437  -2
  -1  -3 -14 50.1491 780.437   1
   1  -4  12 359.284 745.020  -2
   1  -3  14 359.284 745.020   1
   1   2  16 190.328 276.495  -2
   1   3  15 190.328 276.495   1
   1  -4  13 344.390 259.021  -2
   1  -3  15 344.390 259.021   1
   1  -4 -14-565.391 1147.97   1
  -1   3  16-497.319 1117.78  -2
  -1   4  14-497.319 1117.78   1
  -1  -5  11 214.527 661.231  -2
  -1  -4  14 214.527 661.231   1
   1  -3 -15 100.084 228.607  -2
   1  -4 -13 100.084 228.607   1
  -1  -5  10 195.610 615.003  -2
  -1  -4  13 195.610 615.003   1
  -1  -4  12 888.593 685.163   1
   1  -3 -14 370.303 232.993  -2
   1  -4 -12 370.303 232.993   1
   1   5  -9 357.097 907.468  -2
   1   4 -12 357.097 907.468   1
   1   4 -11 5867.26 449.345   1
  -1   3  13 6814.78 714.897  -2
  -1   4  11 6814.78 714.897   1
  -1  -4  10 122.815 367.752   1
   1  -3 -12 1277.78 737.613  -2
   1  -4 -10 1277.78 737.613   1
   1   4  -9 2721.01 313.698   1
   1  -3 -11 3074.42 688.020  -2
   1  -4  -9 3074.42 688.020   1
   1  -4  -8-175.598 266.351   1
   1  -4  -7 9992.85 261.731   1
  -1   4   6 3484.18 243.666   1
  -1  -4   5 16267.8 234.978   1
  -1   4   4 1200.90 193.107   1
  -1  -4   2 1348.23 662.790  -2
  -1  -4   4 1348.23 662.790   1
  -1   4   3 24.9679 212.622   1
  -1   4   5 1259.95 666.172  -2
  -1   4   3 1259.95 666.172   1
   1   4  -1 2209.65 310.444  -2
   1   4  -3 2209.65 310.444   1
   1  -4  -2 155.524 569.530   1
  -1   4   4 692.835 620.824  -2
  -1   4   2 692.835 620.824   1
   1   4   0 509.931 308.074  -2
   1   4  -2 509.931 308.074   1
   1  -4  -1 16433.2 328.111   1
   1  -4  -3 20260.3 195.192  -2
   1  -4  -1 20260.3 195.192   1
   1   4   1 26343.6 241.771  -2
   1   4  -1 26343.6 241.771   1
  -1   4   0 223.984 186.423   1
  -1   4   2 316.944 57.4420  -2
  -1   4   0 316.944 57.4420   1
   1   4   2 752.827 263.955  -2
   1   4   0 752.827 263.955   1
  -1   4  -1 32747.5 211.260   1
  -1   4   1 41152.2 261.007  -2
  -1   4  -1 41152.2 261.007   1
   1   4   3 38413.0 296.520  -2
   1   4   1 38413.0 296.520   1
  -1  -4  -2 2504.73 626.375   1
  -1   4   0 4746.16 260.965  -2
  -1   4  -2 4746.16 260.965   1
   1   4   4 2536.55 303.431  -2
   1   4   2 2536.55 303.431   1
  -1  -4  -3 4862.20 411.519   1
  -1   4  -1 8872.67 307.247  -2
  -1   4  -3 8872.67 307.247   1
   1   4   5 8677.60 326.534  -2
   1   4   3 8677.60 326.534   1
   1   4   4 1774.08 207.736   1
   1  -4   2 2684.46 733.528  -2
   1  -4   4 2684.46 733.528   1
  -1  -4  -5 44962.8 223.992   1
   1  -4   6 9901.83 220.708   1
   1   4   7 525.307 241.826   1
   1  -4   8-9.26017 234.131   1
   1   4   9 4267.67 300.678   1
  -1  -3 -11 4231.22 657.642  -2
  -1  -4  -9 4231.22 657.642   1
  -1   4 -10-47.2313 339.437   1
   1   3  12 780.435 481.284  -2
   1   4  10 780.435 481.284   1
   1  -4  11 3335.93 526.191   1
  -1  -3 -13 3528.81 487.658  -2
  -1  -4 -11 3528.81 487.658   1
   1  -4  12 672.395 906.880   1
  -1  -3 -14 593.384 524.236  -2
  -1  -4 -12 593.384 524.236   1
  -1   5  -9 194.995 252.053  -2
  -1   4 -12 194.995 252.053   1
  -1  -3 -15-35.9124 235.392  -2
  -1  -4 -13-35.9124 235.392   1
  -1   5 -10 221.890 635.039  -2
  -1   4 -13 221.890 635.039   1
   1  -5  11 1252.86 679.167  -2
   1  -4  14 1252.86 679.167   1
  -1  -5  11 1375.68 740.154   1
   1  -4 -14 501.925 244.778  -2
   1  -5 -11 501.925 244.778   1
   1   5 -10 409.749 707.641   1
   1  -4 -13 954.405 609.176  -2
   1  -5 -10 954.405 609.176   1
  -1   5   9 158.940 530.667   1
  -1   5   8 2134.74 438.872   1
   1   5  -7 3218.47 406.705   1
   1   5  -6 617.528 376.857   1
  -1   5   5 53.3357 400.426   1
  -1  -5   2 1204.84 850.985  -2
  -1  -5   5 1204.84 850.985   1
  -1   5   4 749.380 576.390   1
   1   5  -1 1033.79 587.077  -2
   1   5  -4 1033.79 587.077   1
  -1   5   3 924.852 556.989   1
   1   5   0 1219.15 570.005  -2
   1   5  -3 1219.15 570.005   1
   1  -5  -2 4607.03 776.843   1
  -1   5   5 4718.49 813.262  -2
  -1   5   2 4718.49 813.262   1
   1   5   1 4669.53 178.299  -2
   1   5  -2 4669.53 178.299   1
  -1   5   4 532.041 555.393  -2
  -1   5   1 532.041 555.393   1
  -1  -5  -2 772.264 182.805  -2
  -1  -5   1 772.264 182.805   1
   1  -5  -3 257.933 568.690  -2
   1  -5   0 257.933 568.690   1
   1   5   3 393.644 547.099  -2
   1   5   0 393.644 547.099   1
   1  -5  -2 726.284 188.129  -2
   1  -5   1 726.284 188.129   1
   1   5   4 141.424 562.265  -2
   1   5   1 141.424 562.265   1
  -1  -5  -2 1217.11 817.878   1
  -1   5   1 1838.75 180.350  -2
  -1   5  -2 1838.75 180.350   1
   1   5   5 1772.20 783.842  -2
   1   5   2 1772.20 783.842   1
  -1  -5  -3 1734.18 564.711   1
   1  -5   0 1322.18 572.486  -2
   1  -5   3 1322.18 572.486   1
  -1  -5  -4 351.921 454.298   1
   1  -5   1 455.450 880.518  -2
   1  -5   4 455.450 880.518   1
  -1   5  -5 22.6883 393.101   1
   1  -5   2 117.510 970.643  -2
   1  -5   5 117.510 970.643   1
  -1   5  -6 96.9764 387.175   1
   1   5   7 1772.80 401.783   1
  -1  -5  -8 1222.02 386.784   1
  -1  -5  -9-33.7672 417.954   1
  -1  -5 -10 437.860 431.406   1
   1  -5  11 642.717 608.050   1
   1   6  -6 598.642 733.372   1
   1  -6  -5 226.688 595.052   1
  -1  -6   2 13.5900 1117.76  -2
  -1  -6   5 13.5900 1117.76   1
   1  -6  -4 394.160 717.829   1
   1   6  -1 1157.86 734.341  -2
   1   6  -4 1157.86 734.341   1
  -1   6   3 563.945 695.007   1
   1   6   0 1092.83 712.200  -2
   1   6  -3 1092.83 712.200   1
   1  -6  -2 91.5883 690.868   1
   1   6   1 194.411 241.146  -2
   1   6  -2 194.411 241.146   1
  -1   6   1-220.398 663.629   1
  -1  -6  -2 297.406 703.267  -2
  -1  -6   1 297.406 703.267   1
  -1   6   3 5803.61 703.922  -2
  -1   6   0 5803.61 703.922   1
  -1  -6  -3 5429.41 727.418  -2
  -1  -6   0 5429.41 727.418   1
  -1   6   2 68.3051 715.975  -2
  -1   6  -1 68.3051 715.975   1
   1   6   4 207.308 716.042  -2
   1   6   1 207.308 716.042   1
  -1  -6  -2-74.9368 1044.79   1
   1  -6  -1 152.548 724.127  -2
   1  -6   2 152.548 724.127   1
   1   6   5 921.708 989.541  -2
   1   6   2 921.708 989.541   1
  -1  -6  -3 336.287 706.869   1
   1  -6   0 1957.93 736.161  -2
   1  -6   3 1957.93 736.161   1
  -1   6  -4 1267.83 508.067   1
  -1  -6  -5 397.924 519.530   1
   2   0 -18 1028.66 1256.44   1
  -2  -1  16 2921.70 747.801  -2
  -2   0  16 2921.70 747.801   1
  -2  -1  14 8795.11 652.445  -2
  -2   0  14 8795.11 652.445   1
  -2   0  12 16822.9 706.314   1
   2   1 -12 18783.0 844.310  -2
   2   0 -12 18783.0 844.310   1
  -2   0  10 71114.8 699.430   1
   2   1 -10 75654.7 739.522  -2
   2   0 -10 75654.7 739.522   1
  -2   0   8 1500.77 208.461   1
   2   0  -6 249209. 804.725   1
   2   0  -4 5694.39 111.444   1
  -2   0   4 6277.14 264.403  -2
  -2   0   4 6277.14 264.403   1
   2   0  -2 31649.7 113.434   1
   2   0  -2 33377.4 136.217  -2
   2   0  -2 33377.4 136.217   1
   2   0   0 845085. 216.281  -2
   2   0   0 845085. 216.281   1
   2   0   2 14719.7 189.756   1
  -2   0  -2 17007.9 97.3100  -2
  -2   0  -2 17007.9 97.3100   1
   2   0   4 261894. 461.452   1
  -2   0  -6 137921. 219.587   1
   2   0   8 9135.33 335.025   1
   2   0  10 56309.8 469.496   1
   2  -1  12 10969.2 795.739  -2
   2   0  12 10969.2 795.739   1
  -2   1 -14 7227.85 675.416  -2
  -2   0 -14 7227.85 675.416   1
   2  -1  16 1181.46 757.013  -2
   2   0  16 1181.46 757.013   1
  -2   1  17 789.088 208.330   1
  -2  -2  16 417.771 288.086  -2
  -2  -1  17 417.771 288.086   1
   2   0 -16 854.465 765.299  -2
   2  -1 -16 854.465 765.299   1
  -2  -2  15 1269.39 754.117  -2
  -2  -1  16 1269.39 754.117   1
   2  -1 -15 999.342 170.295   1
   2   2 -14 998.920 694.598  -2
   2   1 -15 998.920 694.598   1
  -2   0  14 7035.54 653.181  -2
  -2   1  14 7035.54 653.181   1
  -2  -2  13 6207.22 668.563  -2
  -2  -1  14 6207.22 668.563   1
   2  -1 -13 17329.0 147.010   1
   2   2 -12 18965.8 627.861  -2
   2   1 -13 18965.8 627.861   1
  -2  -1  12 6975.30 772.568   1
  -2   0  12 9654.00 560.528  -2
  -2   1  12 9654.00 560.528   1
   2   2 -11 10414.9 809.169  -2
   2   1 -12 10414.9 809.169   1
  -2  -1  11 495.561 227.675   1
   2   2 -10 1190.73 747.015  -2
   2   1 -11 1190.73 747.015   1
  -2  -1  10 883.494 213.681   1
  -2  -1   9 45772.6 198.877   1
  -2  -1   8 58047.5 128.815   1
   2   1  -7 78123.6 131.095   1
  -2   1   6 52743.6 109.863   1
  -2  -1   5 10787.4 92.6148   1
   2  -1  -4 74827.2 122.444   1
  -2  -1   3 232420. 381.829   1
  -2   1   2 349070. 441.970   1
  -2   1   3 384228. 1166.60  -2
  -2   1   2 384228. 1166.60   1
   2   1  -1 121079. 273.073   1
   2  -1  -2 163190. 599.044  -2
   2  -1  -1 163190. 599.044   1
   2  -1   0 40068.2 59.7189   1
   2  -1  -1 60766.5 241.533  -2
   2  -1   0 60766.5 241.533   1
  -2  -1  -1 143568. 253.386   1
   2  -1   0 151417. 1038.94  -2
   2  -1   1 151417. 1038.94   1
   2   1   2 141586. 986.898  -2
   2   1   1 141586. 986.898   1
   2   1   2 14034.6 53.3255   1
   2  -1   1 35416.8 155.544  -2
   2  -1   2 35416.8 155.544   1
   2   1   3 147531. 314.832   1
   2  -1   4 20624.3 83.3988   1
  -2   1  -5 12299.1 97.5212   1
  -2  -1  -6 5767.46 120.211   1
   2  -1   7 59554.2 158.120   1
   2  -1   8 19436.4 170.619   1
   2   1   9 26365.7 184.468   1
  -2  -1 -10-8.94145 190.404   1
  -2   2  -9 1611.91 758.865  -2
  -2   1 -10 1611.91 758.865   1
   2  -1  11 2628.12 146.570   1
  -2   2 -10 3055.03 853.351  -2
  -2   1 -11 3055.03 853.351   1
   2   0  12 14239.1 464.966  -2
   2   1  12 14239.1 464.966   1
   2  -2  11 13644.7 433.203  -2
   2  -1  12 13644.7 433.203   1
  -2  -1 -13 9785.41 150.323   1
   2  -2  12 9355.18 452.011  -2
   2  -1  13 9355.18 452.011   1
  -2   0 -14 568.062 683.571  -2
  -2  -1 -14 568.062 683.571   1
   2  -2  13 278.800 685.779  -2
   2  -1  14 278.800 685.779   1
  -2  -1 -15-10.0451 169.046   1
   2  -2  14-33.7943 961.023  -2
   2  -1  15-33.7943 961.023   1
  -2   0 -16 1040.06 786.884  -2
  -2  -1 -16 1040.06 786.884   1
   2  -2  15 649.036 1035.02  -2
   2  -1  16 649.036 1035.02   1
   2   1  17 231.399 210.168   1
   2  -2  16 22.5404 1109.90  -2
   2  -1  17 22.5404 1109.90   1
   2  -1 -17 610.096 794.722  -2
   2  -2 -16 610.096 794.722   1
   2   3 -15-127.824 797.255  -2
   2   2 -16-127.824 797.255   1
   2  -1 -16 6442.89 756.486  -2
   2  -2 -15 6442.89 756.486   1
   2   3 -14 7628.82 774.268  -2
   2   2 -15 7628.82 774.268   1
  -2   1  15 2422.08 711.816  -2
  -2   2  14 2422.08 711.816   1
   2   3 -13 2587.05 709.842  -2
   2   2 -14 2587.05 709.842   1
  -2  -2  13 927.133 884.591   1
  -2   1  14 1886.13 654.727  -2
  -2   2  13 1886.13 654.727   1
   2   3 -12 2852.06 894.653  -2
   2   2 -13 2852.06 894.653   1
  -2  -2  12-286.925 771.300   1
  -2   1  13 1807.53 610.154  -2
  -2   2  12 1807.53 610.154   1
   2   3 -11 54.1406 847.252  -2
   2   2 -12 54.1406 847.252   1
  -2   2  11 18759.2 371.062   1
  -2   1  12 21062.0 499.815  -2
  -2   2  11 21062.0 499.815   1
  -2  -2  10 76.8888 278.396   1
   2  -1 -11-91.1435 868.899  -2
   2  -2 -10-91.1435 868.899   1
  -2   2   9 22809.9 233.910   1
   2  -2  -8 5107.31 196.509   1
   2  -2  -7 33192.2 197.104   1
   2  -2  -6 7451.32 136.814   1
  -2   2   5 97023.1 152.331   1
   2  -2  -4 988.502 125.033   1
  -2   2   5 10138.1 325.534  -2
  -2   2   4 10138.1 325.534   1
  -2  -2   3 603.549 320.151  -2
  -2  -2   4 603.549 320.151   1
  -2   2   3 201.740 126.948   1
  -2   2   4 117.187 255.903  -2
  -2   2   3 117.187 255.903   1
  -2  -2   2 4001.76 195.591  -2
  -2  -2   3 4001.76 195.591   1
  -2   2   3 23035.0 145.033  -2
  -2   2   2 23035.0 145.033   1
   2   2  -1 36238.0 163.348  -2
   2   2  -2 36238.0 163.348   1
  -2   2   2 109535. 246.781  -2
  -2   2   1 109535. 246.781   1
   2   2   0 106767. 250.704  -2
   2   2  -1 106767. 250.704   1
  -2   2   1 17307.0 206.172  -2
  -2   2   0 17307.0 206.172   1
   2   2   1 8575.48 44.9303  -2
   2   2   0 8575.48 44.9303   1
  -2   2   0 141731. 338.352  -2
  -2   2  -1 141731. 338.352   1
   2   2   2 141027. 467.871  -2
   2   2   1 141027. 467.871   1
   2  -2   2 7529.86 150.949   1
   2  -2   1 23319.7 122.484  -2
   2  -2   2 23319.7 122.484   1
   2   2   3 10094.1 150.982  -2
   2   2   2 10094.1 150.982   1
  -2   2  -3 23628.5 94.9253   1
   2  -2   2 26002.7 244.988  -2
   2  -2   3 26002.7 244.988   1
   2   2   4 25336.4 197.753  -2
   2   2   3 25336.4 197.753   1
  -2   2  -4 4208.62 99.6281   1
  -2   2  -5 210033. 288.171   1
  -2   2  -6 37277.8 180.285   1
  -2   2  -7 1403.39 197.919   1
   2   2   8 2383.14 219.847   1
   2  -2   9 18599.5 281.674   1
  -2  -2 -10 3892.80 297.948   1
   2  -2  11 7014.64 329.380   1
  -2  -1 -12 9448.50 536.380  -2
  -2  -2 -11 9448.50 536.380   1
   2  -2  12-38.1021 430.680   1
   2   1  13 887.922 468.873  -2
   2   2  12 887.922 468.873   1
  -2   2 -13 403.757 453.503   1
   2   1  14 648.136 518.331  -2
   2   2  13 648.136 518.331   1
  -2   2 -14 301.079 480.816   1
   2   1  15 338.303 756.386  -2
   2   2  14 338.303 756.386   1
  -2  -1 -16 4204.55 828.130  -2
  -2  -2 -15 4204.55 828.130   1
   2  -3  13 3480.96 770.896  -2
   2  -2  15 3480.96 770.896   1
  -2   2 -16 65.3723 1195.36   1
  -2  -1 -17 398.449 861.285  -2
  -2  -2 -16 398.449 861.285   1
   2  -3  14 446.073 1088.33  -2
   2  -2  16 446.073 1088.33   1
   2   4 -14 7.34404 231.797  -2
   2   3 -16 7.34404 231.797   1
  -2   2  16 263.275 777.044  -2
  -2   3  15 263.275 777.044   1
   2   4 -13-61.4144 806.198  -2
   2   3 -15-61.4144 806.198   1
  -2   2  15 5670.72 731.855  -2
  -2   3  14 5670.72 731.855   1
   2   4 -12 5491.41 755.213  -2
   2   3 -14 5491.41 755.213   1
   2  -2 -14 1988.77 570.738  -2
   2  -3 -13 1988.77 570.738   1
   2   4 -11 1999.04 565.617  -2
   2   3 -13 1999.04 565.617   1
  -2   3  12 4205.76 478.307   1
   2  -2 -13 4200.19 694.629  -2
   2  -3 -12 4200.19 694.629   1
   2   4 -10 6510.66 934.985  -2
   2   3 -12 6510.66 934.985   1
   2  -3 -11 313.761 350.301   1
   2   4  -9 556.779 843.503  -2
   2   3 -11 556.779 843.503   1
  -2  -3  10 4134.36 299.798   1
   2  -3  -9 3007.72 258.712   1
   2   3  -8 21828.6 237.239   1
  -2   3   7 17384.3 212.896   1
   2   3  -6 4530.28 186.037   1
  -2   3   5 2684.59 134.738   1
   2  -3  -4 63925.9 143.262   1
  -2  -3   2 79226.5 623.544  -2
  -2  -3   4 79226.5 623.544   1
   2  -3  -3 6303.14 261.315   1
  -2   3   5 7283.34 265.715  -2
  -2   3   3 7283.34 265.715   1
   2   3  -1 9869.47 227.688  -2
   2   3  -3 9869.47 227.688   1
   2  -3  -2 26803.0 479.153   1
  -2   3   4 34040.4 196.151  -2
  -2   3   2 34040.4 196.151   1
  -2  -3   0 30225.7 336.628  -2
  -2  -3   2 30225.7 336.628   1
   2  -3  -3 34052.0 354.343  -2
   2  -3  -1 34052.0 354.343   1
  -2  -3  -1 36164.3 261.275  -2
  -2  -3   1 36164.3 261.275   1
   2  -3  -2 14237.5 332.763  -2
   2  -3   0 14237.5 332.763   1
   2   3   2 14015.0 193.326  -2
   2   3   0 14015.0 193.326   1
  -2  -3  -1 18641.1 472.253   1
   2  -3  -1 20734.4 214.609  -2
   2  -3   1 20734.4 214.609   1
   2   3   3 22224.1 278.129  -2
   2   3   1 22224.1 278.129   1
  -2  -3  -2 28185.6 285.221   1
  -2   3   0 28551.7 161.140  -2
  -2   3  -2 28551.7 161.140   1
   2   3   4 31159.0 315.094  -2
   2   3   2 31159.0 315.094   1
  -2  -3  -3 36329.7 205.175   1
  -2   3  -1 36883.5 162.180  -2
  -2   3  -3 36883.5 162.180   1
   2   3   4 33047.5 151.638   1
   2  -3   2 36538.9 624.552  -2
   2  -3   4 36538.9 624.552   1
   2  -3   5 8418.97 158.821   1
  -2   3  -6 910.584 184.518   1
   2  -3   7 12326.0 197.547   1
  -2  -3  -8 55413.3 246.389   1
  -2   3  -9 2676.36 265.103   1
   2  -3  10 790.246 343.397   1
  -2  -2 -11 2175.89 776.859  -2
  -2  -3 -10 2175.89 776.859   1
  -2  -3 -11 221.450 418.198   1
  -2   4  -9-222.708 902.985  -2
  -2   3 -11-222.708 902.985   1
   2  -3  12 3653.47 516.625   1
  -2  -2 -13 4149.55 944.724  -2
  -2  -3 -12 4149.55 944.724   1
  -2   4 -10 6070.46 965.258  -2
  -2   3 -12 6070.46 965.258   1
   2   2  14 1598.26 528.927  -2
   2   3  13 1598.26 528.927   1
  -2   4 -11 1063.29 700.515  -2
  -2   3 -13 1063.29 700.515   1
  -2  -2 -15 2595.03 584.360  -2
  -2  -3 -14 2595.03 584.360   1
   2  -4  12 1937.93 774.252  -2
   2  -3  14 1937.93 774.252   1
  -2  -2 -16 150.883 847.732  -2
  -2  -3 -15 150.883 847.732   1
  -2   4 -13 143.479 804.958  -2
  -2   3 -15 143.479 804.958   1
   2  -4 -14 608.569 1243.80   1
  -2   3  16 1033.62 1054.64  -2
  -2   4  14 1033.62 1054.64   1
  -2  -5  11 629.671 651.819  -2
  -2  -4  14 629.671 651.819   1
  -2   3  15 214.054 215.790  -2
  -2   4  13 214.054 215.790   1
  -2  -5  10 361.959 227.807  -2
  -2  -4  13 361.959 227.807   1
  -2  -4  12 1765.67 544.938   1
  -2   3  14 2629.35 768.074  -2
  -2   4  12 2629.35 768.074   1
  -2  -4  11-222.738 500.010   1
  -2   3  13-30.9510 604.229  -2
  -2   4  11-30.9510 604.229   1
  -2   4  10 7846.65 382.554   1
   2  -3 -12 8665.76 751.626  -2
   2  -4 -10 8665.76 751.626   1
  -2  -4   9 602.965 322.509   1
   2  -3 -11 822.562 692.371  -2
   2  -4  -9 822.562 692.371   1
   2   4  -8-57.6976 291.532   1
   2   4  -7-42.3812 297.336   1
   2   4  -6 13663.8 236.522   1
   2   4  -5 306.344 219.928   1
  -2  -4   3 698.396 668.941  -2
  -2  -4   5 698.396 668.941   1
  -2   4   4 24806.7 287.271   1
  -2  -4   2 27288.4 652.810  -2
  -2  -4   4 27288.4 652.810   1
  -2   4   3 53.3238 421.615   1
  -2   4   5 1099.00 646.635  -2
  -2   4   3 1099.00 646.635   1
   2   4  -1 143.964 329.308  -2
   2   4  -3 143.964 329.308   1
   2  -4  -2 9480.83 620.199   1
  -2   4   4 13166.8 651.781  -2
  -2   4   2 13166.8 651.781   1
   2   4   0 13882.4 338.699  -2
   2   4  -2 13882.4 338.699   1
  -2   4   3 748.049 447.899  -2
  -2   4   1 748.049 447.899   1
   2   4   1 372.960 135.486  -2
   2   4  -1 372.960 135.486   1
  -2   4   2 26699.7 473.371  -2
  -2   4   0 26699.7 473.371   1
   2   4   2 24619.9 313.061  -2
   2   4   0 24619.9 313.061   1
   2  -4  -1 1764.06 438.502  -2
   2  -4   1 1764.06 438.502   1
   2   4   3 261.342 140.520  -2
   2   4   1 261.342 140.520   1
  -2  -4  -2 88.8640 646.996   1
   2  -4   0 3917.80 459.178  -2
   2  -4   2 3917.80 459.178   1
   2   4   4 152.824 338.524  -2
   2   4   2 152.824 338.524   1
  -2  -4  -3 155.607 393.380   1
  -2   4  -1 101.245 465.735  -2
  -2   4  -3 101.245 465.735   1
   2   4   5 9.18496 158.600  -2
   2   4   3 9.18496 158.600   1
   2   4   4 2740.81 245.634   1
   2  -4   2 2704.08 746.349  -2
   2  -4   4 2704.08 746.349   1
   2   4   5 148.903 227.165   1
   2   4   6 7693.26 248.453   1
  -2  -4  -7-31.9987 285.489   1
   2  -4   8 108.003 252.416   1
   2   4   9 231.632 305.859   1
  -2  -3 -11 167.536 661.810  -2
  -2  -4  -9 167.536 661.810   1
  -2   4 -10 8436.23 386.564   1
  -2  -3 -12 8399.70 645.445  -2
  -2  -4 -10 8399.70 645.445   1
   2  -4  11-19.4115 521.177   1
  -2  -3 -13-52.2659 505.935  -2
  -2  -4 -11-52.2659 505.935   1
   2   3  14 664.629 623.327  -2
   2   4  12 664.629 623.327   1
  -2   5  -9-271.911 769.477  -2
  -2   4 -12-271.911 769.477   1
  -2  -3 -15 489.583 250.163  -2
  -2  -4 -13 489.583 250.163   1
  -2   5 -10 939.281 815.027  -2
  -2   4 -13 939.281 815.027   1
  -2  -5  11-262.879 561.770   1
   2  -4 -14 427.538 828.449  -2
   2  -5 -11 427.538 828.449   1
   2   5 -10 132.797 730.342   1
  -2   4  13-4.60108 515.956  -2
  -2   5  10-4.60108 515.956   1
   2   5  -9 3006.82 467.488   1
   2  -4 -12 3519.47 695.623  -2
   2  -5  -9 3519.47 695.623   1
  -2  -5   8 552.659 428.175   1
  -2   5   7 377.549 401.393   1
  -2   5   6 112.982 381.620   1
  -2   5   5 834.789 408.579   1
  -2  -5   2 2413.12 846.746  -2
  -2  -5   5 2413.12 846.746   1
  -2   5   4 289.167 570.573   1
   2   5  -1 945.639 588.262  -2
   2   5  -4 945.639 588.262   1
   2  -5  -3 2210.84 557.491   1
  -2  -5   0 2755.53 574.605  -2
  -2  -5   3 2755.53 574.605   1
   2  -5  -2 3390.57 782.130   1
  -2   5   5 4693.34 821.712  -2
  -2   5   2 4693.34 821.712   1
  -2  -5  -1 3427.06 558.561  -2
  -2  -5   2 3427.06 558.561   1
  -2   5   4 661.628 576.512  -2
  -2   5   1 661.628 576.512   1
   2   5   2 1409.13 184.447  -2
   2   5  -1 1409.13 184.447   1
   2  -5  -3 1327.87 578.399  -2
   2  -5   0 1327.87 578.399   1
   2   5   3 2156.97 554.875  -2
   2   5   0 2156.97 554.875   1
  -2  -5  -1 942.339 795.176   1
  -2   5   2 1355.41 195.780  -2
  -2   5  -1 1355.41 195.780   1
   2   5   4 1891.78 793.627  -2
   2   5   1 1891.78 793.627   1
  -2  -5  -2 6332.55 843.932   1
  -2   5   1 5707.86 179.775  -2
  -2   5  -2 5707.86 179.775   1
   2   5   5 7631.83 794.255  -2
   2   5   2 7631.83 794.255   1
  -2  -5  -3 9097.83 585.155   1
  -2   5   0 9155.41 587.979  -2
  -2   5  -3 9155.41 587.979   1
  -2   5  -4 78.3760 461.619   1
   2  -5   1 1719.26 978.659  -2
   2  -5   4 1719.26 978.659   1
   2   5   5 133.728 363.767   1
  -2   5  -6 1215.93 385.088   1
   2   5   7 1063.80 404.001   1
  -2   5  -8 1008.32 424.485   1
   2   5   9 1577.20 456.881   1
   2   5  10-150.417 474.686   1
  -2   6   5 1243.87 606.141   1
  -2  -6   2 2327.36 1109.01  -2
  -2  -6   5 2327.36 1109.01   1
   2  -6  -4 258.509 722.944   1
  -2  -6   1-193.428 730.744  -2
  -2  -6   4-193.428 730.744   1
  -2   6   3 212.381 702.289   1
  -2  -6   0-123.420 705.489  -2
  -2  -6   3-123.420 705.489   1
   2  -6  -2-237.477 698.130   1
   2   6   1 355.080 696.517  -2
   2   6  -2 355.080 696.517   1
  -2   6   1 483.125 672.980   1
   2   6   2 651.071 707.151  -2
   2   6  -1 651.071 707.151   1
  -2   6   0-32.0115 671.723   1
  -2  -6  -3-212.389 733.012  -2
  -2  -6   0-212.389 733.012   1
  -2   6   2 938.743 729.701  -2
  -2   6  -1 938.743 729.701   1
   2   6   4 1947.50 731.156  -2
   2   6   1 1947.50 731.156   1
  -2  -6  -2 157.321 1049.81   1
   2  -6  -1 387.287 740.939  -2
   2  -6   2 387.287 740.939   1
   2   6   5 1175.23 1003.11  -2
   2   6   2 1175.23 1003.11   1
  -2  -6  -3 24.3917 505.108   1
   2   6   4-83.2891 515.766   1
  -2   6  -5 628.946 524.519   1
  -3  -1  17 3718.94 813.058  -2
  -3   0  17 3718.94 813.058   1
  -3  -1  15 5714.08 690.499  -2
  -3   0  15 5714.08 690.499   1
  -3  -1  13 362.816 185.615  -2
  -3   0  13 362.816 185.615   1
  -3   0  11 77078.9 792.344   1
   3   1 -11 84081.0 844.167  -2
   3   0 -11 84081.0 844.167   1
  -3   0   9 7103.65 291.791   1
   3   0  -7 71350.7 227.978   1
   3   0  -5 202011. 390.020   1
   3   0  -3 12499.0 143.872   1
  -3   0   3 13413.6 176.071  -2
  -3   0   3 13413.6 176.071   1
  -3   0   1 420824. 258.282  -2
  -3   0   1 420824. 258.282   1
   3   0   1 497561. 3322.70   1
  -3   0  -1 536489. 375.340  -2
  -3   0  -1 536489. 375.340   1
   3   0   3 243797. 619.751   1
  -3   0  -3 287138. 821.069  -2
  -3   0  -3 287138. 821.069   1
  -3   0  -5 44992.0 192.962   1
   3   0   7 9205.43 190.780   1
   3   0   9 18488.7 250.822   1
   3   0  11 19048.3 485.966   1
  -3   1 -11 17925.8 794.750  -2
  -3   0 -11 17925.8 794.750   1
  -3   1 -13 1696.98 640.976  -2
  -3   0 -13 1696.98 640.976   1
  -3   1 -15 6794.82 751.799  -2
  -3   0 -15 6794.82 751.799   1
   3  -1  17 13.5043 830.792  -2
   3   0  17 13.5043 830.792   1
  -3   0  17 2125.61 812.545  -2
  -3   1  17 2125.61 812.545   1
   3   2 -16 899.385 807.408  -2
   3   1 -17 899.385 807.408   1
  -3   1  16 324.543 185.109   1
   3   2 -15 89.0466 755.635  -2
   3   1 -16 89.0466 755.635   1
   3   0 -15 4590.68 704.987  -2
   3  -1 -15 4590.68 704.987   1
  -3  -2  14 4416.75 710.938  -2
  -3  -1  15 4416.75 710.938   1
   3  -1 -14 4896.64 158.372   1
   3   2 -13 5454.97 668.374  -2
   3   1 -14 5454.97 668.374   1
  -3   0  13 7461.19 613.793  -2
  -3   1  13 7461.19 613.793   1
  -3  -2  12 9703.30 637.648  -2
  -3  -1  13 9703.30 637.648   1
  -3  -1  12 10766.9 135.231   1
   3   2 -11 13271.5 835.087  -2
   3   1 -12 13271.5 835.087   1
  -3   1  11 4889.97 311.093   1
   3   2 -10 7888.50 748.476  -2
   3   1 -11 7888.50 748.476   1
   3  -1 -10 3809.09 236.076   1
   3  -1  -9 27690.8 169.691   1
   3  -1  -8 58857.3 169.464   1
   3   1  -7 60047.5 169.648   1
   3  -1  -6 7651.64 131.142   1
  -3  -1   5 2951.38 96.9787   1
  -3   1   4 48507.7 94.0368   1
  -3   1   3 239277. 418.235   1
  -3   1   4 269169. 1239.83  -2
  -3   1   3 269169. 1239.83   1
   3  -1  -2 87955.0 142.887   1
  -3   1   3 109529. 349.008  -2
  -3   1   2 109529. 349.008   1
   3  -1  -1 1172.14 54.5006   1
  -3   1   2 13474.1 139.818  -2
  -3   1   1 13474.1 139.818   1
   3  -1   0 10698.5 67.7164   1
  -3   1   1 10253.6 149.855  -2
  -3   1   0 10253.6 149.855   1
   3   1   1 19939.3 211.844  -2
   3   1   0 19939.3 211.844   1
   3   1   1 82381.6 185.701   1
   3  -1   0 80922.1 289.194  -2
   3  -1   1 80922.1 289.194   1
  -3   1  -2 171522. 295.219   1
  -3   1  -1 182355. 561.674  -2
  -3   1  -2 182355. 561.674   1
  -3   1  -3 125596. 220.309   1
  -3   1  -4 29898.8 104.224   1
  -3  -1  -5 26654.0 125.161   1
   3   1   6 20005.4 133.833   1
  -3   1  -7 41375.7 160.571   1
   3  -1   8 25219.9 182.093   1
   3  -1   9 9842.40 187.949   1
   3   1  10 93.6402 199.777   1
   3  -1  11 2380.26 271.327   1
  -3   0 -11 5597.80 805.879  -2
  -3  -1 -11 5597.80 805.879   1
  -3   2 -10 7590.65 808.510  -2
  -3   1 -11 7590.65 808.510   1
  -3  -1 -12 2597.81 120.344   1
   3  -2  11 3616.32 445.951  -2
   3  -1  12 3616.32 445.951   1
   3   0  13 7870.64 516.432  -2
   3   1  13 7870.64 516.432   1
  -3   2 -12 7296.92 478.809  -2
  -3   1 -13 7296.92 478.809   1
   3   1  14 1605.20 130.273   1
  -3   2 -13 1410.24 504.572  -2
  -3   1 -14 1410.24 504.572   1
   3   0  15 2370.30 775.308  -2
   3   1  15 2370.30 775.308   1
   3  -2  14 1234.36 741.113  -2
   3  -1  15 1234.36 741.113   1
   3   1  16 203.102 197.813   1
  -3   2 -15 305.938 783.577  -2
  -3   1 -16 305.938 783.577   1
  -3   0 -17 1610.75 887.248  -2
  -3  -1 -17 1610.75 887.248   1
  -3   2 -16 1973.58 833.351  -2
  -3   1 -17 1973.58 833.351   1
  -3   2  17 116.548 558.076   1
  -3   1  17 4334.08 807.950  -2
  -3   2  16 4334.08 807.950   1
   3   3 -15 5111.28 778.705  -2
   3   2 -16 5111.28 778.705   1
  -3   1  16 125.442 745.275  -2
  -3   2  15 125.442 745.275   1
   3   3 -14 187.464 737.728  -2
   3   2 -15 187.464 737.728   1
  -3   1  15 4372.26 699.184  -2
  -3   2  14 4372.26 699.184   1
   3   3 -13 3256.31 697.248  -2
   3   2 -14 3256.31 697.248   1
  -3   1  14 831.810 644.895  -2
  -3   2  13 831.810 644.895   1
  -3  -3  12 1228.49 658.095  -2
  -3  -2  13 1228.49 658.095   1
  -3  -2  12 14515.2 788.337   1
  -3   1  13 17972.8 615.360  -2
  -3   2  12 17972.8 615.360   1
   3   3 -11 18953.8 871.375  -2
   3   2 -12 18953.8 871.375   1
  -3  -2  11 2335.03 331.741   1
   3  -1 -12 3542.67 485.487  -2
   3  -2 -11 3542.67 485.487   1
  -3   2  10 34881.0 309.164   1
   3  -1 -11 33737.8 935.572  -2
   3  -2 -10 33737.8 935.572   1
  -3   2   9-65.1139 202.209   1
   3  -2  -8 3115.81 171.563   1
   3   2  -7 8064.34 171.119   1
  -3  -2   6 98933.7 175.269   1
  -3   2   5 131.081 122.865   1
  -3   2   4 79069.5 159.083   1
  -3   2   5 83441.5 354.841  -2
  -3   2   4 83441.5 354.841   1
  -3  -2   3 82268.7 413.760  -2
  -3  -2   4 82268.7 413.760   1
   3  -2  -3 505.376 126.171   1
  -3   2   4 8749.65 192.843  -2
  -3   2   3 8749.65 192.843   1
   3   2  -2 16422.9 201.089  -2
   3   2  -3 16422.9 201.089   1
   3  -2  -2 110476. 312.483   1
  -3   2   3 119783. 233.346  -2
  -3   2   2 119783. 233.346   1
  -3  -2   1 119124. 222.787  -2
  -3  -2   2 119124. 222.787   1
  -3   2   2 48791.7 212.956  -2
  -3   2   1 48791.7 212.956   1
   3   2   0 42385.9 186.672  -2
   3   2  -1 42385.9 186.672   1
  -3   2   1 89695.0 276.315  -2
  -3   2   0 89695.0 276.315   1
  -3  -2  -1 85138.2 95.7556  -2
  -3  -2   0 85138.2 95.7556   1
   3  -2   1 19944.7 205.028   1
   3  -2   0 32807.9 236.859  -2
   3  -2   1 32807.9 236.859   1
   3   2   2 21132.7 136.661  -2
   3   2   1 21132.7 136.661   1
   3  -2   2 8163.07 185.221   1
   3  -2   1 10148.1 125.653  -2
   3  -2   2 10148.1 125.653   1
   3   2   3 8039.57 181.540  -2
   3   2   2 8039.57 181.540   1
   3  -2   3 1510.49 101.590   1
  -3   2  -2 1936.00 284.504  -2
  -3   2  -3 1936.00 284.504   1
   3   2   4 7119.99 248.153  -2
   3   2   3 7119.99 248.153   1
  -3   2  -4 41714.5 105.755   1
  -3  -2  -5 441.166 129.692   1
   3  -2   6 80730.1 207.052   1
   3  -2   7 5641.33 260.153   1
   3  -2   8 4532.13 276.016   1
   3  -2   9 390.560 265.055   1
  -3  -2 -10 36516.6 291.034   1
  -3  -2 -11 9389.56 341.254   1
   3   1  12 10644.5 549.465  -2
   3   2  11 10644.5 549.465   1
   3  -2  12 126.342 523.860   1
  -3  -1 -13 1754.83 598.770  -2
  -3  -2 -12 1754.83 598.770   1
   3  -2  13 71.1050 541.947   1
  -3  -1 -14 353.360 525.473  -2
  -3  -2 -13 353.360 525.473   1
   3   1  15 1456.99 578.021  -2
   3   2  14 1456.99 578.021   1
   3  -3  12 1912.65 613.606  -2
   3  -2  14 1912.65 613.606   1
   3   1  16 454.013 625.702  -2
   3   2  15 454.013 625.702   1
  -3   3 -13-147.436 750.492  -2
  -3   2 -15-147.436 750.492   1
  -3   2 -16 531.740 1160.24   1
   3   1  17 1340.59 897.058  -2
   3   2  16 1340.59 897.058   1
   3  -3  14 388.141 1107.58  -2
   3  -2  16 388.141 1107.58   1
  -3   2  16 2269.44 758.719  -2
  -3   3  15 2269.44 758.719   1
   3   4 -13 1472.04 228.995  -2
   3   3 -15 1472.04 228.995   1
  -3   2  15 1479.17 620.984  -2
  -3   3  14 1479.17 620.984   1
   3   4 -12 2199.96 598.794  -2
   3   3 -14 2199.96 598.794   1
  -3   2  14 2153.57 709.170  -2
  -3   3  13 2153.57 709.170   1
  -3  -4  11 2712.59 551.820  -2
  -3  -3  13 2712.59 551.820   1
  -3   3  12 6155.80 419.168   1
   3   4 -10 10028.3 937.277  -2
   3   3 -12 10028.3 937.277   1
  -3   3  11 232.860 334.719   1
   3   4  -9 826.876 849.105  -2
   3   3 -11 826.876 849.105   1
  -3   3  10 2102.09 301.202   1
  -3  -3   9 3464.72 282.613   1
  -3   3   8 13123.9 254.357   1
  -3  -3   7 19415.9 218.230   1
   3  -3  -6 5251.84 167.455   1
   3   3  -5 1554.87 139.798   1
  -3  -3   3 6854.94 529.814  -2
  -3  -3   5 6854.94 529.814   1
   3  -3  -4 33491.4 127.641   1
  -3  -3   2 36879.0 491.855  -2
  -3  -3   4 36879.0 491.855   1
   3   3  -3 27260.8 351.064   1
  -3   3   5 26928.5 205.491  -2
  -3   3   3 26928.5 205.491   1
  -3  -3   1 31194.3 225.522  -2
  -3  -3   3 31194.3 225.522   1
   3  -3  -2 16256.1 483.550   1
  -3   3   4 21349.9 381.500  -2
  -3   3   2 21349.9 381.500   1
  -3  -3   0 19537.1 209.428  -2
  -3  -3   2 19537.1 209.428   1
  -3   3   3 30512.1 366.451  -2
  -3   3   1 30512.1 366.451   1
  -3  -3  -1 28017.6 330.094  -2
  -3  -3   1 28017.6 330.094   1
  -3   3   2 20573.1 208.559  -2
  -3   3   0 20573.1 208.559   1
   3   3   2 21224.8 258.671  -2
   3   3   0 21224.8 258.671   1
  -3  -3  -1 6168.21 476.920   1
  -3   3   1 8883.53 189.676  -2
  -3   3  -1 8883.53 189.676   1
   3   3   3 10674.5 295.536  -2
   3   3   1 10674.5 295.536   1
  -3  -3  -2 22461.8 304.733   1
   3  -3   0 22830.2 116.303  -2
   3  -3   2 22830.2 116.303   1
   3   3   4 22805.6 299.711  -2
   3   3   2 22805.6 299.711   1
   3   3   3 43653.2 217.571   1
  -3   3  -1 42432.8 154.559  -2
  -3   3  -3 42432.8 154.559   1
  -3   3  -4-22.9276 127.856   1
   3  -3   2 4887.27 461.198  -2
   3  -3   4 4887.27 461.198   1
  -3   3  -5 71.1892 151.339   1
  -3  -3  -6 2932.41 138.562   1
  -3  -3  -7 6828.04 208.639   1
  -3  -3  -8 24282.5 251.949   1
  -3  -3  -9-198.667 263.914   1
   3  -3  10 1534.90 302.520   1
   3  -3  11 774.232 416.991   1
  -3  -2 -12 953.855 891.715  -2
  -3  -3 -11 953.855 891.715   1
  -3   4  -9 1268.23 776.580  -2
  -3   3 -11 1268.23 776.580   1
  -3  -2 -13 5526.02 615.790  -2
  -3  -3 -12 5526.02 615.790   1
   3  -4  10 4721.14 626.679  -2
   3  -3  12 4721.14 626.679   1
   3   2  14 748.703 648.629  -2
   3   3  13 748.703 648.629   1
   3  -4  11 551.073 1026.15  -2
   3  -3  13 551.073 1026.15   1
   3   2  15 363.429 589.449  -2
   3   3  14 363.429 589.449   1
   3  -4  12-97.6667 1132.68  -2
   3  -3  14-97.6667 1132.68   1
   3   2  16 114.269 643.600  -2
   3   3  15 114.269 643.600   1
   3  -4  13-287.808 808.164  -2
   3  -3  15-287.808 808.164   1
  -3  -4  13 156.675 569.791   1
  -3   3  15 37.2430 239.328  -2
  -3   4  13 37.2430 239.328   1
  -3  -4  12 1161.05 545.821   1
  -3   3  14 1402.64 735.441  -2
  -3   4  12 1402.64 735.441   1
  -3  -4  11 4270.40 526.594   1
   3  -3 -13 4588.61 597.851  -2
   3  -4 -11 4588.61 597.851   1
  -3  -4  10-37.9626 406.425   1
   3  -3 -12 870.259 752.160  -2
   3  -4 -10 870.259 752.160   1
   3   4  -9 5765.78 310.369   1
   3  -3 -11 6257.40 1021.01  -2
   3  -4  -9 6257.40 1021.01   1
   3   4  -8-163.906 276.204   1
   3   4  -7 7239.79 243.755   1
  -3   4   6 2016.44 223.726   1
   3  -4  -5 14577.0 252.444   1
  -3  -4   3 13286.4 649.786  -2
  -3  -4   5 13286.4 649.786   1
   3   4  -4 153.151 245.840   1
  -3  -4   2 409.323 436.425  -2
  -3  -4   4 409.323 436.425   1
   3  -4  -3-101.470 425.726   1
  -3   4   5 1105.72 692.259  -2
  -3   4   3 1105.72 692.259   1
   3   4  -1 1988.58 353.740  -2
   3   4  -3 1988.58 353.740   1
   3  -4  -2 1670.56 638.112   1
  -3   4   4 1938.47 668.702  -2
  -3   4   2 1938.47 668.702   1
  -3  -4   0 1970.94 342.711  -2
  -3  -4   2 1970.94 342.711   1
  -3   4   3 16513.6 477.272  -2
  -3   4   1 16513.6 477.272   1
   3   4   1 18693.7 329.971  -2
   3   4  -1 18693.7 329.971   1
   3  -4  -2 822.682 454.677  -2
   3  -4   0 822.682 454.677   1
   3   4   2 423.462 320.830  -2
   3   4   0 423.462 320.830   1
   3  -4  -1 19647.8 479.372  -2
   3  -4   1 19647.8 479.372   1
   3   4   3 17167.9 324.844  -2
   3   4   1 17167.9 324.844   1
  -3  -4  -2 387.248 687.438   1
  -3   4   0 1293.71 482.705  -2
  -3   4  -2 1293.71 482.705   1
   3   4   4 412.926 376.003  -2
   3   4   2 412.926 376.003   1
   3   4   3 7041.20 396.848   1
   3  -4   1 10220.0 484.120  -2
   3  -4   3 10220.0 484.120   1
   3   4   5 9411.96 387.903  -2
   3   4   3 9411.96 387.903   1
  -3   4  -4 883.223 250.918   1
   3  -4   2 983.255 796.669  -2
   3  -4   4 983.255 796.669   1
   3   4   5 21631.3 246.883   1
   3  -4   6 4061.19 254.514   1
  -3   4  -7 169.758 266.494   1
   3   4   8 181.775 337.346   1
  -3  -3 -10 32.4212 758.138  -2
  -3  -4  -8 32.4212 758.138   1
   3   4   9 1690.33 346.118   1
   3   4  10 728.694 451.518   1
  -3  -3 -12 1017.34 929.522  -2
  -3  -4 -10 1017.34 929.522   1
  -3   4 -11 3519.70 670.402   1
   3   3  13 3254.70 611.308  -2
   3   4  11 3254.70 611.308   1
   3   3  14 396.162 675.782  -2
   3   4  12 396.162 675.782   1
   3  -5   9 313.883 753.508  -2
   3  -4  12 313.883 753.508   1
   3   3  15-13.2329 267.892  -2
   3   4  13-13.2329 267.892   1
   3  -5  10 153.163 818.138  -2
   3  -4  13 153.163 818.138   1
  -3  -5  10 933.337 714.807   1
   3  -4 -13 678.877 609.646  -2
   3  -5 -10 678.877 609.646   1
  -3   5   9 1093.89 560.593   1
   3  -4 -12 1107.51 693.215  -2
   3  -5  -9 1107.51 693.215   1
  -3   5   8 1476.35 430.257   1
   3   5  -7 1157.61 410.677   1
  -3   5   6-82.9890 396.804   1
  -3   5   5 512.352 415.681   1
  -3  -5   2 1740.60 856.817  -2
  -3  -5   5 1740.60 856.817   1
  -3   5   4 483.015 592.399   1
   3   5  -1 1572.37 594.876  -2
   3   5  -4 1572.37 594.876   1
  -3   5   3 2413.49 569.376   1
   3   5   0 2341.55 335.818  -2
   3   5  -3 2341.55 335.818   1
   3  -5  -2 4879.38 804.542   1
  -3   5   5 6135.81 836.360  -2
  -3   5   2 6135.81 836.360   1
   3   5   1 5126.28 335.288  -2
   3   5  -2 5126.28 335.288   1
  -3   5   4 1702.10 599.474  -2
  -3   5   1 1702.10 599.474   1
   3   5   2 928.085 331.953  -2
   3   5  -1 928.085 331.953   1
   3  -5  -3 684.665 587.359  -2
   3  -5   0 684.665 587.359   1
   3   5   3 260.532 572.805  -2
   3   5   0 260.532 572.805   1
   3   5   1 2471.22 429.310   1
  -3   5   2 3282.88 200.488  -2
  -3   5  -1 3282.88 200.488   1
   3   5   4 3031.92 797.390  -2
   3   5   1 3031.92 797.390   1
  -3  -5  -2 1612.13 862.397   1
  -3   5   1 2514.17 181.660  -2
  -3   5  -2 2514.17 181.660   1
   3   5   5 2403.84 800.194  -2
   3   5   2 2403.84 800.194   1
  -3  -5  -3 1115.90 597.518   1
   3  -5   0 902.470 597.857  -2
   3  -5   3 902.470 597.857   1
   3   5   4 1586.68 466.589   1
   3  -5   1 607.608 1048.99  -2
   3  -5   4 607.608 1048.99   1
   3  -5   5 385.425 361.611   1
   3   5   6 136.362 456.721   1
  -3   5  -7 212.852 485.404   1
   3   5   8 951.915 507.053   1
  -3   5  -9 155.192 530.890   1
   3   5  10 222.348 600.920   1
  -3   6   4 184.974 743.080   1
   3   6  -1 123.578 721.944  -2
   3   6  -4 123.578 721.944   1
  -3   6   3-147.567 719.451   1
   3   6   0 440.804 713.333  -2
   3   6  -3 440.804 713.333   1
  -3   6   2-54.0149 694.025   1
   3   6   1 396.612 721.824  -2
   3   6  -2 396.612 721.824   1
   3  -6  -1 213.829 689.047   1
   3   6   2-192.614 731.116  -2
   3   6  -1-192.614 731.116   1
  -3   6   0 1660.28 698.424   1
  -3  -6  -3 1227.60 743.955  -2
  -3  -6   0 1227.60 743.955   1
  -3   6  -1 147.640 699.015   1
   3   6   4 62.7482 745.215  -2
   3   6   1 62.7482 745.215   1
  -3  -6  -2-4.22513 720.177   1
  -3   6   2 90.3611 754.006  -2
  -3   6  -2 90.3611 754.006   1
  -3   6  -3 232.773 519.701   1
   3  -6   4 755.250 523.605   1
   4   1 -16 13411.9 780.093  -2
   4   0 -16 13411.9 780.093   1
  -4  -1  14 2382.91 658.483  -2
  -4   0  14 2382.91 658.483   1
   4   1 -12 43540.9 632.830  -2
   4   0 -12 43540.9 632.830   1
  -4   0  10 59824.4 458.047   1
   4   1 -10 55017.8 775.831  -2
   4   0 -10 55017.8 775.831   1
  -4   0   8 582.653 230.417   1
  -4   0   6 242647. 308.248   1
   4   0  -4 169930. 278.198   1
  -4   0   4 193414. 1012.28  -2
  -4   0   4 193414. 1012.28   1
   4   0  -2 65908.3 412.523   1
  -4   0   2 73072.9 183.192  -2
  -4   0   2 73072.9 183.192   1
   4   0   0 569203. 214.074  -2
   4   0   0 569203. 214.074   1
   4   0   2 1070.96 298.234   1
   4   0   2 1150.02 114.002  -2
   4   0   2 1150.02 114.002   1
   4   0   4 201429. 487.175   1
   4   0   6 80275.6 257.274   1
   4   0   8 27525.0 249.049   1
   4   0  10 24348.8 306.661   1
   4  -1  12 2693.38 484.408  -2
   4   0  12 2693.38 484.408   1
   4  -1  14 217.655 202.220  -2
   4   0  14 217.655 202.220   1
  -4   1 -16 3273.90 849.967  -2
  -4   0 -16 3273.90 849.967   1
  -4   1  17-4.00772 207.475   1
  -4  -2  16-205.182 824.191  -2
  -4  -1  17-205.182 824.191   1
  -4   0  16 3583.38 761.203  -2
  -4   1  16 3583.38 761.203   1
   4   2 -15 2277.49 765.920  -2
   4   1 -16 2277.49 765.920   1
   4  -1 -15 301.493 173.101   1
   4   2 -14 503.267 725.322  -2
   4   1 -15 503.267 725.322   1
  -4   0  14 7813.91 668.059  -2
  -4   1  14 7813.91 668.059   1
   4   2 -13 8667.26 698.545  -2
   4   1 -14 8667.26 698.545   1
   4  -1 -13 8546.73 148.794   1
  -4  -2  12 9957.98 654.749  -2
  -4  -1  13 9957.98 654.749   1
  -4  -1  12 6073.20 784.790   1
  -4   0  12 10931.3 572.765  -2
  -4   1  12 10931.3 572.765   1
   4   2 -11 8146.90 847.301  -2
   4   1 -12 8146.90 847.301   1
  -4  -1  11 1921.66 326.481   1
   4   2 -10 1967.18 767.755  -2
   4   1 -11 1967.18 767.755   1
   4   1 -10 4578.95 190.264   1
  -4  -1   9 60658.5 282.109   1
  -4   1   8 35689.0 193.898   1
  -4  -1   7 12597.8 162.192   1
   4  -1  -6 1302.02 111.095   1
  -4  -1   5 31961.6 98.2032   1
   4  -1  -4 26734.4 86.2157   1
   4  -1  -3 51040.1 89.9612   1
  -4   1   4 51120.7 375.250  -2
  -4   1   3 51120.7 375.250   1
   4  -1  -2 64309.0 103.806   1
  -4   1   3 69541.2 217.309  -2
  -4   1   2 69541.2 217.309   1
  -4  -1   1 30098.9 85.3796   1
  -4   1   2 38299.0 148.474  -2
  -4   1   1 38299.0 148.474   1
   4  -1   0 21921.9 97.5295   1
   4  -1  -1 26426.8 134.072  -2
   4  -1   0 26426.8 134.072   1
  -4  -1   0 25826.4 191.752  -2
  -4  -1   0 25826.4 191.752   1
   4  -1   1 130208. 328.807   1
  -4   1   0 130552. 368.466  -2
  -4   1  -1 130552. 368.466   1
  -4  -1  -2 21675.7 79.5841   1
  -4   1  -1 34360.1 229.261  -2
  -4   1  -2 34360.1 229.261   1
   4   1   3 15842.9 85.0022   1
  -4   1  -2 16864.4 278.886  -2
  -4   1  -3 16864.4 278.886   1
  -4  -1  -4 67721.7 117.518   1
   4   1   5 5670.57 116.246   1
  -4  -1  -6 26630.4 146.758   1
   4  -1   7 3530.53 158.700   1
   4  -1   8 14679.1 203.431   1
   4  -1   9 16275.1 250.137   1
   4  -1  10 1497.22 280.463   1
  -4   2  -9 1798.71 714.879  -2
  -4   1 -10 1798.71 714.879   1
   4  -1  11 2043.82 185.469   1
   4  -2  10 1884.64 550.005  -2
   4  -1  11 1884.64 550.005   1
   4   0  12 2834.21 490.022  -2
   4   1  12 2834.21 490.022   1
   4  -2  11 3811.99 477.374  -2
   4  -1  12 3811.99 477.374   1
   4   1  13 8992.83 134.768   1
   4  -2  12 8892.41 512.570  -2
   4  -1  13 8892.41 512.570   1
  -4   0 -14 361.930 574.415  -2
  -4  -1 -14 361.930 574.415   1
   4  -2  13 524.724 535.274  -2
   4  -1  14 524.724 535.274   1
   4   1  15 1327.21 146.169   1
   4  -2  14 846.071 756.028  -2
   4  -1  15 846.071 756.028   1
  -4   0 -16 367.871 853.247  -2
  -4  -1 -16 367.871 853.247   1
   4  -2  15 375.763 819.469  -2
   4  -1  16 375.763 819.469   1
  -4   1  17 427.073 810.681  -2
  -4   2  16 427.073 810.681   1
   4   3 -15 631.932 818.730  -2
   4   2 -16 631.932 818.730   1
   4  -1 -16 5125.46 751.694  -2
   4  -2 -15 5125.46 751.694   1
   4   3 -14 4476.73 785.842  -2
   4   2 -15 4476.73 785.842   1
  -4   1  15 27.3828 693.602  -2
  -4   2  14 27.3828 693.602   1
  -4  -3  13 825.181 728.479  -2
  -4  -2  14 825.181 728.479   1
  -4  -2  13 2536.35 877.155   1
  -4   1  14 4036.24 655.834  -2
  -4   2  13 4036.24 655.834   1
   4   3 -12 4197.86 950.033  -2
   4   2 -13 4197.86 950.033   1
  -4  -2  12 28.6972 800.098   1
   4  -1 -13 282.907 173.761  -2
   4  -2 -12 282.907 173.761   1
   4   3 -11-480.497 872.455  -2
   4   2 -12-480.497 872.455   1
   4   2 -11 17351.8 355.020   1
   4  -1 -12 19877.2 502.001  -2
   4  -2 -11 19877.2 502.001   1
  -4   2  10 91.0205 233.280   1
   4  -2  -9 24138.0 229.370   1
  -4   2   8-6.71771 189.059   1
  -4  -2   7 31973.1 192.521   1
   4  -2  -6-5.82655 150.529   1
  -4   2   5 130437. 215.881   1
  -4  -2   4 136248. 1280.91  -2
  -4  -2   5 136248. 1280.91   1
  -4   2   4 182.948 149.752   1
  -4   2   5 15294.6 313.045  -2
  -4   2   4 15294.6 313.045   1
  -4  -2   3 151.598 229.208  -2
  -4  -2   4 151.598 229.208   1
   4  -2  -3 363.101 184.093   1
  -4   2   4 152.509 59.7293  -2
  -4   2   3 152.509 59.7293   1
  -4  -2   2 786.092 198.214  -2
  -4  -2   3 786.092 198.214   1
   4  -2  -2 394.448 242.749   1
  -4   2   3 471.068 145.348  -2
  -4   2   2 471.068 145.348   1
   4   2  -1 25345.6 68.2101  -2
   4   2  -2 25345.6 68.2101   1
   4  -2  -1 166751. 636.561   1
  -4   2   2 168871. 273.622  -2
  -4   2   1 168871. 273.622   1
   4   2   0 176010. 1108.31  -2
   4   2  -1 176010. 1108.31   1
   4  -2  -1 29833.2 144.508  -2
   4  -2   0 29833.2 144.508   1
   4   2   1 5993.60 54.0992  -2
   4   2   0 5993.60 54.0992   1
   4  -2   0 49937.4 144.210  -2
   4  -2   1 49937.4 144.210   1
   4   2   2 56146.2 250.726  -2
   4   2   1 56146.2 250.726   1
  -4   2  -1 39226.1 132.468  -2
  -4   2  -2 39226.1 132.468   1
   4   2   3 38808.5 184.892  -2
   4   2   2 38808.5 184.892   1
   4  -2   3 23215.7 111.508   1
   4  -2   2 28090.3 277.695  -2
   4  -2   3 28090.3 277.695   1
   4   2   4 26577.0 286.962  -2
   4   2   3 26577.0 286.962   1
  -4  -2  -4 730.648 89.6358   1
  -4   2  -5 82977.4 144.350   1
   4   2   6 3997.86 143.298   1
  -4  -2  -7 42.6375 180.542   1
   4  -2   8 1452.68 210.113   1
   4  -2   9 7123.01 254.573   1
  -4   2 -10 390.242 279.066   1
  -4  -1 -11 1753.65 825.044  -2
  -4  -2 -10 1753.65 825.044   1
  -4   2 -11 8818.92 331.675   1
  -4  -1 -12 10452.7 570.402  -2
  -4  -2 -11 10452.7 570.402   1
   4  -2  12 235.235 469.674   1
   4   1  13 1076.17 605.958  -2
   4   2  12 1076.17 605.958   1
  -4  -1 -14 99.5915 552.912  -2
  -4  -2 -13 99.5915 552.912   1
   4  -3  11 61.2691 194.787  -2
   4  -2  13 61.2691 194.787   1
   4   1  15 942.603 591.811  -2
   4   2  14 942.603 591.811   1
   4  -3  12 971.825 558.395  -2
   4  -2  14 971.825 558.395   1
   4   1  16 2500.62 637.406  -2
   4   2  15 2500.62 637.406   1
   4  -3  13 2750.76 763.355  -2
   4  -2  15 2750.76 763.355   1
  -4   2 -16 50.6979 656.001   1
   4  -3  14 449.562 1113.25  -2
   4  -2  16 449.562 1113.25   1
  -4   2  16 436.677 1002.35  -2
  -4   3  15 436.677 1002.35   1
   4   4 -13 82.9338 242.832  -2
   4   3 -15 82.9338 242.832   1
  -4   2  15 5280.06 636.825  -2
  -4   3  14 5280.06 636.825   1
  -4  -4  12 4943.26 586.541  -2
  -4  -3  14 4943.26 586.541   1
   4  -3 -13 1986.98 563.541   1
   4   4 -11 2126.14 549.663  -2
   4   3 -13 2126.14 549.663   1
  -4   3  12 1783.57 384.712   1
   4   4 -10 2353.56 924.564  -2
   4   3 -12 2353.56 924.564   1
   4  -3 -11 955.706 322.998   1
   4   4  -9 1278.40 826.500  -2
   4   3 -11 1278.40 826.500   1
   4  -3 -10 6450.38 268.320   1
   4   3  -9 3084.49 278.988   1
  -4   3   8 11949.8 241.109   1
  -4   3   7 19062.6 216.201   1
  -4   3   6 3555.37 184.410   1
  -4   3   5 6312.78 157.901   1
  -4  -3   3 10554.3 478.082  -2
  -4  -3   5 10554.3 478.082   1
  -4   3   4 30807.2 151.813   1
  -4  -3   2 37804.1 517.087  -2
  -4  -3   4 37804.1 517.087   1
   4   3  -3 25184.7 380.795   1
  -4   3   5 25493.9 297.184  -2
  -4   3   3 25493.9 297.184   1
   4   3  -1 24774.3 228.702  -2
   4   3  -3 24774.3 228.702   1
   4  -3  -2 13567.3 501.841   1
  -4   3   4 17107.2 259.275  -2
  -4   3   2 17107.2 259.275   1
   4   3   0 14656.0 269.254  -2
   4   3  -2 14656.0 269.254   1
  -4   3   3 5313.12 217.215  -2
  -4   3   1 5313.12 217.215   1
  -4  -3  -1 4914.02 344.751  -2
  -4  -3   1 4914.02 344.751   1
   4  -3  -2 6124.17 123.500  -2
   4  -3   0 6124.17 123.500   1
  -4  -3  -2 9026.63 274.242  -2
  -4  -3   0 9026.63 274.242   1
  -4  -3  -1 14086.7 545.157   1
  -4   3   1 11626.8 115.364  -2
  -4   3  -1 11626.8 115.364   1
   4   3   3 15429.3 326.800  -2
   4   3   1 15429.3 326.800   1
   4   3   2 14517.2 323.881   1
  -4   3   0 14271.8 184.751  -2
  -4   3  -2 14271.8 184.751   1
   4   3   4 15069.5 280.402  -2
   4   3   2 15069.5 280.402   1
   4   3   3 15303.0 169.677   1
  -4   3  -1 17297.5 170.459  -2
  -4   3  -3 17297.5 170.459   1
  -4   3  -4 2836.73 148.371   1
   4  -3   2 6063.61 514.314  -2
   4  -3   4 6063.61 514.314   1
  -4   3  -5 710.864 162.471   1
   4  -3   6 2691.30 174.601   1
   4  -3   7 10232.5 206.274   1
  -4  -3  -8 18974.5 251.271   1
  -4   3  -9-142.750 255.258   1
   4  -3  10 265.447 272.105   1
   4  -3  11 99.8667 436.752   1
  -4  -2 -12 75.2440 235.239  -2
  -4  -3 -11 75.2440 235.239   1
  -4   4  -9 97.3202 201.291  -2
  -4   3 -11 97.3202 201.291   1
  -4  -2 -13 2728.06 623.201  -2
  -4  -3 -12 2728.06 623.201   1
  -4   4 -10 2791.14 518.050  -2
  -4   3 -12 2791.14 518.050   1
  -4  -2 -14 937.022 674.536  -2
  -4  -3 -13 937.022 674.536   1
   4  -4  11 1311.21 549.030  -2
   4  -3  13 1311.21 549.030   1
   4   2  15 1486.65 728.764  -2
   4   3  14 1486.65 728.764   1
   4  -4  12 1268.12 229.222  -2
   4  -3  14 1268.12 229.222   1
  -4  -4  13 139.817 591.060   1
  -4   3  15 394.056 793.653  -2
  -4   4  13 394.056 793.653   1
  -4  -4  12 2203.61 559.890   1
   4  -3 -14 3334.84 748.824  -2
   4  -4 -12 3334.84 748.824   1
  -4  -4  11-71.4141 510.092   1
  -4   3  13 197.486 513.493  -2
  -4   4  11 197.486 513.493   1
  -4   4  10 4301.32 376.404   1
   4  -3 -12 5089.61 769.448  -2
   4  -4 -10 5089.61 769.448   1
   4   4  -9 406.790 335.451   1
   4  -3 -11 845.213 1054.31  -2
   4  -4  -9 845.213 1054.31   1
   4   4  -8 1064.64 251.579   1
  -4   4   7 208.565 245.953   1
   4   4  -6 7793.35 236.614   1
   4   4  -5 1084.24 237.854   1
  -4  -4   3 1589.62 649.305  -2
  -4  -4   5 1589.62 649.305   1
  -4   4   4 4549.20 256.434   1
   4   4  -2 5735.53 386.217  -2
   4   4  -4 5735.53 386.217   1
   4  -4  -3 449.667 637.407   1
  -4   4   5 273.004 696.577  -2
  -4   4   3 273.004 696.577   1
   4   4  -1 743.508 367.168  -2
   4   4  -3 743.508 367.168   1
   4  -4  -2 4264.99 668.507   1
  -4   4   4 5126.00 673.587  -2
  -4   4   2 5126.00 673.587   1
   4   4   0 6821.75 131.593  -2
   4   4  -2 6821.75 131.593   1
  -4   4   3 564.541 484.521  -2
  -4   4   1 564.541 484.521   1
   4   4   1 1116.65 346.304  -2
   4   4  -1 1116.65 346.304   1
  -4   4   2 17766.7 487.779  -2
  -4   4   0 17766.7 487.779   1
   4   4   2 18341.9 361.566  -2
   4   4   0 18341.9 361.566   1
  -4   4   1 4067.81 493.108  -2
  -4   4  -1 4067.81 493.108   1
   4   4   3 3098.40 349.681  -2
   4   4   1 3098.40 349.681   1
  -4  -4  -2 888.382 746.943   1
   4  -4   0 3033.60 498.032  -2
   4  -4   2 3033.60 498.032   1
   4   4   4 1553.48 405.245  -2
   4   4   2 1553.48 405.245   1
  -4  -4  -3 1745.37 764.311   1
  -4   4  -1 2258.33 489.656  -2
  -4   4  -3 2258.33 489.656   1
   4   4   5 1691.84 412.197  -2
   4   4   3 1691.84 412.197   1
  -4  -4  -4 7126.20 262.369   1
   4  -4   2 7641.74 836.932  -2
   4  -4   4 7641.74 836.932   1
   4   4   5 837.064 242.888   1
  -4  -4  -6 5282.87 263.883   1
   4   4   7 1278.64 305.495   1
  -4  -4  -8 509.270 346.785   1
  -4  -3 -10 652.299 1020.51  -2
  -4  -4  -8 652.299 1020.51   1
  -4  -4  -9-27.9707 365.958   1
   4  -4  10 2227.43 646.793   1
  -4  -3 -12 2262.20 584.615  -2
  -4  -4 -10 2262.20 584.615   1
  -4   4 -11 243.635 675.557   1
   4   3  13 338.747 630.056  -2
   4   4  11 338.747 630.056   1
  -4  -3 -14 139.954 689.518  -2
  -4  -4 -12 139.954 689.518   1
   4  -5   9 345.611 767.969  -2
   4  -4  12 345.611 767.969   1
   4   5 -10 316.743 709.165   1
   4  -4 -13 109.253 727.098  -2
   4  -5 -10 109.253 727.098   1
   4   5  -9 2097.49 561.366   1
   4  -4 -12 2872.18 702.809  -2
   4  -5  -9 2872.18 702.809   1
   4   5  -8 1296.29 439.904   1
   4   5  -7 1310.02 371.666   1
  -4   5   6 459.366 354.864   1
   4   5  -5 219.638 370.804   1
  -4  -5   2 1233.44 830.953  -2
  -4  -5   5 1233.44 830.953   1
  -4   5   4 762.044 619.558   1
   4   5  -1 766.129 465.717  -2
   4   5  -4 766.129 465.717   1
  -4   5   3 2749.52 575.155   1
   4   5   0 3047.17 360.005  -2
   4   5  -3 3047.17 360.005   1
   4  -5  -2 2144.08 843.319   1
  -4   5   5 1889.51 846.351  -2
  -4   5   2 1889.51 846.351   1
   4   5   1 2962.69 364.329  -2
   4   5  -2 2962.69 364.329   1
  -4   5   4 1227.61 621.044  -2
  -4   5   1 1227.61 621.044   1
   4   5   2 1362.24 424.012  -2
   4   5  -1 1362.24 424.012   1
  -4   5   3 877.033 613.520  -2
  -4   5   0 877.033 613.520   1
   4   5   3 653.555 410.229  -2
   4   5   0 653.555 410.229   1
  -4  -5  -1 1509.54 871.332   1
  -4   5   2 1248.32 203.094  -2
  -4   5  -1 1248.32 203.094   1
   4   5   4 1178.27 479.348  -2
   4   5   1 1178.27 479.348   1
   4   5   2 3548.43 478.292   1
   4  -5  -1 3482.14 186.348  -2
   4  -5   2 3482.14 186.348   1
   4   5   5 3714.28 819.564  -2
   4   5   2 3714.28 819.564   1
   4   5   3 3122.14 409.224   1
  -4   5   0 2775.83 637.893  -2
  -4   5  -3 2775.83 637.893   1
   4   5   4 153.881 416.474   1
  -4   5  -1 100.897 648.800  -2
  -4   5  -4 100.897 648.800   1
  -4   5  -5-92.0435 360.291   1
   4   5   6 2028.39 374.423   1
  -4   5  -7 557.587 494.863   1
   4   5   8 463.499 511.963   1
  -4   5  -9 787.589 545.865   1
  -4   6   3 235.918 742.157   1
  -4  -6   0 314.496 745.430  -2
  -4  -6   3 314.496 745.430   1
   4  -6  -2-380.079 711.458   1
   4   6   1 359.601 736.900  -2
   4   6  -2 359.601 736.900   1
   4  -6  -1 165.315 695.564   1
  -4  -6  -2 643.569 751.137  -2
  -4  -6   1 643.569 751.137   1
   4  -6   0 85.0753 510.422   1
  -4  -6  -1 126.945 725.802   1
  -4   6   3 653.488 772.776  -2
  -4   6  -1 653.488 772.776   1
   4   6   2 295.389 743.839   1
  -4   6   2 600.343 765.798  -2
  -4   6  -2 600.343 765.798   1
   5   1 -17 1743.60 829.873  -2
   5   0 -17 1743.60 829.873   1
  -5  -1  15 2250.41 723.523  -2
  -5   0  15 2250.41 723.523   1
  -5  -1  13 8942.03 656.903  -2
  -5   0  13 8942.03 656.903   1
  -5   0  11 71830.4 542.764   1
   5   1 -11 66751.5 874.943  -2
   5   0 -11 66751.5 874.943   1
   5   0  -9 26718.9 277.994   1
  -5   0   7 106742. 237.155   1
  -5   0   5 39964.6 253.172   1
  -5   0   3 31190.3 380.009   1
  -5   0   3 36232.1 215.450  -2
  -5   0   3 36232.1 215.450   1
   5   0  -1 26809.3 171.972  -2
   5   0  -1 26809.3 171.972   1
   5   0   1 134795. 603.350  -2
   5   0   1 134795. 603.350   1
  -5   0  -3 84297.0 728.614   1
  -5   0  -3 97981.6 336.948  -2
  -5   0  -3 97981.6 336.948   1
  -5   0  -5 14388.9 274.327   1
   5   0   7 18157.9 332.236   1
  -5   0  -9 5874.64 349.349   1
   5   0  11 14083.5 379.269   1
  -5   1 -11 16335.8 867.712  -2
  -5   0 -11 16335.8 867.712   1
  -5   1 -13 1337.70 549.765  -2
  -5   0 -13 1337.70 549.765   1
   5  -1  15 2339.83 634.142  -2
   5   0  15 2339.83 634.142   1
   5   0 -17 101.185 836.308  -2
   5  -1 -17 101.185 836.308   1
   5   2 -16 937.912 820.610  -2
   5   1 -17 937.912 820.610   1
  -5   1  16 657.742 191.953   1
  -5  -2  15 1010.63 776.493  -2
  -5  -1  16 1010.63 776.493   1
   5   0 -15 4859.26 736.646  -2
   5  -1 -15 4859.26 736.646   1
  -5  -2  14 4381.02 756.565  -2
  -5  -1  15 4381.02 756.565   1
   5  -1 -14 12818.1 163.878   1
   5   2 -13 15163.0 706.724  -2
   5   1 -14 15163.0 706.724   1
   5   0 -13 9366.94 635.020  -2
   5  -1 -13 9366.94 635.020   1
   5   2 -12 11142.4 657.969  -2
   5   1 -13 11142.4 657.969   1
   5  -1 -12 1166.05 134.311   1
   5   2 -11 1257.12 848.888  -2
   5   1 -12 1257.12 848.888   1
  -5  -1  11-46.9832 351.334   1
   5   2 -10 963.805 747.081  -2
   5   1 -11 963.805 747.081   1
  -5   1  10 14872.1 305.397   1
   5  -1  -9 40098.2 227.851   1
  -5   1   8 23988.1 194.536   1
  -5  -1   7 31875.3 130.898   1
  -5   1   6 12951.1 114.726   1
   5  -1  -5 13288.7 101.220   1
  -5  -1   4 86930.1 128.523   1
  -5   1   3 136922. 182.801   1
  -5   1   4 149478. 523.831  -2
  -5   1   3 149478. 523.831   1
  -5  -1   2 91190.3 128.507   1
  -5   1   3 102054. 387.609  -2
  -5   1   2 102054. 387.609   1
   5  -1  -1 15928.5 166.403   1
   5  -1  -2 30642.7 201.059  -2
   5  -1  -1 30642.7 201.059   1
  -5  -1   1 20671.2 313.503  -2
  -5  -1   1 20671.2 313.503   1
   5   1   0 13059.9 163.030   1
   5  -1  -1 16459.6 139.817  -2
   5  -1   0 16459.6 139.817   1
  -5  -1   0 19071.9 702.389  -2
  -5  -1   0 19071.9 702.389   1
   5   1   1 52128.3 116.646   1
   5  -1   0 55070.3 154.039  -2
   5  -1   1 55070.3 154.039   1
  -5  -1  -1 67517.5 777.643  -2
  -5  -1  -1 67517.5 777.643   1
   5  -1   2 127044. 197.786   1
   5  -1   1 131343. 298.735  -2
   5  -1   2 131343. 298.735   1
   5   1   3 52369.8 157.985   1
  -5  -1  -4 9099.33 113.033   1
  -5   1  -5 10674.7 128.496   1
   5  -1   6 30656.9 147.111   1
   5  -1   7 24222.5 170.698   1
  -5   1  -8 17297.5 197.914   1
   5   1   9 720.238 263.696   1
   5  -1  10 1029.17 185.004   1
  -5   2  -9 1146.30 791.801  -2
  -5   1 -10 1146.30 791.801   1
   5  -1  11 3930.38 347.012   1
  -5   0 -11 5952.53 869.991  -2
  -5  -1 -11 5952.53 869.991   1
  -5   2 -10 5730.69 869.014  -2
  -5   1 -11 5730.69 869.014   1
  -5  -1 -12 968.054 133.387   1
  -5   2 -11 1332.33 502.005  -2
  -5   1 -12 1332.33 502.005   1
  -5   0 -13 3159.91 553.877  -2
  -5  -1 -13 3159.91 553.877   1
   5  -2  12 2467.74 473.754  -2
   5  -1  13 2467.74 473.754   1
  -5  -1 -14 1506.56 146.622   1
   5  -2  13 1455.39 583.515  -2
   5  -1  14 1455.39 583.515   1
   5   0  15 367.412 632.591  -2
   5   1  15 367.412 632.591   1
  -5   2 -14-303.305 792.676  -2
  -5   1 -15-303.305 792.676   1
   5   1  16-67.5195 167.211   1
  -5   2 -15 284.154 853.777  -2
  -5   1 -16 284.154 853.777   1
  -5   1  17 5523.08 810.958  -2
  -5   2  16 5523.08 810.958   1
  -5  -3  15 5657.67 862.728  -2
  -5  -2  16 5657.67 862.728   1
   5  -1 -16 762.799 758.121  -2
   5  -2 -15 762.799 758.121   1
  -5  -3  14 293.108 800.045  -2
  -5  -2  15 293.108 800.045   1
   5  -1 -15 2077.09 710.194  -2
   5  -2 -14 2077.09 710.194   1
  -5  -3  13 1291.97 737.985  -2
  -5  -2  14 1291.97 737.985   1
  -5  -2  13-177.517 868.535   1
  -5   1  14 1265.78 662.652  -2
  -5   2  13 1265.78 662.652   1
   5   3 -12 207.525 970.420  -2
   5   2 -13 207.525 970.420   1
  -5  -2  12 11447.5 500.379   1
   5  -1 -13 13016.9 537.746  -2
   5  -2 -12 13016.9 537.746   1
   5   3 -11 12633.4 874.036  -2
   5   2 -12 12633.4 874.036   1
  -5  -2  11 1201.70 343.587   1
   5  -1 -12 1099.87 418.693  -2
   5  -2 -11 1099.87 418.693   1
  -5  -2  10 15432.6 252.092   1
   5  -1 -11 16039.5 982.957  -2
   5  -2 -10 16039.5 982.957   1
   5   2  -9 99.8599 219.693   1
   5  -2  -8 364.054 195.805   1
  -5   2   7 7379.66 186.983   1
   5   2  -6 55626.4 190.897   1
  -5  -2   5 3948.49 155.278   1
  -5  -2   4 9433.03 355.038  -2
  -5  -2   5 9433.03 355.038   1
  -5   2   4 34033.8 202.906   1
  -5   2   5 35874.4 362.873  -2
  -5   2   4 35874.4 362.873   1
  -5  -2   3 38393.9 288.611  -2
  -5  -2   4 38393.9 288.611   1
   5  -2  -3 14888.5 387.832   1
   5  -2  -4 19252.5 171.842  -2
   5  -2  -3 19252.5 171.842   1
   5   2  -2 25213.8 217.735  -2
   5   2  -3 25213.8 217.735   1
  -5   2   2 58932.3 162.346   1
  -5   2   3 64598.4 200.279  -2
  -5   2   2 64598.4 200.279   1
  -5  -2   1 55368.9 83.9205  -2
  -5  -2   2 55368.9 83.9205   1
   5  -2  -1 647.102 177.926   1
   5  -2  -2 10978.1 195.619  -2
   5  -2  -1 10978.1 195.619   1
   5   2   0 8436.23 240.137  -2
   5   2  -1 8436.23 240.137   1
  -5   2   1 57614.6 170.067  -2
  -5   2   0 57614.6 170.067   1
   5   2   1 57033.3 71.8239  -2
   5   2   0 57033.3 71.8239   1
   5  -2   0 12021.7 79.3705  -2
   5  -2   1 12021.7 79.3705   1
   5   2   2 5035.17 235.546  -2
   5   2   1 5035.17 235.546   1
  -5  -2  -2-76.8658 485.239   1
  -5   2  -1 768.807 143.409  -2
  -5   2  -2 768.807 143.409   1
  -5  -2  -3 112.796 234.207  -2
  -5  -2  -2 112.796 234.207   1
  -5  -2  -3 308.842 161.013   1
   5  -2   2 261.384 240.071  -2
   5  -2   3 261.384 240.071   1
   5   2   4 3481.49 289.897  -2
   5   2   3 3481.49 289.897   1
   5  -2   4 27899.0 129.259   1
   5  -2   5-46.4092 138.467   1
  -5   2  -6 19575.5 184.678   1
  -5   2  -7 144.669 192.389   1
  -5   2  -8 4186.13 209.964   1
  -5  -2  -9 2043.60 222.711   1
   5  -2  10 7654.79 267.299   1
  -5  -1 -11 8136.68 817.042  -2
  -5  -2 -10 8136.68 817.042   1
   5  -2  11 2161.51 389.983   1
  -5  -1 -12 2334.40 585.113  -2
  -5  -2 -11 2334.40 585.113   1
   5  -2  12-84.4740 782.491   1
  -5  -1 -13 896.203 628.396  -2
  -5  -2 -12 896.203 628.396   1
   5  -3  10 30.6706 663.695  -2
   5  -2  12 30.6706 663.695   1
   5   1  14 765.128 682.995  -2
   5   2  13 765.128 682.995   1
   5  -3  11 395.345 552.685  -2
   5  -2  13 395.345 552.685   1
   5   1  15 692.858 624.290  -2
   5   2  14 692.858 624.290   1
   5  -3  12 693.692 590.676  -2
   5  -2  14 693.692 590.676   1
   5   1  16 171.564 302.427  -2
   5   2  15 171.564 302.427   1
  -5   3 -13 521.692 795.322  -2
  -5   2 -15 521.692 795.322   1
  -5   3  15 864.008 760.644   1
  -5   2  16 1976.94 663.747  -2
  -5   3  14 1976.94 663.747   1
  -5  -4  12 1161.09 800.357  -2
  -5  -3  14 1161.09 800.357   1
  -5   3  13 2747.79 582.111   1
  -5  -4  11 3769.97 731.473  -2
  -5  -3  13 3769.97 731.473   1
   5  -3 -12 2584.78 386.656   1
   5   4 -10 3160.09 931.715  -2
   5   3 -12 3160.09 931.715   1
  -5   3  11-67.5258 311.237   1
   5   4  -9 356.502 880.726  -2
   5   3 -11 356.502 880.726   1
   5   3 -10 2843.06 260.523   1
   5  -3  -9 5497.32 259.125   1
  -5   3   8 7275.24 231.197   1
   5  -3  -7 8122.09 216.488   1
  -5   3   6 1818.58 197.459   1
  -5   3   5 5205.87 201.071   1
  -5  -3   3 9980.42 507.962  -2
  -5  -3   5 9980.42 507.962   1
  -5   3   4 11944.8 149.406   1
  -5  -3   2 15360.4 502.051  -2
  -5  -3   4 15360.4 502.051   1
   5  -3  -3 27121.3 552.338   1
  -5   3   5 27051.5 275.003  -2
  -5   3   3 27051.5 275.003   1
   5   3  -1 28712.7 315.920  -2
   5   3  -3 28712.7 315.920   1
   5  -3  -2 6511.71 189.979   1
   5  -3  -4 10515.1 440.162  -2
   5  -3  -2 10515.1 440.162   1
   5   3   0 8414.91 297.019  -2
   5   3  -2 8414.91 297.019   1
  -5   3   3 4233.23 339.999  -2
  -5   3   1 4233.23 339.999   1
   5   3   1 1257.02 237.959  -2
   5   3  -1 1257.02 237.959   1
   5  -3  -2 1138.64 121.101  -2
   5  -3   0 1138.64 121.101   1
   5   3   2 3673.52 299.333  -2
   5   3   0 3673.52 299.333   1
  -5  -3  -1 9326.69 573.526   1
  -5   3   1 7575.35 87.7063  -2
  -5   3  -1 7575.35 87.7063   1
   5   3   3 12833.9 358.557  -2
   5   3   1 12833.9 358.557   1
   5   3   2 24092.6 376.406   1
  -5   3   0 24191.6 369.640  -2
  -5   3  -2 24191.6 369.640   1
   5   3   4 27404.5 529.675  -2
   5   3   2 27404.5 529.675   1
   5   3   3 15415.7 196.906   1
   5  -3   1 16000.4 187.078  -2
   5  -3   3 16000.4 187.078   1
  -5  -3  -4 14.9588 180.629   1
   5  -3   2 4863.77 743.868  -2
   5  -3   4 4863.77 743.868   1
   5  -3   5 782.052 179.150   1
   5  -3   6 4764.49 182.322   1
  -5   3  -7 10520.6 221.726   1
  -5   3  -8 2100.66 270.677   1
   5   3   9 2235.34 287.723   1
  -5  -3 -10 1207.55 344.877   1
  -5  -2 -11 2219.26 1042.19  -2
  -5  -3 -10 2219.26 1042.19   1
  -5   4  -8 1450.74 798.488  -2
  -5   3 -10 1450.74 798.488   1
   5   3  11 87.4247 561.291   1
  -5  -2 -12 156.051 266.284  -2
  -5  -3 -11 156.051 266.284   1
  -5   4  -9 704.549 557.830  -2
  -5   3 -11 704.549 557.830   1
  -5  -2 -13 49.2460 278.011  -2
  -5  -3 -12 49.2460 278.011   1
  -5   4 -10 348.673 527.638  -2
  -5   3 -12 348.673 527.638   1
  -5  -2 -14 598.772 715.069  -2
  -5  -3 -13 598.772 715.069   1
  -5   4 -11 1016.83 560.584  -2
  -5   3 -13 1016.83 560.584   1
  -5  -2 -15 281.457 766.627  -2
  -5  -3 -14 281.457 766.627   1
  -5   4 -12 109.940 247.035  -2
  -5   3 -14 109.940 247.035   1
   5   4 -12 227.838 710.196   1
   5  -3 -14 538.954 833.227  -2
   5  -4 -12 538.954 833.227   1
  -5  -4  11 5188.23 632.435   1
   5  -3 -13 6021.83 552.738  -2
   5  -4 -11 6021.83 552.738   1
  -5   4  10-60.0984 483.622   1
   5  -3 -12 731.598 631.161  -2
   5  -4 -10 731.598 631.161   1
  -5   4   9 1895.52 330.059   1
   5  -3 -11 2189.34 1114.36  -2
   5  -4  -9 2189.34 1114.36   1
   5   4  -8-105.393 268.332   1
  -5   4   7 9860.61 289.821   1
  -5  -4   6 442.797 272.042   1
   5   4  -5 12493.5 289.190   1
  -5  -4   3 11734.1 660.806  -2
  -5  -4   5 11734.1 660.806   1
  -5   4   4 198.815 321.273   1
   5   4  -2 314.368 394.277  -2
   5   4  -4 314.368 394.277   1
   5  -4  -3 5.36466 671.828   1
  -5   4   5 1747.04 757.193  -2
  -5   4   3 1747.04 757.193   1
  -5  -4   1 2197.73 317.438  -2
  -5  -4   3 2197.73 317.438   1
   5  -4  -4 134.500 514.775  -2
   5  -4  -2 134.500 514.775   1
   5   4   0 459.896 135.416  -2
   5   4  -2 459.896 135.416   1
  -5   4   3 15846.9 505.880  -2
  -5   4   1 15846.9 505.880   1
   5   4   1 18366.7 389.357  -2
   5   4  -1 18366.7 389.357   1
  -5   4   2 1069.84 494.864  -2
  -5   4   0 1069.84 494.864   1
   5   4   2 256.791 375.424  -2
   5   4   0 256.791 375.424   1
  -5   4   1 7861.35 515.325  -2
  -5   4  -1 7861.35 515.325   1
   5   4   3 5662.37 378.620  -2
   5   4   1 5662.37 378.620   1
  -5  -4  -2 1007.95 760.490   1
  -5   4   0 2220.70 517.269  -2
  -5   4  -2 2220.70 517.269   1
   5   4   4 1068.00 428.911  -2
   5   4   2 1068.00 428.911   1
  -5  -4  -3 3985.36 777.016   1
   5  -4   1 5184.47 457.876  -2
   5  -4   3 5184.47 457.876   1
   5   4   5 5283.60 457.469  -2
   5   4   3 5283.60 457.469   1
   5   4   4 1137.28 325.266   1
   5  -4   2 1347.10 655.543  -2
   5  -4   4 1347.10 655.543   1
   5   4   5 7697.72 302.699   1
  -5  -4  -6 1045.82 291.432   1
  -5  -4  -7 70.8618 304.622   1
   5  -4   8 564.861 319.930   1
   5   4   9 2048.77 338.869   1
   5  -4  10 86.6670 468.287   1
   5   3  12 237.252 644.443  -2
   5   4  10 237.252 644.443   1
   5  -4  11 1490.44 812.899   1
  -5  -3 -13 1430.68 665.309  -2
  -5  -4 -11 1430.68 665.309   1
  -5   5  -8 1697.44 894.494  -2
  -5   4 -11 1697.44 894.494   1
   5  -4  12 146.325 736.103   1
  -5  -3 -14 122.639 713.210  -2
  -5  -4 -12 122.639 713.210   1
   5   5  -9 1116.79 486.739   1
  -5   4  12 1268.91 720.586  -2
  -5   5   9 1268.91 720.586   1
   5   5  -8 1510.32 400.076   1
   5   5  -7 513.757 382.431   1
   5   5  -6-27.3229 363.552   1
   5   5  -5 831.583 443.554   1
  -5  -5   2 940.048 802.615  -2
  -5  -5   5 940.048 802.615   1
  -5   5   4 617.630 633.502   1
   5   5  -1 709.046 485.020  -2
   5   5  -4 709.046 485.020   1
   5  -5  -3 114.091 856.504   1
  -5   5   6 1036.02 915.067  -2
  -5   5   3 1036.02 915.067   1
   5   5   0 372.403 384.875  -2
   5   5  -3 372.403 384.875   1
   5  -5  -2 2027.12 883.903   1
  -5   5   5 1144.86 872.844  -2
  -5   5   2 1144.86 872.844   1
   5   5   1 1712.23 391.962  -2
   5   5  -2 1712.23 391.962   1
  -5   5   4 972.743 625.866  -2
  -5   5   1 972.743 625.866   1
  -5  -5  -2 47.0876 187.397  -2
  -5  -5   1 47.0876 187.397   1
  -5   5   3 620.466 640.539  -2
  -5   5   0 620.466 640.539   1
   5   5   3 499.908 445.264  -2
   5   5   0 499.908 445.264   1
  -5  -5  -1 1002.87 954.145   1
  -5   5   2 737.075 210.110  -2
  -5   5  -1 737.075 210.110   1
   5   5   4 929.664 517.185  -2
   5   5   1 929.664 517.185   1
  -5  -5  -2 1412.09 521.767   1
  -5   5   1 922.051 632.457  -2
  -5   5  -2 922.051 632.457   1
   5   5   5 1788.47 845.141  -2
   5   5   2 1788.47 845.141   1
   5   5   3 337.510 439.171   1
  -5   5   0 787.246 670.034  -2
  -5   5  -3 787.246 670.034   1
   5   5   4 889.391 388.097   1
   5  -5   1 1043.29 1151.06  -2
   5  -5   4 1043.29 1151.06   1
   5   5   5 52.0541 376.101   1
   5   5   6 135.520 394.718   1
   5   5   7 78.4675 403.906   1
  -5  -5  -8 402.672 469.898   1
   6   1 -16 8894.85 798.433  -2
   6   0 -16 8894.85 798.433   1
  -6  -1  14 1002.87 711.656  -2
  -6   0  14 1002.87 711.656   1
   6   1 -12 38984.6 655.961  -2
   6   0 -12 38984.6 655.961   1
  -6   0  10 10442.4 469.410   1
   6   1 -10 8621.04 741.376  -2
   6   0 -10 8621.04 741.376   1
  -6   0   8 9738.66 175.904   1
  -6   0   6 101259. 368.423   1
   6   0  -4 57799.9 489.563   1
  -6   0   4 70009.0 348.506  -2
  -6   0   4 70009.0 348.506   1
   6   0  -2 112056. 670.209   1
  -6   0   2 140558. 381.107  -2
  -6   0   2 140558. 381.107   1
   6   0   0 207035. 192.225  -2
   6   0   0 207035. 192.225   1
   6   0   2 2640.58 231.839  -2
   6   0   2 2640.58 231.839   1
   6   0   4 76417.0 345.854   1
   6   0   6 9115.18 334.126   1
   6   0   8 12651.6 386.713   1
   6   0  10 7397.56 358.864   1
  -6   1 -12 698.061 526.675  -2
  -6   0 -12 698.061 526.675   1
   6  -1  14 961.446 609.760  -2
   6   0  14 961.446 609.760   1
   6   0 -16 1151.96 796.574  -2
   6  -1 -16 1151.96 796.574   1
  -6  -2  15 553.489 814.092  -2
  -6  -1  16 553.489 814.092   1
   6  -1 -15 500.136 175.492   1
  -6  -2  14 672.425 763.457  -2
  -6  -1  15 672.425 763.457   1
   6   0 -14 6714.08 696.967  -2
   6  -1 -14 6714.08 696.967   1
  -6  -2  13 7222.75 729.963  -2
  -6  -1  14 7222.75 729.963   1
   6  -1 -13 7837.03 153.374   1
  -6  -2  12 8551.17 670.935  -2
  -6  -1  13 8551.17 670.935   1
  -6  -1  12 2167.37 539.623   1
   6   0 -12 7243.14 627.402  -2
   6  -1 -12 7243.14 627.402   1
   6   2 -11 4147.41 851.822  -2
   6   1 -12 4147.41 851.822   1
  -6  -1  11 5497.52 375.038   1
   6   2 -10 5225.30 804.422  -2
   6   1 -11 5225.30 804.422   1
  -6  -1  10 84.9794 241.190   1
  -6   1   9 55779.0 234.131   1
   6  -1  -8 28923.9 142.086   1
  -6  -1   7 17658.4 128.472   1
  -6  -1   6 5733.66 110.890   1
  -6   1   5 31377.8 147.460   1
  -6   1   4 33774.5 146.298   1
  -6   1   5 41553.8 514.108  -2
  -6   1   4 41553.8 514.108   1
   6  -1  -3 11600.2 124.706   1
  -6   1   4 15786.6 236.372  -2
  -6   1   3 15786.6 236.372   1
   6  -1  -2 32708.5 182.731   1
  -6   1   3 33823.5 338.473  -2
  -6   1   2 33823.5 338.473   1
  -6  -1   2 38078.6 370.408  -2
  -6  -1   2 38078.6 370.408   1
   6  -1  -1 28183.0 207.321   1
   6  -1  -2 36171.6 251.955  -2
   6  -1  -1 36171.6 251.955   1
  -6  -1   1 30908.2 253.017  -2
  -6  -1   1 30908.2 253.017   1
   6  -1  -1 65472.8 176.964  -2
   6  -1   0 65472.8 176.964   1
   6   1   0 66972.5 245.726  -2
   6   1   0 66972.5 245.726   1
   6   1   1 20663.2 132.863   1
   6  -1   0 29554.0 150.176  -2
   6  -1   1 29554.0 150.176   1
  -6  -1  -1 25212.0 416.095  -2
  -6  -1  -1 25212.0 416.095   1
   6   1   2 6725.76 165.467   1
  -6   1  -1 9888.88 216.561  -2
  -6   1  -2 9888.88 216.561   1
   6   1   2 8804.05 470.180  -2
   6   1   2 8804.05 470.180   1
   6  -1   3 55950.8 201.883   1
  -6   1  -2 56457.3 415.399  -2
  -6   1  -3 56457.3 415.399   1
   6   1   4 3360.94 163.165   1
  -6   1  -5 2969.58 167.894   1
   6   1   6 11772.4 144.340   1
  -6  -1  -7 5415.10 155.547   1
   6   1   8 3624.29 218.397   1
   6  -1   9 6746.42 288.537   1
   6  -1  10 206.131 353.487   1
  -6   0 -10 1503.60 829.930  -2
  -6  -1 -10 1503.60 829.930   1
  -6   2  -9 1666.96 806.832  -2
  -6   1 -10 1666.96 806.832   1
   6  -1  11 314.817 119.681   1
  -6   2 -10 742.119 873.227  -2
  -6   1 -11 742.119 873.227   1
   6   0  12 2317.91 635.215  -2
   6   1  12 2317.91 635.215   1
   6  -2  11 1818.07 523.724  -2
   6  -1  12 1818.07 523.724   1
   6   1  13 3410.53 147.694   1
   6  -2  12 3603.04 497.776  -2
   6  -1  13 3603.04 497.776   1
   6   0  14 1692.58 635.194  -2
   6   1  14 1692.58 635.194   1
   6  -2  13 559.778 529.175  -2
   6  -1  14 559.778 529.175   1
  -6  -1 -15 381.976 164.910   1
   6  -2  14-250.302 654.307  -2
   6  -1  15-250.302 654.307   1
  -6   1  16 3987.11 782.704  -2
  -6   2  15 3987.11 782.704   1
  -6  -3  14 4804.89 806.006  -2
  -6  -2  15 4804.89 806.006   1
  -6   1  15 729.785 925.540  -2
  -6   2  14 729.785 925.540   1
   6   3 -13 286.992 733.757  -2
   6   2 -14 286.992 733.757   1
   6  -1 -14 3916.20 678.744  -2
   6  -2 -13 3916.20 678.744   1
  -6  -3  12 3169.63 668.301  -2
  -6  -2  13 3169.63 668.301   1
  -6  -2  12 349.678 792.430   1
   6  -1 -13 393.512 178.344  -2
   6  -2 -12 393.512 178.344   1
   6   3 -11-193.323 907.553  -2
   6   2 -12-193.323 907.553   1
   6   2 -11 21623.9 483.021   1
   6  -1 -12 23473.9 532.750  -2
   6  -2 -11 23473.9 532.750   1
  -6   2  10 807.383 273.571   1
   6  -1 -11 657.609 996.738  -2
   6  -2 -10 657.609 996.738   1
   6   2  -9 960.482 230.597   1
   6  -2  -8 301.492 214.929   1
  -6   2   7 38530.5 205.402   1
  -6   2   6 3057.47 157.582   1
  -6  -2   5 30505.4 170.530   1
   6  -2  -4 958.728 163.310   1
  -6   2   5 4643.56 535.759  -2
  -6   2   4 4643.56 535.759   1
   6   2  -3 1241.50 282.913  -2
   6   2  -4 1241.50 282.913   1
  -6   2   3 456.179 178.391   1
   6  -2  -4 879.218 241.107  -2
   6  -2  -3 879.218 241.107   1
  -6  -2   2 545.525 222.461  -2
  -6  -2   3 545.525 222.461   1
   6  -2  -2 148.775 244.710   1
  -6   2   3 245.004 109.467  -2
  -6   2   2 245.004 109.467   1
  -6  -2   1 8666.79 83.7955  -2
  -6  -2   2 8666.79 83.7955   1
   6  -2  -2 81310.4 193.700  -2
   6  -2  -1 81310.4 193.700   1
   6   2   0 84300.2 320.521  -2
   6   2  -1 84300.2 320.521   1
   6  -2  -1 14763.5 182.522  -2
   6  -2   0 14763.5 182.522   1
   6   2   1 1823.97 67.0478  -2
   6   2   0 1823.97 67.0478   1
  -6  -2  -1 11314.8 257.326   1
   6  -2   0 11939.0 182.846  -2
   6  -2   1 11939.0 182.846   1
   6   2   2 12929.2 229.376  -2
   6   2   1 12929.2 229.376   1
  -6   2  -1 5973.38 172.435  -2
  -6   2  -2 5973.38 172.435   1
   6   2   3 6307.55 291.321  -2
   6   2   2 6307.55 291.321   1
  -6  -2  -3 10052.7 202.304   1
   6  -2   2 10639.4 351.087  -2
   6  -2   3 10639.4 351.087   1
   6   2   4 11165.1 525.316  -2
   6   2   3 11165.1 525.316   1
   6   2   4 333.444 147.028   1
   6  -2   5 41805.7 173.612   1
   6  -2   6 80.0805 193.324   1
  -6  -2  -7 81.2216 228.070   1
   6  -2   8 494.813 216.687   1
  -6   2  -9 10202.5 236.577   1
   6  -2  10-167.782 257.976   1
  -6  -1 -11 33.4521 921.349  -2
  -6  -2 -10 33.4521 921.349   1
   6  -2  11 1338.27 405.363   1
  -6  -1 -12 1267.39 619.284  -2
  -6  -2 -11 1267.39 619.284   1
   6  -3   9 1409.07 459.411  -2
   6  -2  11 1409.07 459.411   1
   6  -2  12-34.3879 808.494   1
  -6  -1 -13 410.544 655.418  -2
  -6  -2 -12 410.544 655.418   1
  -6   3 -10 115.061 692.404  -2
  -6   2 -12 115.061 692.404   1
  -6  -1 -14 1124.51 700.494  -2
  -6  -2 -13 1124.51 700.494   1
  -6   3 -11 1397.55 740.719  -2
  -6   2 -13 1397.55 740.719   1
  -6  -1 -15 166.457 745.641  -2
  -6  -2 -14 166.457 745.641   1
   6  -3  12 93.0498 787.878  -2
   6  -2  14 93.0498 787.878   1
   6  -3 -14 1490.72 1217.95   1
  -6  -4  12 4378.65 816.447  -2
  -6  -3  14 4378.65 816.447   1
  -6   2  15 3125.50 641.902  -2
  -6   3  13 3125.50 641.902   1
  -6  -4  11 3918.34 751.234  -2
  -6  -3  13 3918.34 751.234   1
  -6  -3  12 584.391 470.570   1
   6   4 -10 597.666 986.380  -2
   6   3 -12 597.666 986.380   1
  -6   3  11-79.2000 362.843   1
   6   4  -9 249.281 934.386  -2
   6   3 -11 249.281 934.386   1
   6   3 -10 4633.08 291.236   1
  -6   3   9 3892.73 242.192   1
  -6   3   8 12500.1 232.809   1
   6  -3  -7 2042.63 214.591   1
   6  -3  -6 1847.57 198.788   1
  -6   3   5 1244.55 206.751   1
  -6  -3   3 3957.17 489.677  -2
  -6  -3   5 3957.17 489.677   1
   6   3  -4 30102.5 181.776   1
  -6  -3   2 34812.3 555.586  -2
  -6  -3   4 34812.3 555.586   1
   6  -3  -3 10895.0 200.514   1
  -6   3   5 13199.5 415.798  -2
  -6   3   3 13199.5 415.798   1
   6   3  -1 12684.6 336.640  -2
   6   3  -3 12684.6 336.640   1
   6  -3  -2 9364.13 186.717   1
   6  -3  -4 15265.4 347.989  -2
   6  -3  -2 15265.4 347.989   1
   6   3   0 11785.9 325.555  -2
   6   3  -2 11785.9 325.555   1
   6  -3  -1 308.965 208.923   1
   6  -3  -3 2384.10 341.921  -2
   6  -3  -1 2384.10 341.921   1
   6   3   1 1939.04 267.614  -2
   6   3  -1 1939.04 267.614   1
   6  -3   0 835.071 264.890   1
   6  -3  -2 1753.13 128.673  -2
   6  -3   0 1753.13 128.673   1
   6   3   2 2992.24 325.773  -2
   6   3   0 2992.24 325.773   1
  -6  -3  -1 12974.3 631.790   1
   6  -3  -1 12331.2 66.8626  -2
   6  -3   1 12331.2 66.8626   1
   6   3   3 15948.9 390.332  -2
   6   3   1 15948.9 390.332   1
   6   3   2 12188.3 411.100   1
  -6   3   0 11106.4 265.993  -2
  -6   3  -2 11106.4 265.993   1
   6   3   4 14032.3 539.157  -2
   6   3   2 14032.3 539.157   1
   6  -3   3 1343.67 256.835   1
  -6   3  -1 3188.97 261.903  -2
  -6   3  -3 3188.97 261.903   1
  -6   3  -4 5956.98 214.421   1
   6  -3   2 7052.61 614.966  -2
   6  -3   4 7052.61 614.966   1
  -6  -3  -5 3292.18 219.189   1
   6  -3   6 856.443 235.645   1
  -6  -3  -7 3245.57 255.905   1
  -6   3  -8 6381.65 286.384   1
  -6   3  -9-64.0850 306.689   1
  -6  -2 -10-451.049 1094.31  -2
  -6  -3  -9-451.049 1094.31   1
   6   3  10-21.3112 366.261   1
  -6  -2 -11 230.086 1127.59  -2
  -6  -3 -10 230.086 1127.59   1
  -6   4  -8-574.059 790.317  -2
  -6   3 -10-574.059 790.317   1
   6   3  11 1397.59 621.319   1
  -6  -2 -12 1944.83 1045.62  -2
  -6  -3 -11 1944.83 1045.62   1
  -6   4  -9 1295.34 567.794  -2
  -6   3 -11 1295.34 567.794   1
  -6  -2 -13 146.357 246.375  -2
  -6  -3 -12 146.357 246.375   1
   6  -4  10 699.891 724.573  -2
   6  -3  12 699.891 724.573   1
  -6  -2 -14 148.656 297.570  -2
  -6  -3 -13 148.656 297.570   1
  -6   4 -11 192.308 770.270  -2
  -6   3 -13 192.308 770.270   1
   6   4 -12 396.142 1017.71   1
   6  -3 -14 1329.44 870.907  -2
   6  -4 -12 1329.44 870.907   1
  -6  -4  11 60.0757 785.790   1
  -6   3  13 1493.81 858.917  -2
  -6   4  11 1493.81 858.917   1
  -6  -4  10 3473.97 615.954   1
   6  -3 -12 3373.74 655.844  -2
   6  -4 -10 3373.74 655.844   1
   6  -4  -9 593.997 325.945   1
   6  -4  -8 242.927 282.794   1
   6   4  -7 2041.92 284.098   1
   6   4  -6 9861.82 276.218   1
  -6   4   5 649.536 286.370   1
  -6  -4   3 157.966 158.827  -2
  -6  -4   5 157.966 158.827   1
   6  -4  -4 1837.03 381.306   1
  -6   4   6 2812.93 828.415  -2
  -6   4   4 2812.93 828.415   1
   6   4  -2 2800.47 429.934  -2
   6   4  -4 2800.47 429.934   1
   6  -4  -3 99.5839 703.467   1
  -6   4   5-223.626 800.864  -2
  -6   4   3-223.626 800.864   1
   6   4  -1 111.685 160.977  -2
   6   4  -3 111.685 160.977   1
  -6   4   4 5967.53 548.412  -2
  -6   4   2 5967.53 548.412   1
  -6  -4   0 6960.44 142.867  -2
  -6  -4   2 6960.44 142.867   1
   6  -4  -3 687.111 522.323  -2
   6  -4  -1 687.111 522.323   1
   6   4   1-26.0765 154.612  -2
   6   4  -1-26.0765 154.612   1
  -6   4   2 6505.23 530.542  -2
  -6   4   0 6505.23 530.542   1
   6   4   2 6094.66 409.249  -2
   6   4   0 6094.66 409.249   1
   6  -4  -1 349.145 478.379  -2
   6  -4   1 349.145 478.379   1
   6   4   3 95.9094 401.130  -2
   6   4   1 95.9094 401.130   1
  -6   4   0 963.129 464.902  -2
  -6   4  -2 963.129 464.902   1
   6   4   4 488.217 407.350  -2
   6   4   2 488.217 407.350   1
   6   4   3 229.364 498.053   1
   6  -4   1-142.317 445.213  -2
   6  -4   3-142.317 445.213   1
   6   4   5 416.414 717.374  -2
   6   4   3 416.414 717.374   1
  -6   4  -4 5066.66 331.665   1
   6  -4   2 4504.00 699.029  -2
   6  -4   4 4504.00 699.029   1
   6   4   5-46.6090 301.539   1
  -6  -4  -6 1952.28 295.408   1
   6  -4   7 471.303 351.758   1
  -6  -4  -8 357.209 346.927   1
  -6  -4  -9 160.444 379.936   1
  -6  -3 -11 372.779 1420.41  -2
  -6  -4  -9 372.779 1420.41   1
  -6   4 -10 680.110 504.168   1
  -6  -3 -12 593.055 628.356  -2
  -6  -4 -10 593.055 628.356   1
  -6   4 -11 84.6668 599.346   1
  -6  -3 -13-6.98918 731.164  -2
  -6  -4 -11-6.98918 731.164   1
   6   5  -8 167.958 384.877   1
   6  -4 -11 94.3337 317.980  -2
   6  -5  -8 94.3337 317.980   1
  -6   5   7 107.661 369.142   1
   6   5  -6-5.14441 374.140   1
   6   5  -5 695.798 457.754   1
  -6  -5   2 1274.92 879.981  -2
  -6  -5   5 1274.92 879.981   1
  -6   5   4 1106.07 652.515   1
   6   5  -1 1327.05 417.486  -2
   6   5  -4 1327.05 417.486   1
   6  -5  -3 1178.50 859.704   1
  -6   5   6 1984.83 964.035  -2
  -6   5   3 1984.83 964.035   1
   6   5   0 1594.25 425.192  -2
   6   5  -3 1594.25 425.192   1
   6  -5  -2 891.490 919.740   1
  -6   5   5 1106.06 908.839  -2
  -6   5   2 1106.06 908.839   1
   6   5   1 1547.39 420.008  -2
   6   5  -2 1547.39 420.008   1
  -6   5   4 1497.03 666.645  -2
  -6   5   1 1497.03 666.645   1
   6   5   2 1884.49 495.855  -2
   6   5  -1 1884.49 495.855   1
  -6   5   3 1342.93 647.474  -2
  -6   5   0 1342.93 647.474   1
   6   5   3 1643.29 487.921  -2
   6   5   0 1643.29 487.921   1
  -6  -5  -1 1198.80 988.721   1
  -6   5   2 1292.20 657.180  -2
  -6   5  -1 1292.20 657.180   1
   6   5   4 1450.47 558.681  -2
   6   5   1 1450.47 558.681   1
   6   5   2 2018.79 568.262   1
  -6   5   1 2483.97 665.202  -2
  -6   5  -2 2483.97 665.202   1
   6   5   5 2204.44 881.772  -2
   6   5   2 2204.44 881.772   1
   6   5   3 1823.66 474.935   1
  -6   5   0 2317.10 691.704  -2
  -6   5  -3 2317.10 691.704   1
   6   5   4 22.3078 416.026   1
   6  -5   1 455.597 1207.68  -2
   6  -5   4 455.597 1207.68   1
   6  -5   5-231.957 400.637   1
   6   5   6 1317.72 428.417   1
  -6   5  -7 336.821 439.074   1
  -7  -1  15 2597.72 756.585  -2
  -7   0  15 2597.72 756.585   1
   7   1 -13 1220.48 657.638  -2
   7   0 -13 1220.48 657.638   1
  -7   0  11 43906.7 768.353   1
  -7  -1  11 49338.6 640.325  -2
  -7   0  11 49338.6 640.325   1
  -7   0   9 10020.8 409.148   1
  -7   0   7 48512.1 379.084   1
  -7   0   5 51514.9 317.204   1
   7   0  -3 3444.31 298.998  -2
   7   0  -3 3444.31 298.998   1
   7   0  -1 34199.5 236.170  -2
   7   0  -1 34199.5 236.170   1
   7   0   1 55404.7 218.390   1
   7   0   1 75488.1 305.983  -2
   7   0   1 75488.1 305.983   1
  -7   0  -3 65018.9 894.916   1
  -7   0  -3 74553.5 428.968  -2
  -7   0  -3 74553.5 428.968   1
   7   0   5 23825.8 364.519   1
  -7   0  -7 183.364 390.185   1
  -7   0  -9 6535.38 428.494   1
  -7   0 -11 3158.86 413.982   1
   7  -1  13 91.7058 609.481  -2
   7   0  13 91.7058 609.481   1
  -7   0 -15 937.817 783.775   1
   7  -1 -16 76.8271 197.465   1
  -7  -2  15 75.0462 854.309  -2
  -7  -1  16 75.0462 854.309   1
  -7   0  15 1102.45 763.297  -2
  -7   1  15 1102.45 763.297   1
   7   2 -14 1512.63 792.060  -2
   7   1 -15 1512.63 792.060   1
   7  -1 -14 4511.28 167.984   1
  -7  -2  13 3988.84 738.798  -2
  -7  -1  14 3988.84 738.798   1
  -7   0  13 6278.36 685.562  -2
  -7   1  13 6278.36 685.562   1
  -7  -2  12 7237.44 679.129  -2
  -7  -1  13 7237.44 679.129   1
  -7  -1  12 800.955 141.483   1
   7   2 -11 593.227 903.092  -2
   7   1 -12 593.227 903.092   1
  -7  -1  11 1923.77 384.997   1
   7   2 -10 2588.46 854.678  -2
   7   1 -11 2588.46 854.678   1
  -7  -1  10 6954.15 327.639   1
   7  -1  -9 23391.4 223.762   1
  -7  -1   8 9734.48 219.695   1
   7   1  -7 2013.88 215.392   1
  -7   1   6 621.468 189.463   1
   7  -1  -5 19606.3 203.998   1
   7  -1  -4 22549.9 180.591   1
  -7   1   5 27153.1 315.671  -2
  -7   1   4 27153.1 315.671   1
   7  -1  -3 38329.8 173.366   1
  -7   1   4 40470.0 243.742  -2
  -7   1   3 40470.0 243.742   1
  -7  -1   3 45840.9 915.713  -2
  -7  -1   3 45840.9 915.713   1
   7  -1  -2 26721.8 326.373   1
  -7   1   3 32984.0 655.341  -2
  -7   1   2 32984.0 655.341   1
  -7  -1   2 31929.4 924.354  -2
  -7  -1   2 31929.4 924.354   1
   7  -1  -2 6587.00 179.987  -2
   7  -1  -1 6587.00 179.987   1
  -7  -1   1 2522.98 236.615  -2
  -7  -1   1 2522.98 236.615   1
   7  -1  -1 10434.2 196.174  -2
   7  -1   0 10434.2 196.174   1
   7   1   0 11020.6 248.043  -2
   7   1   0 11020.6 248.043   1
   7   1   1 41976.0 234.435   1
   7  -1   0 48271.7 206.989  -2
   7  -1   1 48271.7 206.989   1
   7   1   1 55674.4 391.047  -2
   7   1   1 55674.4 391.047   1
   7   1   2 27815.0 287.905   1
  -7   1  -1 38511.5 271.088  -2
  -7   1  -2 38511.5 271.088   1
  -7  -1  -2 38002.1 504.680  -2
  -7  -1  -2 38002.1 504.680   1
   7  -1   3 12318.9 202.128   1
  -7   1  -2 17406.7 525.790  -2
  -7   1  -3 17406.7 525.790   1
   7  -1   4 151.305 178.685   1
  -7  -1  -5 509.745 186.530   1
   7   1   6 2284.56 197.436   1
   7   1   7 11750.4 219.605   1
   7  -1   8 3211.80 211.914   1
   7  -1   9 95.0116 331.511   1
  -7   2  -8 609.589 774.488  -2
  -7   1  -9 609.589 774.488   1
  -7  -1 -10-23.0685 129.417   1
  -7   2  -9-99.7594 849.133  -2
  -7   1 -10-99.7594 849.133   1
   7  -1  11 1389.33 454.439   1
  -7   0 -11 2254.73 945.218  -2
  -7  -1 -11 2254.73 945.218   1
  -7   2 -10 2447.27 926.583  -2
  -7   1 -11 2447.27 926.583   1
  -7  -1 -12 160.293 179.110   1
   7  -2  11 736.295 552.584  -2
   7  -1  12 736.295 552.584   1
   7   0  13 124.836 240.393  -2
   7   1  13 124.836 240.393   1
   7  -2  12 262.776 591.545  -2
   7  -1  13 262.776 591.545   1
  -7  -1 -14 57.6378 161.181   1
   7  -2  13 170.707 557.373  -2
   7  -1  14 170.707 557.373   1
  -7  -2  15 152.600 765.185   1
   7  -1 -16 513.096 791.258  -2
   7  -2 -15 513.096 791.258   1
   7  -1 -15 564.806 751.449  -2
   7  -2 -14 564.806 751.449   1
  -7  -3  13 488.732 748.040  -2
  -7  -2  14 488.732 748.040   1
   7  -1 -14 127.017 187.826  -2
   7  -2 -13 127.017 187.826   1
  -7  -3  12 167.496 233.927  -2
  -7  -2  13 167.496 233.927   1
  -7  -2  12 7989.28 888.276   1
   7  -1 -13 9145.36 572.174  -2
   7  -2 -12 9145.36 572.174   1
   7   3 -11 8992.33 968.563  -2
   7   2 -12 8992.33 968.563   1
   7   2 -11-28.7324 495.175   1
  -7   1  12 264.651 532.286  -2
  -7   2  11 264.651 532.286   1
  -7  -2  10 11876.6 334.149   1
   7  -1 -11 10703.4 1053.49  -2
   7  -2 -10 10703.4 1053.49   1
  -7  -2   9 920.180 287.305   1
  -7   2   8 42.0283 294.702   1
  -7  -2   7 14376.5 179.332   1
  -7   2   6 60853.0 194.222   1
  -7   2   5 68.5728 160.589   1
  -7  -2   4 1942.78 978.497  -2
  -7  -2   5 1942.78 978.497   1
   7   2  -4 7461.29 170.136   1
  -7   2   5 8446.42 578.151  -2
  -7   2   4 8446.42 578.151   1
   7   2  -3 9361.44 565.498  -2
   7   2  -4 9361.44 565.498   1
   7  -2  -3 3079.21 402.073   1
  -7   2   4 5107.55 275.561  -2
  -7   2   3 5107.55 275.561   1
   7   2  -2 9946.12 252.482  -2
   7   2  -3 9946.12 252.482   1
   7  -2  -2 44161.1 440.332   1
   7  -2  -3 43267.4 275.833  -2
   7  -2  -2 43267.4 275.833   1
  -7  -2   1 38508.5 83.1167  -2
  -7  -2   2 38508.5 83.1167   1
   7  -2  -2 7783.66 199.914  -2
   7  -2  -1 7783.66 199.914   1
   7   2   0 2815.33 212.790  -2
   7   2  -1 2815.33 212.790   1
   7  -2  -1 17821.4 234.504  -2
   7  -2   0 17821.4 234.504   1
   7   2   1 17285.7 75.7019  -2
   7   2   0 17285.7 75.7019   1
   7  -2   0 5174.31 229.689  -2
   7  -2   1 5174.31 229.689   1
   7   2   2 2375.24 269.883  -2
   7   2   1 2375.24 269.883   1
   7  -2   1 531.240 242.893  -2
   7  -2   2 531.240 242.893   1
   7   2   3 924.363 305.385  -2
   7   2   2 924.363 305.385   1
  -7  -2  -3 2518.41 212.960   1
   7  -2   2 2828.11 390.132  -2
   7  -2   3 2828.11 390.132   1
   7   2   4 3966.37 594.431  -2
   7   2   3 3966.37 594.431   1
  -7   2  -4 11596.3 166.275   1
   7   2   5 5393.20 195.683   1
   7   2   6 9479.20 216.241   1
  -7  -2  -7 371.261 214.475   1
   7  -2   8 3087.98 229.440   1
   7  -2   9 178.896 310.539   1
   7  -2  10 3499.56 418.412   1
  -7  -1 -11 3157.21 693.308  -2
  -7  -2 -10 3157.21 693.308   1
   7  -2  11 932.767 834.656   1
   7   1  12 1389.03 683.713  -2
   7   2  11 1389.03 683.713   1
  -7   3  -9 1350.35 700.923  -2
  -7   2 -11 1350.35 700.923   1
   7  -2  12 422.107 909.207   1
  -7  -1 -13 217.787 704.467  -2
  -7  -2 -12 217.787 704.467   1
   7  -3  10-62.9082 740.179  -2
   7  -2  12-62.9082 740.179   1
  -7  -1 -14 25.5364 245.218  -2
  -7  -2 -13 25.5364 245.218   1
  -7   3 -11 120.154 272.468  -2
  -7   2 -13 120.154 272.468   1
  -7   3 -12 434.182 1141.47  -2
  -7   2 -14 434.182 1141.47   1
  -7   2  15 3080.71 788.738  -2
  -7   3  13 3080.71 788.738   1
  -7  -4  11 3730.10 791.687  -2
  -7  -3  13 3730.10 791.687   1
  -7  -3  12 1054.37 985.731   1
   7  -2 -14 549.459 738.316  -2
   7  -3 -12 549.459 738.316   1
   7   4 -10 1258.97 1041.76  -2
   7   3 -12 1258.97 1041.76   1
  -7   3  11 379.590 375.350   1
   7   4  -9 246.995 1022.83  -2
   7   3 -11 246.995 1022.83   1
  -7   3  10 435.901 334.544   1
  -7   3   9 2042.13 348.083   1
  -7   3   8 11070.2 278.069   1
   7   3  -7 1124.38 240.359   1
   7  -3  -6 68.1826 241.986   1
   7  -3  -5 1560.33 260.104   1
  -7  -3   3 4179.86 484.155  -2
  -7  -3   5 4179.86 484.155   1
   7  -3  -4 35218.7 278.073   1
  -7   3   6 35938.6 649.487  -2
  -7   3   4 35938.6 649.487   1
  -7  -3   2 37480.6 533.055  -2
  -7  -3   4 37480.6 533.055   1
   7  -3  -3 10166.2 452.491   1
  -7   3   5 12047.7 590.560  -2
  -7   3   3 12047.7 590.560   1
   7   3  -1 12021.3 350.015  -2
   7   3  -3 12021.3 350.015   1
  -7   3   4 5449.92 365.474  -2
  -7   3   2 5449.92 365.474   1
   7   3   0 1639.08 336.502  -2
   7   3  -2 1639.08 336.502   1
  -7   3   3 4181.98 316.477  -2
  -7   3   1 4181.98 316.477   1
   7   3   1 4011.56 291.297  -2
   7   3  -1 4011.56 291.297   1
  -7   3   2 3607.31 103.932  -2
  -7   3   0 3607.31 103.932   1
   7   3   2 5765.84 344.625  -2
   7   3   0 5765.84 344.625   1
  -7  -3  -1 5586.70 691.659   1
   7  -3  -1 5866.27 88.0484  -2
   7  -3   1 5866.27 88.0484   1
   7   3   3 7521.58 398.797  -2
   7   3   1 7521.58 398.797   1
   7   3   2 5333.47 417.721   1
   7  -3   0 6297.23 292.113  -2
   7  -3   2 6297.23 292.113   1
   7   3   4 6829.24 565.277  -2
   7   3   2 6829.24 565.277   1
   7   3   3 2729.13 270.413   1
  -7   3  -1 3470.50 391.550  -2
  -7   3  -3 3470.50 391.550   1
   7   3   4 445.492 224.489   1
  -7   3  -2 921.102 659.703  -2
  -7   3  -4 921.102 659.703   1
   7   3   5 260.881 210.904   1
  -7  -3  -6 2787.64 249.864   1
  -7   3  -7 1568.03 263.707   1
  -7  -3  -8 2289.04 298.865   1
  -7  -3  -9 126.463 326.823   1
  -7  -2 -10 1352.19 1181.53  -2
  -7  -3  -9 1352.19 1181.53   1
  -7  -3 -10 331.309 451.735   1
  -7  -2 -11 900.799 1202.02  -2
  -7  -3 -10 900.799 1202.02   1
  -7   4  -8 136.645 1052.98  -2
  -7   3 -10 136.645 1052.98   1
   7   3  11-167.390 858.284   1
  -7  -2 -12-66.5325 1099.61  -2
  -7  -3 -11-66.5325 1099.61   1
   7  -4   9 1228.05 1205.86  -2
   7  -3  11 1228.05 1205.86   1
   7   2  13 738.814 735.217  -2
   7   3  12 738.814 735.217   1
   7  -4  10 959.513 1235.44  -2
   7  -3  12 959.513 1235.44   1
   7   4 -11 3775.71 834.920   1
   7  -3 -13 4271.25 879.188  -2
   7  -4 -11 4271.25 879.188   1
   7   4 -10-112.770 500.297   1
   7  -3 -12-296.279 888.793  -2
   7  -4 -10-296.279 888.793   1
   7  -4  -9-101.059 403.900   1
   7  -4  -8 26.5816 333.664   1
   7   4  -7 5571.76 326.075   1
  -7   4   6 1340.53 287.400   1
  -7  -4   4 1096.01 1431.37  -2
  -7  -4   6 1096.01 1431.37   1
   7   4  -5 1745.41 305.209   1
  -7  -4   3 1019.72 717.121  -2
  -7  -4   5 1019.72 717.121   1
  -7   4   4-21.9427 382.857   1
   7   4  -2 156.338 451.165  -2
   7   4  -4 156.338 451.165   1
   7  -4  -3-47.5469 720.247   1
  -7   4   5 150.176 684.457  -2
  -7   4   3 150.176 684.457   1
   7   4  -1 1367.54 377.559  -2
   7   4  -3 1367.54 377.559   1
  -7   4   4 1730.74 516.925  -2
  -7   4   2 1730.74 516.925   1
   7   4   0 948.431 153.278  -2
   7   4  -2 948.431 153.278   1
   7  -4  -3 9805.10 454.026  -2
   7  -4  -1 9805.10 454.026   1
   7   4   1 11346.7 161.392  -2
   7   4  -1 11346.7 161.392   1
   7  -4  -2 827.953 453.101  -2
   7  -4   0 827.953 453.101   1
   7   4   2 493.887 426.850  -2
   7   4   0 493.887 426.850   1
   7  -4  -1 5479.14 464.470  -2
   7  -4   1 5479.14 464.470   1
   7   4   3 4877.09 434.281  -2
   7   4   1 4877.09 434.281   1
  -7   4   0 1821.20 463.870  -2
  -7   4  -2 1821.20 463.870   1
   7   4   4 640.566 167.632  -2
   7   4   2 640.566 167.632   1
   7   4   3 3910.00 426.270   1
  -7   4  -1 4645.73 472.467  -2
  -7   4  -3 4645.73 472.467   1
  -7   4  -4-24.5951 343.563   1
   7   4   5 2847.91 373.476   1
   7  -4   6 1472.98 379.766   1
  -7  -4  -7 162.034 357.508   1
  -7  -4  -8 283.504 369.479   1
  -7  -4  -9 342.242 459.537   1
  -7  -3 -11 227.713 1417.55  -2
  -7  -4  -9 227.713 1417.55   1
   7  -4  10 334.701 693.327   1
  -7  -3 -12 473.285 656.313  -2
  -7  -4 -10 473.285 656.313   1
   7   5  -7 462.073 528.608   1
   7   5  -6-36.1860 471.249   1
   7   5  -5 420.210 448.029   1
  -7  -5   2 790.515 924.763  -2
  -7  -5   5 790.515 924.763   1
  -7   5   4 465.571 573.531   1
   7   5  -1 206.358 212.061  -2
   7   5  -4 206.358 212.061   1
   7  -5  -3 397.108 883.742   1
  -7   5   6 46.9078 821.951  -2
  -7   5   3 46.9078 821.951   1
   7   5   0 80.5933 450.978  -2
   7   5  -3 80.5933 450.978   1
  -7   5   5 298.042 631.462  -2
  -7   5   2 298.042 631.462   1
   7   5   1 179.171 199.670  -2
   7   5  -2 179.171 199.670   1
  -7   5   4-16.8068 626.492  -2
  -7   5   1-16.8068 626.492   1
   7   5   2-22.5662 520.166  -2
   7   5  -1-22.5662 520.166   1
  -7   5   3 278.572 625.246  -2
  -7   5   0 278.572 625.246   1
   7   5   3 190.987 514.482  -2
   7   5   0 190.987 514.482   1
  -7  -5  -1 1409.57 1014.41   1
  -7   5   2 727.718 212.836  -2
  -7   5  -1 727.718 212.836   1
   7   5   4 1338.16 597.392  -2
   7   5   1 1338.16 597.392   1
   7   5   2 232.232 623.595   1
  -7   5   1 482.467 639.206  -2
  -7   5  -2 482.467 639.206   1
  -7  -5  -3 341.457 1112.68   1
  -7   5   0 642.127 663.041  -2
  -7   5  -3 642.127 663.041   1
   7   5   4 402.575 496.884   1
  -7   5  -1 1758.64 958.195  -2
  -7   5  -4 1758.64 958.195   1
   7   5   5 412.530 445.613   1
  -8  -1  14 81.3611 222.182  -2
  -8   0  14 81.3611 222.182   1
  -8  -1  12 7512.13 639.935  -2
  -8   0  12 7512.13 639.935   1
  -8   0  10 18608.7 542.123   1
   8   1 -10 18961.6 884.840  -2
   8   0 -10 18961.6 884.840   1
   8   0  -8 12420.9 408.138   1
  -8   0   6 47756.3 404.862   1
   8   0  -4 2386.97 674.515   1
   8   0  -4 2991.61 340.732  -2
   8   0  -4 2991.61 340.732   1
   8   0  -2 27690.4 270.232   1
   8   0  -2 43273.9 329.393  -2
   8   0  -2 43273.9 329.393   1
   8   0   0 64903.8 257.843  -2
   8   0   0 64903.8 257.843   1
   8   0   2 323.362 305.584  -2
   8   0   2 323.362 305.584   1
   8   0   4 47234.3 421.765   1
  -8   0  -6 3346.05 412.986   1
  -8   0  -8 599.860 449.531   1
  -8   0 -10 3426.38 496.668   1
   8   0  12 19.9262 544.131   1
  -8   0 -14 160.497 768.468   1
  -8   1  15 1717.41 181.742   1
  -8  -2  14 2589.74 804.865  -2
  -8  -1  15 2589.74 804.865   1
  -8   0  14 4793.95 744.231  -2
  -8   1  14 4793.95 744.231   1
  -8  -2  13 5608.13 737.616  -2
  -8  -1  14 5608.13 737.616   1
  -8   1  13 2299.19 155.059   1
  -8  -2  12 1959.21 682.302  -2
  -8  -1  13 1959.21 682.302   1
  -8  -1  12 1133.21 758.522   1
  -8   0  12 2398.48 624.275  -2
  -8   1  12 2398.48 624.275   1
   8   2 -11 3346.46 693.173  -2
   8   1 -12 3346.46 693.173   1
  -8  -1  11 33.0786 391.209   1
   8   2 -10 1048.89 936.328  -2
   8   1 -11 1048.89 936.328   1
  -8   1  10 2313.88 310.891   1
  -8  -1   9 17567.6 296.192   1
  -8   1   8 21488.0 253.577   1
  -8   1   7 7639.24 234.962   1
  -8   1   6 195.016 225.922   1
  -8   1   5 19144.9 209.704   1
  -8  -1   4 11560.4 159.589   1
  -8   1   5 14789.2 528.131  -2
  -8   1   4 14789.2 528.131   1
   8   1  -4 15849.7 679.253  -2
   8   1  -4 15849.7 679.253   1
   8   1  -3 20231.2 204.250   1
   8  -1  -4 20773.0 228.551  -2
   8  -1  -3 20773.0 228.551   1
  -8  -1   3 23594.3 929.354  -2
  -8  -1   3 23594.3 929.354   1
   8  -1  -3 8287.74 228.317  -2
   8  -1  -2 8287.74 228.317   1
  -8  -1   2 6442.48 513.973  -2
  -8  -1   2 6442.48 513.973   1
   8  -1  -2 1344.61 227.688  -2
   8  -1  -1 1344.61 227.688   1
   8   1  -1 537.352 238.290  -2
   8   1  -1 537.352 238.290   1
   8  -1  -1 2660.09 226.206  -2
   8  -1   0 2660.09 226.206   1
   8   1   0 2524.88 272.159  -2
   8   1   0 2524.88 272.159   1
   8  -1   0 12952.1 223.496  -2
   8  -1   1 12952.1 223.496   1
   8   1   1 14823.0 409.424  -2
   8   1   1 14823.0 409.424   1
   8   1   2 1818.19 334.439   1
   8  -1   1 3596.16 270.250  -2
   8  -1   2 3596.16 270.250   1
   8   1   2 2113.46 388.919  -2
   8   1   2 2113.46 388.919   1
  -8  -1  -3 8147.20 315.504   1
  -8   1  -2 7395.41 493.489  -2
  -8   1  -3 7395.41 493.489   1
  -8   1  -4 2667.05 203.425   1
   8   1   5 2630.95 281.299   1
   8   1   6 8565.82 299.402   1
  -8   1  -7 3419.30 303.277   1
  -8  -1  -8 801.480 286.346   1
   8  -1   9 436.162 206.783   1
  -8   2  -8 1230.37 830.794  -2
  -8   1  -9 1230.37 830.794   1
   8   1  10 680.786 472.373   1
  -8   0 -10 1340.17 706.200  -2
  -8  -1 -10 1340.17 706.200   1
  -8   2  -9 974.167 876.167  -2
  -8   1 -10 974.167 876.167   1
  -8  -1 -11 754.850 249.421   1
  -8   2 -10 725.933 911.260  -2
  -8   1 -11 725.933 911.260   1
  -8   0 -12 116.453 253.709  -2
  -8  -1 -12 116.453 253.709   1
  -8   2 -11 491.520 574.388  -2
  -8   1 -12 491.520 574.388   1
  -8  -1 -13 765.545 203.933   1
  -8   2 -12 725.950 771.011  -2
  -8   1 -13 725.950 771.011   1
  -8  -2  14 148.459 741.263   1
   8  -1 -15 1138.82 775.121  -2
   8  -2 -14 1138.82 775.121   1
  -8   1  14 3397.80 725.274  -2
  -8   2  13 3397.80 725.274   1
  -8  -3  12 2679.70 755.768  -2
  -8  -2  13 2679.70 755.768   1
  -8  -2  12 553.699 898.946   1
  -8   1  13 1154.31 592.419  -2
  -8   2  12 1154.31 592.419   1
   8   3 -11 319.061 1029.09  -2
   8   2 -12 319.061 1029.09   1
  -8  -2  11 9617.79 635.186   1
  -8   1  12 11069.8 561.792  -2
  -8   2  11 11069.8 561.792   1
   8   3 -10 11333.3 1029.17  -2
   8   2 -11 11333.3 1029.17   1
  -8   2  10 180.233 342.301   1
  -8   2   9-15.5000 277.995   1
   8  -2  -8-53.6740 251.528   1
  -8   2   7 7493.96 249.240   1
   8   2  -6 2385.15 198.079   1
  -8   2   5 15589.2 180.280   1
  -8  -2   4 14124.8 1081.91  -2
  -8  -2   5 14124.8 1081.91   1
   8   2  -4 2386.57 204.101   1
   8  -2  -5 5401.58 393.893  -2
   8  -2  -4 5401.58 393.893   1
  -8  -2   3 3423.69 610.903  -2
  -8  -2   4 3423.69 610.903   1
   8  -2  -3 529.540 306.753   1
  -8   2   4 1934.84 439.613  -2
  -8   2   3 1934.84 439.613   1
  -8  -2   2 3597.87 572.676  -2
  -8  -2   3 3597.87 572.676   1
   8  -2  -2 17213.8 502.266   1
   8  -2  -3 21188.6 276.111  -2
   8  -2  -2 21188.6 276.111   1
  -8  -2   1 32744.5 161.890  -2
  -8  -2   2 32744.5 161.890   1
   8  -2  -2 70547.2 257.064  -2
   8  -2  -1 70547.2 257.064   1
   8   2   0 69459.3 367.699  -2
   8   2  -1 69459.3 367.699   1
   8  -2  -1 19324.8 268.512  -2
   8  -2   0 19324.8 268.512   1
   8   2   1 6403.25 80.8260  -2
   8   2   0 6403.25 80.8260   1
   8  -2   0 5572.00 259.451  -2
   8  -2   1 5572.00 259.451   1
   8   2   2 3436.42 291.822  -2
   8   2   1 3436.42 291.822   1
   8  -2   1 2087.72 280.175  -2
   8  -2   2 2087.72 280.175   1
   8   2   3 3956.46 313.287  -2
   8   2   2 3956.46 313.287   1
  -8   2  -3 11838.6 339.577   1
   8  -2   2 14199.0 499.924  -2
   8  -2   3 14199.0 499.924   1
   8   2   4 15509.4 610.044  -2
   8   2   3 15509.4 610.044   1
   8   2   4-22.1908 227.900   1
   8   2   5 5826.96 239.765   1
  -8   2  -6 111.904 288.420   1
  -8   2  -7-84.9325 304.695   1
   8   2   8 351.462 321.670   1
  -8  -2  -9 1511.33 354.269   1
  -8   2 -10 175.147 441.503   1
  -8  -1 -11 125.982 172.514  -2
  -8  -2 -10 125.982 172.514   1
   8  -2  11 808.205 891.326   1
  -8  -1 -12 1127.46 727.577  -2
  -8  -2 -11 1127.46 727.577   1
  -8   3  -9 668.089 723.973  -2
  -8   2 -11 668.089 723.973   1
   8  -2  12 173.788 961.332   1
  -8  -1 -13 679.141 750.630  -2
  -8  -2 -12 679.141 750.630   1
  -8   3 -10 259.109 260.376  -2
  -8   2 -12 259.109 260.376   1
  -8   3 -11 381.030 782.780  -2
  -8   2 -13 381.030 782.780   1
  -8  -3  12 265.587 1030.58   1
  -8   2  14-169.613 818.247  -2
  -8   3  12-169.613 818.247   1
   8   4 -10 79.2672 1131.29  -2
   8   3 -12 79.2672 1131.29   1
  -8  -3  11 426.860 757.027   1
   8  -2 -13 113.982 639.622  -2
   8  -3 -11 113.982 639.622   1
   8   4  -9 764.360 1110.11  -2
   8   3 -11 764.360 1110.11   1
   8  -3 -10 1760.67 461.484   1
   8  -3  -9 4292.45 393.180   1
   8   3  -8 5414.64 378.005   1
   8  -3  -7 188.503 359.943   1
   8  -3  -6 201.139 276.837   1
   8  -3  -5 205.977 295.336   1
  -8  -3   3 2980.69 1216.26  -2
  -8  -3   5 2980.69 1216.26   1
   8   3  -4 23601.8 313.373   1
  -8   3   6 24517.4 672.062  -2
  -8   3   4 24517.4 672.062   1
  -8  -3   2 24355.0 562.933  -2
  -8  -3   4 24355.0 562.933   1
   8  -3  -3 4598.66 476.297   1
  -8   3   5 6456.64 644.555  -2
  -8   3   3 6456.64 644.555   1
   8   3  -1 5192.28 368.344  -2
   8   3  -3 5192.28 368.344   1
  -8   3   4 3318.20 334.015  -2
  -8   3   2 3318.20 334.015   1
   8   3   0 264.772 162.462  -2
   8   3  -2 264.772 162.462   1
   8  -3  -3 2547.02 337.335  -2
   8  -3  -1 2547.02 337.335   1
   8   3   1 2996.47 314.368  -2
   8   3  -1 2996.47 314.368   1
   8  -3  -2 3653.55 110.927  -2
   8  -3   0 3653.55 110.927   1
   8   3   2 5141.57 362.537  -2
   8   3   0 5141.57 362.537   1
  -8  -3  -1 4982.11 729.658   1
   8  -3  -1 5766.55 101.651  -2
   8  -3   1 5766.55 101.651   1
   8   3   3 7000.60 414.626  -2
   8   3   1 7000.60 414.626   1
   8   3   2 3121.11 376.308   1
  -8   3   0 3911.10 412.038  -2
  -8   3  -2 3911.10 412.038   1
   8   3   3 1110.20 590.027   1
  -8   3  -1 2268.23 418.476  -2
  -8   3  -3 2268.23 418.476   1
   8   3   4 2567.31 389.487   1
   8  -3   2 4096.19 705.229  -2
   8  -3   4 4096.19 705.229   1
  -8  -3  -5 2132.18 314.484   1
  -8  -3  -6 1031.28 339.737   1
  -8  -3  -7 357.559 428.192   1
  -8  -3  -8 4121.62 444.904   1
  -8  -3  -9 26.1193 488.175   1
  -8  -2 -10 593.167 1293.10  -2
  -8  -3  -9 593.167 1293.10   1
   8   3  10 104.686 686.407   1
  -8  -2 -11-157.586 882.455  -2
  -8  -3 -10-157.586 882.455   1
  -8   4  -8-3.88156 1188.03  -2
  -8   3 -10-3.88156 1188.03   1
   8   3  11 367.202 743.074   1
  -8  -2 -12 654.018 1181.67  -2
  -8  -3 -11 654.018 1181.67   1
  -8   4  10 2315.17 531.877   1
   8  -3 -12 2768.49 1473.44  -2
   8  -4 -10 2768.49 1473.44   1
   8  -4  -9-11.4273 430.624   1
   8  -4  -8 293.913 381.421   1
   8   4  -7 790.294 389.564   1
  -8  -4   5 18.1294 1453.82  -2
  -8  -4   7 18.1294 1453.82   1
   8   4  -6 7665.53 371.716   1
  -8  -4   4 6736.73 1526.24  -2
  -8  -4   6 6736.73 1526.24   1
   8   4  -5 484.439 387.437   1
   8   4  -3 374.419 734.448  -2
   8   4  -5 374.419 734.448   1
   8   4  -4 210.373 410.103   1
   8   4  -2 249.556 459.217  -2
   8   4  -4 249.556 459.217   1
  -8   4   3 1370.20 491.636   1
   8   4  -1 1617.77 338.013  -2
   8   4  -3 1617.77 338.013   1
   8  -4  -4 2192.38 477.825  -2
   8  -4  -2 2192.38 477.825   1
   8   4   0 2185.10 154.830  -2
   8   4  -2 2185.10 154.830   1
   8  -4  -3 268.355 477.352  -2
   8  -4  -1 268.355 477.352   1
   8   4   1 311.878 118.377  -2
   8   4  -1 311.878 118.377   1
  -8   4   2 816.113 486.152  -2
  -8   4   0 816.113 486.152   1
   8   4   2 172.223 171.561  -2
   8   4   0 172.223 171.561   1
  -8   4   1 908.599 495.483  -2
  -8   4  -1 908.599 495.483   1
   8   4   3 686.354 274.234  -2
   8   4   1 686.354 274.234   1
  -8  -4  -2 123.683 1522.72   1
   8  -4   0 188.674 489.543  -2
   8  -4   2 188.674 489.543   1
   8   4   4 152.388 602.333  -2
   8   4   2 152.388 602.333   1
   8   4   3 258.304 360.932   1
   8   4   4 1486.18 387.794   1
   8   4   5-57.9086 390.651   1
   8   4   6 544.755 403.662   1
   8   4   7 314.619 491.392   1
  -8  -4  -8 664.082 482.248   1
  -8  -3 -10 868.646 1472.38  -2
  -8  -4  -8 868.646 1472.38   1
  -8   5   4 597.208 605.988   1
   8   5  -1 1231.16 521.745  -2
   8   5  -4 1231.16 521.745   1
  -8   5   3 685.303 582.710   1
   8   5   0 726.232 524.191  -2
   8   5  -3 726.232 524.191   1
  -8   5   2 280.439 604.178   1
   8   5   1 149.394 475.807  -2
   8   5  -2 149.394 475.807   1
  -8   5   4 62.5397 246.706  -2
  -8   5   1 62.5397 246.706   1
   8   5   2 241.712 691.698  -2
   8   5  -1 241.712 691.698   1
  -8   5   3 94.3135 231.784  -2
  -8   5   0 94.3135 231.784   1
   8   5   3 123.385 679.311  -2
   8   5   0 123.385 679.311   1
   8   5   1 1312.74 624.156   1
  -8   5   2 933.857 228.297  -2
  -8   5  -1 933.857 228.297   1
  -8  -5  -2 902.404 645.192   1
  -8   5   1 77.7542 663.402  -2
  -8   5  -2 77.7542 663.402   1
   8   5   3 808.826 630.852   1
  -8   5   0 163.399 695.652  -2
  -8   5  -3 163.399 695.652   1
  -9  -1  13 1705.19 696.039  -2
  -9   0  13 1705.19 696.039   1
  -9   0  11 10698.6 729.982   1
  -9  -1  11 12715.1 718.497  -2
  -9   0  11 12715.1 718.497   1
  -9   0   9 1488.21 458.632   1
  -9   0   7 17554.6 346.345   1
  -9   0   5 30412.3 1029.98   1
   9   0  -5 34638.8 450.676  -2
   9   0  -5 34638.8 450.676   1
   9   0  -3 10446.5 471.302  -2
   9   0  -3 10446.5 471.302   1
   9   0  -1 19271.9 371.622  -2
   9   0  -1 19271.9 371.622   1
   9   0   1 110.279 342.944  -2
   9   0   1 110.279 342.944   1
  -9   0  -3 2158.05 618.592   1
   9   0   3 2515.62 573.544  -2
   9   0   3 2515.62 573.544   1
  -9   0  -5 371.599 444.580   1
  -9   0  -7 639.405 474.986   1
  -9   0  -9 1754.85 515.573   1
  -9   0 -11 413.513 665.304   1
   9   0  13 577.521 643.671   1
  -9   1  14 2392.48 180.880   1
  -9  -2  13 2343.24 767.441  -2
  -9  -1  14 2343.24 767.441   1
  -9   0  13 2921.00 729.475  -2
  -9   1  13 2921.00 729.475   1
  -9  -2  12 3042.39 738.482  -2
  -9  -1  13 3042.39 738.482   1
  -9   1  12 1770.32 160.905   1
  -9  -2  11 1494.98 698.618  -2
  -9  -1  12 1494.98 698.618   1
  -9   1  11 1604.97 377.837   1
   9   2 -10 2182.47 1042.35  -2
   9   1 -11 2182.47 1042.35   1
  -9   1  10 6725.10 339.953   1
  -9   1   9 3123.75 275.944   1
  -9   1   8 12843.9 255.211   1
   9  -1  -7 1971.64 245.148   1
  -9   1   6 2890.66 233.882   1
   9   1  -5 4382.41 230.416   1
   9  -1  -4 6014.02 391.777   1
  -9   1   5 5685.28 559.496  -2
  -9   1   4 5685.28 559.496   1
  -9  -1   4 6403.77 598.452  -2
  -9  -1   4 6403.77 598.452   1
   9  -1  -3 19367.7 321.462   1
   9  -1  -4 24332.6 605.991  -2
   9  -1  -3 24332.6 605.991   1
  -9  -1   3 26073.5 1042.42  -2
  -9  -1   3 26073.5 1042.42   1
   9  -1  -3 11927.0 255.558  -2
   9  -1  -2 11927.0 255.558   1
   9   1  -2 11119.6 421.786  -2
   9   1  -2 11119.6 421.786   1
   9  -1  -2 2257.54 273.741  -2
   9  -1  -1 2257.54 273.741   1
   9   1  -1 856.375 430.213  -2
   9   1  -1 856.375 430.213   1
   9  -1  -1 1347.33 412.067  -2
   9  -1   0 1347.33 412.067   1
   9   1   0 2087.49 445.397  -2
   9   1   0 2087.49 445.397   1
   9  -1   0 45644.4 470.248  -2
   9  -1   1 45644.4 470.248   1
   9   1   1 51219.9 491.615  -2
   9   1   1 51219.9 491.615   1
   9  -1   1 51447.5 466.662  -2
   9  -1   2 51447.5 466.662   1
   9   1   2 52165.4 494.500  -2
   9   1   2 52165.4 494.500   1
  -9  -1  -3 201.840 999.266   1
  -9   1  -2 7282.95 410.046  -2
  -9   1  -3 7282.95 410.046   1
   9   1   3 1997.33 747.419  -2
   9   1   3 1997.33 747.419   1
  -9  -1  -4 481.815 300.761   1
  -9   1  -5 1312.72 316.747   1
   9   1   6 9069.50 335.471   1
  -9  -1  -7 3491.39 338.056   1
   9  -1   8 186.416 315.324   1
   9   1   9 206.627 469.840   1
  -9   0  -9 937.926 719.198  -2
  -9  -1  -9 937.926 719.198   1
  -9   2  -8 816.665 884.766  -2
  -9   1  -9 816.665 884.766   1
  -9  -1 -10 86.3961 159.997   1
  -9   2  -9-254.399 970.409  -2
  -9   1 -10-254.399 970.409   1
   9  -1  11 184.674 921.089   1
  -9   0 -11 438.786 733.506  -2
  -9  -1 -11 438.786 733.506   1
  -9   2 -10 303.059 1045.48  -2
  -9   1 -11 303.059 1045.48   1
  -9  -1 -12 268.456 207.476   1
  -9   2 -11-64.1735 758.998  -2
  -9   1 -12-64.1735 758.998   1
  -9  -2  13 225.857 736.448   1
  -9   1  14 71.2092 194.803  -2
  -9   2  13 71.2092 194.803   1
  -9  -2  12 4885.74 968.732   1
  -9   1  13 5302.44 607.871  -2
  -9   2  12 5302.44 607.871   1
   9   3 -11 6007.27 1150.12  -2
   9   2 -12 6007.27 1150.12   1
  -9  -2  11 707.602 533.931   1
  -9   1  12 887.774 562.097  -2
  -9   2  11 887.774 562.097   1
   9   3 -10 1127.83 1078.66  -2
   9   2 -11 1127.83 1078.66   1
  -9   2  10 4231.30 335.773   1
  -9   2   9 215.353 340.123   1
   9   2  -8 2011.06 314.706   1
   9  -2  -7 89.5892 253.371   1
   9  -2  -6 24004.8 312.880   1
  -9  -2   5 19604.5 1159.52  -2
  -9  -2   6 19604.5 1159.52   1
   9  -2  -5 112.252 350.969   1
  -9   2   6 3555.74 677.083  -2
  -9   2   5 3555.74 677.083   1
   9   2  -4 1393.81 681.134  -2
   9   2  -5 1393.81 681.134   1
   9  -2  -4 71.1766 353.739   1
   9  -2  -5 33.6256 488.889  -2
   9  -2  -4 33.6256 488.889   1
   9   2  -3 174.732 177.593  -2
   9   2  -4 174.732 177.593   1
   9  -2  -3 1094.55 304.662   1
   9  -2  -4 1628.69 495.955  -2
   9  -2  -3 1628.69 495.955   1
  -9  -2   2 2682.51 644.579  -2
  -9  -2   3 2682.51 644.579   1
   9  -2  -3 10496.1 284.139  -2
   9  -2  -2 10496.1 284.139   1
   9   2  -1 9068.65 162.200  -2
   9   2  -2 9068.65 162.200   1
   9  -2  -2 1670.93 268.150  -2
   9  -2  -1 1670.93 268.150   1
   9   2   0 751.927 327.970  -2
   9   2  -1 751.927 327.970   1
   9  -2  -1 3186.39 282.262  -2
   9  -2   0 3186.39 282.262   1
   9   2   1 3485.83 154.538  -2
   9   2   0 3485.83 154.538   1
   9  -2   0 1410.22 289.576  -2
   9  -2   1 1410.22 289.576   1
   9   2   2 1216.35 635.448  -2
   9   2   1 1216.35 635.448   1
   9  -2   1 7.92268 319.639  -2
   9  -2   2 7.92268 319.639   1
   9   2   3-116.858 619.497  -2
   9   2   2-116.858 619.497   1
   9  -2   2-57.7577 553.953  -2
   9  -2   3-57.7577 553.953   1
   9   2   4 375.808 191.162  -2
   9   2   3 375.808 191.162   1
   9   2   4 3869.01 318.291   1
  -9  -2  -5 101.060 311.011   1
  -9  -2  -6 2780.47 329.612   1
  -9  -2  -7 185.575 347.998   1
  -9  -2  -8 2273.56 369.799   1
  -9   2  -9-111.850 416.167   1
  -9  -1 -10 174.452 1121.62  -2
  -9  -2  -9 174.452 1121.62   1
  -9   2 -10 336.083 479.170   1
  -9  -1 -11 77.3371 794.414  -2
  -9  -2 -10 77.3371 794.414   1
   9  -2  11 171.840 959.040   1
  -9  -1 -12 382.243 788.022  -2
  -9  -2 -11 382.243 788.022   1
   9  -3   9 832.843 798.815  -2
   9  -2  11 832.843 798.815   1
  -9  -3  11 544.334 832.727   1
   9  -2 -13 226.748 192.868  -2
   9  -3 -11 226.748 192.868   1
   9   3 -10 448.209 515.903   1
   9  -2 -12 527.801 884.323  -2
   9  -3 -10 527.801 884.323   1
   9  -3  -9 3631.01 421.392   1
   9   3  -8 1461.70 403.354   1
   9  -3  -7 1059.86 343.084   1
   9  -3  -6 78.7887 337.603   1
   9   3  -5 69.6838 357.022   1
   9   3  -4 7123.71 378.299   1
  -9   3   6 5841.03 1145.76  -2
  -9   3   4 5841.03 1145.76   1
   9  -3  -3 8275.05 470.386   1
  -9   3   5 9128.28 556.477  -2
  -9   3   3 9128.28 556.477   1
   9   3  -1 9949.32 396.862  -2
   9   3  -3 9949.32 396.862   1
   9  -3  -4 2055.09 361.649  -2
   9  -3  -2 2055.09 361.649   1
   9   3   0 996.486 340.509  -2
   9   3  -2 996.486 340.509   1
  -9   3   3 3323.56 367.880  -2
  -9   3   1 3323.56 367.880   1
   9   3   1 2355.05 491.659  -2
   9   3  -1 2355.05 491.659   1
   9  -3  -2 1586.99 119.199  -2
   9  -3   0 1586.99 119.199   1
   9   3   2 2364.85 691.427  -2
   9   3   0 2364.85 691.427   1
   9   3   1 2061.30 635.253   1
   9  -3  -1 1948.49 113.194  -2
   9  -3   1 1948.49 113.194   1
   9   3   2 1547.16 628.885   1
  -9   3   0 1237.47 437.276  -2
  -9   3  -2 1237.47 437.276   1
   9   3   3 1644.00 669.465   1
  -9   3  -1 1386.54 443.369  -2
  -9   3  -3 1386.54 443.369   1
   9   3   4 26.7701 574.980   1
   9  -3   2 407.953 738.143  -2
   9  -3   4 407.953 738.143   1
   9   3   5 220.089 456.393   1
  -9  -3  -6 1881.20 447.763   1
  -9  -3  -7 507.156 465.434   1
  -9  -3  -8 335.293 519.695   1
  -9  -2  -9 691.459 1392.33  -2
  -9  -3  -8 691.459 1392.33   1
  -9  -3  -9 482.232 696.858   1
  -9  -2 -10 113.114 231.942  -2
  -9  -3  -9 113.114 231.942   1
   9   3  10 359.528 733.144   1
  -9  -2 -11 1285.76 1215.75  -2
  -9  -3 -10 1285.76 1215.75   1
   9  -4  -8-6.86409 407.332   1
   9  -4  -7 1846.71 409.391   1
  -9  -4   5 1467.93 1523.27  -2
  -9  -4   7 1467.93 1523.27   1
   9   4  -6-85.4047 481.917   1
  -9  -4   4 62.0466 295.429  -2
  -9  -4   6 62.0466 295.429   1
  -9   4   5 1119.90 553.556   1
   9   4  -3 1135.14 606.995  -2
   9   4  -5 1135.14 606.995   1
  -9   4   4 106.991 534.801   1
   9   4  -2 602.948 466.884  -2
   9   4  -4 602.948 466.884   1
   9  -4  -3 190.929 579.491   1
   9   4  -1 255.293 174.711  -2
   9   4  -3 255.293 174.711   1
   9  -4  -2 351.392 466.686   1
   9   4   0 962.795 736.812  -2
   9   4  -2 962.795 736.812   1
  -9   4   1 5602.66 470.326   1
   9   4   1 6744.86 196.248  -2
   9   4  -1 6744.86 196.248   1
  -9   4   2 984.919 509.012  -2
  -9   4   0 984.919 509.012   1
   9   4   2 203.620 592.171  -2
   9   4   0 203.620 592.171   1
  -9   4   1 982.206 537.002  -2
  -9   4  -1 982.206 537.002   1
   9   4   3 330.212 273.359  -2
   9   4   1 330.212 273.359   1
  -9   4  -2-59.0515 491.771   1
   9   4   4 583.300 782.042  -2
   9   4   2 583.300 782.042   1
   9   4   3 2507.08 415.913   1
   9   4   4 28.2178 492.639   1
  -9  -4  -5 711.997 629.177   1
   9   4   6 273.048 519.131   1
 -10  -1  12 5749.42 716.421  -2
 -10   0  12 5749.42 716.421   1
 -10   0  10 5595.95 734.599   1
  10   1 -10 6387.63 771.369  -2
  10   0 -10 6387.63 771.369   1
 -10   0   8 13880.4 405.769   1
 -10   0   6 9658.78 434.413   1
  10   0  -4 862.749 754.506   1
  10   0  -4 797.383 654.084  -2
  10   0  -4 797.383 654.084   1
  10   0  -2 3960.92 398.066  -2
  10   0  -2 3960.92 398.066   1
  10   0   0 22929.1 414.873  -2
  10   0   0 22929.1 414.873   1
  10   0   2 335.369 499.105  -2
  10   0   2 335.369 499.105   1
  10   0   4 50996.2 513.256   1
 -10   0  -6 1071.19 509.005   1
 -10   0  -8 3696.40 556.041   1
 -10   0 -10 122.873 593.304   1
 -10   1  13 734.555 176.472   1
 -10  -2  12 535.401 276.571  -2
 -10  -1  13 535.401 276.571   1
 -10   1  12 341.126 617.384   1
 -10  -2  11 1660.35 744.422  -2
 -10  -1  12 1660.35 744.422   1
 -10   1  11 132.397 355.127   1
  10   2 -10-15.5601 1133.33  -2
  10   1 -11-15.5601 1133.33   1
 -10  -1  10 1845.06 329.608   1
  10  -1  -9 4112.46 325.393   1
 -10   1   8 6977.19 323.196   1
 -10   1   7 4473.02 309.755   1
  10   1  -6 266.073 322.817   1
  10  -1  -5 2863.73 311.506   1
  10   1  -4 8203.94 455.546   1
  10  -1  -5 10944.2 684.528  -2
  10  -1  -4 10944.2 684.528   1
  10   1  -4 10135.3 667.225  -2
  10   1  -4 10135.3 667.225   1
  10  -1  -4 15976.6 373.872  -2
  10  -1  -3 15976.6 373.872   1
 -10  -1   3 15736.0 663.988  -2
 -10  -1   3 15736.0 663.988   1
  10  -1  -3 5050.70 406.504  -2
  10  -1  -2 5050.70 406.504   1
  10   1  -2 3764.76 482.142  -2
  10   1  -2 3764.76 482.142   1
  10  -1  -2 1216.47 401.685  -2
  10  -1  -1 1216.47 401.685   1
  10   1  -1 1696.83 483.550  -2
  10   1  -1 1696.83 483.550   1
  10  -1  -1 1206.71 459.216  -2
  10  -1   0 1206.71 459.216   1
  10   1   0 1473.87 491.122  -2
  10   1   0 1473.87 491.122   1
  10  -1   0 1737.71 486.582  -2
  10  -1   1 1737.71 486.582   1
  10   1   1 2248.66 485.181  -2
  10   1   1 2248.66 485.181   1
  10  -1   1 1643.03 474.275  -2
  10  -1   2 1643.03 474.275   1
  10   1   2 790.547 167.767  -2
  10   1   2 790.547 167.767   1
  10  -1   2 107.887 194.543  -2
  10  -1   3 107.887 194.543   1
  10   1   3 308.455 689.693  -2
  10   1   3 308.455 689.693   1
  10   1   4 494.383 366.439   1
 -10  -1  -5 609.219 346.078   1
 -10  -1  -6 512.431 358.175   1
 -10  -1  -7 318.055 370.399   1
 -10  -1  -8 80.2829 386.189   1
 -10  -1  -9 1569.47 176.771   1
 -10   2  -8 1935.85 941.334  -2
 -10   1  -9 1935.85 941.334   1
  10   1  10 216.080 658.571   1
 -10   0 -10 309.660 827.812  -2
 -10  -1 -10 309.660 827.812   1
 -10   2  -9-282.310 996.740  -2
 -10   1 -10-282.310 996.740   1
 -10  -1 -11 64.6315 217.089   1
 -10   2 -10 1067.18 1074.51  -2
 -10   1 -11 1067.18 1074.51   1
 -10   2  12-12.4641 694.688   1
 -10  -2  11 4975.18 588.863   1
  10  -1 -12 5013.04 894.873  -2
  10  -2 -11 5013.04 894.873   1
  10  -2 -10 153.214 464.037   1
  10  -2  -9 44.0526 440.065   1
  10   2  -8 324.024 382.748   1
  10  -2  -7 5523.49 353.860   1
 -10  -2   6 4095.92 1155.11  -2
 -10  -2   7 4095.92 1155.11   1
 -10   2   6 875.506 343.688   1
 -10  -2   5 2200.96 1179.05  -2
 -10  -2   6 2200.96 1179.05   1
  10  -2  -5 4884.90 339.729   1
  10   2  -4 5669.37 732.557  -2
  10   2  -5 5669.37 732.557   1
  10  -2  -4 337.925 409.149   1
 -10   2   5 1434.01 481.214  -2
 -10   2   4 1434.01 481.214   1
  10   2  -3 807.912 720.361  -2
  10   2  -4 807.912 720.361   1
  10  -2  -3 1303.46 492.833   1
  10  -2  -4 1773.95 476.501  -2
  10  -2  -3 1773.95 476.501   1
  10   2  -2 1266.11 489.332  -2
  10   2  -3 1266.11 489.332   1
  10  -2  -3 2798.94 356.204  -2
  10  -2  -2 2798.94 356.204   1
  10   2  -1 4096.82 514.452  -2
  10   2  -2 4096.82 514.452   1
  10  -2  -2 17889.2 365.445  -2
  10  -2  -1 17889.2 365.445   1
  10   2   0 17332.0 541.227  -2
  10   2  -1 17332.0 541.227   1
  10  -2  -1 4975.15 340.771  -2
  10  -2   0 4975.15 340.771   1
  10   2   1 1628.76 130.439  -2
  10   2   0 1628.76 130.439   1
  10  -2   0 480.547 351.442  -2
  10  -2   1 480.547 351.442   1
  10   2   2 670.067 698.040  -2
  10   2   1 670.067 698.040   1
  10  -2   1 1819.06 623.786  -2
  10  -2   2 1819.06 623.786   1
  10   2   3 1011.23 683.826  -2
  10   2   2 1011.23 683.826   1
  10  -2   2 3538.03 751.431  -2
  10  -2   3 3538.03 751.431   1
  10   2   4 3196.22 740.252  -2
  10   2   3 3196.22 740.252   1
  10   2   4 89.1121 447.048   1
 -10   2  -5 2270.44 385.262   1
 -10  -2  -6 45.8548 367.610   1
 -10  -2  -7 221.861 387.332   1
 -10  -2  -8 169.467 401.552   1
 -10   2  -9 2066.72 452.705   1
 -10  -1 -10 3159.56 1137.50  -2
 -10  -2  -9 3159.56 1137.50   1
 -10   2 -10 188.126 509.397   1
 -10  -1 -11 1040.53 1261.25  -2
 -10  -2 -10 1040.53 1261.25   1
  10  -3   8 695.180 1396.28  -2
  10  -2  10 695.180 1396.28   1
  10  -3 -10 581.479 497.603   1
  10  -3  -9 1872.74 509.035   1
  10   3  -8 823.186 432.082   1
  10   3  -7 130.629 414.960   1
  10   3  -6 104.806 365.599   1
  10  -3  -5 1702.37 380.517   1
 -10   3   7 518.458 241.169  -2
 -10   3   5 518.458 241.169   1
  10  -3  -4 2302.54 423.824   1
 -10   3   6 2972.92 1241.19  -2
 -10   3   4 2972.92 1241.19   1
  10   3  -3 2916.94 418.980   1
  10  -3  -5 3171.63 820.788  -2
  10  -3  -3 3171.63 820.788   1
 -10   3   4 1493.58 830.656  -2
 -10   3   2 1493.58 830.656   1
  10   3   0 1427.66 545.794  -2
  10   3  -2 1427.66 545.794   1
 -10   3   3 1136.68 579.833  -2
 -10   3   1 1136.68 579.833   1
  10   3   1 1409.58 542.471  -2
  10   3  -1 1409.58 542.471   1
  10   3   0 1109.37 683.726   1
 -10   3   2 1066.30 130.954  -2
 -10   3   0 1066.30 130.954   1
  10   3   1 1448.62 676.737   1
  10  -3  -1 1112.32 181.215  -2
  10  -3   1 1112.32 181.215   1
  10   3   2 1371.09 696.881   1
  10  -3   0 1624.91 617.424  -2
  10  -3   2 1624.91 617.424   1
  10   3   3 198.989 737.414   1
  10  -3   1 417.958 648.991  -2
  10  -3   3 417.958 648.991   1
  10   3   4-24.3170 637.656   1
  10  -3   2-110.138 791.781  -2
  10  -3   4-110.138 791.781   1
  10   3   5 462.561 493.106   1
  10   3   6 494.742 502.182   1
 -10  -3  -7 59.5231 503.505   1
  10  -3   8 348.360 561.482   1
 -10  -2  -9 1412.25 1462.69  -2
 -10  -3  -8 1412.25 1462.69   1
  10   4  -6 1801.13 757.541   1
 -10  -4   4 2503.92 1618.20  -2
 -10  -4   6 2503.92 1618.20   1
  10   4  -5 268.177 531.416   1
  10   4  -3-20.4597 912.047  -2
  10   4  -5-20.4597 912.047   1
  10  -4  -4-45.8478 616.146   1
  10   4  -2 212.724 252.080  -2
  10   4  -4 212.724 252.080   1
  10  -4  -3 140.141 621.599   1
  10   4  -1 132.260 525.082  -2
  10   4  -3 132.260 525.082   1
 -10   4   2 227.489 628.223   1
  10   4   0 881.752 797.214  -2
  10   4  -2 881.752 797.214   1
 -10   4   1-143.007 620.869   1
  10   4   1 248.207 213.267  -2
  10   4  -1 248.207 213.267   1
 -10   4   0 1543.08 893.769   1
  10   4   2 1249.40 823.617  -2
  10   4   0 1249.40 823.617   1
  10  -4  -2 450.521 743.794  -2
  10  -4   1 450.521 743.794   1
  10   4   3 583.743 795.808  -2
  10   4   1 583.743 795.808   1
 -10  -4  -2-221.115 628.590   1
  10   4   4 485.375 979.052  -2
  10   4   2 485.375 979.052   1
  10   4   3-163.578 525.953   1
  10   4   4 705.510 534.905   1
 -11   0  11 4619.19 825.792   1
  11   1 -11 6720.13 874.664  -2
  11   0 -11 6720.13 874.664   1
 -11   0   9 47.7212 540.943   1
 -11   0   7 9023.66 769.725   1
  11   0  -5 11679.9 884.882   1
  11   0  -5 15121.1 756.832  -2
  11   0  -5 15121.1 756.832   1
  11   0  -3 3385.40 444.712  -2
  11   0  -3 3385.40 444.712   1
  11   0  -1 19412.6 550.022  -2
  11   0  -1 19412.6 550.022   1
  11   0   1 767.136 531.604  -2
  11   0   1 767.136 531.604   1
  11   0   3 53.8524 224.559  -2
  11   0   3 53.8524 224.559   1
 -11   0  -5 1376.19 533.768   1
 -11   0  -7 1384.38 574.968   1
 -11   0  -9 626.496 632.704   1
 -11   1  11 1016.68 398.906   1
  11   2 -10 1689.95 1203.97  -2
  11   1 -11 1689.95 1203.97   1
 -11   1  10 870.470 390.492   1
  11  -1  -9 3001.73 383.044   1
 -11   1   8 3654.10 347.706   1
  11   1  -7 211.539 362.780   1
  11  -1  -6 1899.32 414.150   1
  11  -1  -5 3317.35 424.455   1
  11   1  -5 3630.86 753.557  -2
  11   1  -5 3630.86 753.557   1
  11  -1  -4 2040.54 397.338   1
  11  -1  -5 3031.54 748.501  -2
  11  -1  -4 3031.54 748.501   1
  11   1  -4 2062.48 729.637  -2
  11   1  -4 2062.48 729.637   1
  11  -1  -3 1128.42 689.054   1
  11  -1  -4 1017.76 480.621  -2
  11  -1  -3 1017.76 480.621   1
  11   1  -3 1092.59 531.004  -2
  11   1  -3 1092.59 531.004   1
  11  -1  -3 454.273 401.046  -2
  11  -1  -2 454.273 401.046   1
  11   1  -2 33.5289 528.590  -2
  11   1  -2 33.5289 528.590   1
  11  -1  -2 385.968 442.837  -2
  11  -1  -1 385.968 442.837   1
  11   1  -1 188.075 546.324  -2
  11   1  -1 188.075 546.324   1
  11  -1  -1-39.1124 439.306  -2
  11  -1   0-39.1124 439.306   1
  11   1   0 365.123 548.221  -2
  11   1   0 365.123 548.221   1
  11  -1   0 2975.20 442.974  -2
  11  -1   1 2975.20 442.974   1
  11   1   1 3127.89 530.855  -2
  11   1   1 3127.89 530.855   1
  11  -1   1 7266.75 558.313  -2
  11  -1   2 7266.75 558.313   1
  11   1   2 7608.40 739.070  -2
  11   1   2 7608.40 739.070   1
  11  -1   2 1687.47 709.412  -2
  11  -1   3 1687.47 709.412   1
  11   1   3 834.380 762.551  -2
  11   1   3 834.380 762.551   1
  11   1   4-114.789 485.083   1
 -11   1  -5 221.623 412.965   1
 -11  -1  -6 2878.33 390.382   1
 -11  -1  -7 2665.35 406.915   1
 -11  -1  -8 681.708 218.500   1
  11   1   9 194.238 582.598   1
 -11   0  -9 295.362 876.398  -2
 -11  -1  -9 295.362 876.398   1
 -11   2  -8-100.722 1108.25  -2
 -11   1  -9-100.722 1108.25   1
  11  -2 -10 910.861 491.591   1
  11  -2  -9-22.9997 602.197   1
  11   2  -8 771.873 454.763   1
  11  -2  -7 76.3961 465.693   1
 -11  -2   6 340.911 1252.49  -2
 -11  -2   7 340.911 1252.49   1
  11   2  -6 5144.44 496.105   1
 -11  -2   5 4221.06 1268.39  -2
 -11  -2   6 4221.06 1268.39   1
  11  -2  -5 109.628 550.297   1
  11  -2  -6 492.957 1068.45  -2
  11  -2  -5 492.957 1068.45   1
  11   2  -4 117.373 784.303  -2
  11   2  -5 117.373 784.303   1
  11  -2  -4 899.735 465.075   1
  11  -2  -5 1816.95 767.453  -2
  11  -2  -4 1816.95 767.453   1
  11   2  -3 1209.43 552.855  -2
  11   2  -4 1209.43 552.855   1
  11  -2  -3 323.816 538.350   1
  11  -2  -4 859.498 755.284  -2
  11  -2  -3 859.498 755.284   1
  11   2  -2 1354.83 542.637  -2
  11   2  -3 1354.83 542.637   1
  11  -2  -3 4911.95 427.898  -2
  11  -2  -2 4911.95 427.898   1
  11   2  -1 4507.33 564.240  -2
  11   2  -2 4507.33 564.240   1
  11  -2  -2 1277.82 489.136  -2
  11  -2  -1 1277.82 489.136   1
  11   2   0 1558.28 569.812  -2
  11   2  -1 1558.28 569.812   1
  11  -2  -1 6324.03 493.258  -2
  11  -2   0 6324.03 493.258   1
  11   2   1 6008.05 196.432  -2
  11   2   0 6008.05 196.432   1
  11  -2   0 1512.32 481.636  -2
  11  -2   1 1512.32 481.636   1
  11   2   2 584.056 718.502  -2
  11   2   1 584.056 718.502   1
  11  -2   1 1257.61 663.198  -2
  11  -2   2 1257.61 663.198   1
  11   2   3 1547.82 752.040  -2
  11   2   2 1547.82 752.040   1
  11  -2   2 262.821 841.012  -2
  11  -2   3 262.821 841.012   1
  11   2   4 284.872 797.879  -2
  11   2   3 284.872 797.879   1
  11   2   4 1072.72 538.646   1
 -11  -2  -5 928.059 1362.93  -2
 -11  -2  -4 928.059 1362.93   1
  11   2   5-167.106 508.543   1
  11   2   6 100.050 438.567   1
 -11   2  -7 194.928 417.703   1
  11   2   8-8.74246 538.091   1
  11  -3  -7 220.744 529.457   1
  11   3  -6-92.1034 505.742   1
  11  -3  -5 46.6812 433.706   1
 -11   3   7 116.313 1397.90  -2
 -11   3   5 116.313 1397.90   1
  11  -3  -4 1552.21 396.806   1
 -11   3   6 846.781 252.620  -2
 -11   3   4 846.781 252.620   1
  11   3  -3 2224.51 472.977   1
 -11   3   5 2260.71 919.256  -2
 -11   3   3 2260.71 919.256   1
  11   3  -2 329.367 559.568   1
 -11   3   4 817.156 922.330  -2
 -11   3   2 817.156 922.330   1
 -11   3   3 279.290 943.364  -2
 -11   3   1 279.290 943.364   1
  11   3   0 766.300 617.963  -2
  11   3  -1 766.300 617.963   1
  11   3   0 1228.20 748.131   1
 -11   3   2 1038.47 220.795  -2
 -11   3   0 1038.47 220.795   1
  11   3   1 880.085 714.995   1
 -11   3   1 209.477 216.492  -2
 -11   3  -1 209.477 216.492   1
  11   3   2 1041.48 765.027   1
 -11   3   0 1636.90 999.924  -2
 -11   3  -2 1636.90 999.924   1
  11   3   3 271.423 794.669   1
  11  -3   1 1396.34 1006.91  -2
  11  -3   3 1396.34 1006.91   1
  11   3   4 191.099 696.242   1
 -11   3  -2-120.498 848.735  -2
 -11   3  -4-120.498 848.735   1
  11  -3   5-43.0358 586.685   1
 -11   3  -3 9.38640 1474.24  -2
 -11   3  -5 9.38640 1474.24   1
 -12   0  10 2489.27 1234.93   1
  12   0  -8 1673.12 807.422   1
  12   0  -6 6867.51 715.833   1
 -12   0   6 7770.32 1375.36  -2
 -12   0   6 7770.32 1375.36   1
  12   0  -4 252.393 580.740   1
 -12   0   4-276.025 794.000  -2
 -12   0   4-276.025 794.000   1
  12   0  -2 2592.67 591.835  -2
  12   0  -2 2592.67 591.835   1
  12   0   0 195.619 215.057  -2
  12   0   0 195.619 215.057   1
  12   0   2 179.884 800.487  -2
  12   0   2 179.884 800.487   1
  12   0   4 2704.50 910.132   1
 -12   0  -4 3865.91 1416.45  -2
 -12   0  -4 3865.91 1416.45   1
 -12   0  -6-123.498 589.222   1
  12  -1  -9 3548.71 702.603   1
  12  -1  -8 744.484 513.481   1
  12   1  -7 393.413 453.732   1
  12  -1  -6 41.2810 407.346   1
  12  -1  -5 1915.59 409.697   1
 -12   1   6 2929.49 1494.28  -2
 -12   1   5 2929.49 1494.28   1
  12   1  -5 2278.89 830.191  -2
  12   1  -5 2278.89 830.191   1
  12   1  -4 1940.97 384.226   1
  12  -1  -5 2179.89 836.033  -2
  12  -1  -4 2179.89 836.033   1
  12   1  -4 3239.20 809.521  -2
  12   1  -4 3239.20 809.521   1
  12  -1  -4 2658.99 455.559  -2
  12  -1  -3 2658.99 455.559   1
  12   1  -3 2835.78 588.636  -2
  12   1  -3 2835.78 588.636   1
  12  -1  -3 1522.72 447.508  -2
  12  -1  -2 1522.72 447.508   1
  12   1  -2 1478.24 598.644  -2
  12   1  -2 1478.24 598.644   1
  12  -1  -2 62.0734 187.997  -2
  12  -1  -1 62.0734 187.997   1
  12   1  -1 776.308 605.820  -2
  12   1  -1 776.308 605.820   1
  12  -1  -1 2598.57 603.687  -2
  12  -1   0 2598.57 603.687   1
  12   1   0 2489.19 602.245  -2
  12   1   0 2489.19 602.245   1
  12  -1   0 2717.24 600.491  -2
  12  -1   1 2717.24 600.491   1
  12   1   1 2487.63 602.786  -2
  12   1   1 2487.63 602.786   1
  12  -1   1 3214.11 806.475  -2
  12  -1   2 3214.11 806.475   1
  12   1   2 2333.53 827.116  -2
  12   1   2 2333.53 827.116   1
  12  -1   2 1583.91 802.424  -2
  12  -1   3 1583.91 802.424   1
  12   1   3 894.928 823.035  -2
  12   1   3 894.928 823.035   1
  12   1   4 214.729 583.971   1
 -12   1  -3 763.649 1457.02  -2
 -12   1  -4 763.649 1457.02   1
  12   1   5 503.266 545.266   1
  12   1   6-14.1996 549.798   1
 -12  -1  -7 327.977 566.742   1
  12   2  -8 112.055 1037.88   1
 -12  -2   7 156.647 274.077  -2
 -12  -2   8 156.647 274.077   1
  12  -2  -7 1446.87 641.223   1
 -12  -2   6 636.782 1355.40  -2
 -12  -2   7 636.782 1355.40   1
  12   2  -6-44.6443 536.650   1
 -12  -2   5 1252.44 1373.95  -2
 -12  -2   6 1252.44 1373.95   1
  12   2  -5 1370.41 481.796   1
  12  -2  -6 2302.66 1213.91  -2
  12  -2  -5 2302.66 1213.91   1
 -12  -2   4 2014.28 857.076  -2
 -12  -2   5 2014.28 857.076   1
  12  -2  -4 205.330 670.182   1
  12  -2  -5 410.004 872.100  -2
  12  -2  -4 410.004 872.100   1
  12   2  -3 359.287 612.948  -2
  12   2  -4 359.287 612.948   1
  12  -2  -3 349.339 937.792   1
  12  -2  -4 415.531 246.071  -2
  12  -2  -3 415.531 246.071   1
  12   2  -2 988.845 614.409  -2
  12   2  -3 988.845 614.409   1
  12  -2  -3 1175.68 575.006  -2
  12  -2  -2 1175.68 575.006   1
  12   2  -1 1330.50 614.536  -2
  12   2  -2 1330.50 614.536   1
  12  -2  -2 2507.07 575.071  -2
  12  -2  -1 2507.07 575.071   1
  12   2   0 1821.99 622.609  -2
  12   2  -1 1821.99 622.609   1
 -12   2   1 372.493 680.155  -2
 -12   2   0 372.493 680.155   1
  12   2   1-19.5888 628.055  -2
  12   2   0-19.5888 628.055   1
 -12   2   0 149.796 652.998  -2
 -12   2  -1 149.796 652.998   1
  12   2   2 257.877 780.747  -2
  12   2   1 257.877 780.747   1
  12   2   3 898.004 845.382  -2
  12   2   2 898.004 845.382   1
  12   2   3 270.916 966.663   1
 -12  -2  -4-21.9809 1481.37  -2
 -12  -2  -3-21.9809 1481.37   1
  12   2   4 82.5953 808.280   1
 -12  -2  -5 1153.90 1493.09  -2
 -12  -2  -4 1153.90 1493.09   1
 -12  -2  -5 504.931 963.832   1
  12   3  -3 181.451 465.201   1
 -12   3   2-96.2265 1358.94   1
  12   3  -1 474.714 648.052  -2
  12   3  -2 474.714 648.052   1
 -12   3   3 1261.50 1055.94  -2
 -12   3   1 1261.50 1055.94   1
  12   3   0 432.497 886.154  -2
  12   3  -1 432.497 886.154   1
 -12  -3   0 1114.46 1584.92   1
  12  -3  -2 148.907 236.623  -2
  12  -3   0 148.907 236.623   1
  12   3   1 978.028 986.289  -2
  12   3   0 978.028 986.289   1
  12   3   1-142.295 794.684   1
 -12   3   1-336.670 1090.07  -2
 -12   3  -1-336.670 1090.07   1
 -13   0   7 3256.70 693.912   1
  13   0  -5 39.7005 674.058   1
 -13   0   5-90.0118 897.723  -2
 -13   0   5-90.0118 897.723   1
  13   0  -3 235.808 255.460  -2
  13   0  -3 235.808 255.460   1
  13   0  -1 1456.79 637.389  -2
  13   0  -1 1456.79 637.389   1
  13   0   1 270.660 671.212  -2
  13   0   1 270.660 671.212   1
  13   0   3 936.464 880.492  -2
  13   0   3 936.464 880.492   1
  13   0   5 546.372 835.562   1
  13  -1  -6 106.372 372.284   1
 -13  -1   6-212.134 1496.01  -2
 -13  -1   6-212.134 1496.01   1
  13   1  -5 749.863 441.619   1
 -13   1   6 662.581 1545.87  -2
 -13   1   5 662.581 1545.87   1
  13   1  -5 1800.83 905.238  -2
  13   1  -5 1800.83 905.238   1
  13   1  -4 1523.68 476.469   1
  13  -1  -5 2874.18 906.305  -2
  13  -1  -4 2874.18 906.305   1
 -13  -1   4 2128.05 895.307  -2
 -13  -1   4 2128.05 895.307   1
  13  -1  -4 1819.11 566.694  -2
  13  -1  -3 1819.11 566.694   1
  13   1  -3 1941.22 560.212  -2
  13   1  -3 1941.22 560.212   1
  13  -1  -3 652.722 547.121  -2
  13  -1  -2 652.722 547.121   1
  13   1  -2 820.882 668.070  -2
  13   1  -2 820.882 668.070   1
  13  -1  -2 297.349 253.411  -2
  13  -1  -1 297.349 253.411   1
  13   1  -1 91.6783 659.990  -2
  13   1  -1 91.6783 659.990   1
  13  -1  -1 417.128 670.416  -2
  13  -1   0 417.128 670.416   1
  13   1   0 148.618 636.389  -2
  13   1   0 148.618 636.389   1
  13  -1   0 1228.35 681.343  -2
  13  -1   1 1228.35 681.343   1
  13   1   1 1361.98 867.776  -2
  13   1   1 1361.98 867.776   1
  13  -1   1 1733.59 885.041  -2
  13  -1   2 1733.59 885.041   1
  13   1   2 1519.64 909.504  -2
  13   1   2 1519.64 909.504   1
  13  -1   2 752.365 889.330  -2
  13  -1   3 752.365 889.330   1
  13   1   3-344.187 903.849  -2
  13   1   3-344.187 903.849   1
  13   1   4 202.287 650.051   1
 -13   1  -3-525.750 1513.23  -2
 -13   1  -4-525.750 1513.23   1
 -13  -2   3 201.749 844.666   1
  13   2  -2 74.5465 637.331  -2
  13   2  -3 74.5465 637.331   1
  13  -2  -3 934.830 868.028  -2
  13  -2  -2 934.830 868.028   1
  13   2  -1 974.128 681.316  -2
  13   2  -2 974.128 681.316   1
 -13  -2   1 406.001 1493.70   1
 -13   2   2 523.776 746.478  -2
 -13   2   1 523.776 746.478   1
  13   2   0 230.912 734.390  -2
  13   2  -1 230.912 734.390   1
 -13  -2   0-313.223 1480.27   1
 -13   2   1 59.1729 735.632  -2
 -13   2   0 59.1729 735.632   1
  13   2   1 295.528 1008.29  -2
  13   2   0 295.528 1008.29   1
  13   2   1 22.8570 813.179   1
   0   0   2 1388.27 26.0713   2
   0   0   4 68983.3 367.257   2
   0   0  -6 12999.6 101.504   2
   0   0   8 1476.45 184.575   2
   0   0  10 5771.14 240.940   2
   0   0  18 77.9453 638.631   2
   0   1   1 366.905 15.4489   2
   0   1  -2 3454.90 23.1604   2
   0   1  -3 9071.46 38.2302   2
   0   1   4 664.049 35.8247   2
   0  -1   5 7345.71 44.2443   2
   0  -1   6 4950.00 55.9032   2
   0  -1  -7 14622.6 82.7644   2
   0  -1  -8 4586.03 82.3042   2
   0   1   9 2168.13 89.7690   2
   0   1  10 34.0390 104.004   2
   0   1  11 803.657 103.257   2
   0  -1  12 2093.63 184.902   2
   0  -1  13 543.749 141.959   2
   0  -1  15 126.752 165.891   2
   0  -1  17 119.270 203.940   2
   0   2  -1 15905.3 78.4483   2
   0   2  -2 234.218 80.1415   2
   0   2  -3 135.893 49.3141   2
   0   2   4 722.313 48.7692   2
   0  -2  -5 29722.9 90.2377   2
   0  -2  -6 1461.00 64.6101   2
   0  -2  -7 2853.49 87.0696   2
   0  -2   8 769.699 92.4064   2
   0  -2   9 4215.78 105.795   2
   0  -2  10 365.045 150.036   2
   0   2  11 2041.27 163.008   2
   0   2  12 36.9444 259.751   2
   0   2  13 52.2998 495.415   2
   0  -2  17 220.982 420.267   2
   0   3  -1 2278.71 88.8196   2
   0   3   2 5192.33 37.2619   2
   0   3   3 2370.32 78.8400   2
   0  -3   4 5508.20 113.590   2
   0  -3   5 32.7079 70.0869   2
   0   3   6 461.651 78.9068   2
   0  -3   7 3664.50 101.533   2
   0   3   8 2344.73 111.691   2
   0  -3   9 193.784 122.360   2
   0   3 -10 325.627 135.837   2
   0   3 -11 180.167 162.581   2
   0   3 -12 175.554 232.262   2
   0  -3  16 215.738 426.984   2
   0   4  -2 152.323 161.431   2
   0   4  -3 8.73756 153.521   2
   0   4  -4 1005.79 99.0793   2
   0  -4   5-77.1320 135.745   2
   0   4   6 562.665 109.472   2
   0  -4   7-10.1200 143.723   2
   0  -4   8 15.0237 168.040   2
   0  -4   9-46.0275 210.553   2
   0  -4  10 1050.26 228.811   2
   0  -4 -11-0.45679 290.872   2
   0   4  12 118.090 307.150   2
   0   4  13 86.6216 329.567   2
   0   5  -1 247.012 369.983   2
   0   5  -2 992.838 372.922   2
   0   5  -3 1224.80 127.168   2
   0   5  -4 137.581 289.597   2
   0   5  -5-19.7975 254.020   2
   0   5   6 92.0544 227.665   2
   0  -5   7 52.8340 215.338   2
   0  -5   8 44.8824 206.014   2
   0  -5   9 431.343 275.907   2
   0   5  10 127.925 341.112   2
   0   5  11-176.237 326.950   2
   0   6  -2 81.4822 348.286   2
   0   6  -3-34.8111 354.586   2
   0   6  -4 41.2055 360.275   2
   0   6  -5 208.638 321.225   2
   0   6  -6-6.59935 284.963   2
  -1   0  11 5557.04 255.358   2
  -1   0   9 12404.5 329.764   2
  -1   0   7 3761.56 91.2646   2
   1   0  -5 40898.8 154.218   2
   1   0  -3 415.800 35.5995   2
  -1   0   1 2548.25 30.8933   2
   1   0   1 16616.2 88.7971   2
  -1   0  -3 5553.31 49.0230   2
  -1   0  -5 19988.4 79.6087   2
  -1   0  -7 6582.81 95.1763   2
   1   0   9 8716.90 183.202   2
   1   0  11 2440.77 273.571   2
  -1  -1  16-39.5171 180.431   2
  -1  -1  14 529.872 147.972   2
  -1  -1  12 1315.62 149.137   2
   1  -1 -11 533.296 162.155   2
   1  -1 -10 2641.73 126.942   2
  -1   1   9 6129.00 143.493   2
  -1   1   8 5403.11 127.503   2
  -1   1   7 3323.58 82.3367   2
  -1   1   6 13.7057 54.2527   2
   1   1  -5 2539.02 42.9190   2
   1   1  -4 1732.01 36.1699   2
  -1  -1   3 30597.9 162.213   2
   1  -1  -2 58009.8 179.069   2
   1   1  -1 3555.97 25.5203   2
  -1   1   0 1487.54 19.5035   2
  -1   1  -1 4412.60 23.8885   2
   1   1   2 104390. 222.041   2
  -1  -1  -3 124758. 287.762   2
  -1   1  -4 976.075 34.8283   2
  -1   1  -5 1105.87 41.9705   2
  -1  -1  -6 4280.73 58.5114   2
   1  -1   7 15911.8 82.7185   2
   1  -1   8 3476.82 99.5521   2
  -1   1  -9 1840.59 107.990   2
   1   1  10 1155.55 119.218   2
   1   1  11 427.028 137.809   2
   1  -1  12 1451.94 119.370   2
   1  -1  14 458.577 154.404   2
   1  -1  16 5.70781 249.184   2
  -1   2  13-172.509 481.741   2
  -1   2  12 676.799 254.716   2
  -1  -2  11 62.8005 186.537   2
  -1   2  10 7043.85 131.283   2
  -1  -2   9 68.9089 127.958   2
  -1  -2   8 544.408 114.942   2
  -1  -2   7 313.824 73.3591   2
   1  -2  -6 9065.15 66.7060   2
  -1   2   5 202.320 53.4111   2
   1  -2  -4 27347.7 62.2853   2
   1   2  -3 244.262 46.1425   2
  -1  -2   2 17510.1 205.528   2
  -1   2   1 26458.1 74.2311   2
   1  -2   1 518.630 68.8178   2
  -1   2  -2 1240.19 58.0548   2
   1  -2   3 3261.66 56.2192   2
  -1  -2  -4 5820.24 57.5844   2
  -1  -2  -5 1555.05 59.4356   2
   1  -2   6 7282.92 86.9358   2
  -1  -2  -7 3532.90 89.3241   2
  -1  -2  -8 46.1326 89.3367   2
   1  -2   9 26.6598 95.3153   2
  -1  -2 -10 4881.20 120.830   2
  -1  -2 -11 303.470 192.202   2
  -1  -2 -12 287.102 234.570   2
   1   2  13 95.8930 298.626   2
   1   2  17-33.2817 302.117   2
  -1   3  12 569.870 258.500   2
  -1  -3  11-5.04335 188.850   2
  -1  -3  10 26.9730 154.340   2
  -1  -3   9 798.937 146.820   2
  -1   3   8 1321.90 105.072   2
   1  -3  -7 3506.77 87.9107   2
   1  -3  -6 1789.55 66.5997   2
  -1  -3   5 432.219 73.8598   2
  -1  -3   4 3467.84 122.157   2
  -1   3   3 2825.83 65.4125   2
  -1   3   2 4196.59 40.9059   2
  -1   3   1 1497.08 59.8611   2
  -1   3  -2 2315.18 92.2497   2
   1  -3   3 3555.32 82.6150   2
   1  -3   4 1589.20 96.7799   2
   1   3   5-33.5352 70.8496   2
   1   3   6 177.059 94.0533   2
   1   3   7 2917.73 106.887   2
   1  -3   8 3286.03 125.402   2
  -1   3  -9 61.3236 129.236   2
  -1   3 -10 18.0407 139.742   2
   1   3  11 40.4267 199.655   2
   1  -3  12 369.100 231.680   2
   1  -3  13 497.578 351.210   2
   1  -3  15 405.612 401.268   2
  -1   4  12 101.460 314.015   2
   1  -4 -11 827.915 298.369   2
  -1  -4  10-50.0654 224.802   2
  -1  -4   9 388.007 209.826   2
  -1  -4   8-31.9101 169.235   2
  -1  -4   7 1183.93 158.090   2
  -1  -4   6 452.769 134.189   2
  -1  -4   5 1921.78 136.745   2
   1   4  -4 127.858 111.781   2
   1   4  -3 368.702 79.4375   2
   1   4  -2 39.9959 59.8916   2
  -1   4   1 7123.30 85.0531   2
  -1   4   0 138.834 130.195   2
  -1   4  -1 1997.25 206.696   2
  -1   4  -2 169.816 158.058   2
  -1   4  -3 321.375 156.598   2
  -1   4  -4 218.485 138.191   2
   1  -4   5 5161.90 140.028   2
  -1   4  -6 993.427 111.594   2
  -1   4  -7 42.4148 120.576   2
  -1   4  -8-51.9981 114.740   2
   1  -4   9 558.155 212.276   2
   1  -4  10-46.1875 233.245   2
   1   4  11 233.080 282.798   2
  -1  -4 -12 183.989 302.110   2
   1   4  13 2.95234 324.964   2
  -1   5  11 188.769 370.444   2
  -1   5  10 30.9640 345.539   2
  -1  -5   9 46.5742 262.656   2
  -1  -5   8 232.376 181.747   2
  -1  -5   7 358.207 188.076   2
   1   5  -6 65.1861 186.401   2
   1   5  -5 54.6491 199.950   2
   1   5  -4-30.2897 205.720   2
   1   5  -3 168.604 282.250   2
   1   5  -2 465.322 362.335   2
  -1   5  -1-24.3259 345.584   2
  -1   5  -2 73.6826 367.152   2
  -1   5  -3 117.667 276.598   2
  -1   5  -4-59.4282 286.744   2
  -1   5  -5 59.6746 256.727   2
  -1   5  -6-28.4141 226.222   2
   1  -5   7 121.017 215.188   2
   1  -5   8 246.973 205.119   2
   1  -5   9-67.0219 274.041   2
   1   5  10 87.0349 339.085   2
   1   5  11 201.753 369.994   2
  -1   6   6-66.2695 400.650   2
   1   6  -5 58.4824 267.312   2
   1   6  -4 161.040 255.040   2
   1   6  -3 210.713 353.888   2
   1   6  -2-18.1080 463.827   2
  -1   6  -1 33.8421 347.147   2
  -1   6  -2 66.6991 342.767   2
  -1   6  -3-52.5644 350.552   2
  -1   6  -4 231.888 374.212   2
  -1   6  -5-62.4134 326.404   2
  -2   0  18 187.404 426.641   2
  -2   0  10 9947.07 154.540   2
  -2   0   8 151.749 123.332   2
  -2   0   6 29271.1 95.0694   2
   2   0  -4 661.580 46.9580   2
   2   0  -2 3440.26 49.2808   2
   2   0   2 3138.48 141.362   2
   2   0   4 48116.2 223.798   2
   2   0   6 20968.1 119.823   2
   2   0   8 1009.08 101.839   2
   2   0  10 6346.39 108.942   2
  -2  -1  17-237.778 195.462   2
  -2  -1  15 382.048 159.414   2
   2   1 -13 1991.18 136.456   2
  -2  -1  12 589.554 258.998   2
  -2   1  11 57.7261 90.0581   2
  -2   1  10 98.1561 100.024   2
  -2   1   9 5998.04 76.6562   2
  -2   1   8 7666.66 78.0617   2
  -2   1   7 10726.2 72.0912   2
  -2  -1   6 6786.54 49.1194   2
  -2  -1   5 1334.96 38.9391   2
  -2   1   4 10183.8 41.0618   2
  -2   1   3 28581.6 93.5156   2
   2   1  -2 44812.6 155.882   2
   2  -1  -1 15292.2 43.0295   2
  -2   1   0 5443.40 21.3036   2
   2  -1   1 16379.6 51.7179   2
  -2  -1  -2 1914.62 26.5277   2
   2  -1   3 20660.7 53.5913   2
  -2  -1  -4 2833.44 39.0581   2
  -2   1  -5 1638.14 47.0572   2
  -2   1  -6 762.322 64.4357   2
  -2   1  -7 8338.93 92.4204   2
   2  -1   8 2946.46 100.030   2
   2  -1   9 3312.35 135.019   2
  -2  -1 -10-19.7636 144.761   2
   2  -1  11 477.828 174.396   2
  -2  -1 -12 2580.13 316.062   2
   2  -1  13 980.637 201.800   2
   2  -1  15 226.697 165.057   2
   2  -1  17 97.8879 204.307   2
  -2   2  17 113.173 339.564   2
  -2   2  13 299.239 453.383   2
  -2   2  12 10.1946 231.322   2
  -2  -2  11 2640.09 178.978   2
  -2   2  10-30.5873 121.081   2
  -2  -2   9 3415.42 101.792   2
  -2   2   8 711.050 79.7236   2
  -2   2   7 3844.80 68.2621   2
   2  -2  -6 899.663 62.0636   2
   2  -2  -5 12411.9 63.8533   2
  -2  -2   4 128.119 42.7716   2
   2   2  -3-21.4774 120.233   2
  -2   2   1 12627.4 112.056   2
   2  -2   1 21107.4 88.7710   2
  -2   2  -2 711.093 41.2346   2
  -2   2  -3 3058.65 51.2015   2
  -2   2  -4 475.255 60.3590   2
  -2   2  -5 28074.6 91.6570   2
   2  -2   6 5324.65 89.2815   2
  -2   2  -7 223.414 83.5573   2
  -2   2  -8 323.296 91.6302   2
   2   2   9 2363.67 104.385   2
   2  -2  10 474.888 128.713   2
  -2  -2 -11 844.865 224.624   2
  -2  -2 -12-18.0462 246.431   2
   2   2  13-61.0906 390.931   2
  -2   3  12 475.796 230.283   2
  -2   3  11 106.723 188.136   2
  -2   3  10 575.535 141.440   2
  -2  -3   9 430.583 135.465   2
  -2   3   8 3080.85 116.013   2
   2  -3  -7 2307.77 79.2105   2
  -2  -3   6 638.684 66.7821   2
  -2  -3   5 439.773 119.596   2
  -2  -3   4 9105.23 132.435   2
  -2  -3   3 949.349 117.079   2
   2   3  -2 2373.56 108.760   2
   2   3  -1 3355.50 184.381   2
  -2   3  -2 2347.07 83.8589   2
  -2   3  -3 3058.57 45.7162   2
   2   3   4 4233.14 84.5636   2
   2  -3   5 1105.79 82.3782   2
   2   3   6 113.604 93.9952   2
   2   3   7 1542.19 105.593   2
   2  -3   8 7093.92 129.544   2
   2  -3   9 382.317 125.583   2
   2  -3  10 67.3895 124.863   2
   2  -3  11-53.4479 156.554   2
   2  -3  12 458.390 203.143   2
  -2   3 -14 229.405 516.031   2
   2  -3  15-83.4025 411.634   2
  -2   4  12 45.3858 384.257   2
  -2   4  11 64.2213 268.119   2
  -2  -4  10 1072.15 223.447   2
  -2  -4   9 164.738 207.978   2
  -2  -4   8-12.4399 168.876   2
  -2  -4   7-14.9899 154.674   2
  -2  -4   6 1554.27 148.146   2
  -2  -4   5 59.6159 137.569   2
   2   4  -4 2134.42 124.927   2
   2   4  -3-10.4704 127.871   2
   2   4  -2 698.450 118.876   2
  -2   4  -1 43.0780 133.346   2
  -2   4  -2-20.8311 141.925   2
  -2   4  -3 27.9505 150.575   2
   2  -4   4 340.218 139.198   2
   2  -4   5 9.64940 132.583   2
   2  -4   6 803.898 115.438   2
   2  -4   7-38.4706 121.122   2
   2   4   8-13.6029 121.141   2
  -2  -4  -9 48.4191 157.880   2
  -2  -4 -10 1014.50 164.362   2
   2   4  11-118.975 277.213   2
   2   4  12 73.7029 347.627   2
   2   4  13 149.015 375.354   2
  -2   5  11 69.8155 366.222   2
  -2   5  10-12.4477 344.717   2
  -2  -5   9 415.647 196.973   2
  -2  -5   8 116.258 185.234   2
   2   5  -7-71.7309 198.263   2
   2   5  -6 29.4562 188.903   2
   2   5  -5 79.6042 197.923   2
   2   5  -4 76.8894 207.669   2
   2   5  -3 309.023 201.331   2
   2   5  -2 377.489 218.753   2
   2   5  -1 212.075 260.489   2
   2   5   0 108.967 266.334   2
  -2   5  -1 264.608 339.688   2
  -2   5  -2 735.991 284.405   2
  -2   5  -3 853.012 286.177   2
  -2   5  -4 83.5490 249.504   2
  -2   5  -5 73.7596 258.244   2
   2   5   6 218.594 233.852   2
  -2   5  -7 70.7486 244.196   2
  -2   5  -8 165.163 218.677   2
   2   5   9 103.589 315.120   2
   2   5  10-46.3139 464.472   2
   2   6  -5 162.608 270.412   2
   2   6  -4-24.9715 256.609   2
   2   6  -3 1.45890 255.771   2
   2   6  -2-82.7723 479.968   2
  -2   6   0-15.2326 346.155   2
  -2   6  -1 119.347 344.060   2
  -2   6  -2 122.392 345.629   2
  -2   6  -3 102.512 357.116   2
  -2   6  -4 15.5242 375.097   2
  -2   6  -5 22.6249 331.595   2
  -3   0  11 9929.53 184.296   2
  -3   0   9 879.227 155.657   2
  -3   0   7 9039.69 94.5307   2
   3   0  -5 24373.7 82.3185   2
   3   0  -3 1369.89 67.9912   2
   3   0   1 68790.1 409.491   2
  -3   0  -3 40964.6 195.750   2
  -3   0  -5 7088.18 119.969   2
  -3   0  -7 1248.03 105.235   2
  -3   0  -9 2677.24 140.195   2
   3   0  11 2571.84 181.140   2
   3   1 -16 317.780 176.732   2
  -3  -1  14 675.099 146.706   2
  -3  -1  12 808.687 117.914   2
  -3   1  11 562.513 179.521   2
  -3   1  10 675.684 88.9078   2
  -3   1   9 3416.62 104.632   2
  -3   1   8 7559.23 87.6261   2
  -3   1   7 7445.06 59.4937   2
   3   1  -6 1086.39 59.3310   2
   3  -1  -5 404.339 46.4602   2
   3  -1  -4 6784.17 46.5597   2
   3  -1  -3 30905.6 80.0629   2
   3  -1  -2 12234.3 36.0112   2
   3  -1  -1 198.572 30.4495   2
   3  -1   0 1497.57 27.8730   2
   3   1   1 10855.9 31.2656   2
  -3  -1  -2 22772.5 52.5381   2
   3  -1   3 17173.1 39.6675   2
   3  -1   4 4183.82 45.6958   2
   3  -1   5 3442.84 61.9157   2
  -3  -1  -6 2595.96 72.7972   2
   3  -1   7 6244.97 91.7401   2
   3  -1   8 3796.19 108.278   2
  -3   1  -9 1547.56 126.454   2
   3  -1  10 38.1994 136.020   2
   3  -1  11 394.653 163.672   2
   3  -1  12 147.013 109.703   2
   3  -1  14 118.032 158.338   2
   3  -1  16-83.6327 190.534   2
   3   2 -17-47.3705 280.157   2
  -3   2  13-23.3424 236.598   2
  -3   2  12 1851.26 221.398   2
  -3  -2  11 314.734 168.623   2
  -3   2  10 5604.49 149.009   2
  -3   2   9 22.8355 95.6032   2
  -3   2   8 360.352 81.3706   2
  -3   2   7 1028.03 71.1934   2
  -3   2   6 12705.4 72.8439   2
  -3   2   5-17.5030 59.1280   2
   3  -2  -4 10262.7 59.1660   2
  -3  -2   3 159.100 71.6865   2
   3  -2   0 15528.3 74.1111   2
   3  -2   1 3039.70 114.920   2
   3  -2   2 879.020 47.3097   2
  -3   2  -3 170.259 44.4499   2
   3  -2   4 5679.37 74.4435   2
   3   2   5 35.1874 77.0995   2
   3  -2   6 11360.4 95.9362   2
   3   2   7 855.391 90.9992   2
   3   2   8 661.964 97.6863   2
   3   2   9 53.0573 114.205   2
   3   2  10 4847.96 157.130   2
  -3  -2 -11 1131.29 237.709   2
   3   2  12-47.3359 375.423   2
  -3   3  12 413.376 443.218   2
  -3   3  11 77.4685 210.449   2
  -3   3  10 330.551 125.010   2
  -3   3   9 439.272 115.052   2
   3  -3  -8 1689.30 103.293   2
  -3  -3   7 2453.46 80.3808   2
   3  -3  -6 720.169 50.0422   2
  -3  -3   5 193.501 131.292   2
  -3  -3   4 5134.89 133.936   2
   3   3  -3 2040.69 153.304   2
   3   3  -2 1510.88 121.573   2
   3   3  -1 2775.12 210.760   2
  -3   3  -2 2293.39 67.0915   2
  -3   3  -3 4999.42 70.8086   2
   3  -3   4 2.44715 69.3722   2
   3   3   5-12.3766 82.6925   2
  -3  -3  -6 414.443 91.5757   2
   3  -3   7 846.252 119.158   2
  -3   3  -8 3050.39 118.039   2
   3  -3   9-72.7340 123.531   2
   3  -3  10 224.363 166.017   2
   3  -3  11 168.880 164.878   2
   3   3  12 319.419 372.131   2
   3  -3  13 69.9042 407.942   2
  -3   3 -14 9.35518 511.718   2
   3  -3  15-128.546 418.222   2
  -3   4  13-17.4868 503.016   2
  -3   4  12 66.1526 377.571   2
  -3   4  11 377.577 267.602   2
  -3  -4  10-5.23866 195.506   2
  -3   4   9 572.530 180.161   2
  -3  -4   8 17.2189 166.353   2
  -3  -4   7 774.246 159.922   2
  -3  -4   6 233.308 147.618   2
   3   4  -5 1369.67 141.148   2
   3   4  -4-8.90160 130.090   2
   3   4  -3-15.8938 146.234   2
   3   4  -2 81.1171 162.489   2
  -3   4  -1 1210.74 107.895   2
  -3   4  -2-4.94493 124.769   2
  -3   4  -3 866.731 227.464   2
  -3   4  -4 140.056 207.135   2
   3  -4   5 2806.02 147.988   2
   3  -4   6 488.732 116.801   2
   3  -4   7 2.90906 119.598   2
   3  -4   8-2.94331 122.856   2
   3  -4   9 232.138 155.437   2
  -3  -4 -10 113.734 194.910   2
   3   4  11 307.505 204.517   2
   3   4  12 282.753 350.247   2
   3   4  13-260.488 440.008   2
  -3  -5  10 117.932 226.796   2
  -3  -5   9 46.2141 200.572   2
   3   5  -8 182.396 197.383   2
   3   5  -7 55.5900 202.900   2
   3   5  -6-54.2105 191.541   2
   3   5  -5 34.4420 198.961   2
   3   5  -4 141.377 214.816   2
   3   5  -3 226.724 207.918   2
   3   5  -2 356.414 232.674   2
  -3   5  -1 123.107 344.824   2
  -3   5  -2 200.629 282.448   2
  -3   5  -3 42.6813 289.878   2
  -3   5  -4 207.389 256.420   2
  -3   5  -5 104.803 260.790   2
  -3   5  -6 56.6156 236.568   2
  -3   5  -7 94.2412 250.072   2
  -3   5  -8 137.465 259.124   2
   3   5   9 180.474 446.135   2
   3   5  10 73.9754 479.849   2
   3   6  -4 97.4557 263.907   2
   3   6  -3-8.33893 260.925   2
   3   6  -2-80.5499 368.592   2
  -3   6   1 55.1894 359.370   2
  -3   6   0 118.462 354.741   2
  -3   6  -1 77.0792 349.066   2
  -3   6  -2 5.19846 354.250   2
  -3   6  -3 59.9191 372.423   2
  -3   6  -4 84.4507 368.876   2
  -4   0  10 6009.37 190.574   2
  -4   0   8 56.4632 104.440   2
  -4   0   6 32458.0 97.9142   2
   4   0  -4 18371.8 104.988   2
   4   0  -2 7635.58 192.751   2
   4   0   2 135.666 173.122   2
   4   0   4 29173.0 105.383   2
  -4   0  -6 11555.9 119.693   2
  -4   0  -8 3855.14 128.722   2
  -4   0 -10 3329.69 172.307   2
   4   1 -17-47.0198 196.681   2
  -4  -1  15-268.751 156.894   2
  -4  -1  13 1165.43 136.106   2
  -4   1  12 390.343 401.273   2
   4  -1 -11 176.625 110.501   2
  -4   1  10 593.589 126.414   2
  -4   1   9 7039.88 113.872   2
  -4   1   8 3919.29 62.9749   2
  -4  -1   7 1756.51 79.6929   2
   4  -1  -6 154.474 57.4539   2
   4  -1  -5 4584.60 47.8529   2
   4  -1  -4 3717.50 42.9424   2
   4  -1  -3 7529.53 42.1287   2
   4  -1  -2 9148.60 39.9550   2
   4  -1  -1 4515.08 45.2558   2
   4  -1   0 3330.81 40.4007   2
   4   1   1 18321.1 41.6038   2
   4   1   2 3057.02 39.1734   2
  -4   1  -3 2209.61 40.3413   2
  -4   1  -4 9997.00 64.9574   2
  -4   1  -5 801.173 66.8150   2
   4  -1   6 3865.54 79.7188   2
   4  -1   7 510.800 84.6355   2
  -4  -1  -8 1967.01 104.592   2
  -4   1  -9 2415.26 128.666   2
  -4  -1 -10 256.080 146.070   2
   4  -1  11 233.635 147.100   2
  -4  -1 -12 489.292 379.241   2
   4  -1  13 769.259 127.586   2
   4  -1  15 44.2799 183.069   2
  -4   2  14 4.52337 288.066   2
  -4   2  13 224.039 237.455   2
  -4   2  12 99.6048 220.144   2
  -4  -2  11 2613.73 146.293   2
  -4   2  10 32.2590 136.137   2
  -4   2   9 2867.03 98.5080   2
   4  -2  -8-6.82974 94.3757   2
  -4   2   7 4382.20 75.2193   2
  -4   2   6-22.4570 64.7943   2
  -4   2   5 16508.1 71.4272   2
  -4  -2   4 0.66549 76.5594   2
   4  -2  -3 103.803 60.1353   2
   4  -2  -2 1759.77 60.4917   2
  -4   2  -2 3809.90 55.6073   2
  -4   2  -3 2773.90 52.9179   2
  -4   2  -4 40.6491 64.4699   2
   4  -2   5 10988.3 84.7282   2
   4   2   6 539.069 84.2831   2
  -4   2  -7 17.1892 91.8527   2
  -4   2  -8 98.3517 104.782   2
   4   2   9 883.480 147.463   2
   4  -2  10 32.6136 188.790   2
  -4  -2 -11 1140.17 251.726   2
   4   2  12-95.5533 381.258   2
   4   2  16-88.1539 261.420   2
  -4   3  12 227.571 224.888   2
  -4   3  11 116.231 179.834   2
  -4  -3  10 922.318 132.731   2
  -4   3   9 386.441 128.941   2
  -4   3   8 1571.07 98.2899   2
  -4   3   7 2426.64 85.2804   2
  -4   3   6 437.759 109.018   2
  -4  -3   5 1008.93 141.537   2
  -4  -3   4 4936.59 139.276   2
   4   3  -3 1710.95 174.665   2
  -4   3   2 1846.50 45.6356   2
   4  -3  -1 1716.89 113.331   2
   4  -3   1 2294.40 114.608   2
  -4   3  -2 1492.67 75.0525   2
  -4   3  -3 2058.53 74.0102   2
   4   3   4 326.299 73.4313   2
   4   3   5 85.4279 72.1206   2
   4   3   6 348.445 91.5634   2
   4  -3   7 1224.03 108.784   2
   4  -3   8 2312.76 112.320   2
   4  -3   9-4.67011 128.254   2
   4  -3  10 55.6270 161.534   2
  -4  -3 -11 95.5650 237.782   2
  -4   3 -14 128.836 524.866   2
  -4   4  12 152.958 586.824   2
  -4   4  11-5.12106 330.051   2
  -4  -4  10 581.167 219.629   2
  -4  -4   9 45.2998 207.881   2
  -4  -4   8 117.873 169.970   2
  -4  -4   7 14.1281 184.267   2
   4   4  -6 916.475 156.640   2
   4   4  -5 104.789 143.728   2
   4   4  -4 463.337 139.284   2
   4   4  -3-8.31564 164.105   2
   4   4  -2 247.170 234.017   2
  -4   4  -2-14.2599 117.753   2
   4  -4   3 101.080 127.629   2
   4  -4   4 720.629 133.297   2
   4  -4   5 79.6381 128.850   2
   4  -4   6 556.543 110.956   2
   4  -4   7 166.803 118.978   2
   4   4   8 54.3203 136.738   2
  -4  -4  -9-30.4548 190.616   2
  -4  -4 -10 125.271 226.067   2
  -4  -4 -11 25.2728 243.767   2
  -4  -4 -12 30.8420 275.649   2
  -4  -5  10 25.0668 232.380   2
  -4  -5   9 164.590 202.079   2
   4   5  -8 116.425 217.295   2
   4   5  -7 115.474 204.499   2
   4   5  -6-20.6309 192.615   2
   4   5  -5 28.6072 206.976   2
   4   5  -4 169.844 223.826   2
   4   5  -3 305.470 218.232   2
   4   5  -2 377.820 260.168   2
  -4   5  -2 357.938 285.016   2
  -4   5  -3 285.018 291.708   2
  -4   5  -4-72.5373 257.862   2
  -4   5  -5 44.4137 273.435   2
  -4   5  -6 160.292 239.059   2
  -4   5  -7 54.8347 249.990   2
  -4   5  -8-60.0476 266.195   2
   4   5   9 83.9894 465.069   2
   4   6  -3 178.080 373.332   2
   4   6  -2 57.2620 369.472   2
   4   6  -1 39.0352 255.353   2
  -4   6   0 29.0398 361.126   2
  -4   6  -1 52.4130 360.143   2
  -4   6  -2-33.3695 368.082   2
  -5   0  11 7132.19 272.561   2
  -5   0   9 3691.57 128.756   2
  -5   0   7 14614.5 93.1914   2
  -5   0   5 5362.94 117.524   2
   5   0  -3 3007.19 132.532   2
  -5   0  -3 15260.3 355.521   2
   5   0   5 2190.44 83.7392   2
   5   0   7 2530.99 128.084   2
   5   0   9 849.079 200.218   2
   5   0  11 1969.76 274.078   2
  -5  -1  16 231.237 173.183   2
  -5  -1  14 1197.78 147.894   2
  -5  -1  12 72.3235 130.890   2
  -5   1  11 14.0544 164.535   2
  -5   1  10 1583.66 109.259   2
  -5   1   9 5066.51 127.851   2
  -5   1   8 3177.37 94.6452   2
  -5   1   7 4316.08 74.9519   2
  -5   1   6 1768.18 54.4527   2
   5  -1  -5 1882.29 45.1717   2
   5  -1  -4 13082.4 55.6812   2
   5  -1  -3 19135.7 56.9766   2
   5  -1  -2 13529.4 63.5538   2
   5  -1  -1 2314.75 103.439   2
   5  -1   0 2145.00 68.9354   2
   5  -1   1 7601.84 54.8654   2
   5   1   2 18395.2 60.4991   2
   5   1   3 7314.77 63.8093   2
  -5   1  -4 1264.31 54.9332   2
  -5   1  -5 1499.53 68.0305   2
  -5   1  -6 4772.71 92.3619   2
   5  -1   7 3458.82 96.1268   2
  -5   1  -8 2471.46 104.638   2
   5   1   9 117.789 129.654   2
   5  -1  10 181.319 137.287   2
   5  -1  11 536.787 220.545   2
   5  -1  12 186.934 132.902   2
   5  -1  14 296.508 141.933   2
   5  -1  16 136.227 217.933   2
  -5   2  15 12.8054 318.460   2
  -5   2  14 261.156 293.824   2
  -5   2  13 32.8266 238.081   2
  -5   2  12 1278.54 225.750   2
   5  -2 -11 148.193 151.329   2
   5  -2 -10 2370.57 143.683   2
  -5  -2   9 28.7943 107.391   2
  -5   2   8 14.7151 93.2035   2
  -5   2   7 928.531 78.9434   2
  -5   2   6 7377.01 78.6193   2
  -5  -2   5 483.397 79.7577   2
  -5  -2   4 5746.09 99.1109   2
   5  -2  -3 2657.17 63.4057   2
   5  -2  -2 9830.31 93.0128   2
   5  -2   2-17.3917 68.8172   2
   5  -2   3-1.23819 57.8719   2
  -5   2  -4 3650.43 78.8082   2
  -5   2  -5-20.0831 76.3111   2
   5  -2   6 2518.49 89.6904   2
  -5   2  -7-10.0788 98.2869   2
   5   2   8 511.807 120.586   2
   5  -2   9 301.765 158.237   2
   5  -2  10 1010.59 186.117   2
  -5  -2 -11 300.278 281.202   2
   5   2  12 51.6148 421.950   2
  -5   3  15 73.3423 515.498   2
  -5   3  12 217.632 269.795   2
  -5  -3  11 84.1562 176.030   2
  -5   3  10 396.409 129.699   2
  -5  -3   9 699.313 121.445   2
  -5   3   8 848.919 119.501   2
  -5   3   7 1031.68 114.278   2
  -5   3   6 210.369 106.272   2
  -5  -3   5 725.641 145.066   2
  -5   3   4 1482.45 92.4129   2
   5   3  -3 1741.22 196.672   2
   5   3  -2 729.310 152.812   2
   5  -3   1 1450.36 167.713   2
  -5   3  -2 2347.71 80.1145   2
  -5   3  -3 2088.95 79.3750   2
  -5   3  -4 2.28578 95.9432   2
  -5   3  -5 98.0422 90.6826   2
  -5  -3  -6 588.150 95.8566   2
  -5  -3  -7 1238.96 113.376   2
   5  -3   8 222.739 122.501   2
   5  -3   9 208.877 129.943   2
   5  -3  10 71.4591 212.611   2
  -5  -3 -11 92.3986 291.031   2
   5  -3  14-123.847 405.627   2
  -5   4  12 50.1246 459.266   2
  -5   4  11 663.135 328.828   2
  -5  -4  10-17.6242 223.376   2
  -5  -4   9 249.291 192.841   2
   5   4  -8-35.7008 165.351   2
  -5  -4   7 1197.24 166.739   2
   5   4  -6 80.3235 147.188   2
   5   4  -5 1161.22 167.279   2
   5   4  -4 9.31136 161.533   2
   5   4  -3-47.3439 178.705   2
   5   4  -2 50.9457 274.273   2
  -5   4  -2 54.4509 277.107   2
  -5   4  -3 356.088 212.963   2
  -5   4  -4 87.9862 135.546   2
  -5   4  -5 835.472 144.877   2
   5   4   6 102.520 131.456   2
   5   4   7 0.20861 144.674   2
   5   4   8 69.5938 176.891   2
  -5  -4  -9 239.450 202.253   2
  -5  -4 -10-39.7719 235.259   2
  -5  -4 -11 10.3281 284.699   2
  -5  -4 -12-17.9781 330.042   2
  -5   5   9 14.9240 262.525   2
   5   5  -8 140.306 217.199   2
   5   5  -7-24.3065 208.997   2
   5   5  -6-15.8691 223.441   2
   5   5  -5-27.1601 216.904   2
   5   5  -4 39.6427 235.921   2
   5   5  -3 8.56305 233.525   2
   5   5  -2 233.356 273.577   2
  -5   5  -1 93.7497 360.442   2
  -5   5  -2 68.2544 295.537   2
  -5   5  -3-19.9388 297.648   2
  -5   5  -4 61.7933 266.246   2
   5   5   5 49.3469 215.782   2
  -5   5  -6-16.8289 235.692   2
  -5   5  -7-60.5245 241.610   2
   5   5   8 102.745 367.845   2
  -6   0  10 1231.88 202.110   2
   6   0  -8 1507.43 76.5529   2
  -6   0   6 12372.5 149.892   2
   6   0  -4 7408.72 225.688   2
   6   0  -2 13510.4 120.999   2
   6   0   4 11779.1 174.047   2
   6   0   6 1372.67 82.8112   2
   6   0   8 1670.80 181.391   2
   6   0  10 923.780 296.291   2
  -6  -1  15-18.5749 162.947   2
  -6  -1  13 837.726 144.261   2
  -6   1  11 875.593 98.1235   2
  -6  -1  10 20.7112 156.635   2
  -6   1   9 6954.03 137.610   2
  -6   1   8 4130.57 71.3091   2
  -6   1   7 2135.34 46.0639   2
  -6   1   6 742.702 65.8429   2
   6  -1  -5 4245.22 75.8955   2
   6  -1  -4 5021.99 76.0686   2
   6  -1  -3 1784.28 92.6007   2
   6  -1  -2 4744.82 81.1712   2
   6   1  -1 3047.32 253.650   2
   6   1   1 2870.82 69.0116   2
   6   1   2 1045.63 66.8778   2
   6   1   3 7727.26 68.1724   2
  -6  -1  -4 434.909 78.7561   2
  -6  -1  -5 386.099 81.0993   2
  -6   1  -6 1676.55 73.2642   2
  -6  -1  -7 858.855 100.032   2
   6  -1   8 449.513 136.153   2
   6  -1   9 867.866 143.842   2
   6   1  10 37.3373 150.736   2
   6  -1  11 29.3218 201.878   2
   6  -1  13 339.199 145.532   2
   6  -1  15 82.3218 162.499   2
  -6   2  14-46.0838 296.344   2
  -6   2  13 257.519 246.312   2
   6  -2 -12 44.3290 230.838   2
  -6  -2  11 3157.64 160.169   2
  -6   2  10 120.651 135.632   2
  -6   2   9 111.145 99.6576   2
  -6   2   8 6.83529 94.1290   2
  -6   2   7 5185.13 84.9002   2
  -6   2   6 402.829 80.5141   2
  -6   2   5 4319.36 68.6036   2
   6  -2  -4 151.661 65.3229   2
   6  -2  -3 70.3422 87.4695   2
   6  -2   2 470.887 94.7991   2
   6  -2   3 1151.57 91.2160   2
   6  -2   4 11.5309 79.8998   2
   6  -2   5 5041.45 90.2412   2
   6   2   6-66.9980 112.643   2
   6  -2   7 45.9923 105.478   2
  -6   2  -8 71.6915 123.446   2
   6   2   9 1356.72 171.991   2
   6  -2  10 52.1029 212.930   2
  -6  -2 -11 204.364 302.458   2
   6   2  12 96.7272 467.899   2
  -6   3  12-267.414 536.110   2
  -6  -3  11 2.78367 237.601   2
  -6  -3  10 568.324 166.583   2
   6   3  -9 472.730 160.122   2
  -6  -3   8 1684.42 136.130   2
  -6  -3   7 260.429 125.004   2
  -6  -3   6 243.808 120.592   2
   6   3  -5 185.798 139.339   2
  -6  -3   4 3551.55 159.373   2
   6   3  -3 837.630 218.611   2
   6  -3  -2 1206.27 97.8483   2
   6  -3   0 761.122 157.798   2
   6  -3   1 1647.87 220.921   2
  -6   3  -2 1209.47 109.735   2
  -6   3  -3 176.250 110.131   2
   6   3   4 678.866 95.0296   2
   6  -3   5 302.121 101.918   2
  -6  -3  -6 91.1144 103.408   2
  -6  -3  -7 302.901 113.320   2
   6  -3   8 677.511 122.479   2
  -6  -3  -9-11.0052 186.097   2
   6  -3  10 24.6176 229.983   2
  -6  -3 -11 382.650 321.964   2
  -6   3 -13 52.8314 375.986   2
   6  -4 -12-15.6665 339.456   2
  -6   4  11-46.0253 305.949   2
  -6  -4  10 437.822 242.295   2
  -6  -4   9 137.645 221.888   2
   6   4  -8 26.6360 185.837   2
   6   4  -7 250.467 163.119   2
  -6  -4   6 965.647 171.530   2
  -6  -4   5 50.5250 179.845   2
   6   4  -4 188.771 171.416   2
   6   4  -3 25.7677 197.100   2
   6   4  -2 206.931 315.148   2
  -6   4  -2 78.1911 259.836   2
  -6   4  -3-11.0535 207.939   2
  -6   4  -4 603.439 211.906   2
   6   4   5 10.7259 174.903   2
   6   4   6 210.168 166.558   2
   6   4   7 26.2894 147.975   2
   6   4   8 90.8646 186.759   2
   6   4   9-56.8680 287.376   2
  -6  -4 -10 80.5627 307.738   2
  -6  -4 -11 167.828 330.487   2
   6   5  -8-84.6940 239.642   2
   6   5  -7-32.2726 234.503   2
   6   5  -6 38.1029 231.156   2
   6   5  -5 73.4926 224.092   2
   6   5  -4 71.8734 240.207   2
   6   5  -3 147.375 246.144   2
   6   5  -2 83.8019 294.346   2
  -6   5  -1 113.677 376.953   2
  -6   5  -2 124.915 302.713   2
  -6   5  -3 77.9433 281.917   2
  -6   5  -4-81.8028 256.964   2
   6  -5   5 117.299 206.192   2
   6  -5   6 142.115 195.078   2
   6  -5   7-19.1569 233.449   2
  -7   0  11 5611.43 229.256   2
  -7   0   9 1237.22 142.168   2
  -7   0   7 5949.31 165.721   2
  -7   0   5 7069.29 152.040   2
   7   0  -3 244.188 221.185   2
  -7   0  -3 11504.5 470.693   2
   7   0   5 3764.03 194.899   2
   7   0   7 10.5676 213.397   2
  -7   0  -9 867.031 239.344   2
   7   0  11 357.303 463.085   2
   7   0  15 216.825 362.260   2
  -7  -1  16-231.402 173.841   2
  -7  -1  14 501.723 153.712   2
  -7  -1  12 196.742 141.135   2
  -7   1  11 240.552 226.905   2
  -7   1  10 919.516 128.365   2
  -7   1   9 2984.74 129.920   2
  -7   1   8 1221.74 105.183   2
  -7   1   7 196.443 87.5745   2
  -7   1   6 57.5275 81.2384   2
  -7  -1   5 2621.91 87.5415   2
   7  -1  -4 3485.90 93.4489   2
   7  -1  -3 5336.63 121.833   2
   7   1  -2 1892.24 296.927   2
   7   1   1 5430.97 110.921   2
   7   1   2 4452.96 70.5388   2
   7   1   3 1639.95 84.8290   2
  -7  -1  -4 12.9302 81.6659   2
  -7  -1  -5 87.4680 85.4869   2
  -7  -1  -6 286.515 92.1562   2
  -7  -1  -7 1461.89 101.373   2
  -7  -1  -8 414.418 157.257   2
   7  -1   9-46.0616 155.644   2
   7  -1  10 122.327 161.893   2
   7  -1  11 232.815 244.327   2
   7  -1  12 77.8089 299.092   2
   7  -1  14-41.8466 162.798   2
   7  -2 -13-3.90719 260.467   2
  -7   2  12 817.986 215.743   2
  -7   2  11-15.3191 165.369   2
  -7   2  10 1546.58 141.942   2
  -7  -2   9 126.448 123.796   2
  -7   2   8-8.46780 106.592   2
  -7   2   7 1918.79 101.944   2
  -7   2   6 8069.85 83.4323   2
  -7   2   5 0.86189 72.7888   2
   7  -2  -4 1144.90 89.8358   2
   7  -2  -3 753.556 105.364   2
   7  -2   1 185.953 60.9569   2
   7  -2   2 2.31814 108.853   2
   7  -2   3 280.500 104.220   2
   7  -2   4 1475.24 93.6636   2
   7   2   5 718.023 97.3111   2
   7   2   6 1141.00 102.509   2
   7   2   7 20.1453 118.798   2
   7  -2   8 459.251 189.246   2
   7  -2   9-20.4106 197.117   2
   7  -2  10 357.867 229.631   2
  -7  -2 -11 78.1892 318.473   2
   7   2  12-92.8880 508.097   2
  -7  -2 -14 82.8762 375.858   2
  -7   3  12-62.5241 546.838   2
  -7  -3  11 26.3261 288.304   2
   7   3 -10 91.0662 184.882   2
  -7  -3   9 196.229 166.729   2
  -7  -3   8 1328.92 167.826   2
  -7  -3   7 151.215 157.397   2
   7   3  -6-5.29443 132.657   2
   7  -3  -5 149.258 132.160   2
  -7  -3   4 4235.07 168.970   2
   7   3  -3 743.694 242.747   2
   7   3  -2 124.510 181.834   2
   7  -3   1 806.242 232.968   2
  -7   3  -2 562.715 125.615   2
  -7   3  -3 265.717 119.105   2
   7   3   4 99.3159 116.802   2
   7   3   5 14.5547 113.550   2
   7   3   6 295.730 125.072   2
  -7  -3  -7 180.335 134.137   2
   7   3   8 323.222 168.221   2
  -7  -3  -9-43.7746 227.741   2
  -7  -3 -10 44.4524 254.171   2
  -7  -3 -11 95.2549 341.867   2
   7  -3  12 153.638 598.175   2
   7  -4 -11 181.416 392.373   2
  -7  -4  10 25.1139 250.038   2
  -7  -4   9 107.049 227.449   2
   7   4  -8-13.5496 205.905   2
  -7   4   7 482.785 191.648   2
  -7   4   6 159.182 181.843   2
   7   4  -5 135.001 161.917   2
   7   4  -4 21.1035 185.304   2
   7   4  -3 85.2202 214.703   2
   7   4  -2-87.1040 357.167   2
  -7   4  -2 149.467 218.819   2
  -7   4  -3 377.760 220.359   2
  -7   4  -4 24.3238 221.325   2
   7   4   5 332.009 169.542   2
   7   4   6 198.558 172.777   2
   7   4   7 9.12830 199.857   2
   7   4   8 3.95225 283.732   2
   7   4   9 81.3682 392.872   2
   7   4  10-12.1688 464.350   2
   7   5  -7-20.3988 246.046   2
   7   5  -6 5.41810 262.303   2
   7   5  -5 46.0661 291.349   2
   7   5  -4 50.6635 325.845   2
   7   5  -3-27.4841 319.703   2
   7   5  -2 70.5601 314.825   2
  -7   5  -1 95.5513 383.143   2
   7  -5   2 102.820 270.304   2
   7  -5   3-72.2908 273.793   2
   7  -5   4 105.264 247.713   2
   7  -5   5 137.599 220.370   2
  -8   0  10 2265.65 232.772   2
  -8   0   8 1639.46 199.757   2
  -8   0   6 6140.47 150.661   2
   8   0  -4 332.901 337.098   2
   8   0  -2 4781.92 138.109   2
   8   0   2 37.1731 214.044   2
   8   0   4 7481.86 219.144   2
  -8   0  -6 373.211 222.901   2
  -8   0  -8 84.0848 245.567   2
   8   0  10 420.315 495.948   2
   8   0  14-143.786 355.779   2
  -8  -1  15 155.487 171.863   2
  -8  -1  13 327.654 154.774   2
  -8   1  11-57.6057 112.801   2
  -8   1  10 274.671 159.267   2
  -8   1   9 2210.83 134.954   2
  -8   1   8 2723.74 125.612   2
  -8   1   7 946.469 110.049   2
  -8   1   6-7.70145 89.0521   2
  -8  -1   5 2613.99 90.3006   2
   8  -1  -4 2118.87 160.292   2
   8   1  -3 921.477 340.363   2
   8   1   1 1722.20 146.026   2
   8  -1   2 269.198 143.539   2
   8   1   3 1168.72 108.746   2
  -8  -1  -4 406.404 143.615   2
   8  -1   5 346.953 150.173   2
  -8  -1  -6 1180.77 158.265   2
  -8  -1  -7 488.223 167.893   2
  -8  -1  -8 105.531 174.282   2
  -8  -1  -9 132.302 180.121   2
   8  -1  10 36.7160 176.101   2
   8  -1  11 95.4214 251.579   2
   8  -1  12-5.94497 310.408   2
   8  -1  13 50.9302 337.436   2
  -8   2  12 11.7523 335.672   2
  -8  -2  11 1273.63 223.558   2
  -8   2  10 0.31914 163.257   2
   8  -2  -9-10.6986 128.757   2
  -8   2   8-63.8190 120.903   2
  -8   2   7 914.697 106.162   2
  -8   2   6 298.592 101.467   2
   8  -2  -5 2280.65 133.802   2
   8  -2  -4 341.819 109.338   2
   8  -2  -3 191.522 199.106   2
   8  -2   2 70.5409 121.342   2
   8  -2   3 1394.47 112.845   2
   8  -2   4-16.6140 120.615   2
   8  -2   5 713.974 141.091   2
   8   2   6 39.0111 153.965   2
   8  -2   7-26.6793 162.580   2
   8  -2   8 80.4648 202.923   2
   8  -2   9 273.831 219.015   2
   8  -2  10 101.103 251.098   2
   8   2  11 143.150 511.695   2
   8   2  12-100.605 567.292   2
  -8   3  12-127.129 437.644   2
  -8  -3  11 10.7016 300.033   2
  -8  -3  10 270.913 246.992   2
  -8  -3   9 503.429 212.337   2
  -8  -3   8 670.167 168.482   2
  -8   3   7-8.60337 160.333   2
   8   3  -6 46.1105 158.430   2
   8  -3  -5 69.3744 175.009   2
  -8  -3   4 2291.31 242.178   2
   8   3  -3 466.843 267.628   2
   8   3  -2 64.6970 233.897   2
   8  -3   0 416.969 243.451   2
  -8   3  -2 299.911 135.059   2
  -8   3  -3 75.3160 131.743   2
  -8   3  -4 237.465 126.397   2
   8   3   5 211.163 166.936   2
   8   3   6 176.736 178.909   2
  -8  -3  -7 31.7561 170.454   2
   8   3   8 351.351 177.342   2
   8   3   9 105.907 258.828   2
  -8  -3 -10 1.96363 302.106   2
  -8  -3 -11 16.4650 287.559   2
  -8  -4  10 84.2860 316.274   2
  -8   4   9-20.6723 293.606   2
   8   4  -8-19.8647 213.202   2
  -8   4   7 4.25093 205.177   2
  -8   4   6 651.439 194.623   2
   8   4  -5 70.8375 182.012   2
   8   4  -4-1.40023 237.008   2
   8   4  -3 216.269 287.534   2
   8   4  -2 158.658 390.827   2
  -8   4  -1 25.2062 228.966   2
  -8   4  -2 39.5516 229.133   2
  -8   4  -3 25.5773 233.710   2
  -8   4  -4 127.850 227.809   2
   8   4   5 0.04434 240.242   2
   8   4   6 92.6373 246.977   2
   8   4   7 116.719 306.386   2
   8   4   8 91.8915 348.153   2
   8   5  -4 57.8258 347.122   2
   8   5  -3-48.0140 247.612   2
   8   5  -2-35.8049 213.249   2
   8  -5   1 21.6538 281.260   2
   8  -5   2 112.599 282.233   2
   8  -5   3 11.0595 286.092   2
  -9   0  11 1377.26 254.367   2
  -9   0   9 228.156 191.091   2
  -9   0   7 2096.84 165.583   2
   9   0  -5 3562.17 316.914   2
  -9   0  -3 192.613 197.078   2
  -9   0  -5 24.5186 241.340   2
  -9   0  -7 113.367 263.311   2
   9   0   9 190.777 501.733   2
  -9   0 -13 101.123 414.099   2
  -9  -1  14 426.345 169.004   2
  -9   1  12 180.027 147.782   2
  -9   1  11 158.740 195.520   2
   9   1 -10 617.648 139.020   2
  -9   1   9 398.320 143.725   2
   9  -1  -8 1504.18 127.993   2
  -9  -1   7 258.309 111.728   2
  -9   1   6 356.996 110.957   2
   9  -1  -5 562.061 140.192   2
   9  -1  -4 638.904 133.956   2
   9   1  -3 1106.93 384.638   2
  -9   1  -3 77.9168 192.795   2
  -9  -1  -4 58.9973 161.088   2
   9  -1   5 182.308 170.769   2
   9   1   6 1216.38 175.331   2
  -9  -1  -7 426.015 182.187   2
  -9  -1  -8 59.5968 193.129   2
  -9  -1  -9 73.3409 201.678   2
   9  -1  10-16.3126 212.589   2
   9  -1  11 7.47871 272.889   2
   9  -1  12 27.3622 340.622   2
  -9   2  12 374.000 520.920   2
   9  -2 -11 82.6792 337.116   2
  -9  -2  10 699.914 236.601   2
  -9  -2   9 36.4722 173.029   2
  -9  -2   8 244.563 150.603   2
   9   2  -7 40.0243 157.170   2
   9  -2  -6 2981.05 146.016   2
   9  -2  -5-48.0129 141.557   2
   9  -2  -4 39.8990 150.939   2
   9   2  -3 33.8282 390.311   2
  -9   2  -2 69.5400 236.512   2
  -9   2  -3-20.8594 197.971   2
  -9   2  -4 376.613 202.611   2
  -9   2  -5 60.4130 182.623   2
  -9  -2  -6 383.362 183.386   2
  -9  -2  -7 23.7906 192.471   2
  -9  -2  -8 434.282 250.810   2
  -9  -2  -9 9.65988 289.206   2
  -9  -2 -10-58.3426 302.763   2
   9   2  11-119.982 430.540   2
  -9  -3  11 156.048 321.083   2
  -9  -3  10-54.9038 259.969   2
  -9  -3   9 442.370 224.344   2
   9  -3  -8 148.651 206.787   2
  -9  -3   7 137.806 199.297   2
   9   3  -6-1.63409 232.332   2
   9  -3  -5 47.2816 185.198   2
  -9  -3   4 692.983 262.394   2
   9   3  -3 959.717 205.785   2
   9   3  -2 121.053 232.465   2
   9  -3   2-1.58927 571.950   2
  -9   3  -3 131.577 156.481   2
  -9   3  -4 1.25322 178.029   2
  -9   3  -5 52.6835 184.298   2
  -9   3  -6 181.790 191.415   2
  -9   3  -7 37.3807 204.936   2
   9   3   8-1.98107 203.239   2
  -9  -3  -9 125.075 327.065   2
  -9  -3 -10 30.2724 237.528   2
   9   4  -8 0.96009 256.584   2
  -9   4   7 174.850 248.034   2
  -9   4   6-98.5451 243.402   2
   9  -4  -5-8.52223 180.662   2
   9  -4  -4 176.829 176.650   2
  -9   4   3 253.757 213.078   2
   9   4  -2 101.312 428.831   2
  -9   4   0 77.1365 240.472   2
  -9   4  -1-7.53710 241.826   2
   9  -4   2 34.7547 361.230   2
   9  -4   3 151.592 373.762   2
   9  -4   4-185.730 375.806   2
   9   4   5 97.3922 288.602   2
   9   4   6 63.2598 293.955   2
 -10   0  12 597.791 238.110   2
 -10   0  10 694.250 220.961   2
 -10   0   8 1659.95 205.105   2
  10   0  -6 1220.52 198.321   2
  10   0  -4 55.1355 434.969   2
  10   0   4 7822.58 268.373   2
 -10   0  -6 128.433 275.165   2
 -10   0  -8 540.881 305.901   2
  10   0  10-71.2342 595.851   2
 -10  -1  13 95.6205 174.419   2
 -10   1  12 173.989 500.603   2
  10   1 -11 33.1831 136.485   2
 -10  -1  10 230.624 197.532   2
 -10   1   9 446.164 157.965   2
 -10   1   8 855.791 141.638   2
  10   1  -7 544.850 146.018   2
  10  -1  -6 60.9912 159.965   2
  10  -1  -5 322.041 170.734   2
  10   1  -4 370.868 434.327   2
 -10   1  -3-62.4896 220.979   2
 -10   1  -4 92.1843 201.654   2
 -10  -1  -5 162.766 184.131   2
 -10  -1  -6 76.7230 194.859   2
 -10  -1  -7 107.229 205.893   2
 -10  -1  -8-40.0047 211.148   2
 -10  -1  -9 142.724 220.296   2
  10  -1  10-6.40685 252.178   2
  10  -1  11-1.14776 293.227   2
  10  -2 -11 508.135 402.534   2
 -10  -2  10-7.55046 255.081   2
 -10  -2   9-20.8063 217.816   2
  10  -2  -8-73.1139 201.162   2
  10   2  -7 716.110 198.705   2
  10  -2  -6 125.291 218.675   2
  10   2  -5 549.988 207.121   2
  10  -2  -4 78.2249 226.480   2
  10   2  -3-233.411 428.010   2
  10  -2   3 289.878 230.632   2
 -10   2  -4-73.9232 223.701   2
 -10   2  -5 277.365 206.436   2
 -10   2  -6 2.01309 218.491   2
 -10  -2  -7 16.7183 209.198   2
 -10  -2  -8 31.9855 267.345   2
 -10  -2  -9 283.309 313.720   2
 -10  -2 -10-38.7200 299.490   2
 -10   3  10-30.4018 806.660   2
  10  -3  -9 317.864 260.103   2
  10  -3  -8 99.1488 224.066   2
  10   3  -7-87.3656 234.482   2
  10   3  -6 39.2155 254.600   2
 -10  -3   5 172.542 290.277   2
 -10  -3   4 323.277 288.750   2
  10   3  -3 285.462 219.235   2
  10   3  -2 160.756 233.082   2
  10   3  -1 103.713 285.197   2
  10   3   2 213.939 338.754   2
  10   3   3 4.49621 261.551   2
  10   3   4 55.6255 321.758   2
  10   3   5 93.1292 331.603   2
  10   3   6 124.272 362.854   2
 -10   3  -7-34.4940 232.106   2
 -10   3  -8 108.518 278.598   2
  10  -4  -6 177.619 344.914   2
  10  -4  -5 13.8923 206.480   2
  10  -4  -4 51.7599 242.329   2
  10   4  -3 67.2072 231.688   2
  10  -4  -1 73.0606 357.383   2
  10  -4   0 223.459 359.453   2
  10  -4   1 109.462 368.348   2
  10  -4   2 1.74864 379.779   2
  10  -4   3-20.9654 394.981   2
  10  -4   4-132.723 404.001   2
 -11   0  11 543.295 295.225   2
 -11   0   9-16.1615 282.898   2
 -11   0   7 1075.54 352.925   2
  11   0  -5 274.893 501.950   2
 -11   0  -5 72.0169 286.604   2
 -11   0  -7 174.845 319.233   2
  11   0   9 144.365 604.482   2
 -11  -1  11 120.030 262.081   2
 -11  -1  10 41.4547 146.787   2
 -11  -1   9 411.288 190.790   2
  11  -1  -8 484.208 200.560   2
  11   1  -7 13.3055 170.208   2
  11  -1  -6 194.953 158.331   2
  11  -1  -5 340.252 230.510   2
  11  -1  -4 299.692 300.468   2
  11  -1   3 39.5948 361.528   2
 -11   1  -4 37.4230 220.683   2
 -11   1  -5-37.4074 229.476   2
 -11  -1  -6 339.286 211.749   2
 -11  -1  -7 454.648 222.921   2
 -11  -1  -8 46.9597 235.148   2
 -11  -1  -9-23.7247 245.977   2
 -11  -2  10 67.5921 288.127   2
  11  -2  -9 95.7598 271.468   2
  11  -2  -8 29.6244 238.638   2
  11   2  -7-5.19914 219.544   2
  11  -2  -6 321.390 258.423   2
  11   2  -5-0.39548 276.870   2
  11  -2  -4-11.8760 341.868   2
  11   2  -3 67.1264 482.847   2
  11  -2   3-2.26634 425.488   2
  11  -2   4-25.2217 243.098   2
 -11   2  -5 105.723 235.063   2
 -11   2  -6 66.0022 234.390   2
 -11   2  -7 36.6251 270.685   2
 -11  -2  -8 129.819 290.995   2
  11   3  -7 19.0950 254.428   2
  11  -3  -6-81.9582 280.364   2
 -11  -3   5 76.4390 308.948   2
  11   3  -4 142.932 311.980   2
  11   3  -3 225.946 257.238   2
  11   3  -2 140.551 260.223   2
  11   3  -1 123.974 315.352   2
  11   3   1 56.3956 427.028   2
  11   3   2 178.702 361.503   2
  11   3   3 37.9229 303.766   2
  11   3   4-67.1812 386.599   2
  11   3   5-108.904 390.317   2
  12   0 -10 269.636 541.172   2
  12   0  -8 160.612 388.023   2
  12   0  -6 509.655 277.976   2
  12   0  -4-45.6712 346.782   2
  12   0   4 114.309 543.651   2
 -12   0  -6 34.8164 324.591   2
  12  -1  -9 305.751 283.740   2
  12  -1  -8-27.7618 203.524   2
  12  -1  -7 39.4619 189.027   2
  12  -1  -6 137.813 184.379   2
  12   1  -5 161.498 223.007   2
  12   1  -4 136.092 339.115   2
  12  -1   3 236.549 507.496   2
  12   1   4 51.3886 309.848   2
  12   1   5 57.9091 249.870   2
 -12   1  -6-28.4308 260.124   2
 -12  -1  -7 24.0312 242.217   2
  12  -2  -8-170.173 650.189   2
  12  -2  -7 56.3899 259.823   2
  12  -2  -6-117.079 279.791   2
  12   2  -5 73.5840 307.170   2
  12   2  -4-109.201 303.899   2
  12   2  -3 58.6907 526.945   2
  12  -2   0 99.6509 447.827   2
  12  -2   1-140.993 463.945   2
  12  -2   3 146.462 492.205   2
  12   2   4-131.711 334.094   2
 -12   2  -5 64.1034 253.340   2
  12   3  -3 9.03334 306.498   2
  12   3  -2 75.8808 285.363   2
 -12   3   0 0.45616 559.709   2
 -12   3  -1 81.9624 572.560   2
  13   0  -7 298.208 285.642   2
  13   0  -5 29.8364 384.761   2
  13   0   5 34.3400 657.249   2
  13   1  -6-58.6128 208.196   2
  13   1  -5 163.846 275.316   2
  13   1  -4 102.324 399.892   2
  13  -1   3-106.437 582.474   2
  13   1   4 40.8636 383.358   2
  13   2  -3-34.3938 323.025   2
  13  -2   0-217.724 703.278   2
  13  -2   1 304.829 728.436   2
   0   0   0 0.00000 0.00000   0
TITL 1078_twin1_hklf4 in P2(1)/n
REM P2(1)/n (#14 in standard setting)
CELL 0.71073  11.188216   5.156042  14.770882  90.0000  93.7430  90.0000
ZERR    4.00   0.000826   0.000371   0.001135   0.0000   0.0064   0.0000
LATT  1
SYMM -x+1/2, y+1/2,-z+1/2
SFAC C H N O Se
UNIT 32.00 28.00 4.00 4.00 4.00
TREF
HKLF 5

BASF 0.13142
END
;
_shelx_hkl_checksum              21286
loop_
_space_group_symop_operation_xyz
'x, y, z'
'-x+1/2, y+1/2, -z+1/2'
'-x, -y, -z'
'x-1/2, -y-1/2, z-1/2'
loop_
_atom_site_label
_atom_site_type_symbol
_atom_site_fract_x
_atom_site_fract_y
_atom_site_fract_z
_atom_site_U_iso_or_equiv
_atom_site_adp_type
_atom_site_occupancy
_atom_site_site_symmetry_order
_atom_site_calc_flag
_atom_site_refinement_flags_posn
_atom_site_refinement_flags_adp
_atom_site_refinement_flags_occupancy
_atom_site_disorder_assembly
_atom_site_disorder_group
N1 N 0.7064(5) 0.2021(11) 0.4984(4) 0.0694(15) Uani 1 1 d . . . . .
O1 O 0.8697(4) 0.5259(10) 0.5688(3) 0.0744(13) Uani 1 1 d . . . . .
Se1 Se 0.76065(7) -0.12226(16) 0.34658(5) 0.0814(4) Uani 1 1 d . . . . .
C1 C 0.7592(5) 0.5489(11) 0.6001(4) 0.0513(14) Uani 1 1 d . . . . .
C2 C 0.6754(5) 0.3707(11) 0.5644(4) 0.0523(14) Uani 1 1 d . . . . .
C3 C 0.5603(5) 0.3673(12) 0.5949(4) 0.0619(16) Uani 1 1 d . . . . .
H3A H 0.505065 0.244630 0.572381 0.074 Uiso 1 1 calc R U . . .
C4 C 0.5284(6) 0.5441(14) 0.6577(5) 0.0660(17) Uani 1 1 d . . . . .
H4A H 0.451398 0.542870 0.677999 0.079 Uiso 1 1 calc R U . . .
C5 C 0.6106(6) 0.7236(14) 0.6908(5) 0.0672(18) Uani 1 1 d . . . . .
H5A H 0.588164 0.845753 0.732830 0.081 Uiso 1 1 calc R U . . .
C6 C 0.7248(5) 0.7259(13) 0.6631(4) 0.0624(17) Uani 1 1 d . . . . .
H6A H 0.779546 0.847693 0.686997 0.075 Uiso 1 1 calc R U . . .
C7 C 0.9582(6) 0.7158(15) 0.5974(5) 0.089(2) Uani 1 1 d . . . . .
H7A H 1.032076 0.677323 0.570605 0.133 Uiso 1 1 calc R U . . .
H7B H 0.970747 0.712107 0.662272 0.133 Uiso 1 1 calc R U . . .
H7C H 0.930904 0.884979 0.578351 0.133 Uiso 1 1 calc R U . . .
C8 C 0.7292(5) 0.0743(12) 0.4376(5) 0.0577(16) Uani 1 1 d . . . . .
loop_
_atom_site_aniso_label
_atom_site_aniso_U_11
_atom_site_aniso_U_22
_atom_site_aniso_U_33
_atom_site_aniso_U_23
_atom_site_aniso_U_13
_atom_site_aniso_U_12
N1 0.067(4) 0.078(4) 0.063(4) -0.008(3) 0.003(3) -0.004(3)
O1 0.050(3) 0.097(3) 0.078(3) -0.010(3) 0.015(2) -0.010(2)
Se1 0.0839(6) 0.0885(6) 0.0744(6) -0.0165(4) 0.0264(4) -0.0130(4)
C1 0.047(3) 0.055(4) 0.052(3) 0.008(3) 0.003(3) -0.003(3)
C2 0.053(4) 0.056(4) 0.047(3) 0.003(3) -0.002(3) 0.002(3)
C3 0.049(3) 0.070(4) 0.066(4) 0.007(4) -0.003(3) -0.013(3)
C4 0.048(4) 0.081(5) 0.070(4) 0.010(4) 0.006(3) 0.005(3)
C5 0.067(4) 0.065(4) 0.070(5) -0.006(4) 0.010(4) 0.005(3)
C6 0.062(4) 0.058(4) 0.068(5) -0.005(3) 0.006(3) -0.008(3)
C7 0.052(4) 0.114(6) 0.100(6) 0.000(5) 0.010(4) -0.027(4)
C8 0.046(3) 0.062(4) 0.064(4) 0.005(3) 0.005(3) -0.014(3)
loop_
_atom_type_symbol
_atom_type_description
_atom_type_scat_dispersion_real
_atom_type_scat_dispersion_imag
_atom_type_scat_source
C C 0.0033 0.0016 'International Tables Vol C Tables 4.2.6.8 and 6.1.1.4'
H H 0.0000 0.0000 'International Tables Vol C Tables 4.2.6.8 and 6.1.1.4'
N N 0.0061 0.0033 'International Tables Vol C Tables 4.2.6.8 and 6.1.1.4'
O O 0.0106 0.0060 'International Tables Vol C Tables 4.2.6.8 and 6.1.1.4'
Se Se -0.0929 2.2259 'International Tables Vol C Tables 4.2.6.8 and 6.1.1.4'
loop_
_geom_angle_atom_site_label_1
_geom_angle_atom_site_label_2
_geom_angle_atom_site_label_3
_geom_angle
_geom_angle_site_symmetry_1
_geom_angle_site_symmetry_3
_geom_angle_publ_flag
C8 N1 C2 174.5(7) . . ?
C1 O1 C7 117.8(5) . . ?
O1 C1 C6 126.3(6) . . ?
O1 C1 C2 114.9(5) . . ?
C6 C1 C2 118.9(5) . . ?
N1 C2 C3 120.4(6) . . ?
N1 C2 C1 119.6(6) . . ?
C3 C2 C1 120.0(6) . . ?
C4 C3 C2 120.0(6) . . ?
C4 C3 H3A 120.0 . . ?
C2 C3 H3A 120.0 . . ?
C3 C4 C5 119.6(6) . . ?
C3 C4 H4A 120.2 . . ?
C5 C4 H4A 120.2 . . ?
C6 C5 C4 121.2(7) . . ?
C6 C5 H5A 119.4 . . ?
C4 C5 H5A 119.4 . . ?
C5 C6 C1 120.3(6) . . ?
C5 C6 H6A 119.9 . . ?
C1 C6 H6A 119.9 . . ?
O1 C7 H7A 109.5 . . ?
O1 C7 H7B 109.5 . . ?
H7A C7 H7B 109.5 . . ?
O1 C7 H7C 109.5 . . ?
H7A C7 H7C 109.5 . . ?
H7B C7 H7C 109.5 . . ?
N1 C8 Se1 178.7(6) . . ?
loop_
_geom_bond_atom_site_label_1
_geom_bond_atom_site_label_2
_geom_bond_distance
_geom_bond_site_symmetry_2
_geom_bond_publ_flag
N1 C8 1.156(8) . ?
N1 C2 1.368(8) . ?
O1 C1 1.354(7) . ?
O1 C7 1.436(8) . ?
Se1 C8 1.738(7) . ?
C1 C6 1.376(9) . ?
C1 C2 1.392(8) . ?
C2 C3 1.392(8) . ?
C3 C4 1.365(9) . ?
C3 H3A 0.9300 . ?
C4 C5 1.372(9) . ?
C4 H4A 0.9300 . ?
C5 C6 1.368(8) . ?
C5 H5A 0.9300 . ?
C6 H6A 0.9300 . ?
C7 H7A 0.9600 . ?
C7 H7B 0.9600 . ?
C7 H7C 0.9600 . ?
