#------------------------------------------------------------------------------
#$Date: 2022-03-19 01:54:50 +0200 (Sat, 19 Mar 2022) $
#$Revision: 273820 $
#$URL: file:///home/coder/svn-repositories/cod/cif/7/70/97/7709779.cif $
#------------------------------------------------------------------------------
#
# This file is available in the Crystallography Open Database (COD),
# http://www.crystallography.net/
#
# All data on this site have been placed in the public domain by the
# contributors.
#
data_7709779
loop_
_publ_author_name
'Klapoetke, Thomas M.'
'Krumm, Burkhard'
'Lechner, Jasmin'
'Stierstorfer, Joerg'
_publ_section_title
;
 Investigation of Deuterated FOX-7 -- Changes in Structural Behavior and
 Energetic Characteristics after Deuteration at ambient conditions
;
_journal_name_full               'Dalton Transactions'
_journal_paper_doi               10.1039/D2DT00490A
_journal_year                    2022
_chemical_formula_moiety         'C2 D4 N4 O4'
_chemical_formula_sum            'C2 D4 N4 O4'
_chemical_formula_weight         152.12
_chemical_name_common            FOX-7-d4
_chemical_name_systematic        d4-diamino-dinitroethene
_space_group_IT_number           33
_space_group_name_Hall           'P 2c -2n'
_space_group_name_H-M_alt        'P n a 21'
_symmetry_cell_setting           orthorhombic
_symmetry_Int_Tables_number      33
_symmetry_space_group_name_Hall  'P 2c -2n'
_symmetry_space_group_name_H-M   'P n a 21'
_atom_sites_solution_hydrogens   difmap
_atom_sites_solution_primary     difmap
_audit_creation_date             2021-11-11
_audit_creation_method           SHELXL-2018/3
_audit_update_record
;
2022-02-04 deposited with the CCDC.	2022-03-18 downloaded from the CCDC.
;
_cell_angle_alpha                90
_cell_angle_beta                 90
_cell_angle_gamma                90
_cell_formula_units_Z            4
_cell_length_a                   6.5238(13)
_cell_length_b                   6.9618(8)
_cell_length_c                   11.3592(9)
_cell_measurement_reflns_used    1182
_cell_measurement_temperature    101(2)
_cell_measurement_theta_max      28.5740
_cell_measurement_theta_min      3.5540
_cell_volume                     515.91(13)
_computing_cell_refinement       'CrysAlisPro 1.171.40.84a (Rigaku OD, 2020)'
_computing_data_collection       'CrysAlisPro 1.171.40.84a (Rigaku OD, 2020)'
_computing_data_reduction        'CrysAlisPro 1.171.40.84a (Rigaku OD, 2020)'
_computing_molecular_graphics    'Diamond 2.1c, Crystal Impact GbR'
_computing_publication_material  'Encifer 1.5.1, CCDC 2014'
_computing_structure_refinement  'SHELXL-2018/3 (Sheldrick, 2018)'
_computing_structure_solution    SIR-92
_diffrn_ambient_temperature      101(2)
_diffrn_detector                 'CCD plate'
_diffrn_detector_area_resol_mean 15.9809
_diffrn_detector_type            Sapphire3
_diffrn_measured_fraction_theta_full 1.000
_diffrn_measured_fraction_theta_max 1.000
_diffrn_measurement_details
;
List of Runs (angles in degrees, time in seconds):

  # Type    Start    End  Width  t~exp~   \w     \q     \k     \f   Frames
#--------------------------------------------------------------------------
  1  \w    -24.00  44.00   1.00   25.00    --  -19.09  57.00 -30.00   68
  2  \w    -29.00  46.00   1.00   25.00    --  -19.09  57.00-120.00   75
  3  \w    -73.00 -25.00   1.00   25.00    --  -19.09 127.00 136.43   48
  4  \w      4.00  46.00   1.00   25.00    --  -19.09  57.00 150.00   42
  5  \w      4.00  83.00   1.00   25.00    --   20.18  57.00-150.00   79
  6  \w      3.00  83.00   1.00   25.00    --   20.18  57.00  30.00   80
  7  \w      7.00  81.00   1.00   25.00    --   20.18  57.00 -60.00   74
  8  \w      3.00  84.00   1.00   25.00    --   20.18  57.00 120.00   81
  9  \w    -15.00  59.00   1.00   25.00    --   20.18 -99.00 120.00   74
 10  \w    -38.00  31.00   1.00   25.00    --   20.18 -57.00  30.00   69
 11  \w      8.00  59.00   1.00   25.00    --   20.18 -99.00 -30.00   51
 12  \w     -7.00  18.00   1.00   25.00    --   20.18  77.00-120.00   25
;
_diffrn_measurement_device       'four-circle diffractometer'
_diffrn_measurement_device_type  'Xcalibur, Sapphire3'
_diffrn_measurement_method       '\w scans'
_diffrn_orient_matrix_UB_11      0.0726169000
_diffrn_orient_matrix_UB_12      0.0739414000
_diffrn_orient_matrix_UB_13      -0.0103916000
_diffrn_orient_matrix_UB_21      -0.0806563000
_diffrn_orient_matrix_UB_22      0.0680440000
_diffrn_orient_matrix_UB_23      -0.0040287000
_diffrn_orient_matrix_UB_31      0.0069752000
_diffrn_orient_matrix_UB_32      0.0169637000
_diffrn_orient_matrix_UB_33      0.0614095000
_diffrn_radiation_monochromator  graphite
_diffrn_radiation_probe          x-ray
_diffrn_radiation_type           MoK\a
_diffrn_radiation_wavelength     0.71073
_diffrn_reflns_av_R_equivalents  0.0625
_diffrn_reflns_av_sigmaI/netI    0.0922
_diffrn_reflns_av_unetI/netI     0.0426
_diffrn_reflns_Laue_measured_fraction_full 1.000
_diffrn_reflns_Laue_measured_fraction_max 1.000
_diffrn_reflns_limit_h_max       8
_diffrn_reflns_limit_h_min       -8
_diffrn_reflns_limit_k_max       9
_diffrn_reflns_limit_k_min       -9
_diffrn_reflns_limit_l_max       15
_diffrn_reflns_limit_l_min       -15
_diffrn_reflns_number            8171
_diffrn_reflns_point_group_measured_fraction_full 1.000
_diffrn_reflns_point_group_measured_fraction_max 1.000
_diffrn_reflns_theta_full        25.242
_diffrn_reflns_theta_max         28.254
_diffrn_reflns_theta_min         3.432
_diffrn_source                   'fine-focus sealed X-ray tube'
_exptl_absorpt_coefficient_mu    0.181
_exptl_absorpt_correction_T_max  1.00000
_exptl_absorpt_correction_T_min  0.74810
_exptl_absorpt_correction_type   multi-scan
_exptl_absorpt_process_details
;
CrysAlisPro 1.171.40.84a (Rigaku Oxford Diffraction, 2020)
Empirical absorption correction using spherical harmonics,
implemented in SCALE3 ABSPACK scaling algorithm.
;
_exptl_crystal_colour            light-orange
_exptl_crystal_density_diffrn    1.958
_exptl_crystal_description       block
_exptl_crystal_F_000             304
_exptl_crystal_size_max          0.500
_exptl_crystal_size_mid          0.250
_exptl_crystal_size_min          0.050
_refine_diff_density_max         0.268
_refine_diff_density_min         -0.221
_refine_diff_density_rms         0.056
_refine_ls_abs_structure_details
;
 Flack x determined using 426 quotients [(I+)-(I-)]/[(I+)+(I-)]
 (Parsons, Flack and Wagner, Acta Cryst. B69 (2013) 249-259).
;
_refine_ls_abs_structure_Flack   0.2(10)
_refine_ls_extinction_method     none
_refine_ls_goodness_of_fit_ref   1.073
_refine_ls_hydrogen_treatment    refall
_refine_ls_matrix_type           full
_refine_ls_number_parameters     107
_refine_ls_number_reflns         1279
_refine_ls_number_restraints     1
_refine_ls_restrained_S_all      1.073
_refine_ls_R_factor_all          0.0585
_refine_ls_R_factor_gt           0.0442
_refine_ls_shift/su_max          0.000
_refine_ls_shift/su_mean         0.000
_refine_ls_structure_factor_coef Fsqd
_refine_ls_weighting_details
'w=1/[\s^2^(Fo^2^)+(0.0426P)^2^+0.0350P] where P=(Fo^2^+2Fc^2^)/3'
_refine_ls_weighting_scheme      calc
_refine_ls_wR_factor_gt          0.0874
_refine_ls_wR_factor_ref         0.0937
_reflns_Friedel_coverage         0.906
_reflns_Friedel_fraction_full    1.000
_reflns_Friedel_fraction_max     1.000
_reflns_number_gt                1090
_reflns_number_total             1279
_reflns_threshold_expression     'I > 2\s(I)'
_cod_data_source_file            d2dt00490a2.cif
_cod_data_source_block           qx396
_cod_database_code               7709779
_shelx_space_group_comment
;
The symmetry employed for this shelxl refinement is uniquely defined
by the following loop, which should always be used as a source of
symmetry information in preference to the above space-group names.
They are only intended as comments.
;
_shelx_estimated_absorpt_t_min   0.915
_shelx_estimated_absorpt_t_max   0.991
_shelx_res_file
;
TITL qx396_a.res in Pna2(1)
    shelx.res
    created by SHELXL-2018/3 at 12:19:50 on 12-Nov-2021
CELL  0.71073   6.5238   6.9618  11.3592   90.000   90.000   90.000
ZERR     4.00   0.0013   0.0008   0.0009    0.000    0.000    0.000
LATT  -1
SYMM  - X, - Y, 1/2 + Z
SYMM  1/2 + X, 1/2 - Y,   Z
SYMM  1/2 - X, 1/2 + Y, 1/2 + Z
SFAC  C    D    N    O
UNIT  8 16 16 16
MERG   2
MORE -1
SHEL 1000 0.75
EQIV $1 -x+1/2, y-1/2, z+1/2
HTAB N1 O3_$1
HTAB N1 O2_$1
EQIV $2 x, y-1, z
HTAB N1 O4_$2
HTAB N1 O1
HTAB N2 O4
EQIV $3 -x+1/2, y+1/2, z+1/2
HTAB N2 O2_$3
HTAB N2 O3_$1
HTAB N2 O1_$3
HTAB N1 O3_$1
HTAB N1 O2_$1
HTAB N1 O4_$2
HTAB N1 O1
HTAB N2 O4
HTAB N2 O2_$3
HTAB N2 O3_$1
HTAB N2 O1_$3
FMAP   2   53   53
PLAN    5
SIZE     0.050   0.250   0.500
ACTA
BOND   $H
CONF
LIST   4
L.S.   4
TEMP  -172.15
WGHT    0.042600    0.035000
FVAR       0.86172
O3    4    0.423373    0.760633    0.383918    11.00000    0.03226    0.01797 =
         0.01896    0.00428    0.00079   -0.00403
O4    4    0.284711    0.819086    0.553019    11.00000    0.04289    0.01330 =
         0.02004   -0.00386    0.00066    0.00071
O2    4    0.320352    0.435670    0.300189    11.00000    0.04740    0.01640 =
         0.01329    0.00109   -0.00213   -0.00142
O1    4    0.416917    0.214594    0.421725    11.00000    0.04148    0.01513 =
         0.02006   -0.00136   -0.00031    0.00543
N4    3    0.342763    0.703002    0.476610    11.00000    0.02666    0.01500 =
         0.01531    0.00029   -0.00259   -0.00043
N3    3    0.357996    0.381707    0.401813    11.00000    0.02835    0.01900 =
         0.01771   -0.00076    0.00292    0.00100
N2    3    0.207319    0.540851    0.699008    11.00000    0.03999    0.01724 =
         0.01419    0.00127    0.00409   -0.00109
N1    3    0.267493    0.240006    0.633380    11.00000    0.03265    0.01682 =
         0.01567    0.00221    0.00322    0.00089
C2    1    0.325876    0.506644    0.498494    11.00000    0.02538    0.01452 =
         0.01417   -0.00180    0.00014    0.00158
C1    1    0.267493    0.428730    0.613171    11.00000    0.02477    0.01687 =
         0.01878    0.00016   -0.00525   -0.00090
D2    2    0.219817    0.205791    0.701432    11.00000    0.01485
D1    2    0.310980    0.165304    0.574587    11.00000    0.01469
D4    2    0.202885    0.670527    0.683495    11.00000    0.02315
D3    2    0.182101    0.490857    0.767185    11.00000    0.01434
HKLF    4




REM  qx396_a.res in Pna2(1)
REM wR2 = 0.0937, GooF = S = 1.073, Restrained GooF = 1.073 for all data
REM R1 = 0.0442 for 1090 Fo > 4sig(Fo) and 0.0585 for all 1279 data
REM 107 parameters refined using 1 restraints

END

WGHT      0.0427      0.0342

REM Highest difference peak  0.268,  deepest hole -0.221,  1-sigma level  0.056
Q1    1   0.5762  0.7381  0.3809  11.00000  0.05    0.27
Q2    1   0.2042  0.7150  0.4877  11.00000  0.05    0.24
Q3    1   0.2962  0.4634  0.5458  11.00000  0.05    0.23
Q4    1   0.1001  0.2341  0.6404  11.00000  0.05    0.23
Q5    1   0.4585  0.7949  0.4610  11.00000  0.05    0.22
;
_shelx_res_checksum              52426
_shelx_hkl_file
;
   0   0 -15   -0.97    7.24
   0   0 -14  195.42   25.80
   0   0 -13   17.65    8.55
   0   0 -13   -6.81    4.69
   0   0 -12  364.27   26.98
   0   0 -12  354.86   31.14
   0   0 -11    6.19    4.28
   0   0 -11    9.91    8.08
   0   0 -11   -1.01    6.35
   0   0 -10  571.82   29.91
   0   0 -10  650.43   37.16
   0   0 -10  628.49   26.44
   0   0  -9    5.29    5.89
   0   0  -9    0.96    5.46
   0   0  -9    5.97    4.63
   0   0  -8  291.91   18.83
   0   0  -8  251.26   15.39
   0   0  -7    1.86    3.03
   0   0  -7   -0.09    4.17
   0   0  -7    1.32    2.77
   0   0  -7   -1.39    3.18
   0   0  -6  101.01   10.46
   0   0  -6  105.71    8.47
   0   0  -6   95.33    8.65
   0   0  -6   97.88    9.60
   0   0  -6   92.59    9.46
   0   0  -6   96.75    9.54
   0   0  -5    0.11    2.92
   0   0  -5    2.24    2.91
   0   0  -5    6.67    3.78
   0   0  -5    6.30    4.55
   0   0  -5    4.04    3.13
   0   0  -5    3.37    3.58
   0   0  -4 1083.40   22.05
   0   0  -4 1014.63   24.03
   0   0  -4 1143.77   30.45
   0   0  -4  939.50   24.20
   0   0  -4 1029.50   27.25
   0   0  -4 1062.64   28.39
   0   0  -4 1084.86   26.66
   0   0  -3   -7.18    4.36
   0   0  -3    2.62    2.87
   0   0  -3    0.90    3.50
   0   0  -3    0.13    3.20
   0   0  -3   -4.96    3.83
   0   0  -2 1988.54   27.07
   0   0  -2 1967.38   24.51
   0   0  -2 1974.96   26.45
   0   0  -2 2013.05   23.26
   0   0  -2 1993.18   28.39
   0   0  -1   -0.32    1.02
   0   0  -1    1.66    1.40
   0   0  -1    2.26    1.39
   0   0   1    0.47    1.04
   0   0   1    0.24    1.02
   0   0   1    0.23    1.16
   0   0   2 1993.77   24.16
   0   0   2 1973.01   26.97
   0   0   2 1991.40   28.04
   0   0   2 2026.95   26.56
   0   0   3    0.49    3.18
   0   0   3   -1.53    4.58
   0   0   3   -2.05    4.62
   0   0   3   -4.43    4.46
   0   0   4 1023.69   29.81
   0   0   4 1021.50   28.01
   0   0   4 1039.47   28.57
   0   0   4 1079.00   25.40
   0   0   5   -1.21    3.67
   0   0   5    0.85    5.75
   0   0   5   12.68    6.57
   0   0   5    4.15    5.16
   0   0   6  127.04   12.87
   0   0   6  103.37   10.39
   0   0   6  103.24   12.93
   0   0   6  103.61   11.85
   0   0   7   16.57    8.39
   0   0   7    7.40    6.12
   0   0   7   -4.41    5.36
   0   0   8  272.77   22.53
   0   0   8  277.87   20.86
   0   0   8  267.38   21.95
   0   0   9   -1.18    6.65
   0   0   9    5.78    8.61
   0   0  10  616.72   35.73
   0   0  11   15.05    8.13
   0   0  12  352.25   30.97
   0   0  13    7.07    7.60
   0   0  14  208.80   26.73
   0   0  15    4.17    9.31
   0  -1 -16    1.13    5.92
   0  -1 -15   21.29    9.34
   0   1 -15   27.97   12.65
   0   1 -14   -2.46    5.81
   0   1 -14   -5.04    8.43
   0  -1 -14   -0.72    5.85
   0  -1 -13   60.45   12.65
   0   1 -13   70.69   13.12
   0  -1 -13   74.35   12.52
   0   1 -13   77.48   16.98
   0  -1 -13   55.99   13.58
   0  -1 -12   -3.41    4.80
   0   1 -12    3.49    7.42
   0  -1 -12   12.70    7.22
   0  -1 -12   -1.27    5.32
   0  -1 -12    6.05    4.60
   0   1 -12    2.29    5.09
   0  -1 -11  308.52   20.80
   0  -1 -11  305.10   23.09
   0   1 -11  319.43   28.42
   0  -1 -11  327.96   22.75
   0  -1 -11  298.40   26.19
   0   1 -11  286.97   24.02
   0  -1 -10   -6.56    5.27
   0   1 -10    8.08    7.80
   0  -1 -10    3.60    5.09
   0   1 -10   -0.75    2.90
   0   1 -10   10.42    7.23
   0  -1 -10   -0.10    5.00
   0   1  -9  852.31   27.52
   0   1  -9  939.71   43.99
   0   1  -9  926.34   23.27
   0  -1  -9  894.42   34.13
   0   1  -9  844.73   36.14
   0  -1  -9  910.99   31.69
   0  -1  -8    0.43    4.73
   0   1  -8    0.67    2.60
   0   1  -8   -2.59    3.56
   0  -1  -8   -0.13    3.71
   0   1  -8    0.83    5.15
   0   1  -8    2.56    6.44
   0  -1  -7  283.31   15.55
   0   1  -7  292.00   22.16
   0  -1  -7  244.97   14.56
   0   1  -7  272.14   13.39
   0   1  -7  246.90   10.57
   0   1  -7  256.99   17.88
   0  -1  -6   -2.62    2.88
   0   1  -6    2.31    4.10
   0  -1  -6   -3.32    3.62
   0  -1  -6    3.21    3.76
   0   1  -6   10.00    6.57
   0   1  -6   -2.57    2.21
   0   1  -6    4.66    4.17
   0  -1  -6    0.97    3.32
   0   1  -6   -1.86    2.52
   0  -1  -5 2003.74   37.03
   0   1  -5 1969.35   22.36
   0   1  -5 2008.13   44.75
   0  -1  -5 2047.99   43.19
   0  -1  -5 1952.17   35.40
   0  -1  -5 1910.30   32.35
   0   1  -5 2021.41   47.56
   0   1  -5 2018.65   40.19
   0   1  -5 1983.76   41.15
   0   1  -4    0.84    4.35
   0   1  -4    0.27    1.71
   0   1  -4    7.67    4.28
   0  -1  -4   -2.04    3.16
   0  -1  -4    6.73    4.29
   0  -1  -4   -3.19    3.81
   0   1  -4   -2.40    3.46
   0  -1  -4    0.90    2.58
   0   1  -4    1.01    3.99
   0   1  -4    4.79    5.20
   0  -1  -4    5.10    3.97
   0  -1  -4    1.28    2.85
   0  -1  -4    2.07    4.00
   0  -1  -3 1315.43   31.26
   0   1  -3 1261.09   22.98
   0  -1  -3 1320.67   28.99
   0   1  -3 1303.70   29.59
   0  -1  -3 1307.75   24.30
   0   1  -3 1385.53   31.09
   0  -1  -3 1294.08   18.52
   0   1  -3 1266.73   30.00
   0  -1  -3 1312.10   29.21
   0   1  -3 1260.02   27.20
   0  -1  -3 1309.62   28.23
   0  -1  -2    6.43    3.28
   0   1  -2    2.22    3.30
   0  -1  -2    4.63    3.38
   0  -1  -2    6.55    1.98
   0  -1  -2    2.44    2.99
   0   1  -2    5.77    3.74
   0   1  -2    6.64    4.32
   0  -1  -2    0.82    3.39
   0  -1  -2    7.79    3.45
   0   1  -1   26.32    4.14
   0   1  -1   30.66    4.65
   0  -1  -1   25.19    4.01
   0  -1  -1   27.72    3.95
   0   1  -1   24.42    3.53
   0  -1  -1   22.61    3.63
   0  -1   0    3.03    2.06
   0   1   0    2.90    2.11
   0  -1   0    4.14    2.72
   0   1   0    2.03    2.07
   0  -1   1   21.71    4.25
   0   1   1   24.37    4.03
   0  -1   1   27.89    4.08
   0   1   1   25.04    3.50
   0   1   1   28.01    3.79
   0  -1   1   28.36    3.97
   0  -1   2    1.62    2.31
   0   1   2    3.27    1.79
   0   1   2    4.14    3.76
   0   1   2    5.91    3.61
   0  -1   2    6.62    3.39
   0   1   2    8.01    3.23
   0   1   2    5.36    4.71
   0  -1   2    3.69    2.81
   0  -1   2    0.13    3.50
   0   1   3 1283.15   19.27
   0  -1   3 1264.30   29.07
   0  -1   3 1240.66   23.41
   0  -1   3 1304.19   27.29
   0   1   3 1282.03   31.07
   0   1   3 1227.66   28.38
   0   1   3 1358.98   29.05
   0  -1   3 1332.58   19.08
   0  -1   4   -0.51    2.97
   0  -1   4    4.90    4.43
   0   1   4   -5.96    4.06
   0  -1   4   -0.15    4.15
   0  -1   4   12.10    5.85
   0   1   4    6.21    6.10
   0   1   4   -4.09    5.51
   0   1   4   -4.91    5.31
   0  -1   4   -0.38    2.59
   0   1   5 1979.90   48.73
   0  -1   5 1942.01   40.20
   0   1   5 1978.79   40.64
   0   1   5 2005.30   46.04
   0  -1   5 2067.03   44.75
   0  -1   5 2036.46   44.02
   0   1   5 1986.00   44.78
   0  -1   6   -4.74    5.38
   0  -1   6   -6.37    4.28
   0   1   6   -5.91    7.08
   0   1   6   -0.55    4.83
   0  -1   6    9.05    5.82
   0   1   6   -5.85    5.76
   0   1   7  256.31   20.27
   0  -1   7  245.84   18.97
   0   1   7  249.47   19.41
   0   1   7  290.40   22.37
   0  -1   7  241.25   18.13
   0  -1   7  236.06   17.48
   0   1   8    3.13    7.79
   0  -1   8    0.52    6.33
   0   1   8   -0.25    6.08
   0   1   8   14.16    9.59
   0  -1   8   -7.19    6.17
   0  -1   8    5.67    6.32
   0  -1   9  931.21   38.56
   0   1   9  936.70   42.35
   0  -1   9  941.87   40.19
   0  -1   9  846.53   39.44
   0   1   9  845.88   41.29
   0   1  10   -5.52    6.62
   0  -1  10  -13.64    6.06
   0  -1  10   10.05    9.01
   0  -1  10    9.30    8.97
   0   1  10   15.28   10.07
   0   1  11  294.53   27.54
   0  -1  11  264.22   24.72
   0   1  11  309.27   27.51
   0   1  12    5.35    8.78
   0  -1  12    9.45    6.51
   0  -1  13   92.24   17.19
   0  -1  14   -2.57    7.15
   0  -1  15   22.43   11.17
   0   2 -15    8.43    7.24
   0  -2 -15    8.39    6.55
   0   2 -14   47.22   15.11
   0  -2 -14   15.14    8.26
   0   2 -14   24.58   11.55
   0   2 -13   -1.80    5.67
   0  -2 -13    0.05    4.79
   0  -2 -13   -0.97    6.41
   0   2 -13   -6.70    7.06
   0   2 -12  141.26   21.98
   0   2 -12  137.67   18.68
   0  -2 -12  159.63   18.40
   0  -2 -11    2.87    5.94
   0   2 -11   -5.60    5.91
   0  -2 -11    3.77    6.26
   0  -2 -11   -3.51    3.86
   0   2 -11    6.61    7.98
   0  -2 -10  331.36   21.29
   0  -2 -10  338.95   19.73
   0  -2 -10  353.05   24.77
   0   2 -10  311.85   28.78
   0   2 -10  306.66   24.58
   0  -2  -9   -3.18    4.21
   0   2  -9    7.89    5.86
   0  -2  -9    4.96    5.91
   0  -2  -9   -4.19    5.32
   0   2  -9   -9.01    7.53
   0  -2  -8  142.51   13.26
   0   2  -8  135.86   17.43
   0   2  -8  151.80   16.45
   0  -2  -8  136.42   10.50
   0  -2  -7   -0.92    3.92
   0   2  -7    8.17    6.21
   0   2  -7    4.95    5.98
   0  -2  -7    2.24    2.26
   0   2  -6  478.22   24.55
   0  -2  -6  477.05   15.96
   0   2  -6  458.98   26.38
   0  -2  -6  484.33   21.38
   0  -2  -5    2.60    2.67
   0   2  -5   -0.68    4.96
   0   2  -5   -2.71    4.98
   0  -2  -5   -3.21    3.71
   0  -2  -5    0.49    2.06
   0  -2  -4 1737.20   16.73
   0  -2  -4 1837.32   41.16
   0   2  -4 1773.89   43.62
   0  -2  -4 1808.61   42.84
   0   2  -4 1696.18   40.83
   0  -2  -4 1757.11   37.59
   0   2  -3    2.98    3.51
   0  -2  -3    6.06    4.27
   0  -2  -3   -2.72    3.69
   0  -2  -3    1.60    4.11
   0  -2  -3    4.90    3.34
   0   2  -3    0.17    4.25
   0   2  -3   -1.72    5.66
   0  -2  -2 2394.60   42.47
   0   2  -2 2295.71   42.22
   0   2  -2 2410.46   42.08
   0   2  -2 2290.77   42.40
   0  -2  -2 2307.51   40.17
   0  -2  -2 2431.19   43.58
   0  -2  -1    1.84    3.85
   0  -2  -1    7.65    4.28
   0  -2  -1    3.18    3.95
   0   2  -1   -1.21    5.05
   0   2  -1    3.57    4.06
   0  -2  -1   -0.81    5.48
   0   2  -1    5.76    4.56
   0  -2   0 1401.39   27.98
   0   2   0 1459.15   31.51
   0  -2   0 1371.48   30.69
   0  -2   0 1430.36   30.49
   0   2   0 1323.43   29.28
   0   2   0 1367.18   30.61
   0  -2   1   -3.94    5.28
   0   2   1   -0.21    4.69
   0  -2   1   -1.30    5.01
   0  -2   1    4.62    4.10
   0   2   1    9.06    4.77
   0  -2   2 2450.33   42.68
   0   2   2 2449.76   37.81
   0  -2   2 2471.09   42.36
   0  -2   2 2389.15   43.36
   0   2   2 2444.25   39.97
   0   2   2 2352.85   43.74
   0   2   3    3.18    2.09
   0  -2   3   -3.07    3.52
   0  -2   3   10.59    4.83
   0  -2   3    0.69    2.47
   0   2   3   -5.79    5.18
   0   2   3    1.18    3.24
   0  -2   3   -6.69    5.36
   0   2   3   -5.69    4.96
   0  -2   4 1755.58   29.18
   0   2   4 1754.68   24.41
   0   2   4 1818.63   37.07
   0  -2   4 1782.45   43.27
   0   2   4 1709.01   39.96
   0   2   4 1895.86   44.80
   0  -2   4 1794.61   41.05
   0  -2   5   -2.86    3.49
   0  -2   5   -1.59    4.94
   0   2   5   -6.61    5.35
   0  -2   5    2.11    2.66
   0   2   5    2.95    2.58
   0   2   5    1.72    4.37
   0   2   6  472.02   25.48
   0  -2   6  460.32   15.96
   0  -2   6  468.48   24.19
   0   2   6  513.61   25.56
   0  -2   6  481.43   25.70
   0  -2   6  491.25   20.81
   0   2   7   -2.85    6.29
   0  -2   7   -4.02    7.25
   0  -2   7    2.75    6.67
   0   2   7   -6.88    5.28
   0  -2   7    4.82    5.02
   0   2   8  147.17   15.41
   0  -2   8  133.15   15.44
   0  -2   8  121.44   15.59
   0  -2   8  154.71   14.67
   0   2   8  148.70   16.90
   0   2   9    2.58    6.89
   0  -2   9   -2.86    7.36
   0  -2   9    7.92    6.37
   0  -2   9    6.60    7.08
   0  -2  10  299.63   25.20
   0   2  10  278.47   25.59
   0  -2  10  320.38   25.83
   0  -2  11  -11.47    7.26
   0   2  11    3.48    7.39
   0  -2  11    3.16    7.45
   0  -2  12  126.63   17.94
   0  -2  12  146.35   19.97
   0   2  12  113.89   18.86
   0  -2  13   -5.65    8.57
   0   2  13   -8.15    7.29
   0  -2  14   16.76    9.37
   0   3 -14    7.61    8.58
   0  -3 -13  183.56   22.13
   0   3 -13  163.54   22.36
   0   3 -12    5.80    9.26
   0  -3 -12   -3.43    7.52
   0   3 -12   -3.65    6.31
   0  -3 -11  376.73   28.55
   0  -3 -11  324.33   23.71
   0   3 -11  370.92   30.41
   0   3 -11  350.61   32.33
   0  -3 -10   -1.32    5.52
   0   3 -10    3.16    6.32
   0   3 -10   -6.88    5.56
   0  -3 -10    4.70    4.79
   0   3  -9  187.61   22.96
   0   3  -9  173.49   19.53
   0  -3  -9  188.39   10.52
   0  -3  -9  152.48   15.88
   0  -3  -8   -0.41    2.02
   0   3  -8    7.92    7.89
   0   3  -8    4.67    7.98
   0  -3  -8   -1.90    5.44
   0   3  -7    7.24    6.45
   0  -3  -7   14.16    6.17
   0   3  -7   10.85    5.89
   0  -3  -7    3.12    1.50
   0  -3  -6   16.42    6.77
   0   3  -6   -2.65    5.47
   0  -3  -5  314.94   19.89
   0   3  -5  296.28   21.34
   0   3  -4    2.23    5.77
   0  -3  -4    4.69    5.82
   0   3  -3   52.15    9.43
   0  -3  -3   48.14    8.93
   0  -3  -2    5.45    4.69
   0   3  -2    0.15    5.55
   0  -3  -2   -0.17    4.10
   0  -3  -2    0.78    5.19
   0  -3  -1 2152.58   45.93
   0   3  -1 2070.27   47.05
   0  -3  -1 2111.59   39.90
   0  -3  -1 2148.73   46.99
   0  -3   0   -2.65    4.92
   0   3   0    0.32    4.51
   0  -3   0    3.88    4.03
   0   3   0   -1.46    4.86
   0  -3   0   -6.42    6.04
   0   3   1 2089.70   47.94
   0  -3   1 2145.16   45.31
   0  -3   1 2079.78   46.79
   0  -3   2   -0.04    3.44
   0   3   2   -3.59    5.71
   0  -3   2   -7.55    6.46
   0   3   3   46.71    7.77
   0  -3   3   51.98   10.21
   0   3   3   38.93    8.14
   0   3   4    2.34    1.94
   0   3   4   10.73    5.97
   0  -3   4   -5.52    6.02
   0  -3   4    0.25    2.26
   0   3   4   -1.08    4.83
   0  -3   5  305.96   21.64
   0   3   5  275.25   18.31
   0   3   5  311.24   11.32
   0  -3   5  309.26   12.81
   0   3   5  339.19   22.86
   0   3   6    5.06    6.86
   0  -3   6    3.95    3.21
   0   3   6   -0.01    4.87
   0  -3   6    5.12    6.23
   0   3   6    1.62    2.19
   0  -3   6    1.07    3.38
   0   3   7   13.35    5.24
   0   3   7    5.53    6.58
   0  -3   7   10.85    4.50
   0  -3   7   12.84    6.84
   0  -3   7    8.35    3.87
   0  -3   7    4.83    5.67
   0  -3   8   -3.43    3.09
   0   3   8   -0.10    5.61
   0  -3   8   12.79    7.43
   0  -3   8    8.48    5.04
   0   3   8   -1.51    6.72
   0  -3   8   -7.67    7.93
   0   3   9  182.37   18.97
   0  -3   9  166.96   15.50
   0  -3   9  152.88   18.81
   0   3   9  153.61   18.31
   0  -3   9  159.46   18.57
   0   3  10   -1.34    5.78
   0  -3  10   12.96    8.33
   0  -3  10    4.56    7.95
   0  -3  11  365.78   30.31
   0  -3  11  332.21   28.26
   0   3  11  331.00   29.60
   0  -3  12   -2.49    6.54
   0  -3  12    2.16    6.80
   0   3  12    7.19    7.52
   0  -3  13  159.45   22.37
   0   3  13  163.17   23.83
   0  -3  13  175.42   23.25
   0  -3  14   -0.32    8.43
   0  -3  14    0.03    7.04
   0   3  14    7.23    6.50
   0   4 -14   58.18   16.66
   0  -4 -14   48.59   11.97
   0   4 -13   24.57    9.20
   0  -4 -13   -8.03    6.39
   0   4 -12    4.46    6.17
   0  -4 -12    0.06    8.07
   0  -4 -11   -6.32    9.28
   0   4 -11   14.00    6.91
   0  -4 -11    2.15    5.83
   0   4 -10   19.08    9.86
   0  -4 -10    0.10    5.68
   0  -4 -10    1.09    6.40
   0  -4  -9   -3.00    5.69
   0   4  -9   -8.35    5.85
   0  -4  -8  123.14   15.58
   0   4  -8  125.46   17.29
   0   4  -7    5.61    7.28
   0  -4  -7    9.25    7.54
   0   4  -6   96.86   15.52
   0  -4  -6  113.78   14.50
   0  -4  -5   10.07    8.30
   0   4  -5   -2.47    7.05
   0  -4  -4  203.44   18.11
   0   4  -4  202.46   19.24
   0  -4  -3   -6.28    7.34
   0   4  -3    1.18    5.98
   0   4  -2   41.01    9.14
   0  -4  -2   51.26   10.10
   0  -4  -1   -4.63    5.61
   0  -4  -1    4.49    4.16
   0   4  -1    0.96    5.18
   0   4  -1    4.13    5.38
   0  -4  -1    1.72    4.65
   0  -4   0 1241.57   41.72
   0   4   0 1255.24   42.07
   0  -4   0 1298.55   38.69
   0  -4   0 1260.03   31.16
   0  -4   1   -6.24    6.74
   0   4   1    0.41    5.41
   0  -4   1    3.48    5.07
   0  -4   1   -2.38    2.47
   0  -4   2   40.15    9.13
   0   4   2   43.48    8.82
   0   4   3   -5.88    7.50
   0   4   3    0.74    4.31
   0  -4   3    4.56    7.52
   0   4   4  210.52   16.43
   0   4   4  205.72   10.68
   0  -4   4  190.24   18.56
   0   4   4  201.85   19.46
   0   4   5   -4.32    5.75
   0   4   5    4.77    6.33
   0   4   5    0.10    2.79
   0  -4   5   -4.20    6.08
   0  -4   5   -0.60    2.33
   0  -4   6   75.53    6.17
   0   4   6  124.79   16.20
   0  -4   6  133.72   17.72
   0   4   6   88.01    6.33
   0   4   6  100.78   13.22
   0  -4   7   -0.07    2.81
   0   4   7   -1.65    6.21
   0   4   7    0.20    6.14
   0  -4   7    5.46    4.46
   0  -4   7   15.74    8.93
   0  -4   8  104.76   15.33
   0   4   8  108.28   15.52
   0  -4   8  127.54   10.94
   0  -4   8  119.74   18.53
   0   4   8   86.10   13.84
   0  -4   9    2.15    6.72
   0   4   9    5.65    7.91
   0   4   9    5.80    6.46
   0  -4   9   -1.40    7.35
   0   4  10   10.31    7.90
   0   4  10    9.56    8.07
   0  -4  10   16.15    7.77
   0  -4  10   -0.46    6.99
   0  -4  11   -0.53    8.64
   0   4  11   -3.04    7.92
   0   4  11    8.73    8.15
   0  -4  11   -1.03    6.78
   0  -4  12   19.16    9.76
   0  -4  12   -4.93    7.12
   0   4  12    2.55    7.19
   0   4  13   -5.53    9.66
   0  -4  13   -6.07    7.57
   0  -4  13   15.83   10.16
   0   4  14   48.61   13.88
   0  -4  14   58.44   16.06
   0  -4  14   43.67   14.59
   0   5 -14    3.86   10.18
   0  -5 -13   10.01    9.07
   0   5 -13    2.99    9.32
   0  -5 -12   10.31   10.28
   0   5 -12   20.16   11.73
   0  -5 -11   47.25   11.84
   0   5 -11   40.70   12.68
   0  -5 -11   38.77    9.83
   0  -5 -10    1.69    6.72
   0   5 -10   15.34    9.38
   0   5  -9  331.48   30.99
   0  -5  -9  347.23   28.24
   0   5  -8   13.19    7.65
   0  -5  -8    6.70    6.71
   0  -5  -7  296.29   25.34
   0   5  -7  222.26   24.36
   0  -5  -6   -6.07    7.74
   0   5  -6   -2.14    6.66
   0   5  -5   55.33   12.42
   0  -5  -5   59.55   12.33
   0  -5  -4   -2.21    6.52
   0   5  -4   -0.80    6.49
   0   5  -3  736.87   38.26
   0  -5  -3  709.94   37.11
   0   5  -2    7.15    6.75
   0   5  -2    5.64    6.39
   0  -5  -2   -0.60    7.16
   0  -5  -2   -3.69    5.82
   0  -5  -1   43.32    9.89
   0   5  -1   46.98   11.14
   0  -5  -1   49.88   10.10
   0  -5   0   14.68    9.08
   0  -5   0    0.19    3.97
   0  -5   0   -1.06    5.03
   0   5   0   -1.88    5.96
   0  -5   1   35.65    5.93
   0   5   1   55.91   12.40
   0  -5   1   42.84   10.64
   0  -5   1   34.79    9.09
   0   5   2   -7.14    7.94
   0  -5   2   -9.78    8.45
   0  -5   2    5.08    3.23
   0   5   3  721.37   39.22
   0  -5   3  680.94   35.81
   0   5   3  758.60   32.89
   0   5   3  742.00   14.43
   0   5   4   -5.52    7.29
   0   5   4    1.95    5.43
   0  -5   4    0.15    6.97
   0  -5   5   46.19   10.53
   0   5   5   50.97   12.60
   0   5   5   48.23    9.76
   0   5   5   59.92    6.30
   0   5   6    5.11    6.23
   0   5   6    2.98    1.97
   0  -5   6   -3.91    7.42
   0  -5   6    4.16    2.55
   0   5   6   -0.87    6.78
   0   5   7  220.01   21.00
   0  -5   7  248.64   24.83
   0   5   7  248.10   25.36
   0  -5   8   -3.12    7.58
   0   5   8    3.04    6.62
   0   5   8    5.43    6.25
   0   5   9  314.47   29.28
   0   5   9  297.58   26.36
   0  -5   9  288.72   26.36
   0  -5   9  337.42   31.03
   0  -5  10    1.18    6.47
   0   5  10    9.53    8.17
   0  -5  10   19.02   10.21
   0   5  10    6.75    8.10
   0  -5  11   57.05   13.97
   0  -5  11   31.75   11.26
   0   5  11   42.80   14.16
   0   5  11   27.27   10.36
   0   5  12   -0.76    6.56
   0   5  12  -16.61    9.48
   0  -5  12   10.63   11.15
   0  -5  12   15.04    8.80
   0   5  13    5.58    7.49
   0  -5  13    7.49    7.06
   0  -5  13   -0.62    6.53
   0   5  14   14.05    9.76
   0   6 -12   52.65   17.77
   0  -6 -12   99.92   20.48
   0   6 -11   13.64   10.41
   0  -6 -11   28.23   13.86
   0  -6 -10   66.98   14.52
   0   6 -10   82.14   20.44
   0  -6 -10   60.21   14.20
   0   6  -9    0.46    7.64
   0  -6  -9    2.59    8.43
   0  -6  -9   -0.13    6.88
   0   6  -8   54.87   13.11
   0  -6  -8   88.77   16.61
   0  -6  -7   10.48    8.79
   0   6  -7    1.50    7.44
   0  -6  -6  130.48   19.91
   0   6  -6  137.47   20.31
   0   6  -5    2.35    6.69
   0   6  -5    8.25    8.67
   0  -6  -5   10.98    9.29
   0  -6  -4  536.91   35.39
   0   6  -4  542.02   36.84
   0  -6  -4  525.27   29.20
   0   6  -4  549.25   34.51
   0   6  -3    2.68    6.53
   0   6  -3    7.89    8.28
   0  -6  -3    0.43    7.88
   0  -6  -3    2.22    6.53
   0  -6  -2  223.33   23.29
   0   6  -2  239.57   24.16
   0  -6  -2  214.27   19.49
   0   6  -1    7.52    6.34
   0  -6  -1    2.93    6.98
   0  -6  -1   -4.01    5.73
   0  -6   0  147.56   17.16
   0   6   0  160.94   19.78
   0  -6   0  104.55   16.84
   0  -6   1  -11.34    8.93
   0   6   1    4.74    8.26
   0  -6   1  -11.39    8.77
   0   6   2  223.90   23.96
   0  -6   2  223.24   22.31
   0   6   2  217.14   13.27
   0   6   3   -3.45    7.38
   0  -6   3   -1.61    7.83
   0   6   3   -0.57    5.49
   0   6   4  519.37   31.44
   0  -6   4  533.41   35.65
   0   6   4  557.26   38.50
   0   6   5   -3.64    6.57
   0  -6   5    6.63    3.92
   0   6   5    0.29    6.98
   0   6   6  128.43   19.47
   0   6   6  137.10   17.33
   0  -6   6  112.16   18.03
   0   6   7   -6.72    9.12
   0   6   7   -2.45    6.29
   0  -6   7   -4.33    8.18
   0  -6   8   44.81   13.69
   0   6   8   86.72   17.49
   0   6   8   53.38   11.54
   0   6   9    6.50    8.16
   0   6   9   -8.16    5.99
   0  -6   9    2.51    6.99
   0   6  10   85.23   17.63
   0   6  10   63.65   15.17
   0  -6  10   40.52   11.75
   0  -6  10   57.22   16.21
   0  -6  11  -11.96    9.33
   0   6  11   -0.88    7.61
   0  -6  11    0.50    7.27
   0   6  11   -7.46    8.17
   0   6  12   44.90   14.24
   0  -6  12   49.09   16.17
   0   6  12   63.93   16.58
   0  -7 -10    7.53    7.49
   0   7 -10   11.87   11.38
   0   7  -9    1.74    7.89
   0  -7  -9   22.98   10.71
   0  -7  -9   29.64   14.39
   0   7  -8   -6.42    8.93
   0  -7  -8   11.44   11.00
   0  -7  -8   -1.58    7.45
   0   7  -8   -1.76    7.19
   0   7  -7   15.85    9.46
   0   7  -7   24.91   11.89
   0  -7  -7   25.59   11.59
   0   7  -6    1.29    8.96
   0  -7  -6   -3.92    7.58
   0   7  -6    2.20    6.39
   0   7  -5   11.86    8.45
   0  -7  -5   30.34   11.71
   0  -7  -5   19.95    7.72
   0   7  -5   13.87   10.94
   0  -7  -4   -1.34    5.22
   0  -7  -4   -3.08    7.93
   0   7  -4   -5.27    7.37
   0   7  -4    4.88    7.38
   0  -7  -3    8.78    9.07
   0   7  -3   16.45    9.28
   0  -7  -3    2.34    5.78
   0  -7  -2  -13.68    9.35
   0  -7  -2    1.63    5.38
   0   7  -2    9.07    9.02
   0   7  -1  286.75   28.74
   0  -7  -1  292.61   25.56
   0  -7  -1  264.22   27.18
   0  -7   0    2.95    7.27
   0  -7   0   -7.11    7.40
   0   7   0    9.06    7.46
   0   7   1  281.31   18.85
   0   7   1  263.19   28.16
   0  -7   1  256.25   24.76
   0   7   2  -10.62    9.79
   0  -7   2    5.29    6.79
   0   7   3    5.85    7.81
   0   7   3    6.10    7.50
   0  -7   3    6.22    6.51
   0   7   4   -6.47    6.41
   0  -7   4    3.06    8.49
   0  -7   4   -4.06    4.12
   0   7   4   -7.34    8.25
   0  -7   5   27.24   10.13
   0   7   5   18.98   11.15
   0   7   5   20.07    9.43
   0  -7   6  -10.16    8.29
   0   7   6   -3.19    5.33
   0   7   6    3.03    8.21
   0   7   7   17.80    9.19
   0   7   7   18.26   11.29
   0  -7   7   11.16    6.97
   0   7   8   -5.22    7.04
   0  -7   8   -9.15    7.55
   0  -7   9   13.10    9.30
   0   7   9    6.87   10.19
   0   7   9    4.58    7.83
   0   7  10  -11.92   10.65
   0  -7  10    1.02    7.62
   0  -7  11    0.01    9.00
   0  -8  -9    3.93    9.51
   0  -8  -8  235.56   29.62
   0  -8  -7   26.79   12.55
   0   8  -7   -0.36    9.59
   0   8  -7   -2.68    6.19
   0  -8  -7  -10.40   12.47
   0   8  -6   30.06   12.22
   0   8  -6   13.48    7.53
   0  -8  -5   19.59   11.97
   0   8  -5   -0.05    6.14
   0  -8  -4  147.19   23.57
   0   8  -4  139.20   21.43
   0  -8  -3   -3.77    5.87
   0  -8  -3   19.89   10.96
   0   8  -3    4.79    8.19
   0  -8  -2   50.16   12.49
   0   8  -2   63.38   14.67
   0  -8  -2   78.37   18.08
   0  -8  -1   -4.37    5.72
   0   8  -1   14.24   10.23
   0  -8  -1   -6.14    8.61
   0   8   0   15.41    8.65
   0  -8   0   17.36    8.24
   0  -8   1   -5.96    8.24
   0   8   1    1.61    9.96
   0   8   2   56.59   13.56
   0  -8   2   53.37   12.62
   0  -8   2   46.95   13.08
   0   8   2   50.83   14.79
   0   8   3   12.28    8.81
   0   8   3    7.58    9.83
   0  -8   3    4.02    6.47
   0   8   4  119.52   18.71
   0  -8   4  174.43   23.55
   0   8   4  142.62   23.71
   0  -8   5   -3.44    7.73
   0   8   5   -5.01   10.22
   0  -8   6   30.24   11.29
   0   8   6   16.83   10.10
   0   8   7   10.71   10.33
   0  -8   7    9.69    9.86
   0   8   8  249.44   33.10
   0   9  -6    5.21    7.55
   0  -9  -5   -5.84   10.35
   0   9  -5    4.17    6.35
   0  -9  -4    2.67   10.97
   0  -9  -4   14.38   10.20
   0   9  -4    9.10    8.70
   0   9  -3   51.30   15.87
   0  -9  -3   78.30   19.48
   0  -9  -3   97.76   19.01
   0   9  -2   -3.78    9.76
   0  -9  -2    2.43    7.45
   0   9  -1   38.01   12.81
   0  -9  -1    7.99    7.85
   0  -9  -1   21.15   11.13
   0   9   0   17.51   12.58
   0  -9   0    3.62    7.44
   0   9   1   12.16   10.15
   0  -9   1   10.44    8.21
   0  -9   2   -2.18    7.12
   0   9   2   -2.02    9.69
   0   9   3   73.22   21.02
   0  -9   3   60.62   16.71
   0  -9   4    2.01    8.25
   0  -9   5    8.32    9.72
  -1   0 -15    4.71    9.51
   1   0 -15    0.02    7.48
   1   0 -14   -1.98    6.74
  -1   0 -14    2.29    8.09
   1   0 -14   12.81    9.27
  -1   0 -14   -0.41    5.61
  -1   0 -13    0.33    6.32
   1   0 -13    7.09    6.33
  -1   0 -13    4.83    7.05
   1   0 -13    0.60    7.22
  -1   0 -12   -5.58    5.92
   1   0 -12    5.64    8.69
   1   0 -12    0.75    7.50
  -1   0 -12    3.84    4.55
  -1   0 -12  -12.10    7.21
  -1   0 -11    4.83    4.17
   1   0 -11    9.26    5.95
  -1   0 -11   -0.51    5.74
   1   0 -11   -1.71    5.95
  -1   0 -11    3.27    6.18
  -1   0 -11    8.62    5.57
  -1   0 -10   -2.65    4.61
   1   0 -10    3.17    4.64
  -1   0 -10    7.48    5.57
  -1   0 -10   -0.30    3.87
   1   0 -10   -1.28    5.16
  -1   0 -10    0.28    4.65
  -1   0  -9   -6.00    5.69
  -1   0  -9    9.75    4.52
  -1   0  -9    0.35    5.65
   1   0  -9    8.85    6.53
   1   0  -9    1.93    4.20
  -1   0  -9    1.18    3.59
  -1   0  -9   -1.81    3.34
  -1   0  -8   -6.30    5.30
   1   0  -8    1.65    4.78
  -1   0  -8   -3.13    2.76
   1   0  -8   -4.25    6.35
  -1   0  -8    0.92    3.88
  -1   0  -8    2.07    5.06
  -1   0  -8    9.39    3.75
  -1   0  -7   -1.02    4.55
   1   0  -7   -0.98    4.16
  -1   0  -7   -0.19    2.57
  -1   0  -7    0.97    3.71
  -1   0  -6    0.56    4.04
  -1   0  -6   -0.82    2.89
  -1   0  -6    2.48    3.80
  -1   0  -6    2.68    3.81
  -1   0  -6   -3.20    2.26
   1   0  -6    2.10    3.62
   1   0  -5   -2.21    3.77
   1   0  -5    5.05    4.45
   1   0  -5   -3.37    3.07
  -1   0  -5   -1.60    2.93
  -1   0  -5   -1.59    4.77
  -1   0  -5   -0.41    2.40
  -1   0  -5    2.10    3.26
  -1   0  -5    2.63    2.89
  -1   0  -5    3.24    4.19
  -1   0  -4    3.79    2.81
  -1   0  -4    0.97    3.51
   1   0  -4   -2.61    3.92
   1   0  -4    2.76    4.18
  -1   0  -4    0.57    4.15
  -1   0  -4    4.14    4.52
   1   0  -4    5.14    4.57
  -1   0  -4    3.04    3.86
   1   0  -4    9.37    5.54
  -1   0  -4    4.66    2.45
  -1   0  -4   -0.70    2.76
   1   0  -4   -0.64    4.11
  -1   0  -4    2.90    3.62
  -1   0  -3    3.50    2.97
  -1   0  -3    4.50    4.02
   1   0  -3    2.92    3.54
  -1   0  -3    0.23    2.03
   1   0  -3   -0.28    4.28
  -1   0  -3    4.65    4.41
  -1   0  -3   -1.18    4.49
  -1   0  -3   -1.80    1.76
   1   0  -3   -5.32    4.21
   1   0  -3   -6.77    3.54
  -1   0  -3    1.17    3.61
   1   0  -2    3.19    3.74
   1   0  -2    0.81    3.65
   1   0  -2   -1.64    3.67
  -1   0  -2    3.49    2.85
  -1   0  -2   -2.36    3.36
  -1   0  -2   -3.58    3.01
   1   0  -1    5.93    2.74
  -1   0  -1    0.90    2.38
   1   0  -1    9.49    3.40
   1   0  -1    7.24    3.29
  -1   0  -1    3.28    2.68
   1   0   0    4.70    2.36
   1   0   0   14.90    2.98
  -1   0   0   11.36    2.92
   1   0   0   16.28    3.02
  -1   0   0   13.56    2.93
  -1   0   0   14.86    2.99
   1   0   1    6.97    3.16
  -1   0   1    7.85    3.63
   1   0   1    1.62    2.25
  -1   0   1    5.65    2.81
  -1   0   1    8.15    2.90
   1   0   2    3.31    2.58
   1   0   2   -0.45    2.20
  -1   0   2   -0.66    2.93
   1   0   2    2.00    3.83
   1   0   2   -0.35    2.68
  -1   0   2   -0.52    3.83
  -1   0   2   -3.73    3.96
   1   0   3    7.61    5.32
   1   0   3   -3.48    3.97
   1   0   3    6.37    3.18
  -1   0   3   -0.22    5.19
   1   0   3    0.52    1.72
   1   0   3    1.62    4.68
  -1   0   3    2.55    4.37
   1   0   3   -1.14    2.58
  -1   0   3   -0.65    2.84
  -1   0   3    5.50    4.34
   1   0   4   -0.66    4.51
  -1   0   4    2.42    5.20
   1   0   4    3.20    4.04
  -1   0   4    2.37    5.55
   1   0   4    2.48    3.17
  -1   0   4    3.57    3.61
   1   0   4    2.70    5.99
   1   0   5   -0.16    5.42
  -1   0   5   -1.16    5.49
   1   0   5    3.07    5.40
   1   0   5    3.42    4.63
  -1   0   5   -1.31    4.73
   1   0   5   -1.74    3.36
  -1   0   6    1.83    5.13
   1   0   6    6.43    7.19
   1   0   6    0.08    4.89
   1   0   6    2.13    3.24
  -1   0   6    1.35    5.53
   1   0   7    2.55    5.41
  -1   0   7   -6.25    5.94
  -1   0   7   -5.46    7.20
   1   0   7    4.27    4.90
   1   0   7   -6.53    6.84
  -1   0   8    2.74    7.55
   1   0   8    4.85    4.23
   1   0   8   -4.07    6.87
   1   0   8    5.84    6.97
  -1   0   8    2.57    5.86
  -1   0   9   -1.11    6.33
   1   0   9   11.93    8.55
   1   0   9    1.95    6.41
  -1   0   9   -3.32    7.22
   1   0   9    1.48    4.20
  -1   0  10    0.29    6.27
  -1   0  10   -5.21    7.95
   1   0  10   -2.92    6.70
   1   0  10    7.16    7.85
   1   0  11    4.94    7.12
  -1   0  11   -0.03    7.12
  -1   0  11   12.40   10.64
   1   0  11   -7.12    7.41
  -1   0  12    5.96    9.93
   1   0  12   16.90   10.16
   1   0  12    0.01    7.97
   1   0  13    8.47    7.45
   1   0  13    3.97    7.29
  -1   0  13  -11.76    7.90
  -1   0  14   20.12   12.72
  -1   0  15   -0.70    8.79
   1  -1 -15   13.92    8.42
  -1   1 -15   33.71   11.15
   1   1 -15   32.74   13.88
   1   1 -15   34.40   11.84
  -1  -1 -15   17.87    8.93
  -1  -1 -14   10.49    7.79
   1  -1 -14   -4.59    8.33
   1   1 -14   13.30    7.53
  -1   1 -14  -14.31    7.27
   1  -1 -14   -2.79    5.94
   1   1 -14   -4.88    9.28
   1   1 -13   58.73   15.54
  -1  -1 -13   53.93   10.88
   1   1 -13   47.66   12.08
  -1   1 -13   57.08   14.56
   1  -1 -13   42.94   11.00
  -1  -1 -13   44.10   10.95
  -1   1 -13   60.72   13.52
  -1  -1 -13   43.67    9.58
  -1   1 -12   24.75    8.54
  -1  -1 -12   29.38    8.88
   1  -1 -12   13.45    7.99
  -1   1 -12   17.49    9.66
  -1   1 -12   18.06    9.35
   1   1 -12   19.42    9.71
   1  -1 -12   28.00    7.42
  -1  -1 -12   19.07    7.17
   1   1 -12   18.92    8.60
  -1  -1 -12   20.57    7.58
  -1  -1 -12   29.70    9.11
  -1  -1 -11  130.82   13.81
  -1   1 -11  141.23   15.93
   1   1 -11  138.11   18.31
   1   1 -11  142.40   20.30
  -1  -1 -11  143.59   14.62
  -1   1 -11  132.85   18.58
   1  -1 -11  168.59   19.77
  -1  -1 -11  140.84   17.56
  -1  -1 -11  125.76   15.09
  -1  -1 -11  147.90   15.91
   1  -1 -11  130.74   16.24
   1   1 -10   49.43   11.50
   1  -1 -10   53.24    9.99
   1   1 -10   33.33   10.71
   1  -1 -10   44.88    7.01
  -1  -1 -10   52.35   10.10
  -1   1 -10   45.32    5.68
  -1   1 -10   33.84    9.55
  -1  -1 -10   47.52    9.29
   1   1 -10   47.43    7.32
  -1   1 -10   42.68    9.35
  -1  -1 -10   43.46    9.36
  -1  -1 -10   43.76    8.32
  -1  -1  -9  377.81   22.51
  -1   1  -9  326.95   14.09
  -1   1  -9  378.62   27.40
   1   1  -9  384.14   26.53
  -1   1  -9  266.26   15.28
  -1  -1  -9  369.59   24.66
   1  -1  -9  363.73   23.08
   1   1  -9  343.10   16.97
   1  -1  -9  351.61   16.91
  -1  -1  -9  363.31   19.70
  -1   1  -9  358.51   21.83
  -1   1  -8   35.25    4.63
  -1   1  -8   17.86    3.74
  -1   1  -8   13.34    6.05
   1   1  -8   35.56    5.91
  -1  -1  -8   20.26    5.35
   1   1  -8   21.49    7.72
  -1  -1  -8   28.67    6.17
  -1   1  -8   29.50    9.31
   1  -1  -8   25.09    5.25
   1  -1  -8   16.77    4.11
   1  -1  -8   28.17    8.64
  -1  -1  -8   42.67    8.31
  -1   1  -8   15.32    3.67
  -1  -1  -8   26.94    7.65
  -1   1  -7   79.28   12.33
  -1  -1  -7   61.67    8.26
   1   1  -7   65.55   10.30
  -1   1  -7   84.37    5.83
  -1   1  -7   65.98    8.59
  -1   1  -7   57.07    6.09
   1  -1  -7   79.51   10.38
   1  -1  -7   63.82    7.18
   1   1  -7   72.44    7.80
  -1  -1  -7   71.31    7.96
  -1  -1  -7   71.17    9.20
  -1  -1  -7   75.95    9.04
   1  -1  -7   70.88    6.90
  -1  -1  -6   88.00    7.78
   1   1  -6   76.71    7.39
   1   1  -6   78.99   10.52
  -1  -1  -6   89.36    8.89
  -1  -1  -6   81.04    8.69
  -1  -1  -6   90.39    9.13
   1  -1  -6   75.80    7.27
   1   1  -6   95.51    9.45
  -1   1  -6   83.19   11.52
  -1   1  -6   86.58    8.78
   1  -1  -6   99.52   10.91
  -1   1  -6   81.35    6.62
   1   1  -6  101.45   10.48
  -1  -1  -6   94.77   10.13
   1  -1  -6   97.62    7.42
  -1   1  -5  711.21   27.85
  -1   1  -5  731.23   22.70
  -1  -1  -5  725.52   26.50
  -1  -1  -5  677.45   22.58
   1   1  -5  683.25   27.02
   1  -1  -5  758.94   26.82
  -1  -1  -5  699.07   22.46
   1   1  -5  717.26   23.85
  -1  -1  -5  715.24   18.38
  -1   1  -5  710.86   25.83
  -1  -1  -5  705.20   22.34
   1  -1  -5  705.50   17.42
   1   1  -5  715.78   19.62
  -1  -1  -5  726.97   23.17
   1   1  -4   53.16    8.07
  -1   1  -4   64.34    8.58
  -1  -1  -4   58.47    6.55
   1   1  -4   59.75    8.32
  -1   1  -4   55.02    6.42
   1   1  -4   65.02    7.03
  -1  -1  -4   59.37    6.41
   1  -1  -4   76.17    9.64
   1  -1  -4   59.55    5.06
   1   1  -4   61.31    8.43
  -1  -1  -4   58.66    6.86
   1  -1  -4   58.99    8.00
  -1   1  -4   59.77    7.56
  -1  -1  -4   59.66    6.02
  -1  -1  -4   60.69    8.00
  -1  -1  -4   63.60    7.81
   1  -1  -4   72.60   10.03
   1  -1  -4   65.58    8.16
  -1  -1  -4   65.07    4.65
  -1  -1  -4   68.45    7.63
   1   1  -4   58.15    5.85
   1   1  -4   63.21    5.52
  -1   1  -4   65.42    4.12
   1  -1  -4   60.81    8.06
  -1   1  -3  632.40   12.49
  -1  -1  -3  619.27   18.92
  -1  -1  -3  691.77   23.66
   1  -1  -3  630.18   19.80
   1   1  -3  633.21   15.94
   1   1  -3  609.25   22.11
  -1  -1  -3  621.53   16.95
   1  -1  -3  627.95   21.63
   1   1  -3  643.21   22.23
  -1  -1  -3  641.66   15.24
  -1   1  -3  640.67   18.24
  -1   1  -3  612.72   22.05
  -1   1  -3  611.90   21.19
   1   1  -3  636.10   16.53
  -1  -1  -3  651.59   18.73
   1  -1  -3  629.84   22.81
   1  -1  -3  609.08   14.24
   1  -1  -3  705.13   24.22
   1   1  -3  656.60   21.94
  -1  -1  -2  207.48   10.58
  -1   1  -2  204.49   11.77
   1  -1  -2  195.58   11.85
   1  -1  -2  191.81    8.33
   1  -1  -2  192.43   11.67
  -1  -1  -2  212.30   12.01
  -1   1  -2  184.43    7.67
   1   1  -2  197.47   11.90
   1  -1  -2  208.31   12.17
  -1   1  -2  164.28    6.02
   1  -1  -2  189.77    9.27
   1  -1  -2  192.21    8.38
  -1  -1  -2  196.58    5.86
  -1  -1  -2  195.51   11.21
   1   1  -2  185.39    8.68
  -1   1  -2  182.53   11.41
  -1  -1  -2  180.00    6.43
  -1  -1  -2  198.27    8.91
   1   1  -2  198.00   10.55
  -1  -1  -2  196.98    8.42
  -1   1  -2  182.18    9.52
   1   1  -2  190.82   11.39
  -1   1  -1 1429.41   26.41
   1  -1  -1 1557.44   28.86
   1  -1  -1 1420.05   18.60
  -1  -1  -1 1478.47   19.51
   1   1  -1 1448.40   26.66
   1   1  -1 1485.80   23.49
   1  -1  -1 1465.68   21.72
   1   1  -1 1486.10   21.18
  -1   1  -1 1427.88   22.74
  -1   1  -1 1388.97   20.85
   1  -1  -1 1480.00   27.48
  -1  -1  -1 1460.91   26.63
   1   1  -1 1455.65   26.13
  -1  -1  -1 1468.97   22.72
   1  -1  -1 1499.29   16.54
  -1   1  -1 1434.78   25.78
   1  -1   0  263.39   10.67
   1  -1   0  261.53    9.30
  -1   1   0  246.99    9.21
  -1   1   0  260.65   10.97
  -1  -1   0  247.95    9.82
  -1  -1   0  248.16   10.75
  -1  -1   0  259.37    8.91
  -1   1   0  244.44   10.01
   1   1   0  246.11    8.87
  -1   1   0  246.00   10.90
   1   1   0  260.88    9.93
   1  -1   0  254.76   10.47
   1   1   0  259.19   10.83
   1  -1   0  264.25   10.90
  -1   1   1 1479.85   21.42
   1   1   1 1512.87   26.72
   1   1   1 1487.72   27.31
   1  -1   1 1494.01   21.83
   1  -1   1 1472.54   26.88
  -1   1   1 1426.82   16.84
  -1   1   1 1408.41   27.56
   1  -1   1 1452.80   24.79
   1   1   1 1505.77   22.51
  -1   1   1 1495.73   27.82
   1  -1   1 1563.30   26.53
   1  -1   1 1436.05   20.32
  -1  -1   1 1471.50   20.27
  -1   1   1 1435.36   18.78
  -1  -1   1 1489.32   26.97
  -1  -1   1 1451.87   22.93
   1   1   1 1463.41   19.23
  -1   1   1 1466.43   22.72
  -1  -1   1 1471.44   25.76
  -1  -1   2  184.23   11.77
  -1  -1   2  192.00    9.07
   1  -1   2  177.34   10.93
  -1  -1   2  200.14    8.56
  -1  -1   2  194.28   11.45
   1   1   2  217.36   10.43
   1  -1   2  190.34    9.44
   1   1   2  200.56    8.78
  -1   1   2  187.34   11.66
   1  -1   2  206.08    7.26
   1   1   2  173.07    8.20
  -1   1   2  196.26    9.43
   1  -1   2  187.64    8.43
  -1   1   2  202.17    8.23
  -1   1   2  210.57   12.30
   1  -1   2  199.88   11.79
  -1  -1   2  188.33   10.18
   1   1   2  195.86   12.15
  -1   1   2  176.08   11.20
   1   1   2  186.93    9.99
   1   1   3  600.57   18.81
  -1   1   3  635.81   19.60
   1   1   3  603.29   18.07
   1   1   3  624.85   23.87
   1  -1   3  615.53   17.50
  -1  -1   3  611.07   21.19
   1   1   3  643.06   16.96
  -1  -1   3  655.99   19.53
   1  -1   3  631.94   18.54
   1   1   3  656.39   19.09
  -1   1   3  639.65   22.55
   1  -1   3  673.36   22.38
  -1  -1   3  613.79   16.12
  -1   1   3  636.15   23.28
  -1  -1   3  621.04   22.26
   1  -1   3  597.35   20.51
  -1   1   3  608.26   13.50
  -1   1   4   54.87    8.68
   1  -1   4   54.35    6.91
  -1  -1   4   63.30    5.90
   1   1   4   57.68    7.57
  -1  -1   4   61.19    8.96
   1  -1   4   65.56    6.52
   1  -1   4   59.24    8.30
  -1  -1   4   58.26    6.99
  -1  -1   4   67.81    9.21
   1   1   4   64.08    6.89
  -1   1   4   56.05    7.95
   1   1   4   57.37    6.92
   1  -1   4   62.86    8.54
   1   1   4   81.76   11.23
   1  -1   4   63.64    7.96
  -1  -1   5  650.45   18.53
  -1   1   5  709.75   29.33
  -1  -1   5  722.10   27.63
  -1  -1   5  727.13   28.37
   1  -1   5  758.36   26.43
  -1   1   5  742.59   27.11
   1   1   5  729.79   24.67
  -1  -1   5  711.82   23.41
   1  -1   5  745.45   22.42
   1   1   5  731.86   30.81
   1  -1   5  729.21   27.33
   1   1   5  707.87   27.14
  -1  -1   5  708.83   28.52
   1  -1   5  762.43   26.37
   1   1   5  735.71   22.97
  -1  -1   6   76.56   10.40
   1  -1   6   85.06   11.27
  -1  -1   6   75.05    7.44
  -1  -1   6  100.78   12.31
   1   1   6   72.85   10.55
   1   1   6   98.36    9.02
   1  -1   6   92.62   10.24
   1   1   6   93.17    9.92
   1   1   6   89.77   12.82
  -1   1   6   70.49   10.68
  -1  -1   6   95.75   13.01
   1  -1   6   81.27   10.41
  -1   1   6   97.41   11.56
  -1  -1   6   88.04    9.24
  -1  -1   7   71.71   12.22
   1   1   7   77.88   11.31
   1  -1   7   65.21   10.50
   1   1   7   71.20   12.23
   1   1   7   72.50    8.41
  -1   1   7   68.01   12.12
   1  -1   7   72.73   10.95
  -1  -1   7   73.60   10.82
  -1  -1   7   70.98   11.09
  -1   1   7   60.18   10.47
   1  -1   7   64.24    9.97
  -1   1   8   36.34    9.85
   1  -1   8   16.44    7.53
   1  -1   8   19.46    6.35
  -1  -1   8   21.25    8.52
   1   1   8   21.82    8.87
   1  -1   8   31.61    7.82
  -1  -1   8   19.13    7.97
  -1   1   8   31.55    8.77
  -1   1   9  334.43   26.98
  -1   1   9  373.63   26.80
   1   1   9  380.64   29.15
  -1  -1   9  336.95   25.18
   1  -1   9  384.42   24.09
   1  -1   9  330.41   24.83
   1  -1   9  364.51   25.21
   1  -1  10   38.26    9.67
  -1   1  10   42.35   10.31
   1   1  10   50.45   13.18
   1  -1  10   48.85   11.79
   1  -1  10   50.87   10.64
  -1  -1  10   43.66   11.21
  -1   1  10   62.70   13.21
  -1   1  11  166.05   22.22
   1  -1  11  131.81   17.49
   1  -1  11  144.75   16.48
  -1  -1  11  157.16   19.93
   1  -1  11  156.77   19.32
  -1   1  11  163.18   20.30
   1   1  11  155.60   21.96
   1  -1  12   33.28   12.51
   1  -1  12   18.30    9.61
  -1  -1  12   23.94   12.07
  -1   1  12   31.37   11.95
   1   1  12   25.45   10.98
  -1   1  12   31.28   11.76
   1  -1  12   16.16    7.09
   1  -1  13   60.60   13.80
  -1  -1  13   50.38   12.62
   1  -1  13   42.61   13.06
  -1   1  13   54.35   15.59
  -1   1  13   38.10    9.48
   1  -1  14   -1.70    7.01
  -1   1  14    0.60    8.95
  -1  -1  14   10.89   12.06
   1  -1  15   25.29   11.95
   1  -2 -15    6.76    6.85
   1   2 -15   21.36   10.35
  -1   2 -15    1.22    9.04
   1  -2 -14   29.21    9.15
  -1  -2 -14   10.32    5.24
  -1   2 -14   34.42   12.29
   1   2 -14   21.25   12.05
   1   2 -14   24.24   10.62
   1   2 -13   27.02   11.76
   1   2 -13    5.14    8.01
  -1  -2 -13   20.46    8.17
  -1  -2 -13   20.10    8.92
  -1   2 -13   28.19   11.77
   1  -2 -13   22.84   10.20
   1  -2 -13   16.70    8.29
  -1   2 -12   62.49   12.88
  -1  -2 -12   49.57   10.38
   1   2 -12   42.39   11.70
  -1  -2 -12   52.89   10.70
   1   2 -12   53.36   14.94
   1  -2 -12   69.58   12.70
  -1  -2 -12   48.36   11.16
  -1   2 -11   19.42    8.23
  -1  -2 -11    5.47    5.28
  -1  -2 -11    8.17    6.71
   1   2 -11   21.32    7.23
   1  -2 -11   18.70    9.79
   1   2 -11   26.91   12.24
  -1  -2 -11   10.22    6.02
  -1  -2 -11    6.41    4.38
   1   2 -10   13.57    8.01
   1   2 -10   14.75    8.69
  -1   2 -10   15.40    5.70
  -1  -2 -10   16.41    6.54
   1  -2 -10   16.77    8.16
   1  -2 -10   19.82    5.51
  -1  -2 -10    7.68    6.15
  -1  -2 -10   17.53    5.70
  -1  -2  -9   23.88    7.79
   1  -2  -9   32.55    6.29
  -1  -2  -9   32.30    7.01
   1  -2  -9   22.57    7.41
   1   2  -9   32.60   10.51
   1   2  -9   13.58    8.22
  -1   2  -9   30.22    8.55
  -1  -2  -9   17.53    5.54
  -1   2  -8  195.33   17.13
   1  -2  -8  183.45   13.51
  -1  -2  -8  167.22   11.71
  -1  -2  -8  188.30   13.37
   1  -2  -8  177.56    9.95
  -1  -2  -8  186.67   16.73
   1   2  -8  213.88   21.66
   1  -2  -8  196.34   18.08
   1   2  -8  188.09   18.86
   1  -2  -7   71.94    8.35
   1  -2  -7   60.09   10.28
   1   2  -7   61.57    8.29
   1  -2  -7   59.88    5.29
  -1  -2  -7   62.06    7.36
   1   2  -7   56.82    7.91
   1   2  -7   67.50   11.67
  -1  -2  -7   64.99    6.85
  -1   2  -7   64.79    9.80
   1   2  -7   66.01   12.25
  -1  -2  -7   71.30   10.52
  -1  -2  -6  157.63    9.17
   1   2  -6  155.87   15.16
   1   2  -6  153.91   11.26
  -1  -2  -6  158.62   11.90
   1  -2  -6  159.56   11.71
   1   2  -6  177.92   18.27
   1  -2  -6  152.70   14.72
   1   2  -6  155.44   12.12
  -1  -2  -6  190.06   15.22
  -1   2  -6  152.41   13.61
   1  -2  -6  158.62    6.67
  -1  -2  -6  168.75   10.36
   1   2  -5   48.51    7.14
   1   2  -5   48.72    5.76
  -1  -2  -5   48.02    4.58
   1  -2  -5   52.38    9.22
  -1  -2  -5   51.92    7.91
  -1  -2  -5   44.45    6.51
   1   2  -5   47.01    8.92
  -1  -2  -5   46.98    7.01
  -1  -2  -5   47.41    5.16
  -1   2  -5   48.07    8.15
   1  -2  -5   52.04    6.90
   1   2  -5   54.49    9.73
  -1  -2  -5   57.78    9.04
   1   2  -4 1197.62   34.76
   1   2  -4 1185.28   30.22
  -1  -2  -4 1184.77   33.89
   1   2  -4 1210.32   36.34
   1  -2  -4 1143.86   31.55
   1  -2  -4 1143.15   19.70
   1   2  -4 1217.31   37.25
   1  -2  -4 1147.54   28.48
  -1  -2  -4 1203.91   33.55
  -1   2  -4 1183.53   33.20
   1   2  -4 1093.01   20.37
   1  -2  -4 1188.25   36.16
  -1  -2  -4 1138.20   21.96
  -1  -2  -4 1208.47   30.26
  -1  -2  -3  211.22   14.64
  -1  -2  -3  200.84   10.69
   1  -2  -3  202.76   14.75
  -1  -2  -3  181.15    8.58
  -1   2  -3  190.46   13.57
   1  -2  -3  195.40   11.83
   1  -2  -3  181.16   14.29
  -1  -2  -3  195.14   13.91
  -1   2  -3  181.59   13.69
  -1  -2  -3  206.67   11.00
   1   2  -3  183.57   13.88
   1   2  -3  201.78   12.48
   1  -2  -3  170.35   11.54
   1   2  -3  195.89   13.00
   1   2  -3  184.58   14.03
   1  -2  -3  184.97    7.40
   1   2  -3  191.94   14.11
   1  -2  -2   41.81    7.18
  -1   2  -2   34.76    5.44
  -1   2  -2   24.99    6.11
   1  -2  -2   37.99    6.65
   1  -2  -2   31.73    7.04
   1  -2  -2   37.47    3.92
   1   2  -2   40.60    6.65
   1   2  -2   53.05    6.30
   1  -2  -2   44.90    5.55
   1   2  -2   38.35    6.88
  -1  -2  -2   27.69    6.05
   1   2  -2   37.40    7.45
  -1  -2  -2   39.93    5.22
   1   2  -2   36.33    6.33
  -1  -2  -2   39.97    3.49
  -1  -2  -2   44.56    6.74
  -1  -2  -1   50.26    7.86
  -1  -2  -1   45.07    5.87
  -1  -2  -1   42.87    4.92
   1   2  -1   39.82    6.25
   1   2  -1   57.91    8.11
   1  -2  -1   43.35    7.15
   1  -2  -1   33.87    4.48
   1   2  -1   42.33    6.23
   1   2  -1   36.54    3.67
   1  -2  -1   46.70    7.19
   1   2  -1   39.65    5.50
  -1   2  -1   32.86    6.02
  -1  -2  -1   35.01    5.46
   1  -2  -1   33.89    6.97
  -1   2  -1   32.00    5.96
  -1   2   0  658.60   18.22
  -1  -2   0  644.19   15.42
  -1   2   0  692.82   22.90
   1  -2   0  672.22   20.38
  -1   2   0  707.95   22.84
  -1  -2   0  731.95   19.19
  -1  -2   0  709.81   21.71
   1   2   0  729.24   22.90
   1   2   0  714.03   21.82
   1   2   0  704.33   17.08
  -1   2   0  659.97   18.50
   1   2   0  665.46   18.88
   1  -2   0  729.80   22.26
  -1  -2   0  653.72   22.30
   1   2   1   47.46    6.95
   1  -2   1   34.50    6.20
   1   2   1   37.01    6.01
   1   2   1   53.85    7.86
  -1  -2   1   36.33    6.69
   1  -2   1   43.23    5.90
   1  -2   1   42.99    5.91
  -1   2   1   43.95    8.25
  -1   2   1   37.16    4.03
  -1   2   1   42.33    4.48
   1   2   1   50.07    4.17
  -1  -2   1   43.87    8.13
  -1  -2   1   36.30    5.90
  -1   2   1   39.72    6.57
   1  -2   2   37.12    6.30
   1   2   2   39.06    4.03
   1   2   2   29.52    6.62
   1   2   2   40.36    4.56
   1   2   2   26.44    6.71
  -1   2   2   49.25    8.72
  -1   2   2   42.78    8.06
   1  -2   2   35.67    4.55
  -1   2   2   47.25    6.40
  -1   2   2   49.50    4.20
   1  -2   2   31.84    7.92
   1   2   2   32.92    6.14
  -1  -2   2   41.31    6.94
  -1  -2   2   45.82    7.98
  -1  -2   2   51.84    7.99
  -1  -2   3  202.32   14.11
   1  -2   3  198.24   13.01
  -1   2   3  193.14   14.94
   1   2   3  185.48   10.84
   1  -2   3  209.86    7.55
   1   2   3  214.15   14.07
  -1  -2   3  196.72   10.07
   1   2   3  169.71   10.32
  -1   2   3  182.81   10.81
   1   2   3  189.01    8.40
  -1  -2   3  190.02   11.89
   1   2   3  196.94   15.18
  -1  -2   3  180.97   14.17
   1  -2   3  189.37   14.07
  -1   2   3  189.88   14.32
   1  -2   3  191.33   14.49
   1   2   3  176.28   13.20
   1  -2   4 1174.59   31.82
  -1  -2   4 1143.86   23.03
  -1  -2   4 1120.86   35.68
  -1   2   4 1213.91   37.91
   1  -2   4 1147.33   35.84
   1   2   4 1118.61   27.28
   1   2   4 1150.17   34.00
  -1   2   4 1198.45   36.82
  -1   2   4 1184.30   27.21
   1  -2   4 1201.86   30.01
   1   2   4 1112.93   29.95
   1   2   4 1242.68   38.61
  -1   2   5   59.59    9.82
   1   2   5   40.78    7.85
  -1  -2   5   42.98    6.52
   1  -2   5   50.20    7.60
  -1   2   5   48.31    6.14
  -1  -2   5   45.48    4.94
   1   2   5   53.84    6.88
   1  -2   5   56.93    9.75
   1   2   5   55.67    8.49
   1  -2   5   62.36    8.88
  -1  -2   5   51.38   10.08
   1   2   5   60.35    8.78
  -1   2   5   42.58    8.96
  -1   2   6  174.89   16.23
   1  -2   6  156.41   13.60
  -1  -2   6  180.19   16.88
   1   2   6  155.70   12.21
   1   2   6  184.51   15.23
  -1   2   6  176.58   15.37
  -1  -2   6  182.82   13.23
   1   2   6  168.84   17.46
   1   2   6  164.91   14.82
  -1  -2   6  130.32    8.12
   1  -2   6  174.81   14.47
   1  -2   6  153.70   14.81
  -1   2   6  161.94   16.26
  -1   2   7   65.59   11.85
   1   2   7   90.22   14.66
   1  -2   7   75.60   11.29
   1   2   7   70.83   10.31
  -1  -2   7   74.61   12.23
  -1  -2   7   68.21   11.96
  -1   2   7   76.54   11.49
   1   2   7   69.42    9.12
   1   2   7   67.90   10.55
   1  -2   7   69.83   10.94
  -1  -2   7   60.60    8.34
   1  -2   7   61.58   10.36
   1   2   8  182.91   18.37
  -1  -2   8  184.26   13.97
   1  -2   8  194.13   19.05
  -1   2   8  181.76   18.97
   1  -2   8  172.20   16.59
   1  -2   8  207.57   18.75
  -1   2   8  202.56   19.33
  -1  -2   8  190.71   19.61
   1   2   8  208.78   16.62
   1   2   8  199.93   21.09
  -1  -2   8  208.35   19.34
   1  -2   9   14.42    6.90
  -1   2   9   10.13    7.34
   1   2   9   29.74   10.02
  -1  -2   9   20.43    8.52
  -1   2   9   28.65   10.43
   1   2   9   32.10   10.68
   1  -2   9   14.80    6.92
   1  -2   9   31.35    8.67
   1   2   9   28.66    6.96
  -1  -2   9   28.15    8.01
   1   2  10   21.68    9.26
  -1  -2  10   19.03    9.48
   1  -2  10   33.70    9.88
  -1   2  10    5.03    6.57
   1  -2  10   16.85    9.05
   1   2  10   12.60   10.62
   1  -2  10   24.52    8.87
  -1  -2  10    4.56    7.17
  -1   2  11   27.18   10.71
   1  -2  11    9.24    6.93
   1  -2  11   11.48    7.75
   1  -2  11   10.35    8.12
  -1  -2  11   12.73    6.46
   1   2  11   25.62   11.07
  -1  -2  12   39.18   12.45
   1  -2  12   41.99   11.95
  -1   2  12   23.35   10.56
   1  -2  12   45.52   12.08
   1  -2  12   45.78   11.81
  -1  -2  13   17.09    9.19
   1  -2  13   22.05    8.16
  -1   2  13   12.74    9.32
   1  -2  13   31.91   11.63
   1  -2  13   33.06   12.09
   1  -2  14   19.81    7.94
  -1   2  14   18.86    8.55
  -1  -2  14   29.88   11.43
   1  -2  15   13.24   11.96
   1   3 -15   94.49   20.47
  -1   3 -14   33.35   12.65
   1   3 -14   11.73   10.61
   1  -3 -14   26.15   10.57
   1   3 -14   22.07   11.11
  -1   3 -13  -11.52    8.13
   1  -3 -13    9.81    8.49
   1   3 -13    9.94    7.38
   1   3 -13   -1.51    8.19
  -1   3 -13   -3.19    7.54
  -1  -3 -13  -13.75   10.03
   1   3 -12    8.01    8.71
   1  -3 -12   -0.43    5.61
  -1   3 -12    7.41    6.55
  -1  -3 -12   19.89    8.73
  -1  -3 -12   18.46    8.83
   1   3 -12   25.84    8.72
  -1  -3 -11    7.68    6.62
  -1  -3 -11   27.89    9.78
   1   3 -11   20.00   10.70
   1  -3 -11   14.89    8.14
   1   3 -11    2.19    7.88
  -1   3 -11   31.76   10.10
   1  -3 -10   13.26    6.78
  -1  -3 -10    7.82    5.89
   1  -3 -10    1.77    6.56
  -1   3 -10   11.50    7.41
   1   3 -10   32.22    8.99
   1   3 -10   10.78    6.82
  -1   3  -9   17.63    6.73
   1  -3  -9   22.85    8.75
   1   3  -9   19.99    9.29
  -1  -3  -9   19.99    3.91
   1  -3  -9   12.67    5.96
  -1  -3  -9   33.49    9.18
   1   3  -9   24.31   11.06
   1   3  -8   39.49   10.74
  -1  -3  -8   33.84    9.50
   1  -3  -8   35.79    8.43
   1   3  -8   28.36    8.93
   1  -3  -8   48.71   10.31
  -1  -3  -8   30.00    4.84
  -1   3  -8   33.53    9.19
  -1   3  -7  121.54   14.92
   1  -3  -7  127.76   13.35
   1  -3  -7  142.38   16.33
  -1  -3  -7  130.10    8.00
  -1  -3  -7  147.19   15.20
   1  -3  -7  131.52    6.98
   1   3  -7  119.60   15.86
   1   3  -7  133.15   17.07
  -1  -3  -7  107.89    8.33
  -1  -3  -6   15.28    3.06
  -1  -3  -6   18.91    6.70
   1  -3  -6   18.20    6.84
  -1   3  -6   19.67    7.47
   1  -3  -6    8.48    1.84
   1   3  -6   13.06    6.86
   1  -3  -6    8.84    6.38
   1   3  -6   17.49    8.60
   1   3  -5  253.87   19.80
   1  -3  -5  226.64   18.55
   1   3  -5  240.78   19.90
  -1   3  -5  233.10   18.29
   1  -3  -5  211.45   15.99
  -1  -3  -5  230.85   17.48
   1  -3  -4    7.99    5.96
   1   3  -4   27.91    8.77
   1  -3  -4   24.52    6.72
  -1   3  -4   15.74    6.29
   1   3  -4   20.59    6.80
  -1  -3  -4   28.66    7.83
  -1  -3  -4   19.70    5.31
   1  -3  -3  228.76   14.01
   1   3  -3  247.81   18.21
  -1  -3  -3  225.54   14.31
  -1  -3  -3  246.38   10.86
   1   3  -3  230.61   16.34
  -1  -3  -3  218.01   16.67
  -1   3  -3  226.01   17.06
   1  -3  -3  222.09   15.97
   1  -3  -3  226.31   17.55
  -1   3  -3  221.51   14.34
  -1   3  -2   56.27    8.22
  -1  -3  -2   58.60    6.01
  -1  -3  -2   48.17    7.13
   1   3  -2   51.06    8.94
   1  -3  -2   50.40    7.92
  -1  -3  -2   55.83    7.85
   1  -3  -2   61.25    9.11
  -1   3  -2   48.23    8.34
  -1  -3  -2   38.06    8.18
  -1  -3  -1  961.04   32.68
  -1  -3  -1  997.53   25.53
  -1  -3  -1  953.04   29.39
   1  -3  -1  962.15   31.69
   1  -3  -1  883.43   30.98
  -1  -3  -1  931.06   26.51
   1   3  -1  957.83   29.23
  -1   3  -1  955.35   30.37
   1   3  -1  951.78   31.96
  -1  -3   0  117.29   11.07
   1   3   0   98.49   10.60
  -1  -3   0  107.69    9.85
   1   3   0  106.83    9.45
  -1  -3   0  101.90    7.95
  -1  -3   0  111.24   11.81
  -1  -3   0  105.36    8.05
   1   3   0  111.25    8.33
  -1   3   0   99.84    8.52
   1  -3   0  126.23   11.81
   1  -3   0  110.97   10.65
  -1   3   0   84.49   10.57
  -1   3   1  937.53   21.89
  -1  -3   1  942.89   29.29
   1  -3   1  958.98   26.86
  -1  -3   1  948.53   31.36
  -1   3   1  967.66   33.47
   1   3   1  960.01   29.44
   1   3   1  954.89   26.57
  -1  -3   1  942.56   26.33
  -1   3   2   57.44   10.22
   1  -3   2   54.07    9.71
  -1   3   2   63.14    9.17
  -1  -3   2   57.43    8.72
   1  -3   2   48.44    6.02
  -1  -3   2   52.25    8.17
  -1   3   2   51.24    4.51
   1   3   2   60.50    6.31
   1   3   2   56.54    5.27
   1   3   2   43.38    7.44
   1   3   2   51.30    8.90
   1   3   3  209.09    8.38
   1   3   3  224.49   17.73
  -1  -3   3  211.87   17.19
  -1   3   3  238.87   15.36
  -1   3   3  188.81    5.67
   1   3   3  245.67   17.59
   1   3   3  211.28   12.47
   1  -3   3  233.66   10.83
  -1   3   3  228.85   18.57
  -1  -3   3  221.38   15.56
  -1   3   3  242.06   17.00
   1  -3   3  204.76   17.12
   1   3   4   20.00    4.76
   1   3   4   17.45    2.62
  -1   3   4   12.76    7.29
   1  -3   4   22.41    8.42
  -1  -3   4   25.38    7.60
   1   3   4   36.23    7.50
  -1   3   4   18.21    6.49
   1   3   4   21.98    5.45
  -1  -3   4   19.67    4.07
   1  -3   4   22.02    3.25
   1   3   4   34.71    8.91
  -1   3   5  249.87   19.39
   1   3   5  220.01   13.26
   1  -3   5  226.08   18.73
   1   3   5  271.07   21.33
  -1   3   5  263.04   20.74
   1   3   5  240.48   15.99
  -1  -3   5  221.90   19.66
   1   3   5  255.72   19.49
  -1  -3   5  253.27   11.89
   1   3   6   16.87    8.64
  -1   3   6   14.70    7.26
  -1  -3   6    5.04    2.30
   1  -3   6   13.43    5.44
   1   3   6   10.87    5.25
   1   3   6   11.97    3.97
  -1  -3   6    7.68    6.17
   1  -3   6   17.91    6.75
   1   3   6   14.20    5.30
   1  -3   6    1.87    5.65
  -1  -3   6   16.79    6.62
  -1   3   6   21.37    8.45
  -1  -3   7  126.06   16.30
   1   3   7  123.65   17.10
   1  -3   7  124.60   13.87
  -1   3   7  137.67   17.04
   1   3   7  123.90   11.12
  -1  -3   7  133.82   12.45
   1   3   7  135.69   15.10
   1  -3   7  145.60   17.02
   1  -3   7  129.92   12.72
  -1   3   7  125.42   16.16
   1   3   7  111.38   13.90
  -1  -3   8   45.13   11.24
   1   3   8   40.63    9.85
   1   3   8   35.81    6.90
   1  -3   8   36.36    8.24
  -1   3   8   30.79   10.15
  -1  -3   8   35.66    9.52
  -1   3   8   40.66    9.18
   1  -3   8   16.16    6.06
   1  -3   8   42.13    9.26
   1   3   8   26.42   11.61
  -1  -3   8   42.99    8.51
   1   3   8   32.61    8.65
  -1  -3   9   15.70    7.87
   1  -3   9   22.07    7.92
   1   3   9   15.16    6.11
  -1  -3   9   11.82    7.52
  -1   3   9   19.20    8.91
   1  -3   9   20.38    8.59
  -1  -3   9   24.95    6.69
   1  -3   9    2.38    5.21
   1   3   9   17.99    6.51
   1   3   9   12.52   12.09
  -1  -3  10    8.05    6.02
   1   3  10    8.18    6.58
   1  -3  10   25.23    9.71
   1  -3  10    6.30    5.79
   1   3  10    7.08    7.04
   1  -3  10   23.23    7.96
  -1  -3  10    4.82    7.38
  -1   3  10   34.88   10.36
  -1   3  11   18.34    9.46
   1  -3  11    8.25    6.69
   1  -3  11   11.09    5.75
   1  -3  11   15.12    7.41
  -1  -3  11   30.13   11.63
  -1  -3  11   27.44    9.90
   1   3  11   20.89    8.85
   1  -3  12   14.55    7.33
  -1  -3  12    6.80    7.97
   1  -3  12   -8.10    7.70
   1   3  12   18.99    9.93
   1  -3  12    6.79    7.89
  -1   3  12    8.15    9.47
   1  -3  13    6.23    8.77
  -1  -3  13   -7.48    9.72
  -1   3  13    3.97    7.27
   1  -3  13   -0.92    6.98
   1  -3  14    3.84    7.89
   1  -3  14    7.39    8.36
  -1  -3  14   23.25   11.77
   1  -3  15   98.75   19.76
  -1  -4 -14   39.27   12.09
   1  -4 -14   28.99   12.06
   1   4 -14    8.84    7.18
   1   4 -13   -6.26    9.89
   1  -4 -13   -6.94    7.91
  -1  -4 -13   16.44    9.67
  -1   4 -13   -1.31    6.34
  -1   4 -13    8.08   10.53
  -1   4 -12   10.33    9.25
   1   4 -12   13.35    8.41
   1   4 -12    5.01    7.20
   1  -4 -12   21.34   11.78
  -1  -4 -12    7.52    7.94
   1   4 -11   19.45    9.94
   1  -4 -11   24.67    8.54
  -1   4 -11   14.06    8.55
   1   4 -11   17.99   10.46
  -1  -4 -11   12.12    8.69
   1   4 -10   63.83   13.62
   1   4 -10   65.93   13.78
   1  -4 -10   67.41   13.98
   1  -4 -10   82.07   12.67
  -1  -4 -10   71.02   12.53
  -1   4 -10   77.56   14.78
   1   4  -9   15.43    8.89
  -1  -4  -9    7.24    6.23
   1  -4  -9   15.59    8.54
   1   4  -9    8.60    8.98
   1  -4  -9    2.56    6.11
  -1   4  -9   11.88    7.09
  -1  -4  -8   44.98    9.98
   1   4  -8   29.19    9.69
  -1   4  -8   49.45   12.45
   1   4  -8   32.84   10.21
   1  -4  -8   40.78    9.50
   1  -4  -8   55.80   12.10
   1   4  -7   80.19   14.18
  -1   4  -7   77.09   13.73
   1  -4  -7   69.33   13.23
   1  -4  -7   61.55   11.67
   1   4  -7   60.50   12.81
  -1  -4  -7   86.74   13.32
   1   4  -6  919.40   43.19
  -1  -4  -6  948.45   40.79
   1  -4  -6  973.47   43.37
  -1   4  -6  944.69   41.87
   1  -4  -6  909.30   38.02
  -1  -4  -5   92.60   13.98
   1   4  -5  110.27   15.24
   1  -4  -5   98.28   13.39
  -1   4  -5  107.98   15.04
   1  -4  -5  106.22   15.38
  -1  -4  -4   29.50    5.05
  -1   4  -4   19.37    7.51
  -1  -4  -4   45.09   10.14
   1  -4  -4   47.90   11.26
  -1   4  -4   43.89    8.20
   1  -4  -4   34.80    9.06
   1   4  -4   28.66    9.11
  -1  -4  -3   70.07   12.12
   1   4  -3   55.28   11.00
  -1   4  -3   49.65   10.70
   1  -4  -3   59.49   10.36
   1  -4  -3   48.54   10.17
  -1  -4  -3   61.51    7.26
  -1   4  -3   61.11    9.86
   1   4  -2  165.07   16.15
  -1   4  -2  188.84   16.05
  -1  -4  -2  183.58   12.65
  -1  -4  -2  199.33   18.52
   1  -4  -2  170.42   16.18
  -1   4  -1  171.56   16.26
  -1  -4  -1  183.77   16.87
  -1  -4  -1  206.60   14.38
  -1  -4  -1  184.29   13.33
   1  -4  -1  177.91   15.98
   1  -4  -1  159.54   15.91
   1   4  -1  168.56   16.33
  -1   4   0  227.22   14.38
  -1  -4   0  218.44   15.72
  -1  -4   0  224.04   18.77
  -1  -4   0  216.87   12.71
  -1   4   0  230.01   19.13
   1  -4   0  254.20   17.75
  -1  -4   0  193.04   12.71
   1   4   0  241.78   18.24
  -1  -4   1  175.58   13.18
  -1  -4   1  198.20   16.01
   1  -4   1  181.89   14.38
  -1   4   1  158.11   16.25
   1   4   1  178.96   17.84
  -1   4   1  185.80   11.53
  -1  -4   1  210.20   18.32
   1  -4   1  180.98   16.92
   1   4   2  193.89   12.45
   1  -4   2  181.06   13.39
  -1   4   2  185.30    9.67
   1   4   2  187.41   18.30
  -1  -4   2  179.69   16.39
  -1   4   2  193.98   18.12
  -1  -4   2  187.02   16.93
   1  -4   2  168.63   16.52
   1   4   3   50.71    6.91
   1   4   3   38.17    9.16
  -1   4   3   46.47   10.10
  -1   4   3   59.57   10.09
  -1  -4   3   47.02    9.34
  -1   4   3   56.42    4.32
   1  -4   3   62.85    7.48
  -1  -4   3   55.32   10.41
   1   4   3   61.29    4.86
   1  -4   3   48.00   10.29
   1   4   4   24.93    6.45
  -1   4   4   35.68    8.34
   1  -4   4   44.15    5.75
  -1  -4   4   40.55   10.33
   1  -4   4   30.81    7.62
  -1   4   4   25.72    8.07
   1   4   4   36.48    6.75
   1   4   4   28.15    8.66
   1  -4   5  112.80    6.46
   1   4   5   84.25    8.90
  -1  -4   5  119.06   15.91
   1  -4   5   89.02   13.49
  -1   4   5  106.81   15.72
   1   4   5  103.30   11.69
  -1   4   5  104.08   13.62
  -1  -4   5   96.37    8.80
   1   4   5   98.12   13.86
  -1   4   6  964.77   44.51
   1  -4   6  894.60   28.39
  -1  -4   6  984.74   44.12
   1   4   6  979.01   43.59
   1   4   6  940.11   35.86
  -1  -4   6  886.21   23.27
   1   4   6  871.41   27.76
   1  -4   6  957.65   43.35
  -1   4   6  920.67   40.86
   1   4   7   57.18   10.26
   1  -4   7   52.05   10.47
  -1  -4   7   75.25   13.94
   1   4   7   72.48    8.80
  -1   4   7   81.36   14.49
  -1  -4   7   85.23   11.24
   1  -4   7   59.39    5.89
   1   4   7   64.85   11.94
   1  -4   7   67.16   12.79
   1  -4   7   68.76    9.23
  -1   4   7   68.66   12.23
  -1   4   8   34.55   11.03
   1   4   8   50.11    9.80
   1  -4   8   57.56   13.99
  -1   4   8   57.29   13.18
  -1  -4   8   43.80    8.59
   1   4   8   54.94    7.66
  -1  -4   8   56.25   13.95
   1  -4   8   40.87    9.05
   1   4   8   54.66   12.01
   1  -4   8   48.89    8.61
   1   4   9    5.57    5.58
  -1   4   9    4.00    7.81
   1   4   9    7.42    4.56
  -1  -4   9    5.80    7.11
   1  -4   9   -0.85    5.63
   1   4   9    0.30    5.35
  -1   4   9    5.24    7.29
   1  -4   9   -2.83    7.26
  -1  -4   9    2.63   10.07
  -1  -4   9   19.14    6.73
   1  -4   9    5.60    5.53
   1  -4  10   61.97   12.48
  -1  -4  10   68.38   15.66
  -1  -4  10   68.24   15.17
   1   4  10   79.35   13.96
   1  -4  10   91.84   16.60
  -1   4  10   69.03   14.78
  -1   4  10   75.53   14.95
   1   4  10   90.60   14.56
   1   4  11   24.68   10.21
  -1   4  11    8.24    7.96
  -1  -4  11   19.42   10.65
  -1  -4  11    6.53    9.50
   1  -4  11   11.51    7.81
   1  -4  11    8.85    5.61
   1   4  11   13.09    7.98
   1  -4  12    9.61    9.38
   1   4  12   -0.64    6.05
   1  -4  12   -1.75    6.25
  -1  -4  12   -9.26    8.90
  -1   4  12   -6.31    6.31
  -1  -4  12   -0.69    7.42
  -1   4  13    7.93    7.99
  -1  -4  13   -2.95   10.77
   1  -4  13    2.06    7.04
  -1  -4  13    1.01    8.06
   1  -4  13  -10.51    9.42
   1   4  13   -9.59    9.69
   1  -4  14   24.65   12.01
  -1   4  14    9.51    7.30
   1  -4  14   23.36   11.47
  -1  -5 -13   20.92   11.41
  -1   5 -13   10.51    9.32
   1   5 -13   26.46   11.59
   1  -5 -13   44.52   16.06
  -1  -5 -12   13.48    8.51
   1  -5 -12    4.59    8.69
   1   5 -12    6.13   11.73
  -1   5 -12   -6.27    6.65
  -1   5 -11   12.92    8.78
  -1  -5 -11   24.96   11.76
   1  -5 -11    9.56   10.37
   1   5 -11    2.93    8.22
  -1   5 -10   23.78   11.20
   1  -5 -10   33.58   10.90
   1   5 -10   38.19   13.13
  -1  -5 -10   27.72   10.96
   1  -5 -10   18.25    7.80
   1  -5  -9  184.41   24.03
   1   5  -9  171.50   22.85
  -1   5  -9  174.89   23.21
  -1  -5  -9  162.76   20.05
   1  -5  -9  137.94   18.61
   1  -5  -8  135.56   17.45
  -1  -5  -8  134.36   18.77
  -1   5  -8  123.52   19.22
   1  -5  -8  128.88   18.41
   1   5  -8  115.36   18.88
   1   5  -7  205.53   23.20
   1  -5  -7  197.28   22.84
  -1   5  -7  228.25   19.24
  -1   5  -7  204.41   22.66
   1  -5  -7  219.24   21.40
  -1  -5  -7  220.56   22.55
  -1   5  -6  170.49   20.90
   1   5  -6  168.94   21.29
   1  -5  -6  224.11   22.98
  -1  -5  -6  218.82   22.23
  -1  -5  -6  171.78   12.55
   1  -5  -6  189.08   19.50
  -1   5  -6  198.38   18.08
  -1   5  -5  364.13   28.73
  -1  -5  -5  405.04   19.63
   1  -5  -5  388.64   29.32
   1  -5  -5  375.35   27.33
  -1  -5  -5  413.65   29.49
   1   5  -5  362.45   29.78
  -1   5  -5  418.46   25.93
  -1   5  -4  142.04   15.61
  -1  -5  -4  178.17   13.77
   1   5  -4  164.07   20.22
  -1   5  -4  149.19   18.15
   1  -5  -4  175.14   19.71
   1  -5  -4  146.80   16.98
  -1  -5  -4  163.42   19.99
  -1  -5  -3  241.08   16.50
   1  -5  -3  221.54   21.22
  -1   5  -3  247.98   20.70
   1  -5  -3  240.62   22.87
  -1  -5  -3  206.00   20.89
   1   5  -3  216.82   21.75
   1  -5  -2   95.97   14.31
  -1   5  -2   92.73   14.13
   1  -5  -2  106.01   14.07
   1   5  -2  117.88   15.71
  -1  -5  -2  116.80   16.03
  -1  -5  -2   87.79   10.51
   1  -5  -1  102.63   13.70
   1   5  -1  134.02   16.34
  -1  -5  -1  105.57   10.45
  -1  -5  -1  121.95   16.47
  -1  -5  -1  109.08   11.99
  -1   5  -1  118.11   12.79
  -1   5  -1  120.39   15.95
   1  -5  -1   96.25   14.71
   1   5   0  139.58   17.63
   1  -5   0  164.81   17.15
   1  -5   0  152.60   15.65
  -1  -5   0  143.12   11.29
  -1   5   0  145.77   12.90
  -1  -5   0  153.62   17.72
  -1   5   0  147.70   17.68
  -1  -5   0  171.75   16.01
   1   5   0  164.50   17.22
  -1  -5   1  137.06   17.26
  -1  -5   1  105.24    7.95
  -1   5   1  118.16   10.79
   1  -5   1  109.88   12.56
   1  -5   1   98.16   14.34
  -1  -5   1   86.59   12.34
   1   5   1  115.60   16.33
  -1   5   1  142.12   17.99
  -1   5   2  107.00   15.46
   1   5   2   94.50   14.81
   1  -5   2   91.22   14.21
   1   5   2  112.59   11.18
  -1  -5   2   76.66   12.84
  -1   5   2   92.49    8.47
  -1  -5   2   89.94   13.07
   1  -5   2  105.08   11.63
   1  -5   3  212.61   21.49
  -1   5   3  235.08   20.85
   1   5   3  222.23   16.10
   1   5   3  216.38   10.45
  -1   5   3  235.63   23.05
  -1   5   3  239.64    9.82
   1   5   3  253.31   23.62
  -1  -5   3  227.11   20.89
   1  -5   3  233.64   15.98
  -1  -5   3  252.30   22.43
  -1   5   4  190.80   21.35
   1  -5   4  172.64   19.60
  -1   5   4  155.28   18.03
   1   5   4  160.53   14.42
   1  -5   4  157.91   12.02
  -1  -5   4  154.30   18.37
   1   5   4  162.73   18.92
   1   5   5  359.98   22.09
   1  -5   5  410.65   16.24
   1   5   5  385.22   19.70
  -1   5   5  347.63   26.36
   1  -5   5  378.86   29.84
  -1  -5   5  378.09   29.12
  -1   5   5  379.27   30.32
   1   5   5  384.98   30.10
  -1   5   6  178.32   21.23
   1   5   6  199.73   22.34
   1   5   6  180.79   16.79
   1   5   6  173.15   13.05
   1  -5   6  136.79   10.69
  -1  -5   6  173.99   20.37
  -1   5   6  165.94   18.77
   1  -5   6  203.62   22.59
   1   5   7  201.38   13.92
   1   5   7  177.46   18.05
  -1  -5   7  262.70   25.85
   1  -5   7  210.73   23.01
   1  -5   7  167.55   12.27
   1   5   7  218.27   24.09
  -1   5   7  213.91   21.55
  -1   5   7  230.21   24.39
  -1   5   8  119.61   18.16
   1  -5   8  127.60   16.05
  -1   5   8  100.68   16.47
  -1  -5   8  127.71   15.57
   1  -5   8  147.92   20.04
   1   5   8  116.52   15.42
  -1  -5   8  135.46   19.51
   1   5   8  121.71   17.61
  -1  -5   9  199.76   24.33
   1   5   9  146.73   18.13
  -1   5   9  123.59   18.21
   1   5   9  154.97   20.41
  -1   5   9  138.47   20.25
   1  -5   9  138.80   20.29
   1  -5   9  134.66   17.88
   1  -5  10   24.11    9.34
   1   5  10   44.46   12.20
  -1  -5  10   20.19    9.34
  -1  -5  10   36.85   12.18
  -1   5  10    9.58    8.45
  -1   5  10   33.53   11.89
   1  -5  10   37.32   13.35
   1   5  10   43.91   11.61
  -1   5  11    4.10    8.52
   1  -5  11   10.67    9.43
  -1  -5  11   18.45   10.71
   1   5  11   19.68   10.15
  -1   5  11    6.98    7.21
  -1  -5  11   16.93    8.20
   1   5  11    9.87    8.72
   1  -5  11   -5.43    6.65
   1  -5  12  -14.38    8.78
  -1  -5  12   -6.32    7.25
  -1  -5  12  -11.61    9.16
   1   5  12   26.06   11.97
   1  -5  12   -9.75   11.56
  -1   5  12   11.16   10.63
   1   5  12   -2.47    7.00
   1  -5  13    2.08    6.94
  -1   5  13   30.61   10.97
   1  -5  13   31.61   13.07
  -1   6 -12  -20.70   11.03
  -1   6 -11   22.62   12.80
   1  -6 -11   25.13   12.03
  -1  -6 -11   25.69   11.58
   1   6 -11   -4.47    7.20
   1   6 -10   43.26   15.28
  -1  -6 -10   42.24   13.10
  -1   6 -10   28.27   12.63
   1  -6 -10   43.08   14.33
   1  -6  -9    5.76    8.38
   1  -6  -9   17.28   11.18
   1   6  -9   -1.19    7.82
  -1  -6  -9    4.93    8.34
  -1   6  -9   19.28    9.18
  -1   6  -8   10.72    9.68
   1   6  -8    3.33    9.28
  -1   6  -8   21.44    7.53
  -1  -6  -8   17.25    8.24
   1  -6  -8    7.43    7.59
   1  -6  -8   24.06   10.72
  -1   6  -7    0.08    5.48
   1  -6  -7   -4.09    7.28
  -1   6  -7   -0.60    7.21
   1   6  -7   16.97   10.96
  -1  -6  -7    4.13    8.58
   1  -6  -7   -6.51    8.07
  -1   6  -6   12.48    6.62
   1  -6  -6   15.47   10.77
  -1   6  -6   26.65   11.14
   1   6  -6    9.38    7.33
   1  -6  -6    0.20    7.83
  -1  -6  -6    6.23    9.79
  -1   6  -5   62.29   12.78
  -1   6  -5   61.23   14.10
   1   6  -5   91.54   17.82
  -1  -6  -5   75.67   10.12
   1  -6  -5   84.43   15.19
   1  -6  -5   84.91   14.75
  -1  -6  -5  101.99   17.42
   1  -6  -4  465.06   33.96
   1   6  -4  440.31   34.25
   1  -6  -4  403.13   31.13
  -1  -6  -4  383.12   30.97
  -1  -6  -4  397.95   23.19
  -1   6  -4  410.58   29.22
  -1  -6  -3  121.01   13.84
   1   6  -3  142.44   18.90
   1  -6  -3  131.50   17.83
  -1  -6  -3   98.67   15.61
   1  -6  -3  139.72   19.31
  -1   6  -3  119.47   17.12
   1  -6  -2   32.79   11.00
  -1  -6  -2   21.91    7.59
  -1  -6  -2   11.55    7.28
   1   6  -2   16.36    9.34
   1  -6  -2   28.60    9.07
  -1   6  -2   25.96    7.82
  -1   6  -2   20.51    7.27
   1   6  -2   42.51   12.55
   1   6  -1   78.54   14.42
   1   6  -1   79.85   14.77
  -1   6  -1   94.84   15.36
   1  -6  -1  100.16   15.44
   1  -6  -1   94.15   13.92
  -1  -6  -1   78.10   14.80
  -1  -6  -1   82.24   12.88
  -1   6  -1   70.31   11.19
   1   6   0  130.23   19.10
  -1   6   0  111.18   17.28
   1  -6   0  106.94   14.80
  -1  -6   0  105.35   16.60
   1  -6   0  120.63   17.32
  -1   6   0  103.63   12.18
  -1  -6   0  117.18   15.17
   1  -6   1   75.50   12.64
   1  -6   1   86.03   14.75
   1   6   1   83.33   15.90
  -1  -6   1   86.45   15.77
  -1   6   1   85.72    9.82
  -1  -6   1   63.51   12.02
  -1   6   1  102.14   17.79
   1   6   2   30.76   10.07
   1   6   2   35.64    7.95
  -1  -6   2   36.82   10.31
   1  -6   2   38.29    8.23
  -1   6   2   21.87    5.59
  -1  -6   2   23.27   10.73
   1  -6   2   17.48    8.86
  -1   6   2   20.11    9.55
  -1   6   3  144.90   18.18
   1   6   3  131.28   13.60
   1  -6   3  126.10   18.23
   1   6   3   89.48   16.50
  -1  -6   3  119.26   16.57
  -1   6   3  152.95   21.69
   1  -6   3  110.50   12.25
   1  -6   4  424.53   22.39
  -1   6   4  458.16   32.39
   1   6   4  389.50   23.58
   1   6   4  421.19   33.73
   1  -6   4  419.88   32.53
  -1   6   4  449.68   35.15
  -1  -6   4  415.79   31.31
   1   6   5   76.26   15.79
   1   6   5   69.16   11.31
  -1   6   5   69.95   14.30
  -1   6   5   73.81   15.78
   1  -6   5   54.39   13.25
   1   6   5   71.28   10.10
  -1  -6   5   62.46   13.69
   1   6   6   18.13    9.48
  -1   6   6   -1.94    7.84
  -1  -6   6   11.29   10.05
   1  -6   6   14.47    9.51
   1   6   6    2.85    5.23
  -1   6   6    4.46    6.74
  -1  -6   7    2.60    7.15
  -1   6   7    9.68    7.92
   1  -6   7   -7.06    8.37
   1   6   7   -3.34    4.79
  -1   6   7   12.51   11.17
   1   6   7   20.73    9.47
  -1  -6   8   26.26   10.86
  -1   6   8    9.19    8.68
  -1   6   8   17.02    8.82
   1   6   8    3.75    5.48
   1   6   8    6.10    7.79
   1  -6   8   21.70   10.61
   1  -6   8   11.82    7.00
   1   6   9    5.37    5.83
   1   6   9   13.56   10.16
   1  -6   9    6.76    9.53
  -1  -6   9   22.52   10.88
  -1   6   9   16.82    6.94
   1  -6   9    9.44    6.88
  -1   6   9    8.82    8.00
   1  -6  10   36.93   11.59
  -1   6  10   13.45    8.20
   1  -6  10   24.48   11.17
  -1   6  10   27.65   12.44
   1   6  10   30.03   10.57
  -1  -6  10   31.55   11.34
  -1  -6  11    3.66    8.03
  -1  -6  11    7.28   11.06
  -1   6  11   10.08    7.78
   1   6  11   13.33    8.50
   1  -6  11   25.47   13.30
   1  -6  11    3.14    8.23
  -1   6  11   20.93   11.05
   1  -6  12    5.31    8.20
   1   6  12    1.70    8.20
  -1   6  12    5.78   10.01
  -1  -7 -11   -6.09    8.63
  -1  -7 -10   21.15   10.51
  -1   7 -10   24.94   11.59
   1   7 -10    1.99    8.51
  -1   7  -9    6.20    8.63
   1   7  -9   17.58   12.63
  -1  -7  -9   21.62   13.36
   1  -7  -9   11.33    8.05
   1  -7  -9    6.93    8.01
  -1   7  -8   19.79   11.56
   1  -7  -8   22.17   10.10
   1  -7  -8   24.90   12.00
   1   7  -8   22.30    9.54
  -1  -7  -8   24.43   11.00
  -1   7  -7  101.48   16.25
  -1   7  -7   93.97   19.01
   1   7  -7   99.10   20.69
   1  -7  -7  112.11   19.84
  -1  -7  -7  108.27   19.40
   1  -7  -7  108.37   20.16
  -1  -7  -6   84.65   17.98
   1   7  -6   67.60   15.96
   1  -7  -6   70.52   16.83
   1  -7  -6   47.39   12.34
  -1   7  -6   70.37   13.51
   1  -7  -5   51.06   13.82
   1   7  -5   36.22   12.96
   1  -7  -5   47.10   13.77
  -1  -7  -5   64.21   16.60
  -1   7  -5   36.89   10.58
   1  -7  -4   73.56   14.94
   1  -7  -4   78.56   15.68
   1   7  -4   79.13   17.50
   1   7  -4   74.72   16.16
  -1  -7  -4   63.65   15.68
  -1  -7  -4   55.93    9.63
  -1   7  -4   57.99   12.75
  -1   7  -3   84.38   16.50
   1   7  -3   61.96   15.96
   1  -7  -3   65.71   14.45
  -1  -7  -3   73.57   14.27
   1   7  -3   70.07   15.46
   1  -7  -3   61.37   12.53
   1  -7  -3   83.95   15.80
  -1  -7  -3   84.35   13.29
  -1   7  -3  102.42   14.59
   1   7  -2   55.75   13.85
   1   7  -2   74.71   15.26
  -1   7  -2   56.68   13.81
   1  -7  -2   61.18   13.43
   1  -7  -2   55.19   13.84
  -1  -7  -2   53.67   11.21
  -1  -7  -2   47.31   13.89
  -1   7  -2   49.06   10.52
   1  -7  -1   16.58    8.52
  -1  -7  -1    7.91    9.89
   1  -7  -1    4.82    7.93
  -1  -7  -1    2.15    5.33
  -1   7  -1   -1.13    6.12
  -1   7  -1    5.67    5.42
   1   7  -1    6.02    7.39
  -1   7   0   37.10   14.08
  -1  -7   0   19.80   10.50
   1   7   0   28.05   11.65
   1  -7   0   31.71    9.64
   1  -7   0   30.13   10.68
  -1  -7   0   10.43    6.18
  -1   7   0   24.34    7.57
  -1  -7   1   20.37    9.34
   1  -7   1   -6.51    7.34
   1  -7   1   17.99    9.91
  -1   7   1   13.45    9.61
  -1  -7   1    4.73    8.16
   1   7   1    5.29    8.63
   1   7   2   45.43   14.88
   1   7   2   44.05    9.75
   1  -7   2   52.42   14.15
   1  -7   2   64.52   12.27
  -1   7   2   51.01   13.91
  -1  -7   2   40.45   11.36
  -1  -7   2   30.68   10.81
  -1   7   3   79.99   16.85
   1  -7   3   76.41   12.22
   1   7   3   71.84   16.65
   1   7   3   68.98   11.19
  -1   7   3   84.99   16.45
   1  -7   3  104.22   18.60
  -1  -7   3   79.08   14.02
  -1  -7   4   67.83   14.20
   1   7   4   49.18    9.12
  -1   7   4   73.17   14.61
   1   7   4   83.27   18.10
   1  -7   4   81.62   17.26
  -1   7   4   87.10   18.33
  -1   7   5   56.67   14.59
  -1   7   5   53.10   17.96
   1  -7   5   43.51   14.01
  -1  -7   5   22.27    8.15
   1   7   5   51.09   14.94
  -1   7   6   77.74   17.05
   1   7   6   52.20   15.41
   1  -7   6   65.06   15.29
  -1   7   6   52.60   13.76
  -1  -7   6   63.71   15.01
   1   7   7  112.72   20.53
  -1  -7   7  118.50   20.69
   1  -7   7  119.46   20.85
  -1   7   7   81.78   15.76
  -1   7   7  102.55   20.08
   1  -7   8   19.45   11.70
   1   7   8   37.53   11.20
  -1   7   8   11.61    7.17
  -1   7   8   28.53   12.20
  -1  -7   8   20.76   11.44
  -1   7   9   13.37    9.24
   1  -7   9    4.33    8.72
  -1  -7   9   -0.64    7.38
   1   7   9   15.72    8.34
   1  -7   9   -2.95    6.70
  -1   7  10   20.71   10.66
  -1   7  10   12.60    8.36
   1   7  10   12.29    7.14
   1  -7  10    9.85    7.99
  -1   7  11   14.45    9.43
   1   7  11   -0.36    6.73
  -1   8  -8   -3.66    7.05
   1  -8  -8   -4.79    7.74
  -1  -8  -8    9.87   10.25
   1   8  -8   10.12    8.57
   1   8  -7    2.48    7.58
   1   8  -7   16.05   10.64
   1  -8  -7   -5.96    9.90
   1  -8  -7   12.40   11.66
  -1   8  -7   10.37    6.60
  -1  -8  -7   10.69   12.10
  -1   8  -6    2.37    5.77
  -1  -8  -6   28.37   13.87
   1   8  -6   19.55   11.76
   1   8  -6   10.58   11.81
   1  -8  -6   11.84   11.54
   1  -8  -6   32.58   13.19
  -1   8  -6   18.63    9.51
   1   8  -5   15.10    9.04
   1  -8  -5   10.39    6.93
   1  -8  -5   -2.49    7.59
  -1  -8  -5   31.76   15.15
  -1   8  -5   18.38   10.36
   1  -8  -5   10.82    9.67
   1   8  -5   36.21   13.54
  -1   8  -5    8.97    6.41
  -1   8  -4    6.81    8.38
   1   8  -4    2.46    7.92
   1  -8  -4  -10.57    7.50
   1  -8  -4   -1.72    7.70
  -1  -8  -4   18.56    9.94
   1   8  -4    2.74    8.70
  -1   8  -4   -9.35    7.89
  -1   8  -3    8.05    8.16
   1   8  -3   20.96   14.53
  -1  -8  -3    5.86    8.77
   1  -8  -3   22.60   10.11
   1  -8  -3   12.54    7.50
  -1   8  -3   12.03    9.36
  -1   8  -2   48.40   14.04
   1  -8  -2   33.86   11.39
   1  -8  -2   42.34   11.94
  -1  -8  -2   27.33   12.77
  -1  -8  -2   42.77   10.94
   1   8  -2   29.82   10.63
  -1   8  -2   46.83   11.43
   1  -8  -1    6.30    8.74
   1  -8  -1    1.44    6.20
  -1  -8  -1    6.22    7.38
  -1  -8  -1   13.70    8.25
  -1   8  -1   17.66   10.59
   1   8  -1   12.56    8.39
   1   8   0   -3.79   10.17
  -1  -8   0   13.05    7.59
   1  -8   0   -0.21    7.20
  -1   8   0   -5.25    7.97
  -1  -8   0    4.89   11.08
   1  -8   0   -6.77    7.33
   1   8   1   10.71    7.54
  -1  -8   1   10.41    7.85
   1  -8   1   19.88    9.98
   1  -8   1   -3.31    5.21
  -1  -8   1   17.13    9.31
  -1   8   1   10.21    8.86
   1   8   2   35.94   12.78
   1  -8   2   43.53   11.01
   1  -8   2   39.74   12.96
  -1  -8   2   40.40   12.62
  -1   8   2   25.58   11.73
  -1   8   3   -2.05   11.08
  -1   8   3   14.42   11.70
   1   8   3   18.38   11.65
   1  -8   3  -17.01   11.44
  -1  -8   3   -7.20    8.93
   1   8   4   -2.31    9.80
  -1   8   4   10.98    8.51
  -1  -8   4   23.82    8.87
   1  -8   4   13.06    8.30
  -1   8   4  -11.59   11.33
   1   8   5   -1.68    7.84
  -1  -8   5    8.09    8.39
  -1   8   5    3.06    6.97
  -1   8   5   13.25   11.92
   1  -8   5   17.36   10.79
  -1   8   6   15.81   10.19
  -1  -8   6   23.15   12.76
   1  -8   6   27.35   11.12
  -1   8   6   38.50   15.80
   1   8   6   25.47   13.38
   1   8   7   20.72   11.36
  -1   8   7    2.90    7.10
  -1  -8   7   19.57   10.58
   1  -8   7   14.50   10.67
  -1   8   7   27.90   12.87
  -1   8   8    0.68    7.26
   1   8   8   14.88   13.13
  -1   9  -6    7.09    7.74
   1   9  -6   15.93   10.92
   1   9  -5    4.57   10.69
  -1   9  -5   12.23    7.20
  -1   9  -5   26.56   13.60
  -1   9  -4   12.85    7.80
   1   9  -4   10.86    9.41
   1  -9  -4    1.78   10.93
   1  -9  -3  174.43   24.60
   1   9  -3  139.65   24.65
   1  -9  -3  129.03   19.97
  -1   9  -3  153.87   24.97
  -1  -9  -3  111.19   21.44
   1   9  -2   38.68   14.10
   1  -9  -2   15.25    9.42
  -1   9  -2   -2.69   10.31
   1  -9  -2   17.37    9.74
  -1  -9  -2    8.97   11.90
   1  -9  -1    6.76    9.67
   1  -9  -1    3.47    6.25
  -1  -9  -1    2.45    8.30
   1   9  -1    2.41    9.07
  -1   9  -1    6.41    9.26
  -1   9   0   -2.01    8.79
   1   9   0    9.09    9.83
   1  -9   0    4.57    8.11
   1  -9   0    7.19    7.63
  -1  -9   0   -6.30    6.97
  -1   9   1    7.65    9.44
   1   9   1   13.95   10.31
   1  -9   1    7.32    9.65
  -1  -9   1   19.89   11.08
  -1   9   2    3.55    7.69
   1   9   2   17.48   13.76
  -1   9   2   12.32   11.26
   1  -9   2   13.65   10.54
  -1  -9   2   -8.50    8.33
  -1   9   3  184.62   28.99
  -1   9   3  137.17   23.60
   1  -9   3  132.65   22.31
  -1  -9   3  126.57   20.47
   1   9   3  148.29   25.25
   1  -9   4   11.93    9.87
  -1  -9   4    2.38    7.72
  -1  -9   5    9.74    9.18
   2   0 -15   21.73   11.43
  -2   0 -14   98.11   17.10
   2   0 -14  127.37   21.00
   2   0 -14  110.78   22.18
   2   0 -13   41.67   11.11
  -2   0 -13   53.44   13.25
   2   0 -12  148.77   20.31
  -2   0 -12  181.07   20.34
   2   0 -11  252.37   25.52
   2   0 -11  247.29   20.37
  -2   0 -11  289.53   24.81
  -2   0 -10   54.98    8.26
   2   0 -10   54.05   10.25
   2   0 -10   47.16   11.23
  -2   0 -10   62.39   11.91
  -2   0  -9  360.70   25.62
  -2   0  -9  318.39   16.38
   2   0  -9  347.21   27.45
   2   0  -9  314.80   21.79
  -2   0  -8   25.13    4.87
   2   0  -8   20.57    6.77
  -2   0  -8   25.67    8.06
   2   0  -7   24.17    7.85
  -2   0  -7   33.77    6.63
  -2   0  -7   36.69    8.70
  -2   0  -7   27.72    4.25
  -2   0  -6  308.23   11.46
  -2   0  -6  302.90   19.59
   2   0  -6  330.65   19.40
  -2   0  -5  221.60    8.07
  -2   0  -5  226.27   16.43
   2   0  -5  243.39   15.85
   2   0  -4  358.14   18.33
  -2   0  -4  377.15   19.27
  -2   0  -4  353.95   16.72
  -2   0  -3  452.79   19.74
  -2   0  -3  493.16   17.73
   2   0  -3  523.02   21.99
  -2   0  -3  474.18   20.47
   2   0  -3  470.05   20.58
   2   0  -3  473.78   20.45
  -2   0  -2 3349.90   46.92
   2   0  -2 3252.38   49.87
  -2   0  -2 3227.03   50.30
   2   0  -2 3404.53   48.66
   2   0  -2 3345.64   51.04
  -2   0  -2 3314.07   50.62
   2   0  -1 9581.46   81.62
  -2   0  -1 9652.89   82.23
   2   0  -1 9740.38   80.40
   2   0  -1 9718.63   81.44
  -2   0  -1 9801.91   80.32
  -2   0  -1 9575.73   83.45
   2   0   0 6170.11   63.71
   2   0   0 6662.69   64.56
  -2   0   0 6329.46   66.25
   2   0   0 6632.62   65.98
  -2   0   0 6532.69   61.76
  -2   0   0 6669.54   66.54
  -2   0   1 9664.76   73.25
   2   0   1 9999.00   80.82
  -2   0   1 9766.57   81.60
   2   0   1 9763.13   80.80
  -2   0   1 9649.10   80.83
  -2   0   2 3344.93   49.74
  -2   0   2 3157.39   47.76
   2   0   2 3331.78   49.88
   2   0   2 3375.79   50.29
  -2   0   2 3318.96   51.18
   2   0   3  477.17   21.39
  -2   0   3  471.90   21.07
  -2   0   3  469.48   20.59
  -2   0   3  510.22   20.57
   2   0   3  480.72   20.51
  -2   0   4  386.04   19.70
  -2   0   4  346.01   19.47
   2   0   4  343.33   13.99
   2   0   4  362.73   16.68
   2   0   4  359.41   20.07
   2   0   4  375.70   19.01
  -2   0   4  378.23   18.21
  -2   0   4  362.05   18.05
  -2   0   5  248.45   18.19
   2   0   5  244.56   17.61
   2   0   5  258.46   19.77
  -2   0   5  240.82   16.88
   2   0   5  249.93   12.95
   2   0   5  237.55   14.74
  -2   0   5  238.99   16.50
   2   0   6  296.01   15.06
  -2   0   6  307.78   21.66
   2   0   6  325.41   21.21
  -2   0   6  314.60   20.60
   2   0   6  332.30   23.42
   2   0   7   24.95    5.77
   2   0   7   38.73    9.27
  -2   0   7   17.13    8.25
   2   0   7   37.82   11.08
  -2   0   7   28.37    7.33
  -2   0   8   16.01    6.74
  -2   0   8   17.71    9.31
   2   0   8   26.04    5.85
   2   0   8   21.90    8.61
  -2   0   9  351.19   27.78
  -2   0   9  356.67   26.65
   2   0   9  332.26   27.56
   2   0   9  362.79   20.27
  -2   0  10   48.24   10.68
   2   0  10   38.45    7.21
  -2   0  10   63.10   14.72
   2   0  10   51.41   12.79
  -2   0  11  257.17   27.08
   2   0  11  235.31   26.35
  -2   0  11  235.13   23.67
  -2   0  12  135.29   20.07
   2   0  12  135.91   20.62
  -2   0  12  144.54   21.60
  -2   0  13   38.90   12.40
  -2   0  13   60.44   15.86
   2   0  13   40.66   13.98
  -2   0  14  125.98   21.36
   2   0  14  117.05   21.19
   2   0  15   35.86   13.73
   2  -1 -15   27.51    9.59
  -2   1 -15   17.65    9.56
   2   1 -15   37.57   13.95
   2  -1 -14    6.24    6.72
   2   1 -14   22.26   10.09
  -2  -1 -14   19.49    8.98
   2   1 -14   36.14   14.19
  -2   1 -14   44.36   13.05
  -2  -1 -13   24.90    8.70
   2   1 -13   21.56   10.21
   2  -1 -13   49.18   13.34
  -2  -1 -13   34.83   10.76
  -2   1 -13   47.63   13.60
   2   1 -13   33.92   13.71
  -2   1 -12   70.71   13.94
   2  -1 -12   88.46   16.68
  -2  -1 -12   89.22   14.38
   2  -1 -12   64.67   11.77
   2   1 -12   66.35   14.47
  -2  -1 -12   90.39   15.05
   2   1 -12   91.13   18.14
   2   1 -11    3.47    7.84
  -2   1 -11    4.05    6.43
  -2  -1 -11   18.14    9.30
  -2   1 -11   16.22    5.93
   2  -1 -11    9.55    6.84
  -2  -1 -11   18.15    7.43
   2   1 -10  269.65   24.69
  -2  -1 -10  266.08   14.91
  -2   1 -10  271.71   24.00
  -2  -1 -10  300.39   23.08
  -2  -1 -10  298.63   23.15
   2   1 -10  250.52   18.01
  -2   1 -10  255.57   18.03
   2  -1 -10  281.20   23.80
  -2  -1  -9  232.79   12.84
  -2   1  -9  252.48   22.95
   2   1  -9  227.80   22.48
   2   1  -9  229.63   16.92
   2  -1  -9  263.31   21.86
  -2   1  -9  239.34   16.55
  -2  -1  -9  270.32   20.43
   2  -1  -9  186.60    7.18
  -2  -1  -9  259.62   20.34
  -2  -1  -8  247.27   14.35
  -2   1  -8  275.97   22.73
  -2   1  -8  252.80   15.92
   2   1  -8  278.67   24.06
   2  -1  -8  277.73   21.08
  -2  -1  -8  256.94   12.19
  -2  -1  -8  286.68   19.85
   2   1  -8  239.28   16.76
   2  -1  -8  215.11    7.10
   2   1  -8  200.03    9.43
  -2  -1  -8  287.56   19.56
  -2   1  -8  240.83   12.69
   2   1  -7  269.94   22.01
   2   1  -7  299.65   17.55
  -2   1  -7  260.42   12.90
  -2  -1  -7  280.26   11.00
  -2   1  -7  333.51   23.10
  -2  -1  -7  283.28   13.88
  -2   1  -7  298.70   16.23
   2   1  -7  265.09   10.13
  -2  -1  -7  315.62   18.75
   2  -1  -7  357.27   23.28
  -2  -1  -7  314.93   19.76
   2  -1  -6  257.99   18.70
  -2  -1  -6  276.30   17.32
  -2   1  -6  256.44   12.42
  -2  -1  -6  242.66    8.29
   2   1  -6  251.94   15.80
   2   1  -6  233.19    8.94
  -2   1  -6  304.91   21.06
  -2   1  -6  253.96   13.94
   2   1  -6  228.55   19.75
   2   1  -5  294.18   16.41
  -2   1  -5  262.72   12.46
   2  -1  -5  261.25   18.32
   2   1  -5  241.36    8.84
  -2  -1  -5  257.98   15.84
  -2   1  -5  242.03   12.72
   2   1  -5  259.30   19.51
  -2   1  -5  286.25   15.79
  -2   1  -5  280.43   19.23
  -2  -1  -5  258.03   16.03
   2   1  -4  222.08    8.77
   2   1  -4  249.75   16.35
  -2   1  -4  237.95   12.68
   2   1  -4  245.66   14.64
  -2   1  -4  252.82   12.24
  -2   1  -4  241.39   16.95
   2  -1  -4  215.78   16.71
  -2  -1  -4  232.82   13.47
   2   1  -4  256.49   17.90
  -2  -1  -4  239.59   14.46
  -2  -1  -3 1158.03   32.31
   2   1  -3 1165.89   33.92
  -2   1  -3 1093.69   33.28
   2   1  -3 1123.13   29.47
  -2   1  -3 1142.33   25.92
   2  -1  -3 1143.43   33.94
   2   1  -3 1162.60   33.41
  -2  -1  -3 1121.24   24.86
   2  -1  -3 1148.82   28.85
   2   1  -3 1068.39   20.23
  -2  -1  -3 1169.79   30.44
  -2   1  -3 1131.05   17.24
   2   1  -3 1222.40   31.59
  -2   1  -3 1133.35   23.24
   2   1  -2  200.21   11.32
   2   1  -2  185.43   13.26
   2  -1  -2  188.22   14.28
   2   1  -2  193.34   12.67
  -2   1  -2  205.55   11.63
  -2   1  -2  193.69   12.99
  -2  -1  -2  200.25   12.80
  -2   1  -2  209.84   14.24
  -2   1  -2  194.34    8.96
   2  -1  -2  207.83   12.14
   2  -1  -2  209.28   10.10
   2   1  -2  196.64   13.72
   2   1  -2  198.60    9.73
  -2   1  -2  193.89    7.81
   2  -1  -2  195.55   14.19
   2  -1  -2  198.35   13.64
   2  -1  -1   15.64    4.45
   2   1  -1    6.83    3.13
  -2   1  -1    4.98    3.85
   2  -1  -1   10.44    4.32
  -2   1  -1   17.67    5.06
   2   1  -1   15.19    4.54
   2   1  -1    2.63    3.18
  -2  -1  -1   13.43    5.51
   2  -1  -1   15.37    4.30
  -2   1  -1    6.74    5.51
   2  -1  -1    4.94    4.42
  -2   1  -1    5.95    4.11
   2  -1  -1   11.83    5.85
  -2  -1   0    2.30    2.59
   2   1   0   13.94    3.85
  -2  -1   0   11.61    4.58
  -2   1   0    9.56    4.10
   2  -1   0    4.26    5.26
   2   1   0    6.83    3.63
  -2   1   0   11.96    5.05
   2   1   0   10.67    4.68
  -2   1   0   16.39    5.59
   2  -1   0    7.56    4.72
   2  -1   0   13.13    4.61
   2  -1   0   11.42    4.92
  -2  -1   0   11.02    4.84
  -2   1   0    6.77    4.38
   2  -1   0    9.95    3.93
  -2   1   1   13.70    4.95
   2  -1   1    9.33    3.37
  -2   1   1   10.86    3.93
   2  -1   1   -0.30    4.37
   2  -1   1   18.74    5.98
   2   1   1   10.69    3.21
  -2  -1   1   11.58    4.83
  -2   1   1   15.30    4.98
   2   1   1   12.85    4.18
   2  -1   1    6.69    3.31
   2   1   1   15.20    6.53
   2  -1   1   17.04    5.11
  -2  -1   1    5.73    3.89
  -2   1   1   13.39    5.54
  -2   1   1    8.54    2.65
  -2  -1   1    7.78    3.35
   2   1   2  192.08    6.62
  -2  -1   2  193.01   11.15
  -2  -1   2  208.37   13.02
  -2   1   2  234.07   14.80
   2   1   2  190.96   13.02
  -2   1   2  208.16    9.95
   2  -1   2  186.70   10.29
   2  -1   2  191.18   13.67
  -2  -1   2  222.51   14.49
   2   1   2  198.83   11.91
   2  -1   2  218.69   14.15
   2  -1   2  181.70    7.83
   2  -1   2  194.97   11.26
  -2  -1   2  198.39    9.80
  -2   1   2  189.79   14.27
  -2  -1   3 1168.97   32.26
  -2  -1   3 1107.28   29.60
   2  -1   3 1081.00   23.62
  -2   1   3 1174.60   35.64
  -2  -1   3 1092.25   29.30
   2   1   3 1048.93   20.24
  -2   1   3 1267.31   34.27
  -2   1   3 1139.59   26.94
   2   1   3 1149.25   35.59
   2   1   3 1151.01   29.39
   2  -1   3 1176.11   34.53
  -2   1   3 1095.46   19.12
  -2  -1   3 1126.33   20.43
   2  -1   3 1120.12   24.07
   2   1   3 1162.10   31.58
  -2   1   4  248.12   18.12
   2  -1   4  236.80   14.72
   2  -1   4  227.43   11.09
   2   1   4  246.97   15.83
  -2  -1   4  237.03   15.52
   2   1   4  228.63   14.01
   2  -1   4  256.55   18.47
  -2   1   4  248.58   14.65
   2   1   4  251.35   18.95
  -2  -1   4  236.97   14.28
  -2  -1   4  238.41   16.21
   2   1   4  209.81   11.30
   2  -1   4  254.69   13.78
  -2  -1   5  279.98   18.78
  -2   1   5  277.79   19.83
   2   1   5  268.63   13.49
   2  -1   5  287.60   17.17
  -2  -1   5  266.42   15.24
   2   1   5  257.37    8.90
  -2   1   5  273.41   17.04
   2  -1   5  248.23   12.11
   2   1   5  295.26   18.40
   2  -1   5  307.14   20.94
   2  -1   5  262.63   15.60
  -2  -1   5  263.54   17.54
   2   1   5  257.98   20.65
  -2  -1   6  275.39   20.22
  -2   1   6  264.53   20.92
   2  -1   6  256.39   17.21
   2  -1   6  260.56   17.25
   2   1   6  256.88   10.49
  -2  -1   6  269.73   19.78
   2   1   6  304.12   19.48
  -2  -1   6  255.31   17.87
   2  -1   6  241.80   12.64
   2  -1   6  284.73   21.00
   2   1   6  292.09   22.80
  -2   1   6  285.05   18.89
   2   1   6  255.19   13.66
  -2  -1   6  253.34   15.18
  -2   1   7  321.23   24.71
  -2  -1   7  299.64   22.89
   2  -1   7  321.17   19.90
  -2  -1   7  303.13   19.85
   2  -1   7  288.55   20.05
   2   1   7  315.18   24.98
   2   1   7  325.26   21.80
  -2  -1   7  291.45   22.12
   2  -1   7  291.84   23.53
  -2   1   7  291.44   20.74
   2   1   7  296.19   15.19
  -2  -1   8  254.92   22.50
  -2   1   8  256.01   23.33
  -2  -1   8  266.40   22.31
   2   1   8  295.39   26.14
   2  -1   8  269.25   21.25
   2   1   8  286.53   20.93
   2  -1   8  273.31   23.33
   2  -1   8  274.06   19.36
  -2   1   8  273.68   21.30
  -2  -1   9  215.00   22.08
  -2   1   9  260.53   24.83
   2  -1   9  243.20   19.31
   2   1   9  222.12   23.91
  -2  -1   9  221.19   21.09
   2  -1   9  216.43   22.21
  -2   1   9  223.49   20.51
   2  -1   9  248.87   21.68
  -2   1  10  215.42   23.63
   2  -1  10  277.77   21.36
  -2  -1  10  270.97   26.24
   2   1  10  268.96   26.84
  -2  -1  10  271.67   25.09
   2  -1  10  241.89   24.42
  -2   1  10  301.93   26.35
   2  -1  10  268.06   24.17
   2  -1  11    3.46    5.45
  -2   1  11    2.90    6.26
  -2   1  11    4.50    8.57
   2  -1  11    9.60    7.17
  -2  -1  11   -6.15    7.27
   2  -1  11    1.61    7.63
   2   1  11   14.11   10.24
  -2  -1  12   60.43   15.12
  -2   1  12   78.18   15.61
  -2   1  12   67.18   16.74
   2  -1  12   72.30   11.73
   2  -1  12   91.90   16.83
   2  -1  12  104.73   18.23
   2   1  12  102.23   19.09
  -2   1  13   47.04   13.66
  -2   1  13   30.11   11.36
   2  -1  13   22.42    7.64
   2  -1  13   49.54   13.21
   2   1  13   49.55   15.10
  -2  -1  13   39.57   13.02
  -2  -1  14   23.24    9.19
  -2   1  14   37.32   12.53
   2  -1  14   35.49   13.26
  -2   1  14   38.40   12.99
   2   1  14   34.32   14.50
   2   1  15   31.44   13.12
   2  -1  15   48.33   14.91
   2   2 -15   18.11    9.09
   2  -2 -15   -4.42    9.03
  -2   2 -15   12.42   10.41
   2   2 -14   28.26   10.71
   2   2 -14   18.14   11.91
   2  -2 -14   13.46   11.73
  -2   2 -14   27.28    9.83
  -2  -2 -13   52.86   13.19
   2   2 -13   52.48   12.89
   2  -2 -13   39.12   11.12
  -2   2 -13   35.30   12.04
   2   2 -13   39.80   12.48
  -2  -2 -12   38.21   11.93
   2   2 -12   56.66   14.66
   2   2 -12   40.08   12.05
   2  -2 -12   47.86   12.30
  -2  -2 -12   30.88    8.22
  -2   2 -12   70.50   14.71
  -2  -2 -11   33.64    9.94
  -2   2 -11   14.61    6.65
   2   2 -11   28.46   12.31
   2   2 -11   15.41    7.09
  -2   2 -11   14.13    7.75
   2  -2 -11   14.22    7.34
  -2  -2 -11   25.59    8.61
  -2  -2 -11   15.68    6.96
   2   2 -10  293.39   26.50
  -2   2 -10  285.59   26.08
  -2   2 -10  294.89   21.51
   2  -2 -10  330.87   26.96
  -2  -2 -10  320.03   21.27
  -2  -2 -10  324.85   22.26
   2   2 -10  336.10   30.93
  -2  -2 -10  339.65   27.21
  -2   2  -9   27.35    7.20
   2   2  -9   38.80   11.56
  -2  -2  -9   30.60    9.30
   2   2  -9   28.14    9.13
   2  -2  -9   35.52    9.91
  -2   2  -9   35.49   10.07
  -2  -2  -9   27.62    4.70
  -2  -2  -9   28.59    7.33
  -2  -2  -9   33.50    7.26
   2  -2  -9   26.24    4.62
  -2   2  -8    1.30    5.07
   2  -2  -8    2.74    2.04
  -2   2  -8    0.43    1.33
   2   2  -8   12.32    8.00
  -2  -2  -8    6.83    4.85
   2  -2  -8   11.26    6.57
  -2  -2  -8   -2.14    3.93
  -2  -2  -8    4.83    2.42
  -2   2  -8   17.19    8.15
   2  -2  -8    6.74    2.85
   2   2  -8    6.08    3.77
  -2  -2  -8   -1.97    6.18
  -2  -2  -7  114.59   14.17
  -2   2  -7  112.38   12.35
  -2   2  -7   75.43    5.04
   2  -2  -7  107.59   14.60
   2  -2  -7   82.48    5.72
  -2  -2  -7  117.78   10.71
   2   2  -7  115.19   15.54
  -2  -2  -7  101.68   10.19
  -2   2  -7   99.59   14.51
   2  -2  -7   94.76    8.20
   2   2  -7   99.48   10.72
   2   2  -7   87.32    8.77
  -2   2  -6   31.54    2.70
  -2  -2  -6   47.87   10.03
  -2   2  -6   36.32    6.58
  -2  -2  -6   33.02    4.12
  -2   2  -6   40.83    4.16
   2   2  -6   38.78    9.37
   2  -2  -6   57.08   11.11
   2  -2  -6   40.52    6.41
   2  -2  -6   24.80    2.97
   2   2  -6   36.18    6.18
  -2  -2  -6   42.14    6.88
  -2   2  -6   44.13    9.78
  -2  -2  -6   43.93    5.87
   2  -2  -6   37.15    5.62
   2   2  -6   30.52    5.85
  -2  -2  -5  370.82   17.86
  -2   2  -5  371.78   19.49
  -2  -2  -5  371.08   12.49
   2   2  -5  367.60   23.95
  -2   2  -5  328.53    9.28
  -2   2  -5  324.94   12.58
   2  -2  -5  425.87   24.76
   2  -2  -5  343.62   15.85
  -2  -2  -5  370.92   17.84
  -2   2  -5  362.09   23.70
   2   2  -5  352.25   16.04
  -2  -2  -5  398.16   23.56
   2   2  -5  354.77   16.21
  -2  -2  -4  104.70   12.21
  -2  -2  -4  107.73    6.79
   2   2  -4  129.98   13.92
   2  -2  -4  111.58   13.41
   2  -2  -4  100.80    4.18
  -2   2  -4  106.07    7.88
   2  -2  -4  110.28    8.85
   2  -2  -4  104.86    9.71
  -2   2  -4  124.08   13.91
  -2  -2  -4  109.77    8.58
  -2   2  -4   98.04    6.10
   2   2  -4   97.14    8.61
  -2  -2  -4  112.75    9.94
   2   2  -3  814.49   25.84
  -2  -2  -3  773.30   18.46
   2   2  -3  815.25   30.43
  -2  -2  -3  809.60   30.19
  -2   2  -3  796.79   22.21
   2  -2  -3  810.49   31.24
  -2  -2  -3  765.08   18.06
  -2  -2  -3  762.04   24.46
  -2   2  -3  804.03   30.40
   2   2  -3  808.45   24.03
   2  -2  -3  794.89   23.08
   2  -2  -3  816.75   14.19
  -2   2  -3  780.60   19.00
   2  -2  -3  780.83   22.20
   2   2  -2  858.72   22.46
  -2  -2  -2  776.45   12.27
   2   2  -2  865.76   29.43
   2  -2  -2  865.74   30.93
   2   2  -2  877.38   28.20
  -2   2  -2  812.68   23.98
   2   2  -2  858.07   25.31
   2  -2  -2  836.49   23.29
  -2   2  -2  861.64   28.22
   2  -2  -2  831.41   17.52
  -2   2  -2  853.07   29.25
  -2  -2  -2  876.48   30.09
  -2  -2  -2  827.33   20.51
   2  -2  -2  816.82   19.89
  -2   2  -2  875.45   22.46
   2   2  -1  726.49   24.01
   2   2  -1  688.86   22.76
  -2   2  -1  700.52   23.34
  -2  -2  -1  732.45   21.06
   2   2  -1  685.84   15.75
  -2   2  -1  709.63   23.42
   2  -2  -1  701.79   22.42
   2  -2  -1  689.64   18.95
  -2   2  -1  703.34   24.92
  -2  -2  -1  695.73   26.07
   2  -2  -1  686.98   14.26
   2   2  -1  732.00   24.98
   2  -2  -1  681.77   25.79
  -2   2  -1  735.10   22.77
   2  -2  -1  726.30   26.61
  -2  -2   0  386.24   18.61
  -2  -2   0  377.39   16.77
   2   2   0  373.52   14.89
   2  -2   0  386.33   18.36
  -2   2   0  391.94   18.84
  -2  -2   0  379.19   15.05
  -2   2   0  368.52   15.52
  -2   2   0  370.04   17.51
   2  -2   0  408.82   18.16
   2  -2   0  384.85   16.16
   2   2   0  386.55   17.03
  -2   2   0  398.83   18.40
   2   2   0  408.91   18.87
   2  -2   0  405.54   18.75
   2  -2   1  692.34   20.77
   2   2   1  699.85   20.88
  -2  -2   1  704.63   24.45
  -2  -2   1  732.76   24.33
   2   2   1  672.01   16.87
  -2   2   1  723.78   26.57
   2  -2   1  712.61   23.10
  -2  -2   1  692.35   23.09
  -2   2   1  706.24   18.76
  -2   2   1  708.38   22.61
   2   2   1  696.44   22.79
   2  -2   1  731.26   25.56
   2   2   1  732.72   26.15
   2  -2   1  724.26   24.57
   2   2   1  726.42   24.28
  -2   2   1  671.72   25.62
   2  -2   1  724.74   22.38
  -2  -2   2  839.82   28.17
   2  -2   2  848.15   27.18
   2   2   2  828.62   20.78
   2   2   2  803.65   13.64
  -2  -2   2  843.51   27.13
  -2   2   2  818.47   17.58
   2   2   2  867.36   29.60
   2  -2   2  835.30   21.41
  -2   2   2  819.96   23.22
   2   2   2  844.95   27.78
   2   2   2  845.83   23.96
   2  -2   2  796.73   19.61
  -2   2   2  878.87   25.41
  -2  -2   2  845.53   25.06
   2  -2   2  791.66   15.29
   2  -2   2  853.97   23.56
  -2   2   2  870.38   30.85
   2  -2   3  801.27   26.59
   2  -2   3  820.45   30.59
  -2  -2   3  824.00   26.06
   2   2   3  804.86   27.32
  -2  -2   3  781.08   30.15
   2   2   3  810.36   28.15
   2  -2   3  816.02   19.67
   2   2   3  798.18   23.36
  -2   2   3  823.92   32.17
   2   2   3  854.51   31.72
  -2  -2   3  832.55   24.15
  -2   2   3  836.50   23.70
   2  -2   3  812.02   21.45
  -2   2   3  803.62   31.57
   2  -2   3  782.73   15.81
   2  -2   4  113.02   10.33
   2   2   4   97.90   10.67
  -2   2   4  110.10    8.38
  -2   2   4  110.01   13.29
  -2  -2   4  100.84   12.10
   2   2   4  103.08   10.70
   2  -2   4  114.69   12.50
  -2  -2   4  122.64   12.38
   2   2   4  112.96    9.34
  -2   2   4   91.26   12.11
  -2  -2   4  117.85    9.39
   2  -2   4  111.18    9.03
  -2  -2   4  110.46    9.89
   2   2   4  112.15   13.75
  -2   2   4  118.22   10.59
   2  -2   5  351.96   18.00
  -2   2   5  393.66   24.78
   2  -2   5  368.32   22.10
  -2  -2   5  360.25   17.78
   2   2   5  410.01   26.08
  -2  -2   5  378.07   23.78
   2   2   5  375.81   19.85
   2   2   5  359.23   19.73
  -2  -2   5  361.47   20.61
   2  -2   5  363.31   17.61
   2   2   5  369.61   17.41
  -2   2   5  388.13   20.46
  -2   2   5  337.01   13.61
   2  -2   6   47.02    8.43
  -2   2   6   42.42    8.43
  -2   2   6   46.96   10.79
  -2  -2   6   35.17    9.19
  -2  -2   6   33.77    6.17
   2   2   6   43.13    7.72
   2  -2   6   26.52    7.62
  -2  -2   6   42.07    8.46
   2   2   6   35.71    9.76
   2  -2   6   44.52    9.62
   2   2   6   42.60    7.98
  -2   2   7  117.60   14.25
  -2  -2   7  101.45   13.92
  -2  -2   7   86.57    9.43
   2   2   7  109.64   12.56
  -2  -2   7  108.24   12.85
   2  -2   7  112.58   13.89
   2   2   7  103.18   15.26
   2  -2   7  107.93   12.10
   2  -2   7  110.35   14.26
  -2   2   7  107.90   14.89
   2   2   7  120.54   12.23
   2  -2   8    2.41    4.85
  -2   2   8   -5.51    6.22
  -2   2   8  -14.50    9.57
  -2  -2   8   -2.14    2.65
  -2  -2   8   -0.49    6.05
   2   2   8    2.74    5.27
   2  -2   8    3.59    6.59
  -2  -2   8    2.58    4.75
   2  -2   8    8.89    6.64
   2   2   8   -3.91    8.05
   2   2   8   -3.41    4.45
   2  -2   9   36.73    9.63
   2  -2   9   23.49    8.06
   2   2   9   40.96   11.72
   2  -2   9   31.06    7.91
   2   2   9   33.54    8.16
  -2   2   9   20.22    8.55
  -2   2   9   21.53    9.76
  -2  -2   9   39.22   11.54
   2   2   9   25.05    6.84
  -2  -2   9   34.03    8.19
  -2   2  10  294.94   27.89
   2  -2  10  346.83   26.07
  -2  -2  10  302.30   26.64
   2  -2  10  298.07   24.19
   2   2  10  356.14   31.81
   2  -2  10  311.60   26.18
  -2   2  10  311.79   26.63
   2  -2  11   21.45    8.52
   2  -2  11   16.98    8.12
  -2   2  11   11.02    8.24
  -2   2  11   23.41   10.08
   2   2  11    2.15   10.20
   2  -2  11   27.17   10.51
  -2  -2  11   14.10    6.39
  -2   2  12   51.18   15.13
   2  -2  12   40.25   11.99
  -2  -2  12   36.48   11.40
  -2   2  12   40.76   12.06
   2  -2  12   51.78   12.02
   2  -2  12   57.25   14.03
   2   2  12   67.14   17.00
   2  -2  13   59.50   12.97
  -2   2  13   44.31   14.52
   2  -2  13   48.37   14.81
   2   2  13   62.77   17.47
   2  -2  13   30.63   10.95
  -2  -2  13   49.51   15.22
  -2   2  14   28.25   12.41
   2  -2  14    4.25    9.40
   2   2  14    5.95   10.83
  -2  -2  14   18.78   11.57
   2  -2  14    6.05    7.81
   2  -2  15   14.70   11.31
   2   3 -14   31.50   12.07
   2  -3 -14   51.20   13.98
  -2   3 -14   57.31   17.26
   2  -3 -13   23.60   13.04
   2   3 -13   18.30   11.76
   2   3 -13   33.49   12.33
  -2  -3 -13   15.45   10.57
  -2   3 -13   19.46    9.92
   2   3 -12  114.31   19.97
  -2   3 -12  122.74   20.22
   2   3 -12  137.72   23.21
   2  -3 -12  111.41   18.63
  -2  -3 -12  161.91   21.36
   2   3 -11   25.61   12.30
   2  -3 -11   50.04   13.88
  -2   3 -11   14.45    7.44
   2   3 -11   23.31   10.11
  -2  -3 -11   39.30   11.08
  -2   3 -11   39.47   13.92
  -2   3 -10  198.20   20.13
   2   3 -10  214.72   24.48
   2  -3 -10  244.29   24.32
  -2   3 -10  215.44   23.73
  -2  -3 -10  220.17   17.23
   2   3 -10  225.96   25.93
  -2  -3 -10  207.64   21.71
  -2   3  -9   26.17    8.71
   2   3  -9   18.39    8.90
  -2  -3  -9   38.76   11.52
   2  -3  -9   37.99   11.31
  -2  -3  -9   39.37    7.13
  -2  -3  -9   26.21    5.71
   2   3  -9   37.34   11.81
  -2   3  -9   39.49   11.43
   2  -3  -9   22.73    6.21
  -2   3  -8    6.24    2.30
   2   3  -8    8.20    7.02
  -2   3  -8    4.52    5.99
   2   3  -8    5.34    8.15
   2  -3  -8    5.91    6.23
  -2  -3  -8    3.37    3.68
  -2  -3  -8   12.45    7.03
  -2  -3  -8   10.52    4.24
  -2   3  -8    5.58    6.29
   2  -3  -8    9.70    5.35
   2   3  -7  200.77   20.63
  -2  -3  -7  204.19   19.25
   2  -3  -7  221.21   21.00
  -2   3  -7  196.61   20.14
  -2  -3  -7  185.82   12.35
   2   3  -7  220.37   22.86
  -2  -3  -7  204.59   13.40
   2  -3  -7  173.01   11.15
  -2   3  -7  203.14   18.71
   2  -3  -7  196.22   15.00
  -2  -3  -7  190.59   12.01
   2   3  -7  194.67   11.56
  -2   3  -7  183.52   10.40
  -2  -3  -6   36.83    9.94
  -2   3  -6   26.65    4.80
  -2   3  -6   33.00    8.08
  -2  -3  -6   27.93    4.15
  -2  -3  -6   25.14    5.16
   2   3  -6   28.20    9.46
   2  -3  -6   51.48   11.67
   2   3  -6   27.94    4.09
  -2  -3  -6   27.34    5.50
   2  -3  -6   23.56    4.59
  -2   3  -6   33.50    9.49
   2   3  -6   32.39    8.75
   2  -3  -6   27.85    6.47
  -2  -3  -5    5.42    8.39
  -2   3  -5    3.14    3.12
  -2   3  -5   -3.41    4.57
  -2  -3  -5    2.85    2.89
  -2  -3  -5   -2.57    3.34
   2  -3  -5    2.18    7.44
   2   3  -5    1.97    5.60
   2  -3  -5    0.41    2.41
  -2   3  -5   -1.26    6.08
  -2  -3  -5    1.33    1.54
   2  -3  -5   -1.70    3.98
   2   3  -5   -0.58    5.04
   2   3  -5    2.21    1.97
  -2   3  -4   39.71    6.16
  -2  -3  -4   46.91    6.12
  -2  -3  -4   36.12    5.76
  -2  -3  -4   43.26    9.92
   2   3  -4   47.64   10.08
   2  -3  -4   32.80    9.37
   2  -3  -4   29.14    4.90
  -2   3  -4   16.95    7.10
   2   3  -4   28.51    7.54
  -2  -3  -3  189.41   12.43
   2  -3  -3  209.64   18.45
  -2  -3  -3  183.52    6.73
   2  -3  -3  173.76   10.68
  -2   3  -3  195.72   16.81
   2   3  -3  182.96   16.48
   2   3  -3  173.93   14.38
  -2  -3  -3  197.07   17.02
   2  -3  -3  176.98   11.74
   2   3  -3  191.26   13.36
  -2   3  -3  184.02   12.70
   2   3  -2  244.25   13.01
   2   3  -2  234.57   17.93
  -2  -3  -2  254.37   14.96
   2  -3  -2  229.55   18.49
  -2  -3  -2  261.65   10.74
  -2   3  -2  249.97   17.60
   2  -3  -2  228.72   12.75
   2   3  -2  266.27   15.59
   2  -3  -2  240.88   12.18
  -2  -3  -2  272.45   19.40
   2   3  -2  246.24    9.26
  -2   3  -2  246.90   15.67
   2   3  -1  213.80   10.17
   2   3  -1  228.65   16.18
  -2  -3  -1  242.15   17.80
   2   3  -1  242.47   15.38
   2  -3  -1  246.83   17.63
  -2  -3  -1  243.59   12.25
  -2   3  -1  237.42   15.25
  -2   3  -1  252.35   16.87
   2  -3  -1  226.49   13.64
  -2  -3  -1  231.35   14.83
   2   3  -1  236.45   13.02
   2   3  -1  238.16   11.28
  -2   3  -1  240.57   16.28
   2   3   0  964.88   31.57
   2   3   0  927.52   27.06
   2  -3   0  960.05   31.89
  -2  -3   0  936.56   26.74
  -2   3   0  921.30   26.60
  -2   3   0  945.30   29.27
  -2   3   0 1003.74   34.05
  -2  -3   0  971.34   33.68
   2   3   0  994.51   26.43
   2   3   1  242.73   15.31
  -2  -3   1  236.85   15.14
  -2   3   1  238.71   12.06
   2   3   1  215.02   13.91
   2  -3   1  281.26   16.75
  -2   3   1  244.79   14.24
   2   3   1  238.38   12.41
  -2  -3   1  262.13   17.35
   2   3   1  247.35   15.62
  -2   3   1  232.83   17.62
   2  -3   1  236.44   15.04
   2   3   2  233.73   14.35
   2   3   2  241.73    7.76
  -2  -3   2  249.32   17.18
  -2   3   2  229.46    9.99
   2   3   2  248.61   13.77
  -2   3   2  246.33   13.39
   2   3   2  263.25   17.63
  -2  -3   2  250.61   16.73
  -2   3   2  232.23   18.86
   2  -3   2  240.24   14.35
   2   3   3  167.27    8.88
  -2   3   3  182.20   18.00
   2  -3   3  181.96   17.59
   2  -3   3  189.71   11.64
   2   3   3  196.52   14.63
  -2  -3   3  154.65   14.74
   2   3   3  172.42   15.93
  -2   3   3  182.99   11.02
   2   3   3  178.42   11.25
  -2  -3   3  177.71   13.98
   2   3   3  175.45   15.98
  -2   3   3  192.71   17.84
   2  -3   4   28.50    5.32
   2   3   4   22.56    4.78
  -2  -3   4   39.35    6.79
   2  -3   4   33.00    5.16
   2  -3   4   31.12    8.47
   2   3   4   27.09    8.73
   2   3   4   21.86    7.07
   2   3   4   39.73    5.91
  -2   3   4   46.37   10.84
   2   3   4   32.06    7.29
  -2   3   4   42.24    7.48
  -2  -3   4   33.40    9.08
  -2  -3   4   42.07    7.51
  -2   3   4   42.22   10.65
  -2  -3   5    6.91    5.64
   2   3   5    3.92    4.58
   2   3   5    2.63    6.29
  -2   3   5    2.65    5.90
  -2  -3   5    8.95    4.25
   2  -3   5   -3.31    4.03
   2   3   5    0.46    4.69
   2  -3   5    3.15    6.20
   2   3   5    0.65    4.51
   2   3   5    0.41    3.06
  -2   3   5   -4.58    7.46
  -2   3   5    3.34    3.57
   2   3   6   30.47    8.04
   2   3   6   29.46    6.67
  -2  -3   6   32.31   10.27
   2   3   6   28.20    8.87
  -2   3   6   20.92    5.01
  -2  -3   6   35.12    6.37
   2   3   6   35.56    7.47
  -2  -3   6   30.48    8.82
   2  -3   6   22.73    8.41
  -2   3   6   18.22    6.80
  -2   3   6   41.91   11.04
   2  -3   6   18.66    5.32
  -2   3   7  217.68   21.18
  -2   3   7  178.92   19.43
  -2  -3   7  209.25   21.13
   2  -3   7  195.96   20.33
  -2  -3   7  181.21   12.98
   2   3   7  236.47   19.75
   2   3   7  216.97   17.38
   2  -3   7  202.64   16.49
  -2  -3   7  205.24   17.71
  -2   3   7  176.41   12.91
   2   3   7  200.05   17.59
   2   3   7  237.91   23.21
   2  -3   7  182.60   17.43
   2  -3   8    5.98    5.08
  -2  -3   8    2.43    6.35
  -2   3   8    8.17    8.10
   2  -3   8   18.18    7.85
   2   3   8    6.12    4.27
  -2  -3   8    8.92    5.08
   2  -3   8    4.05    5.56
   2   3   8   17.81   10.00
   2   3   8   14.45    5.16
   2  -3   9   24.38    7.75
  -2  -3   9   22.18    9.71
   2   3   9   22.31    7.30
   2   3   9   18.97    7.14
  -2  -3   9   27.79    9.96
  -2   3   9   33.00    9.76
  -2  -3   9   24.10    7.07
   2  -3   9   28.46    9.12
   2   3   9   41.62   12.96
   2  -3   9   14.72    6.02
   2  -3  10  190.97   20.24
   2  -3  10  231.39   23.40
  -2  -3  10  240.64   25.02
  -2  -3  10  213.35   19.59
   2   3  10  204.49   18.78
   2   3  10  201.79   26.12
   2   3  10  236.02   20.29
  -2  -3  10  230.77   25.68
  -2   3  10  220.18   24.29
   2  -3  10  213.00   20.88
   2  -3  11   18.99    8.31
  -2   3  11   12.53    7.99
  -2  -3  11   32.05   11.15
   2  -3  11   24.84    8.93
   2   3  11   26.04   13.70
   2  -3  11   32.78   10.59
   2   3  11   26.84    8.95
   2  -3  12   90.90   15.40
  -2   3  12  129.47   20.94
   2  -3  12  106.30   16.74
   2  -3  12  129.75   19.10
   2   3  12  153.43   24.23
  -2  -3  12  118.56   19.87
   2  -3  13   11.89    6.91
   2  -3  13   -2.04    7.27
  -2   3  13   16.60   11.81
  -2  -3  13   23.15   13.05
   2   3  13    6.83   11.93
  -2   3  14   36.42   12.16
   2  -3  14   34.69   13.26
   2  -3  14   53.57   14.27
   2  -4 -14   37.44   12.38
   2   4 -13   33.00   14.03
   2   4 -13   18.25   12.74
  -2  -4 -13   10.39    8.41
  -2   4 -13   15.72   12.14
   2  -4 -13    3.48    8.59
   2   4 -12    0.94    8.05
   2  -4 -12  -21.43    8.13
  -2   4 -12    5.96    8.54
   2   4 -12   12.16   10.80
  -2  -4 -12   -7.13    7.26
   2   4 -11    4.47    9.38
   2  -4 -11   -3.56    7.02
  -2  -4 -11    5.35    8.20
  -2   4 -11    3.42    7.50
   2   4 -11    3.29    6.45
  -2   4 -11   -1.34    6.70
  -2   4 -10    9.04    7.04
  -2  -4 -10    7.48    7.24
   2   4 -10    9.57    7.60
   2  -4 -10    7.84    9.86
  -2   4 -10    2.83    6.97
   2   4 -10    5.19    8.03
  -2   4  -9   14.37    8.60
   2   4  -9    2.44    6.19
   2  -4  -9   36.05   12.32
  -2   4  -9   13.00    9.13
  -2  -4  -9   16.65    7.52
   2   4  -9   18.40    9.54
   2  -4  -9   17.60    6.48
  -2   4  -8   25.29    8.56
   2   4  -8   30.31   10.49
   2  -4  -8   25.95   10.82
   2   4  -8   16.34    7.91
   2  -4  -8   35.17    8.19
  -2   4  -8   22.61    9.97
  -2  -4  -8   21.32    9.22
  -2   4  -7   64.30    8.19
  -2   4  -7   72.16   12.78
   2   4  -7   70.01   13.70
   2  -4  -7   94.06   15.67
  -2   4  -7   52.61   11.14
   2   4  -7   72.41   14.14
  -2  -4  -7   63.80    6.40
   2  -4  -7   62.56   11.10
  -2  -4  -7   70.47   12.77
  -2   4  -6  213.82   20.34
   2   4  -6  198.92   21.30
   2  -4  -6  212.19   22.02
  -2   4  -6  212.32   21.34
   2  -4  -6  194.74   18.05
   2   4  -6  231.77   21.60
  -2  -4  -6  162.37    7.99
  -2  -4  -6  197.61   19.29
  -2   4  -6  197.85   14.26
  -2   4  -5    2.12    4.17
   2  -4  -5   13.00    9.07
  -2  -4  -5    0.48    8.15
  -2   4  -5   21.90    7.78
   2   4  -5   18.17    7.51
   2  -4  -5    5.24    5.31
   2   4  -5   12.78    8.42
   2   4  -4   44.46   10.49
   2  -4  -4   69.64   12.39
  -2   4  -4   49.78    8.80
  -2   4  -4   64.58   12.27
  -2  -4  -4   49.17    4.49
   2   4  -4   54.56    9.79
  -2  -4  -4   53.06   10.72
  -2   4  -3   51.15    8.78
  -2  -4  -3   56.61   12.33
   2   4  -3   43.16   10.85
   2  -4  -3   71.35   13.14
  -2   4  -3   46.93   10.08
   2   4  -3   53.85    9.44
  -2  -4  -3   54.16    5.67
   2   4  -2  355.32   24.45
  -2  -4  -2  341.40   15.79
   2  -4  -2  346.77   23.82
   2   4  -2  303.92   15.94
  -2   4  -2  331.98   21.66
  -2  -4  -2  337.75   24.12
  -2   4  -2  296.36   20.13
   2   4  -1  169.90   16.74
  -2   4  -1  168.26   16.28
  -2  -4  -1  199.54   13.50
   2  -4  -1  167.37   16.07
  -2   4  -1  178.85   15.14
  -2  -4  -1  189.00   18.18
   2   4  -1  161.68    9.62
  -2   4   0   12.29    6.90
   2   4   0    9.57    6.90
   2  -4   0    5.92    5.12
  -2  -4   0    2.93    4.01
  -2   4   0   10.15    4.89
  -2  -4   0    4.79    6.15
   2   4   0   15.05    5.03
   2   4   1  159.15   14.98
   2   4   1  168.77    8.35
   2  -4   1  193.75   15.49
  -2  -4   1  168.08   14.75
  -2   4   1  154.29   11.17
  -2   4   1  165.05   12.56
  -2  -4   1  171.80   16.56
   2   4   1  198.73   14.70
  -2   4   1  177.82   18.10
   2   4   2  311.11   11.87
   2  -4   2  331.20   24.81
   2  -4   2  314.35   18.31
  -2  -4   2  334.93   21.86
   2   4   2  298.88   16.15
  -2   4   2  325.18   16.03
  -2   4   2  312.81   13.53
  -2  -4   2  352.93   22.87
   2   4   2  331.49   24.68
   2   4   2  366.30   21.45
  -2   4   2  358.25   25.20
   2   4   3   39.95   10.24
  -2   4   3   50.13    4.17
   2  -4   3   50.09   11.47
   2   4   3   47.37    5.60
  -2   4   3   46.97   10.75
   2  -4   3   46.17    6.97
  -2   4   3   56.63   12.30
  -2   4   3   40.29    5.73
   2   4   3   47.70    6.31
  -2  -4   3   56.11    9.70
   2   4   3   60.98   11.27
  -2  -4   3   53.75   10.59
   2   4   4   49.56    6.30
  -2   4   4   59.73   12.68
   2  -4   4   49.18    6.90
   2  -4   4   49.53   11.54
   2   4   4   75.75   12.20
   2   4   4   46.07    6.12
   2   4   4   48.49    8.80
  -2  -4   4   38.75    8.71
  -2   4   4   56.84   11.90
   2   4   4   71.47   12.07
  -2  -4   4   55.15   11.69
  -2  -4   5   11.08    7.56
   2   4   5    7.84    4.51
  -2   4   5   12.34    6.49
   2  -4   5    9.67    5.28
   2   4   5    3.21    6.02
   2   4   5   13.20    6.00
   2   4   5    9.85    3.30
  -2   4   5   -0.07    7.06
   2   4   5   19.69    8.40
   2  -4   5   10.00    6.22
   2  -4   5   17.23    4.31
   2   4   6  180.63   15.12
  -2   4   6  190.15   19.46
   2  -4   6  232.33   22.89
  -2   4   6  208.12   21.99
  -2  -4   6  198.78   20.74
   2   4   6  183.29   15.54
   2   4   6  218.38   21.14
   2  -4   6  194.94   15.50
   2   4   6  246.03   23.57
   2   4   7   75.05   13.02
  -2  -4   7   74.76   13.72
   2   4   7   68.01   11.04
  -2   4   7   64.61   12.44
   2  -4   7   66.98   11.09
  -2  -4   7   74.98   12.53
   2   4   7   65.23   10.19
   2  -4   7   77.61   14.23
  -2   4   7   81.87   15.97
   2   4   7  109.09   17.32
   2  -4   7   50.82    8.68
   2   4   8   37.14   10.57
  -2  -4   8   13.55    8.32
   2   4   8   33.79    8.76
   2  -4   8   30.10    7.51
   2   4   8   18.65    6.25
  -2   4   8   26.15   10.37
   2  -4   8   40.36    9.50
  -2  -4   8   35.95   10.26
   2   4   8   40.91   11.08
   2  -4   8   33.87   11.34
  -2   4   8   28.90   10.32
   2  -4   9   24.56    7.98
  -2  -4   9   19.47    9.76
   2  -4   9   16.64    7.69
  -2  -4   9    7.18    6.26
   2   4   9   15.77    7.57
   2   4   9   18.95    7.35
   2   4   9   11.80    5.65
   2  -4   9   15.79    9.41
   2   4   9   20.15   11.97
  -2   4   9   -2.04    6.53
   2  -4  10    8.53    7.32
  -2  -4  10   -4.39    6.51
  -2   4  10   -0.92    7.93
   2  -4  10   13.86    8.63
   2  -4  10    3.76    7.28
  -2  -4  10    4.72   10.91
  -2  -4  10    6.81    6.59
   2   4  10   -4.39   10.12
   2   4  10    5.61    5.28
   2   4  11   14.91   11.38
  -2   4  11   17.68   10.04
   2   4  11    2.04    5.46
   2  -4  11   -4.68    6.14
  -2  -4  11    8.97    9.30
   2  -4  11    5.28    8.62
  -2  -4  11    5.48    8.33
   2  -4  12    1.22    6.41
  -2   4  12   -0.48    7.34
  -2  -4  12   -7.22    9.86
   2  -4  12    8.55    8.00
   2  -4  13  -10.94    7.93
  -2   4  13   14.20   10.80
   2  -4  13   19.55   10.16
  -2  -4  13   -1.52    7.99
   2  -4  14   24.98   11.60
   2  -4  14   31.32   11.98
   2  -5 -13   37.81   13.76
  -2  -5 -13   17.34   10.39
   2   5 -12   18.23   12.30
   2  -5 -12   11.31   10.15
  -2   5 -12   18.88   10.33
  -2  -5 -12    1.76    8.38
  -2  -5 -11   76.44   16.26
   2   5 -11   60.21   16.80
   2  -5 -11   67.08   17.34
  -2   5 -11   78.39   18.92
  -2   5 -11   78.19   16.21
  -2   5 -10   30.43   12.59
   2   5 -10   21.88    9.95
   2  -5 -10   31.83   12.34
  -2   5 -10   21.60    8.95
  -2  -5 -10   26.93   10.13
  -2   5  -9   79.93   14.78
   2   5  -9   81.47   17.14
   2  -5  -9   91.59   17.74
  -2   5  -9   81.78   15.91
  -2  -5  -9   61.73   13.76
  -2   5  -8   78.58   15.91
   2   5  -8  136.57   20.53
   2  -5  -8  131.44   19.85
   2  -5  -8  100.97   14.81
  -2   5  -8  117.76   18.76
  -2  -5  -8  116.54   17.89
  -2   5  -7   37.26    7.66
  -2   5  -7   62.51   13.99
   2   5  -7   64.95   14.67
   2  -5  -7   54.86   13.40
  -2   5  -7   27.97    9.79
   2  -5  -7   38.56    9.72
  -2  -5  -7   51.93   12.75
  -2   5  -6   60.29   10.27
   2   5  -6   66.56   13.94
   2  -5  -6   83.29   16.30
  -2   5  -6   58.24   12.94
   2  -5  -6   53.12   11.54
  -2  -5  -6   59.15   12.67
   2   5  -5   73.81   14.65
   2  -5  -5   70.89   15.15
  -2  -5  -5   51.72    5.53
  -2   5  -5   62.60   12.35
  -2   5  -5   67.70   10.71
   2  -5  -5   66.20   13.03
  -2  -5  -5   62.59   13.19
  -2  -5  -4   54.07   12.50
   2   5  -4   61.47   13.76
  -2  -5  -4   77.71    7.78
   2  -5  -4   65.48   13.54
  -2   5  -4   61.59   12.09
  -2   5  -4   58.67   10.18
   2   5  -3  260.55   24.16
   2  -5  -3  241.57   23.18
  -2  -5  -3  258.48   15.21
  -2   5  -3  281.10   22.65
  -2   5  -3  266.48   21.21
  -2  -5  -3  282.67   24.96
  -2  -5  -2  126.52   11.54
   2  -5  -2  117.20   16.23
  -2  -5  -2  145.98   18.87
  -2   5  -2  127.25   14.91
  -2   5  -2  138.12   16.62
   2   5  -2  115.76   16.00
  -2   5  -1  114.69   15.74
   2  -5  -1  126.18   15.97
   2   5  -1  128.14   16.56
  -2  -5  -1  121.60   17.31
  -2   5  -1  128.31   14.07
  -2  -5  -1  105.80   11.73
  -2   5   0   29.45    9.46
   2   5   0    7.68    6.67
   2  -5   0   16.80    7.47
  -2  -5   0   15.90    8.58
  -2   5   0   24.86    6.88
  -2  -5   0   12.11    4.24
  -2   5   1  142.88   17.56
   2   5   1  123.03   14.60
   2  -5   1  123.86   17.39
   2  -5   1  130.27   14.59
  -2   5   1  121.44   12.07
  -2  -5   1  123.87   14.28
  -2  -5   1  127.09   17.18
  -2   5   2  122.99   16.71
   2   5   2  105.95   15.71
   2   5   2  100.46    8.35
   2  -5   2  114.54   16.48
   2  -5   2  105.33   12.23
  -2  -5   2  117.31   14.84
  -2   5   2  105.69    9.24
  -2   5   2  115.87   10.75
   2   5   2  154.03   15.57
  -2  -5   2  115.13   16.07
   2   5   3  231.37   13.14
   2   5   3  261.10   24.08
   2  -5   3  251.58   17.67
  -2  -5   3  247.87   21.53
  -2   5   3  231.35   10.98
  -2   5   3  257.10   14.32
   2   5   3  213.64   13.46
   2  -5   3  265.86   24.76
  -2  -5   3  236.87   21.25
  -2   5   3  247.07   24.06
   2   5   3  305.10   22.88
  -2   5   3  266.52   25.28
   2   5   4   58.38    7.74
  -2   5   4   70.40   14.79
   2   5   4   68.71   12.64
   2  -5   4   60.75    8.77
   2  -5   4   84.26   15.09
   2   5   4   48.23    8.99
  -2  -5   4   56.68   12.05
   2   5   4   50.92   11.98
  -2  -5   4   58.34   12.10
  -2   5   4   95.92   16.73
   2   5   5   54.78   12.03
   2   5   5   46.70    7.82
  -2   5   5   63.63   14.20
   2  -5   5   59.10    7.53
  -2  -5   5   56.40   12.85
  -2   5   5   67.11   13.68
   2  -5   5   74.44   15.35
   2   5   5   80.30   14.62
   2   5   5   54.40    9.60
   2   5   6   77.08   14.89
   2   5   6   57.04   10.05
   2   5   6   60.63    9.32
  -2   5   6   64.96   12.86
  -2  -5   6   64.25   14.18
   2  -5   6   55.31    9.77
   2  -5   6   64.28   14.68
   2   5   6   81.36   15.36
  -2   5   6   64.33   14.20
   2   5   7   71.59   14.20
  -2   5   7   56.25   13.72
   2   5   7   56.58    9.59
  -2  -5   7   52.36   12.21
   2   5   7   71.72   14.46
  -2   5   7   60.31   15.15
   2   5   7   44.88    9.56
  -2  -5   7   42.56   11.31
   2  -5   7   42.86   13.62
   2  -5   7   57.78    9.84
   2  -5   7   29.08    7.07
  -2  -5   8  123.09   19.46
   2   5   8  104.97   13.94
   2   5   8   99.06   12.22
  -2   5   8  118.94   18.97
   2  -5   8   87.56   12.08
  -2   5   8  112.89   18.59
  -2  -5   8  115.88   17.07
   2  -5   8  135.81   20.90
   2   5   8  122.95   20.08
   2   5   8  124.60   19.11
   2  -5   8  110.72   13.80
  -2  -5   9   87.70   17.84
   2   5   9   72.97   13.25
  -2  -5   9   72.87   14.32
  -2   5   9   56.30   14.17
   2  -5   9   66.07   14.57
  -2   5   9   75.79   17.26
   2  -5   9   66.56   12.45
   2   5   9   68.41   13.60
   2  -5  10    6.80    7.01
  -2   5  10   22.06    9.34
  -2  -5  10   33.21   12.72
   2  -5  10   24.39   10.97
   2   5  10   23.53    8.88
  -2  -5  11   55.79   14.06
  -2   5  11   71.63   17.02
  -2  -5  11   52.60   15.27
   2  -5  11   87.77   17.96
   2  -5  11   60.81   12.71
   2   5  11   70.46   14.75
  -2   5  12    9.61    8.43
   2  -5  12    9.62    8.57
  -2  -5  12   -2.36    7.16
   2  -5  12   13.12    6.98
  -2  -5  12   31.87   12.51
   2  -5  13   17.72   12.48
  -2  -6 -12   15.72   11.21
   2   6 -11  -13.40   12.49
  -2   6 -11   -0.11    7.52
   2  -6 -11   25.06   11.95
  -2  -6 -11   25.96   11.04
  -2   6 -10   50.18   15.04
   2   6 -10   63.49   17.00
   2  -6 -10   61.32   15.57
  -2  -6 -10   43.86   14.00
  -2   6 -10   47.94   14.72
  -2   6  -9   26.70   12.04
   2   6  -9   20.70   10.05
  -2  -6  -9   18.33    7.51
  -2   6  -9   23.53   11.57
   2  -6  -9    8.98    9.14
   2   6  -8   24.18   11.31
  -2   6  -8    3.90    6.97
   2  -6  -8   11.69    7.84
  -2  -6  -8   20.26   11.86
   2   6  -7   31.29   12.24
  -2  -6  -7   12.31   10.18
   2  -6  -7   15.03   10.14
  -2   6  -7    4.57    6.74
   2  -6  -7   11.90    7.53
   2   6  -6  231.83   27.11
   2  -6  -6  220.30   26.53
  -2   6  -6  227.31   24.84
  -2  -6  -6  255.04   26.75
  -2   6  -6  216.30   20.32
   2   6  -5   41.75   13.17
   2  -6  -5   67.59   15.04
  -2   6  -5   43.60   11.13
  -2   6  -5   48.25   12.71
  -2  -6  -5   43.64   12.47
  -2   6  -4   69.74   12.25
   2   6  -4   44.60   13.42
   2  -6  -4   61.66   14.17
  -2   6  -4   62.47   13.12
  -2  -6  -4   84.20   15.71
   2   6  -3  180.64   22.10
  -2  -6  -3  195.96   22.79
  -2  -6  -3  193.77   15.47
   2  -6  -3  209.67   23.21
  -2   6  -3  206.92   20.99
  -2   6  -3  198.52   21.08
  -2   6  -2  134.37   18.13
   2   6  -2  150.34   19.88
  -2  -6  -2  164.56   15.51
   2  -6  -2  174.93   20.37
  -2  -6  -2  175.24   21.69
  -2   6  -2  173.49   18.26
  -2   6  -1   64.15   13.51
   2   6  -1   62.94   12.90
  -2  -6  -1   50.13   10.03
  -2  -6  -1   50.04   13.74
  -2   6  -1   57.74   11.50
   2  -6  -1   41.49   11.39
  -2   6   0   15.76    8.68
   2   6   0    7.94    8.52
   2   6   0   -0.41    6.94
  -2  -6   0   -1.42    5.44
   2  -6   0    7.31    7.69
   2  -6   0   15.36    8.08
  -2   6   0    4.68    5.43
  -2  -6   0    5.57    8.04
   2   6   1   59.57   15.17
   2   6   1   43.14    6.78
   2  -6   1   53.36   13.43
   2  -6   1   55.43   11.36
  -2   6   1   48.98    8.51
  -2   6   1   69.04   14.76
  -2  -6   1   37.40    9.35
  -2  -6   1   54.67   12.72
  -2  -6   2  139.46   17.59
   2   6   2  134.42   11.08
   2  -6   2  166.85   16.79
   2  -6   2  141.38   20.02
  -2   6   2  148.19   12.75
   2   6   2  132.74   18.98
  -2  -6   2  137.51   18.47
  -2   6   2  161.64   21.63
   2   6   3  159.55   21.25
   2   6   3  178.50   13.21
   2  -6   3  223.29   25.09
  -2   6   3  198.58   23.87
   2  -6   3  195.99   17.13
  -2  -6   3  174.07   20.13
  -2  -6   3  138.35   18.09
  -2   6   3  211.48   24.94
   2   6   4   48.70   12.43
  -2  -6   4   57.69   13.49
   2  -6   4   60.02    9.19
   2  -6   4   56.70   14.89
   2   6   4   65.31   11.83
  -2  -6   4   56.54   12.83
  -2   6   4   77.48   15.21
  -2   6   4   51.44   14.41
   2   6   5   36.72   12.06
  -2   6   5   51.43   14.29
   2  -6   5   35.68   11.99
  -2   6   5   54.29   14.21
   2   6   5   42.24    8.86
  -2  -6   5   37.54   11.30
  -2   6   6  257.65   27.78
   2  -6   6  260.44   28.44
  -2  -6   6  231.98   26.07
   2   6   6  208.15   18.43
  -2   6   6  226.37   26.26
   2   6   6  232.32   26.48
   2   6   7    5.62    8.29
  -2  -6   7    8.33    7.15
  -2   6   7   20.66   10.80
   2  -6   7    4.45    4.77
   2  -6   7   12.99    8.47
  -2   6   7   14.59    8.98
   2   6   8    1.20    6.36
  -2  -6   8   30.13   12.25
  -2   6   8   23.83   10.65
  -2  -6   8   14.35    8.34
   2  -6   8   32.33   12.68
   2  -6   8   12.66    7.62
  -2   6   8    0.50    8.66
   2   6   9   36.73   12.76
  -2  -6   9   29.98   12.32
  -2   6   9   31.38   12.36
   2  -6   9   22.79   10.11
   2  -6   9   14.73    7.14
  -2   6   9   58.99   16.32
  -2  -6  10   44.51   15.30
  -2   6  10   29.58   12.11
   2   6  10   41.29   12.65
   2  -6  10   50.44   15.68
  -2   6  10   43.68   14.41
  -2   6  11    4.47    8.19
   2  -6  11   13.34   13.53
   2   6  11   16.90   11.93
  -2  -6  11   20.46   12.99
  -2  -7 -10   -3.20    9.31
   2   7  -9   -1.74    8.45
   2  -7  -9   27.69   13.97
  -2   7  -9   21.09    9.88
  -2  -7  -9    8.25   10.93
   2   7  -8    6.38   11.93
   2  -7  -8    1.09    7.88
  -2  -7  -8   -1.47   10.22
  -2   7  -8    2.18    7.28
   2   7  -7   28.64   13.90
   2  -7  -7    9.70    8.96
  -2   7  -7   29.51   10.69
   2   7  -6   -2.30    9.89
  -2  -7  -6   13.87   10.94
   2  -7  -6    4.57    9.17
  -2   7  -6    6.57    6.94
  -2   7  -5    9.53    7.72
   2   7  -5   13.67    9.85
   2  -7  -5   -8.41    8.29
  -2   7  -5   21.90   11.14
  -2  -7  -5   17.67   11.59
  -2   7  -4   -2.57    5.68
   2   7  -4    0.46    8.60
   2  -7  -4   -4.33    7.35
  -2  -7  -4    6.97    7.64
  -2   7  -4    1.52    7.24
  -2   7  -3   -1.26    6.09
   2   7  -3   26.70   11.66
  -2  -7  -3    6.87    9.15
   2  -7  -3   16.98    9.53
  -2   7  -3   18.65    8.01
  -2   7  -2   56.81   13.61
   2  -7  -2   48.57   12.16
  -2   7  -2   65.66   12.95
  -2  -7  -2   45.62    9.67
  -2  -7  -2   39.13   12.67
   2   7  -2   44.19   12.89
  -2   7  -1  166.95   22.19
   2   7  -1  161.75   21.05
  -2  -7  -1  161.62   17.78
   2  -7  -1  199.31   22.64
   2   7  -1  144.45   22.48
   2  -7  -1  174.25   22.49
  -2   7  -1  169.67   18.50
  -2  -7  -1  181.27   23.51
  -2   7   0    5.93    8.57
   2   7   0   19.77   10.87
   2  -7   0   38.38   13.12
   2  -7   0   10.63    9.03
  -2   7   0    5.87    5.69
  -2  -7   0    4.39    4.90
  -2  -7   0   13.64   10.74
   2   7   1  168.20   24.21
  -2   7   1  160.05   23.56
  -2  -7   1  193.83   21.72
   2  -7   1  173.50   19.65
   2  -7   1  176.17   23.12
  -2  -7   1  168.13   22.08
   2  -7   2   68.97   12.37
  -2  -7   2   51.63   12.81
   2  -7   2   84.94   17.85
  -2   7   2   58.44   14.34
   2   7   2   26.15   12.33
  -2  -7   2   48.76   13.13
   2  -7   3   20.81    7.97
  -2   7   3   28.31   12.05
   2  -7   3   16.11    9.30
   2   7   3   12.56    8.50
  -2  -7   3    6.26    7.62
  -2  -7   3    7.92    6.82
  -2   7   3    6.02    7.59
  -2   7   4    2.34    7.68
   2   7   4    0.62    7.33
  -2   7   4   -1.80    7.96
  -2  -7   4    8.79    8.21
   2  -7   4    0.11    7.21
   2   7   4    3.90    5.11
   2   7   5    3.57    7.24
  -2   7   5   13.10   10.47
   2  -7   5   19.09   10.29
  -2  -7   5  -10.78    8.37
  -2   7   5    9.13    9.90
   2   7   6    7.30    9.09
  -2   7   6    2.19    9.04
   2  -7   6   10.89    8.32
  -2  -7   6    6.39    8.37
  -2   7   6   -1.30    7.40
   2   7   7   44.53   15.27
   2  -7   7   17.37    9.87
  -2   7   7   19.31    7.70
  -2   7   7   50.34   14.35
  -2  -7   7   27.80   10.98
   2   7   8   -5.83   10.10
  -2  -7   8    4.84    7.51
  -2   7   8  -24.62   13.83
  -2   7   8   15.69   10.00
   2  -7   8   -1.25    8.03
   2   7   9    6.04   10.56
  -2  -7   9    7.78    8.18
  -2   7   9    0.96    6.92
   2  -7   9   -7.50   10.39
  -2   7   9   14.01    9.78
  -2   7  10   -5.98    7.92
   2   7  10   10.04   11.04
   2   7  11    2.60    7.11
  -2  -8  -7   84.48   18.72
  -2   8  -7   95.66   19.27
   2   8  -6    9.96    7.43
   2  -8  -6   23.61   12.21
  -2   8  -6   30.49   13.74
  -2  -8  -6   38.95   13.51
  -2   8  -5   28.77   11.17
  -2  -8  -5   19.82   13.03
   2   8  -5   53.15   15.76
   2  -8  -5   23.70   14.13
  -2   8  -5   38.97   12.93
  -2   8  -4   27.51   10.29
   2   8  -4   42.57   14.23
   2  -8  -4   27.71    9.56
   2  -8  -4   35.30   13.18
   2   8  -4   57.57   15.60
  -2   8  -4   37.29   12.29
  -2  -8  -4   39.84   12.31
  -2   8  -3   53.02   14.08
  -2  -8  -3   27.53   12.37
   2   8  -3   30.65   12.58
   2  -8  -3   50.04   12.87
   2  -8  -3   58.95   15.64
  -2   8  -3   54.00   12.16
   2   8  -3   47.83   16.21
  -2   8  -2    9.93    9.81
   2  -8  -2   -0.10    7.97
   2  -8  -2   12.45   10.29
   2   8  -2    9.74    9.14
  -2   8  -2    8.95    7.24
  -2  -8  -2    7.37   10.25
   2   8  -1   -4.60    7.99
   2  -8  -1    8.49    8.36
   2  -8  -1   12.64    8.49
  -2   8  -1    3.36    9.08
  -2  -8  -1    3.90    8.45
   2   8   0   62.55   16.20
  -2   8   0   62.43   16.32
   2  -8   0   64.47   14.61
   2  -8   0   72.33   17.07
  -2  -8   0   53.47   14.66
  -2  -8   0   72.44   13.94
  -2   8   1   -7.83    8.35
   2   8   1   13.04   10.96
   2  -8   1    8.68    5.92
  -2  -8   1    2.85    5.04
   2  -8   1   -2.26    8.01
  -2  -8   1   -1.10    9.73
  -2   8   2   -2.99    8.54
   2   8   2   -2.91    8.14
  -2  -8   2    2.88    8.10
   2  -8   2    3.41    5.87
   2  -8   2    3.59    8.59
  -2  -8   2    2.38    8.58
   2   8   3   36.88   13.16
  -2   8   3   68.61   17.56
  -2  -8   3   53.90   13.50
   2  -8   3   33.93   11.69
  -2   8   3   57.25   17.91
   2   8   4   50.17   14.34
  -2   8   4   27.17   12.06
   2  -8   4   31.99   14.29
  -2  -8   4   26.21   10.49
  -2   8   4   74.04   19.74
   2   8   5   35.32   14.61
  -2   8   5   23.77   12.36
  -2   8   5   30.10   11.17
   2  -8   5   17.76   11.78
  -2  -8   5    7.55   10.16
  -2  -8   6   36.63   13.06
  -2   8   6   19.70   14.11
   2   8   6   27.54   10.95
   2  -8   6   19.10   11.25
  -2   8   6   -3.04   10.16
  -2  -8   7   80.56   18.36
   2   8   7   72.72   18.91
  -2   8   7   88.19   19.65
  -2   8   8   38.08   14.83
  -2   9  -6    6.41    9.44
   2  -9  -4    8.48    8.38
  -2   9  -3   10.06    8.96
   2  -9  -3   21.95   10.23
   2  -9  -3    7.11    8.96
  -2   9  -2   24.18   12.89
   2   9  -2    5.13    7.78
   2  -9  -2   21.08   12.99
   2  -9  -2    3.28    9.31
  -2   9  -1   13.64    9.27
   2   9  -1   12.22   12.18
   2  -9  -1   14.06   10.51
   2  -9  -1   16.31   11.25
  -2  -9  -1   20.03   13.01
  -2   9   0    9.39    9.79
   2   9   0   -9.81   10.45
   2  -9   0  -10.94    8.32
   2  -9   0  -12.83    9.73
  -2  -9   0  -10.67   11.24
  -2   9   1    7.78   10.95
   2   9   1  -11.03   11.70
   2  -9   1    6.07    8.39
  -2  -9   1   30.73   14.90
  -2   9   2   41.20   17.38
  -2  -9   2   16.93    9.84
  -2   9   2   26.68   11.07
  -2   9   3   -3.69    9.76
  -2  -9   3   -7.16    7.45
  -2   9   4   17.19   12.95
  -2  -9   4   14.16    9.68
  -2   9   5   15.18   14.34
  -2  -9   5    0.02    8.14
  -2   9   6  -29.56   13.41
   3   0 -14    3.56    7.75
  -3   0 -14   14.14    8.07
   3   0 -13    6.04    8.56
  -3   0 -13   -0.30    6.73
   3   0 -12    2.71    6.11
   3   0 -12   -9.91   10.93
  -3   0 -12    4.37    6.61
   3   0 -11   -4.28    5.86
   3   0 -11   10.62    9.14
  -3   0 -11   -2.35    6.41
   3   0 -10    8.69    8.17
   3   0 -10    7.99    8.43
  -3   0 -10   -0.60    7.64
   3   0  -9   -3.99    5.45
  -3   0  -9    0.05    5.70
   3   0  -8    0.45    6.96
  -3   0  -8   -3.06    6.33
   3   0  -7   -7.74    5.97
  -3   0  -7   -3.07    6.29
   3   0  -6    5.72    6.38
  -3   0  -6   -2.68    6.64
   3   0  -5   14.79    6.56
  -3   0  -5   -4.48    5.19
  -3   0  -4   -2.44    3.87
   3   0  -4    6.72    5.10
  -3   0  -4    1.24    4.83
   3   0  -3    5.79    6.47
  -3   0  -3    7.54    5.93
   3   0  -2   -4.28    5.40
  -3   0  -2    6.16    4.61
  -3   0  -2    1.93    5.56
   3   0  -1    3.60    6.14
  -3   0  -1   -2.22    4.25
  -3   0  -1    1.61    5.36
   3   0  -1   -3.11    4.48
   3   0   0    3.28    5.14
   3   0   0    6.52    5.40
  -3   0   0    0.86    5.22
  -3   0   0   -3.03    4.84
   3   0   1   -2.15    5.03
  -3   0   1    3.96    4.86
  -3   0   1    3.67    5.31
  -3   0   2   -5.07    4.24
   3   0   2   10.15    6.39
  -3   0   2   -1.78    5.41
  -3   0   3   -2.10    2.09
  -3   0   3    3.31    4.57
   3   0   3   -3.36    5.47
  -3   0   3   -2.03    5.08
   3   0   4   -2.52    5.77
  -3   0   4    1.10    4.60
   3   0   4   -0.33    3.40
  -3   0   4    0.11    5.37
  -3   0   4    0.34    1.15
  -3   0   5   -1.02    5.06
   3   0   5    0.51    5.80
   3   0   5    1.30    2.89
   3   0   5    3.82    1.36
  -3   0   5   -0.02    5.37
  -3   0   5    0.28    4.42
  -3   0   6    0.02    5.44
   3   0   6   -8.14    7.05
   3   0   6    4.38    4.00
  -3   0   6    3.47    6.07
   3   0   6    2.56    6.67
  -3   0   6    0.71    5.17
  -3   0   7    0.55    6.88
   3   0   7    4.23    8.41
   3   0   7    2.53    4.25
  -3   0   7    6.55    7.57
   3   0   7    6.02    7.87
  -3   0   8   -0.30    8.12
   3   0   8    2.00    7.13
   3   0   8    2.82    3.61
   3   0   8   -0.88    6.34
  -3   0   8   -0.88    5.75
  -3   0   9   -3.36    7.26
   3   0   9   -5.04    3.34
  -3   0   9   -5.60    7.44
   3   0   9   -5.86    8.50
  -3   0  10    1.61    5.85
   3   0  10    5.23    4.02
  -3   0  10    3.51    7.51
   3   0  10   15.51    9.29
  -3   0  11    4.22    7.09
  -3   0  11    1.91    7.40
   3   0  11    6.24    7.99
  -3   0  12   -4.35    7.96
  -3   0  12   10.99   10.06
   3   0  12   -2.68    8.76
  -3   0  13   10.54    9.97
  -3   0  13    4.39    8.45
   3   0  13  -12.64   10.15
  -3   0  14   -0.18    8.41
  -3   0  14    9.92    9.55
   3   0  14   -5.88    8.48
  -3   1 -15    5.07    7.42
  -3  -1 -14  -13.08    9.06
   3   1 -14    4.96    8.78
   3  -1 -14    6.41    7.63
  -3   1 -14   20.47   10.33
   3   1 -14   -5.00   11.30
   3   1 -13   30.75   11.82
   3  -1 -13    1.86    8.08
  -3   1 -13   11.98    8.63
  -3  -1 -13   18.62    9.82
   3  -1 -12   53.06   13.68
   3   1 -12   56.85   15.96
   3  -1 -12   42.76   13.85
  -3  -1 -12   48.90   12.01
  -3   1 -12   54.23   13.50
   3   1 -11   49.78    9.85
   3  -1 -11   49.17   12.19
   3   1 -11   53.25   13.69
  -3  -1 -11   54.03   11.52
  -3   1 -11   57.75   14.33
   3   1 -10  100.01   13.98
   3  -1 -10  102.80   16.13
   3   1 -10  133.59   19.12
  -3  -1 -10  143.68   17.01
  -3   1 -10  121.18   17.20
  -3   1  -9   38.72    6.00
   3   1  -9   30.05    8.86
   3  -1  -9   32.37    8.58
   3   1  -9   20.65   10.57
  -3  -1  -9   46.75   10.35
  -3   1  -9   42.18   11.34
   3   1  -8   73.01   11.32
   3  -1  -8   85.65   13.58
   3   1  -8   72.09   13.30
  -3  -1  -8   88.97   12.60
  -3   1  -8   75.93   13.61
   3   1  -7   26.57    7.61
   3  -1  -7   28.03    9.51
   3   1  -7   24.76    7.43
  -3  -1  -7   34.27    6.77
  -3   1  -7   37.41    9.49
   3   1  -6  215.70   20.69
   3   1  -6  214.34   17.86
  -3   1  -6  223.23   14.57
   3  -1  -6  231.65   20.01
  -3   1  -6  209.99    7.01
  -3   1  -6  271.95   21.84
  -3  -1  -6  242.48   18.90
  -3  -1  -5   46.87    7.46
   3   1  -5   55.02    9.28
  -3   1  -5   46.60    7.31
   3  -1  -5   53.30   10.40
   3   1  -5   59.21   11.13
  -3  -1  -5   40.55    8.60
  -3   1  -5   57.70    4.86
  -3   1  -5   52.50   10.75
  -3   1  -5   38.85    6.30
  -3  -1  -4   58.16    7.10
   3   1  -4   57.65    9.66
  -3   1  -4   51.84    7.79
   3  -1  -4   91.51   12.68
   3   1  -4   54.87   10.84
  -3  -1  -4   66.30   10.05
  -3   1  -4   64.50    5.80
  -3   1  -4   70.68   10.84
  -3   1  -4   62.10    6.90
   3   1  -3  142.01   12.48
   3   1  -3  136.73   13.73
   3   1  -3  140.64   13.50
  -3   1  -3  134.82   11.90
   3  -1  -3  149.46   10.69
   3  -1  -3  128.02   14.17
  -3  -1  -3  150.92   14.09
  -3   1  -3  142.68   13.99
  -3   1  -3  130.77    8.86
  -3   1  -3  146.12    8.68
   3   1  -2  482.74   22.88
   3   1  -2  447.93   22.50
   3  -1  -2  462.00   24.31
   3  -1  -2  457.33   18.57
  -3  -1  -2  466.12   23.31
  -3   1  -2  471.03   24.27
  -3   1  -2  463.03   18.04
  -3   1  -2  463.34   12.80
   3  -1  -1   83.70    8.93
   3  -1  -1   86.36   11.57
   3   1  -1   84.61    9.44
  -3   1  -1   99.69    9.54
  -3  -1  -1   73.96    9.97
  -3   1  -1  108.44   12.53
   3  -1  -1  100.68   11.03
  -3  -1   0  462.04   15.32
   3   1   0  444.83   18.36
   3  -1   0  462.38   22.27
   3   1   0  476.64   23.78
  -3   1   0  473.30   21.13
   3  -1   0  460.71   20.67
  -3   1   0  493.96   23.40
   3  -1   0  458.07   20.38
  -3   1   0  501.13   21.88
  -3  -1   0  497.12   21.44
   3  -1   0  492.48   20.86
  -3  -1   1   82.69    8.57
   3  -1   1   87.44   10.08
  -3  -1   1   90.32   10.84
  -3   1   1   78.75   10.24
  -3  -1   1   77.00    7.23
   3  -1   1   77.57   10.73
  -3   1   1   80.29    9.89
   3   1   1   83.13   11.08
   3   1   1   76.24    6.96
   3  -1   1   86.13    8.48
  -3  -1   2  475.15   18.95
  -3   1   2  433.61   22.83
   3   1   2  443.77   13.02
   3  -1   2  433.43   20.55
   3   1   2  459.83   23.05
   3  -1   2  412.52   15.02
   3  -1   2  462.38   23.20
  -3  -1   2  485.06   24.09
  -3   1   2  446.58   23.96
  -3  -1   2  478.63   17.76
  -3   1   2  480.61   15.97
   3  -1   3  129.71    9.26
  -3  -1   3  125.66   11.33
  -3   1   3  160.09   14.83
   3   1   3  136.74   13.69
   3  -1   3  145.43   14.18
  -3  -1   3  130.97   14.15
  -3   1   3  143.66   14.42
  -3  -1   3  128.74    8.49
  -3   1   3  140.56   10.22
   3  -1   3  120.10    6.92
   3  -1   4   63.68    6.40
  -3  -1   4   54.75    9.01
   3   1   4   63.02    5.21
  -3   1   4   43.40    9.28
  -3   1   4   67.20    8.64
   3   1   4   52.56    5.92
   3  -1   4   64.27    8.82
   3   1   4   57.30    8.95
  -3  -1   4   58.41    9.71
  -3   1   4   56.26    4.65
   3  -1   4   81.54   12.06
  -3  -1   4   62.93    5.42
   3   1   5   44.12    5.97
  -3  -1   5   31.74    8.78
  -3   1   5   57.41   11.10
   3  -1   5   42.84    4.90
   3  -1   5   61.81    8.80
   3  -1   5   58.79   10.97
   3   1   5   45.14    4.37
  -3  -1   5   66.81   11.57
   3   1   5   48.71    6.29
   3   1   5   51.27   10.02
   3   1   5   61.70   12.31
  -3   1   5   44.79    7.10
  -3  -1   6  217.59   19.33
  -3   1   6  214.85   21.10
   3  -1   6  188.08   10.30
   3  -1   6  233.23   16.96
   3   1   6  227.92    9.71
   3   1   6  248.86   20.12
  -3  -1   6  250.77   19.91
   3  -1   6  245.55   21.28
  -3   1   6  246.79   18.44
   3   1   6  215.86   21.12
   3   1   6  220.05   12.31
  -3   1   7   38.90    9.30
  -3  -1   7   39.45   10.44
  -3   1   7   17.79    8.29
   3  -1   7   28.39   10.61
  -3  -1   7   21.50    8.32
   3   1   7   43.38    9.63
   3  -1   7   28.31    7.19
  -3  -1   7   31.60    8.94
   3   1   7   30.24    4.18
   3  -1   7   34.52   10.41
   3   1   7   23.89    9.54
   3   1   7   32.73    5.11
  -3   1   8   83.38   13.65
  -3  -1   8   68.01   13.16
  -3   1   8   89.82   15.69
   3   1   8   68.20   11.94
   3  -1   8   82.97   14.89
  -3  -1   8   90.72   14.24
   3  -1   8   78.00   11.15
  -3  -1   8   76.69   11.91
   3   1   8   66.95   15.88
   3   1   8   76.80    7.24
   3   1   9   34.95    9.94
  -3   1   9   37.35   10.43
  -3  -1   9   43.59   12.11
  -3   1   9   35.57   10.82
   3  -1   9   49.16    9.01
   3   1   9   59.97   14.18
  -3  -1   9   34.86    9.48
   3  -1   9   46.01   11.81
   3   1  10  136.62   17.83
  -3   1  10  136.87   17.85
  -3  -1  10  132.68   19.46
  -3   1  10   95.83   17.32
   3  -1  10   99.52   16.48
   3   1  10  136.54   21.42
   3  -1  10  122.70   14.66
  -3  -1  10  140.65   19.22
   3  -1  11   50.57   10.29
   3   1  11   67.63   16.73
  -3   1  11   57.36   13.05
  -3  -1  11   52.63   12.39
  -3   1  11   41.50   13.52
   3  -1  11   59.33   14.01
  -3  -1  11   34.12   10.30
  -3  -1  12   57.76   14.40
  -3  -1  12   42.06   14.12
  -3   1  12   44.17   11.62
  -3   1  12   44.46   14.36
   3   1  12   56.42   14.20
   3  -1  12   34.98   12.84
  -3  -1  13   17.61    9.57
  -3   1  13    5.74   10.78
  -3   1  13    8.17    9.78
   3   1  13   13.04   11.58
   3  -1  13   20.24    9.69
   3   1  14    3.97    8.76
  -3  -1  14   19.51   12.34
  -3   1  14   11.53    9.99
  -3   1  14   11.45    8.67
   3  -1  14   21.08   10.72
   3  -1  15    1.61   12.51
   3   2 -14   17.82   11.70
   3  -2 -14   -5.36    7.72
  -3   2 -14    4.17    7.50
  -3  -2 -14   -1.95    9.95
  -3  -2 -13   22.96   10.60
   3  -2 -13   44.33   12.64
   3   2 -13   22.17    9.35
  -3   2 -13   44.94   14.81
   3   2 -13   12.26   11.16
   3  -2 -12   12.93    9.99
   3   2 -12    4.11    7.71
  -3  -2 -12   14.82    8.19
  -3   2 -12    5.60    8.11
   3   2 -12   -1.24    8.74
  -3  -2 -11    3.55    8.50
   3  -2 -11    9.68    7.76
   3   2 -11   15.81   11.12
  -3  -2 -11    7.27    6.31
  -3   2 -11   13.43    9.08
  -3  -2 -10   35.98   12.25
   3  -2 -10   29.18   10.61
   3   2 -10   25.10   10.23
  -3  -2 -10   27.65    9.29
  -3   2 -10   16.62    9.06
  -3  -2  -9   95.67   16.49
  -3   2  -9   64.51   10.15
   3  -2  -9   78.30   14.97
   3   2  -9   65.86   14.49
  -3  -2  -9   68.80   11.64
  -3   2  -9   66.23   13.77
   3   2  -8    6.65    7.18
  -3  -2  -8   11.50    8.94
   3  -2  -8  -11.58    8.60
  -3  -2  -8   17.41    6.58
  -3   2  -8   -2.98    5.86
   3   2  -7  213.36   21.99
   3  -2  -7  193.63    9.84
  -3   2  -7  183.34   12.01
   3  -2  -7  245.38   22.50
  -3  -2  -7  214.83   17.73
  -3   2  -7  247.76   23.07
   3   2  -7  162.24    9.84
  -3  -2  -7  254.81   23.62
   3   2  -6   42.04    5.54
  -3  -2  -6   54.22   11.83
  -3   2  -6   32.44    5.88
   3  -2  -6   51.79   11.06
   3   2  -6   47.90   11.84
  -3  -2  -6   52.38    9.35
  -3   2  -6   56.01   12.06
   3  -2  -6   51.00    5.18
   3   2  -5   24.59    4.76
  -3  -2  -5   52.80   10.47
  -3  -2  -5   30.06    5.38
  -3   2  -5   32.45    6.08
   3  -2  -5   55.52   12.04
   3  -2  -5   37.95    4.70
  -3  -2  -5   37.38    8.00
  -3   2  -5   42.86   10.35
   3   2  -5   47.00   10.59
  -3  -2  -4  137.01   15.38
  -3  -2  -4  102.33    8.13
  -3   2  -4   95.86    9.69
   3  -2  -4  114.84    7.84
   3  -2  -4  117.14   14.96
   3   2  -4  106.62   13.48
  -3  -2  -4  109.71   12.21
  -3   2  -4  111.35   14.36
   3   2  -4   99.94    9.12
  -3  -2  -3  194.06    8.93
   3   2  -3  212.72   14.17
   3   2  -3  232.98   18.41
   3  -2  -3  213.34   18.87
  -3   2  -3  222.69   14.90
   3   2  -3  226.54   13.90
   3  -2  -3  239.18   12.06
  -3  -2  -3  233.79   17.30
  -3   2  -3  231.10   18.46
  -3  -2  -3  257.57   19.70
   3   2  -2  128.87    9.58
   3   2  -2  129.25   13.87
   3  -2  -2  147.43   14.93
   3  -2  -2  140.44    9.93
  -3   2  -2  139.13   14.04
  -3  -2  -2  159.61   15.22
   3   2  -1  143.15   12.99
   3  -2  -1  148.41   14.64
   3   2  -1  135.45   11.82
   3  -2  -1  153.66   11.49
  -3   2  -1  144.68   13.69
  -3  -2  -1  144.58   14.08
  -3  -2   0   89.38   10.42
  -3  -2   0   75.65    3.95
   3   2   0   99.06    9.63
   3   2   0   93.00    8.77
  -3   2   0   94.22    9.78
   3  -2   0  101.07   11.66
   3  -2   0  101.68   10.18
  -3   2   0  107.24   11.96
   3  -2   0  102.71   10.71
   3   2   1  145.17   10.80
   3  -2   1  168.52   14.03
  -3   2   1  149.25   11.19
   3   2   1  140.17    9.49
  -3  -2   1  142.53    8.01
  -3   2   1  153.83   13.48
   3  -2   1  147.86   13.21
   3  -2   1  160.06   12.20
  -3  -2   1  155.38   12.87
   3  -2   1  155.77   12.06
  -3  -2   2  132.05    9.41
   3   2   2  137.30    9.31
   3  -2   2  142.20   12.42
   3   2   2  131.35    7.71
   3   2   2  145.52   14.54
  -3   2   2  153.87   13.21
   3  -2   2  128.80    9.93
   3  -2   2  144.12   13.70
   3  -2   2  135.22   10.15
  -3  -2   2  143.56   12.05
   3   2   3  225.52    9.96
  -3  -2   3  237.41   14.62
   3  -2   3  211.78   14.83
  -3   2   3  248.26   20.42
   3   2   3  195.24    6.21
   3  -2   3  220.09   14.80
   3   2   3  241.33   18.48
  -3   2   3  239.18   12.52
  -3  -2   3  226.51   18.66
   3  -2   3  239.34   18.45
   3   2   3  225.82   18.80
  -3   2   3  220.48   13.60
  -3  -2   3  233.71   14.18
   3  -2   3  206.67   10.47
   3  -2   4  112.21   10.92
  -3  -2   4  109.52   11.68
   3  -2   4  110.50   14.66
   3   2   4  120.87   13.16
  -3   2   4  120.43   15.31
   3  -2   4  106.32   13.02
  -3  -2   4  113.92   13.61
   3   2   4  111.18   14.61
  -3  -2   4  130.88   10.17
  -3   2   4  116.66    9.56
  -3   2   4  116.45   10.35
   3   2   5   42.59    7.47
  -3   2   5   38.79    6.79
  -3  -2   5   41.89    8.54
  -3   2   5   36.11    9.83
   3  -2   5   39.43    6.84
   3   2   5   39.07    8.90
   3  -2   5   33.59    9.45
  -3  -2   5   42.71   10.02
   3  -2   5   36.32    6.42
  -3  -2   5   44.34    6.07
   3   2   5   31.76   10.34
  -3   2   5   32.61    4.83
  -3   2   6   33.63    4.13
   3   2   6   50.78    7.70
   3   2   6   58.82   12.35
  -3   2   6   47.71    8.90
  -3  -2   6   48.78    9.98
   3  -2   6   58.27    8.41
  -3   2   6   54.50   12.79
   3  -2   6   42.85    6.67
   3  -2   6   56.49   10.90
  -3  -2   6   59.44   11.46
   3   2   6   54.99    9.74
  -3   2   7  203.56   20.62
   3  -2   7  188.96   16.52
   3  -2   7  212.94   19.08
   3   2   7  218.24   19.71
  -3  -2   7  208.56   19.32
   3   2   7  211.70   23.25
  -3   2   7  223.57   18.53
  -3  -2   7  217.06   20.46
   3   2   7  205.52   15.66
  -3  -2   8    7.68    6.30
  -3   2   8   -0.29    5.37
   3  -2   8   12.99    5.22
  -3   2   8    2.70    6.36
   3  -2   8   25.42   11.07
   3   2   8    7.86    6.06
   3  -2   8    2.27    4.81
  -3  -2   8   11.42    7.26
  -3  -2   8   14.78    9.60
   3   2   8   -0.80    9.82
   3   2   8   16.98    5.63
  -3   2   9   53.12   11.71
  -3   2   9   76.03   14.96
   3  -2   9   56.19   10.48
   3   2   9   69.35   12.63
  -3  -2   9   57.01   13.40
  -3  -2   9   75.62   12.66
   3  -2   9   75.97   13.26
   3   2   9   45.27   13.08
   3  -2   9   53.74   12.89
   3   2   9   58.98    8.85
  -3   2  10   20.94    8.31
  -3   2  10   18.16   10.46
   3  -2  10   15.84    7.71
   3   2  10   24.21    8.66
  -3  -2  10   18.38    8.03
   3   2  10   33.38   11.72
   3  -2  10   21.20    7.82
   3  -2  10   25.96   10.38
  -3  -2  10   14.61    9.53
  -3   2  11    9.44    9.37
  -3   2  11   14.41   10.54
   3  -2  11   13.35    9.14
   3   2  11   18.87   12.17
   3  -2  11   15.72    7.29
  -3  -2  11    1.38    6.73
  -3   2  12    1.09    6.32
  -3   2  12   12.54    7.75
   3   2  12   -5.51    8.25
   3  -2  12    8.04    7.66
  -3  -2  12    5.45    7.14
   3  -2  12    7.90    5.16
  -3  -2  13   15.62    7.57
  -3   2  13   -5.83   10.82
  -3   2  13   18.64   10.15
   3   2  13   23.73   13.27
   3  -2  13   13.91   11.07
   3   2  14   19.39   13.70
   3  -2  14   -3.89    7.51
   3  -2  15    5.52    7.20
  -3  -3 -14   37.64   14.87
   3  -3 -14   34.72   13.34
  -3  -3 -13   32.24   12.31
   3   3 -13   25.82   13.32
   3  -3 -13   42.15   12.90
  -3   3 -13   24.20    9.70
   3   3 -13   26.95   11.87
  -3  -3 -12   24.12   10.57
   3   3 -12   11.28    9.28
   3  -3 -12    4.13    7.06
  -3   3 -12   25.25   13.22
   3   3 -12   12.85    8.18
  -3  -3 -11   15.19   10.13
   3   3 -11    2.66   10.06
   3  -3 -11   26.79   11.90
  -3   3 -11    4.14    7.83
   3   3 -11   -4.69    9.40
  -3  -3 -10   21.71   10.65
  -3   3 -10   11.92    5.32
   3   3 -10   -2.22    6.43
   3  -3 -10    2.04    7.06
   3   3 -10    0.19    8.14
  -3   3 -10    8.48    9.47
  -3  -3  -9   12.19    8.09
   3   3  -9   18.50   10.43
   3   3  -9   -3.36    8.21
   3  -3  -9   -3.94    6.92
  -3  -3  -9    9.77    5.44
  -3   3  -9    7.79    8.48
  -3  -3  -8    9.00    7.50
   3   3  -8   10.45    8.61
   3  -3  -8   19.00   10.07
  -3  -3  -8   19.57    6.54
  -3   3  -8    9.57    8.16
   3   3  -8   25.63   10.76
  -3  -3  -7  -10.03    9.27
   3   3  -7    8.92    7.04
   3  -3  -7    7.42    8.48
  -3  -3  -7    8.71    5.25
  -3   3  -7   -5.76    7.22
   3   3  -7    1.01    5.92
  -3  -3  -6    4.07    3.15
  -3  -3  -6    4.97    2.12
   3   3  -6   11.91    7.71
   3  -3  -6   -4.83    7.35
  -3   3  -6    7.56    3.26
  -3  -3  -6    5.53    5.06
  -3   3  -6   -4.54    6.51
   3   3  -6    7.41    4.10
  -3  -3  -6   12.68    8.75
  -3  -3  -5   87.23   13.82
  -3  -3  -5   79.98    6.96
  -3  -3  -5   81.16    7.82
   3   3  -5   84.75   13.58
   3  -3  -5   83.60   14.34
  -3   3  -5   65.41    7.82
  -3   3  -5   91.62   14.33
  -3   3  -5   78.84    6.47
   3   3  -4  289.01   22.72
  -3  -3  -4  274.65   13.31
   3  -3  -4  295.13   23.45
  -3   3  -4  255.41   15.73
  -3   3  -4  315.65   24.05
  -3  -3  -4  313.27   23.69
  -3   3  -4  293.16   14.28
   3   3  -3  117.50   10.57
  -3  -3  -3  126.79   10.23
   3   3  -3  123.63   15.11
   3  -3  -3  128.94   16.33
   3  -3  -3  124.02    9.84
  -3   3  -3  135.16   15.24
  -3  -3  -3  164.78   17.09
  -3   3  -3  123.45   10.45
  -3  -3  -2   79.93   12.48
   3   3  -2   75.02    7.22
   3   3  -2   55.98   10.53
   3  -3  -2   78.33   12.93
  -3  -3  -2   71.28    8.35
  -3   3  -2   71.52   11.10
   3  -3  -2   69.71    6.15
  -3   3  -2   75.65    8.94
   3   3  -1  168.22    7.50
   3   3  -1  186.24   15.88
   3  -3  -1  183.82   16.80
  -3   3  -1  179.11   15.97
   3   3  -1  182.07   12.07
  -3  -3  -1  178.09   16.91
  -3   3  -1  197.85   15.10
   3   3   0   17.36    6.02
   3  -3   0    4.76    5.96
  -3   3   0   16.51    6.38
  -3   3   0   12.50    6.27
   3   3   0    3.30    2.66
   3   3   0    6.09    2.95
   3   3   0   12.00    5.31
  -3  -3   0    9.03    5.25
   3   3   1  205.25   14.67
   3   3   1  194.63   11.83
   3  -3   1  183.34   15.61
  -3   3   1  173.47   12.19
  -3   3   1  219.24   16.29
  -3  -3   1  186.90   15.89
   3   3   1  193.69   15.59
  -3   3   1  176.50   16.53
   3   3   2   73.83    8.51
   3   3   2   69.98    6.23
  -3  -3   2   71.37   10.94
  -3   3   2   73.43    7.53
   3  -3   2   81.02   10.42
  -3   3   2   65.90   11.75
   3   3   2   78.50   11.32
  -3  -3   2   69.84   10.56
  -3   3   2   72.00    9.42
   3   3   2   93.84   12.28
   3  -3   2   65.67    8.03
   3  -3   2   87.73    9.43
  -3   3   3  157.21   18.67
   3  -3   3  136.54   12.48
  -3  -3   3  122.79   14.34
   3  -3   3  113.52    9.27
  -3   3   3  117.68   11.15
   3   3   3  121.34   14.90
  -3  -3   3  126.87   12.45
   3   3   3  137.40   14.32
  -3   3   3  139.15   16.44
   3  -3   3  107.05    6.28
  -3   3   4  295.57   24.56
  -3   3   4  301.32   24.89
   3  -3   4  294.34   23.06
   3  -3   4  290.31   16.57
   3   3   4  282.49   20.00
  -3  -3   4  284.47   21.66
   3  -3   4  272.55   11.71
  -3  -3   4  306.18   18.41
   3   3   4  316.88   23.94
   3  -3   4  282.45   12.86
   3   3   4  306.22   21.68
   3   3   5   83.71   11.99
   3  -3   5   91.12    8.76
   3   3   5   86.95   12.05
  -3   3   5   88.40   15.09
  -3  -3   5   73.19   12.52
   3  -3   5   92.70   14.34
  -3  -3   5   90.31   13.84
  -3  -3   5   75.66    9.53
   3   3   5   87.06   14.85
  -3   3   5   70.52    8.50
   3   3   6    6.06    4.84
   3  -3   6    0.58    3.79
  -3   3   6   -2.63    6.64
   3   3   6    5.81    5.42
   3  -3   6   -1.53    6.76
  -3  -3   6   -3.75    6.38
   3   3   6   15.83    9.76
  -3   3   6    6.21    4.07
   3   3   7    0.75    4.30
  -3   3   7   -4.69    6.20
   3  -3   7    0.18    4.40
   3  -3   7    2.58    6.31
  -3  -3   7    7.73    7.80
   3   3   7    9.23    5.88
   3   3   7   -6.66    9.45
   3   3   8   17.60    5.74
   3  -3   8   21.85    6.87
  -3   3   8   26.44   10.37
   3   3   8    7.45    5.85
  -3  -3   8   11.05    7.05
   3  -3   8   11.84    6.90
   3   3   8   30.34   12.52
   3  -3   8   34.20   10.55
   3  -3   9   12.05    5.76
  -3   3   9    6.17    6.80
   3  -3   9    0.17    7.04
   3   3   9    9.03    6.73
  -3  -3   9    5.39    5.92
   3  -3   9   12.55    7.67
   3   3   9   -0.31    8.65
   3   3   9    2.53    4.51
   3   3  10   11.02    6.83
   3  -3  10   11.20    6.48
  -3   3  10    4.90    6.98
   3  -3  10   19.86    9.23
   3   3  10    5.42    6.62
  -3  -3  10   18.55   11.27
  -3  -3  10   14.16    7.04
   3  -3  10   21.81    8.92
   3   3  10    2.64    9.14
   3  -3  11   -9.24    7.80
   3  -3  11   23.02    8.72
  -3   3  11   22.17   10.83
   3  -3  11   11.88    8.55
   3   3  11   17.36    7.53
  -3  -3  11   -2.93    7.55
   3   3  11   11.70   11.42
  -3  -3  11   30.36    9.28
   3   3  12   -2.53    8.51
  -3   3  12    6.03    7.48
   3  -3  12    2.31    6.25
   3  -3  12   22.85   10.22
   3  -3  12    5.69    7.10
  -3  -3  12   -0.57    8.52
  -3   3  13   32.90   12.13
  -3  -3  13   51.58   15.07
   3  -3  13   32.90   12.11
   3   3  13   54.51   17.29
   3  -3  13   19.82   11.35
   3  -3  13   44.89   12.28
   3  -4 -13    4.43    8.81
  -3  -4 -13   49.25   14.74
   3   4 -12    1.31    8.74
   3  -4 -12   15.92   11.49
  -3   4 -12   27.52   11.99
   3   4 -12   19.09   10.67
  -3  -4 -12    3.68    7.11
   3   4 -11   19.92   12.43
   3  -4 -11   29.21   12.67
  -3   4 -11   14.31    8.50
  -3  -4 -11   17.04    8.85
   3   4 -11   15.32   10.04
   3   4 -10   15.82   11.12
   3  -4 -10   24.51   10.49
  -3   4 -10   24.44   11.91
   3   4 -10   27.17   12.09
  -3  -4 -10   18.99    9.85
   3   4  -9   27.68   11.63
   3  -4  -9   46.25   14.00
  -3   4  -9   33.92   10.95
   3   4  -9   31.04   10.93
  -3  -4  -9   32.15   10.74
   3   4  -8  154.78   22.54
   3  -4  -8  146.29   21.51
  -3   4  -8  150.39   20.71
   3   4  -8  129.80   19.01
  -3  -4  -8  174.21   22.58
   3   4  -7   73.71   14.55
   3  -4  -7   63.09   14.31
  -3  -4  -7  106.71   16.90
  -3   4  -7   63.28   14.21
   3   4  -7   68.10   13.79
   3   4  -6  111.33   17.45
   3  -4  -6  118.20   17.86
  -3   4  -6  115.09   16.91
   3   4  -6  104.91   15.27
  -3   4  -6   98.20    8.98
  -3  -4  -6  121.87   17.40
   3   4  -5  167.21   19.40
   3  -4  -5  169.57   21.20
  -3   4  -5  187.02   21.09
   3   4  -5  175.83   18.55
  -3   4  -5  175.17   13.25
  -3  -4  -5  182.14   20.01
   3   4  -4   87.21   14.22
   3  -4  -4   70.88   13.70
  -3   4  -4   97.82   14.78
   3   4  -4   94.17   12.74
  -3   4  -4  110.99   12.01
  -3  -4  -4   98.17   14.60
   3   4  -3   50.32    7.20
   3   4  -3   65.16   12.11
   3  -4  -3   81.02   14.51
  -3  -4  -3   44.07   10.86
  -3   4  -3   71.02   12.76
   3   4  -3   68.93   10.02
   3   4  -3   43.83    4.79
   3  -4  -3   66.21    7.73
  -3   4  -3   59.80    9.83
   3  -4  -2   63.60    6.51
   3   4  -2   47.07    5.89
   3   4  -2   72.28   12.00
   3  -4  -2   74.17   14.23
  -3   4  -2   87.00   12.67
   3   4  -2   73.92    9.41
   3   4  -2   68.24    6.77
  -3  -4  -2   54.93   11.87
  -3   4  -2   76.74   11.23
  -3  -4  -1   86.54    8.96
   3   4  -1  100.33   13.49
   3  -4  -1  109.92   14.32
  -3   4  -1  102.00   12.84
   3  -4  -1   75.73    6.23
   3   4  -1   78.58    8.66
  -3  -4  -1  102.89   14.78
  -3   4  -1   90.01   12.58
   3  -4   0   30.88    3.70
  -3  -4   0   47.74    7.81
   3   4   0   37.20    8.59
   3  -4   0   50.97    9.90
   3   4   0   55.04    8.50
  -3   4   0   54.77    9.66
  -3  -4   0   46.22   10.72
  -3   4   0   50.52   10.60
  -3  -4   1   84.37   10.98
   3   4   1  102.18   12.12
   3   4   1  102.34   11.87
   3  -4   1  105.53   13.16
   3   4   1   76.81    8.69
  -3   4   1  106.83   12.17
  -3  -4   1  113.81   14.84
  -3   4   1   97.49   14.26
  -3   4   2   62.97    7.12
  -3  -4   2   72.19   10.79
   3   4   2   83.89   12.03
   3   4   2   69.67    9.74
   3  -4   2   77.08   10.53
  -3   4   2   69.00    9.69
  -3  -4   2   73.06   11.45
  -3   4   2   52.90   12.78
  -3  -4   3   69.35   11.47
  -3   4   3   90.57   16.21
  -3   4   3   65.19    6.20
   3  -4   3   92.26   14.97
   3  -4   3   84.16   10.41
  -3   4   3   72.35    9.32
  -3  -4   3   72.21   11.67
   3   4   3   77.53   12.23
   3  -4   3   50.57    7.84
   3   4   3   94.52   13.90
   3  -4   3   55.34    5.50
  -3   4   3   82.78   13.93
   3   4   4   92.96   14.53
  -3  -4   4   86.94   13.08
  -3   4   4   93.43   15.00
   3  -4   4  107.65   11.43
   3  -4   4   69.56   14.19
  -3   4   4   91.56   15.59
   3  -4   4   76.87    7.62
   3   4   4   97.37   12.71
  -3  -4   4  103.95   13.44
   3   4   4  115.66   16.11
   3  -4   4   75.52    7.44
  -3   4   5  174.15   21.00
   3  -4   5  171.02   20.44
  -3   4   5  164.91   20.83
   3  -4   5  179.25   13.46
   3   4   5  160.39   16.04
  -3  -4   5  186.00   20.23
  -3  -4   5  183.06   16.29
   3  -4   5  147.86   11.30
   3   4   5  158.76   19.09
   3   4   5  157.85   18.18
   3   4   6   98.88   14.84
  -3  -4   6   95.54   16.49
  -3   4   6   97.63   16.51
   3   4   6  121.94   18.00
   3   4   6  135.01   15.20
   3  -4   6  101.82   16.39
  -3  -4   6  119.65   17.78
   3  -4   6  114.37   11.23
  -3   4   6  105.08   18.04
   3   4   7   89.58   14.78
   3  -4   7   83.25   10.33
  -3   4   7   86.77   17.09
  -3  -4   7   73.28   14.41
   3   4   7   76.93   12.03
  -3  -4   7   74.85   14.51
   3  -4   7   85.50   16.03
   3   4   7   75.38   15.59
   3   4   8  136.20   17.67
  -3   4   8  131.75   21.06
   3  -4   8  186.23   22.60
  -3  -4   8  140.14   19.94
  -3  -4   8  126.11   17.27
   3  -4   8  137.68   14.47
   3   4   8  166.72   23.26
   3   4   8  135.42   15.78
   3  -4   8  116.10   15.87
   3  -4   9   38.13    8.64
  -3   4   9   52.19   13.19
   3   4   9   35.46    8.31
   3   4   9   58.92   11.76
  -3  -4   9   44.66   11.16
   3  -4   9   75.68   15.29
   3   4   9   80.31   17.34
   3  -4   9   33.77    9.67
   3  -4  10   29.18    8.32
  -3   4  10    4.79    8.10
  -3  -4  10    8.52    7.97
   3  -4  10   13.41    8.47
   3  -4  10   10.74    7.78
   3   4  10   23.08   10.84
  -3  -4  10    7.45    9.72
   3   4  10   35.46    9.31
   3   4  10    9.02    7.21
  -3  -4  11    9.02    8.79
   3  -4  11   13.51    7.96
  -3   4  11   18.93    9.75
  -3  -4  11   10.79    7.58
   3  -4  11    5.15    7.15
   3   4  11   38.48   14.49
   3  -4  11    3.29    6.26
  -3   4  12    8.66    8.33
   3  -4  12   -5.81    8.34
   3   4  12   18.99   14.77
  -3  -4  12   25.97   13.08
   3  -4  13   24.30   10.32
   3  -5 -12   -3.91    8.47
  -3  -5 -12   -9.23    8.67
   3   5 -11   43.65   16.07
   3  -5 -11   41.72   14.11
  -3   5 -11   38.29   14.88
   3   5 -11   14.19   11.33
  -3  -5 -11   52.08   14.47
   3   5 -10   27.15   12.36
  -3  -5 -10   26.00   11.99
   3  -5 -10   26.20   11.71
  -3   5 -10   21.82   12.73
   3   5 -10   20.55   10.68
   3   5  -9    7.90    7.17
   3  -5  -9    4.47   12.20
  -3  -5  -9   22.87   11.05
  -3   5  -9   19.82    9.92
   3   5  -9    9.09    7.29
   3   5  -8  128.91   20.92
  -3  -5  -8  114.03   18.83
   3  -5  -8  132.88   21.39
  -3   5  -8  144.14   21.89
   3   5  -8  144.22   20.13
   3   5  -7   47.73   13.17
   3  -5  -7   54.32   15.49
  -3   5  -7   44.64   13.96
   3   5  -7   40.27   11.25
  -3  -5  -7   31.74   11.29
   3   5  -6  142.74   20.15
   3  -5  -6  148.26   21.43
   3   5  -6  164.86   19.44
  -3   5  -6  163.55   21.94
  -3  -5  -6  137.24   19.45
  -3   5  -5   47.14    8.90
   3   5  -5   25.99   10.87
   3  -5  -5   34.21   12.68
  -3   5  -5   26.73   10.38
   3   5  -5   28.96    8.56
  -3  -5  -5   13.75    8.94
   3   5  -4  145.37   19.18
   3  -5  -4  172.39   21.62
  -3   5  -4  188.01   21.11
  -3   5  -4  175.43   17.08
  -3  -5  -4  171.72   20.27
   3   5  -3  245.91   23.87
   3  -5  -3  285.30   26.52
  -3  -5  -3  253.99   12.93
  -3   5  -3  283.66   24.34
  -3  -5  -3  282.48   25.54
  -3   5  -3  275.08   21.93
  -3  -5  -2   70.44    8.43
   3   5  -2   78.20   13.80
   3  -5  -2  100.54   15.62
  -3   5  -2   77.81   13.17
  -3  -5  -2   81.77   15.29
  -3   5  -2   88.51   13.70
  -3  -5  -1   70.45    9.21
   3   5  -1   86.55   14.13
   3  -5  -1   76.24   13.22
  -3   5  -1   73.62   11.69
   3   5  -1   81.18    8.65
  -3  -5  -1   69.68   13.90
  -3   5  -1   73.48   12.92
  -3  -5   0   13.65    5.45
   3  -5   0   15.39    7.55
  -3   5   0    5.41    5.45
   3   5   0    9.94    5.29
   3   5   0    4.86    6.50
  -3  -5   0   13.29    9.52
  -3   5   0   14.43    8.37
  -3  -5   1   68.08   11.28
   3   5   1   60.09   11.12
  -3   5   1   58.29   12.44
  -3  -5   1   90.21   15.53
   3  -5   1   75.66   12.06
  -3   5   1   83.42   10.96
   3   5   1   79.80   11.30
   3   5   2   86.15   12.29
  -3  -5   2   85.43   12.78
   3  -5   2   85.56   12.10
  -3   5   2   73.76   10.59
   3   5   2   86.22   12.16
  -3  -5   2   66.98   13.01
  -3   5   2   81.91   14.74
  -3   5   3  313.83   29.14
   3  -5   3  270.99   27.05
   3   5   3  247.48   21.26
   3  -5   3  290.29   20.17
  -3  -5   3  272.48   22.92
  -3   5   3  277.17   18.01
  -3  -5   3  313.34   24.71
   3   5   3  339.25   24.88
  -3   5   3  275.70   26.35
   3   5   3  296.19   26.95
   3   5   4  156.52   19.76
  -3  -5   4  123.38   16.83
  -3   5   4  217.89   25.63
   3  -5   4  160.34   14.21
   3   5   4  189.96   18.80
   3  -5   4  139.10   19.92
   3  -5   4  131.49   10.62
   3   5   4  204.18   21.23
  -3  -5   4  150.45   17.17
  -3   5   4  137.53   19.09
   3   5   5   32.36   10.54
  -3  -5   5   12.24    7.48
  -3   5   5   15.40    8.82
   3  -5   5   36.54    7.55
   3  -5   5   22.05    9.23
  -3  -5   5   14.80    7.19
   3   5   5   30.76   10.87
   3   5   5   24.92    7.99
   3  -5   5   22.12    5.03
  -3   5   5    9.75    6.85
   3   5   6  123.89   18.68
  -3  -5   6  164.85   20.33
  -3   5   6  166.17   22.78
   3   5   6  160.50   17.07
   3  -5   6  140.08   20.12
   3  -5   6  120.81   12.18
   3   5   6  159.39   20.69
  -3   5   6  166.29   22.37
   3  -5   7   34.86    8.12
   3   5   7   49.19   12.44
  -3  -5   7   62.50   14.52
  -3   5   7   47.79   13.53
  -3   5   7   54.13   14.57
   3   5   7   42.65    9.24
  -3  -5   7   53.30   14.38
   3  -5   7   43.31   12.87
   3   5   7  102.78   18.21
   3   5   8  135.10   19.12
  -3  -5   8  122.11   20.40
  -3   5   8  126.46   20.46
  -3  -5   8  125.79   19.22
   3  -5   8  148.85   21.40
   3   5   8  111.08   14.90
   3   5   8  121.42   20.76
   3  -5   8   93.58   14.59
   3   5   9   24.42   11.14
  -3   5   9    2.80    7.58
  -3  -5   9   14.75    9.50
  -3  -5   9    5.89    7.41
   3  -5   9   24.06   11.38
   3   5   9   19.19   12.19
  -3   5  10    5.42    7.82
  -3  -5  10   12.37    7.47
  -3  -5  10    5.73    7.79
   3  -5  10    3.00    8.68
   3   5  10   21.31    9.20
  -3   5  11   19.56   10.89
   3  -5  11   12.06    9.45
   3   5  11   61.58   17.24
  -3  -5  11   52.92   18.31
   3  -5  12   31.33   13.13
  -3  -6 -11    8.17   11.26
   3   6 -10    4.58   11.96
   3  -6 -10    1.05   10.38
  -3   6 -10   28.32   12.54
  -3  -6 -10   21.05   13.08
   3   6  -9   18.20   10.28
   3  -6  -9   24.65   14.02
  -3   6  -9   21.09   12.91
  -3  -6  -9   19.66    9.94
   3   6  -8   13.92   10.77
   3  -6  -8   24.00   13.86
  -3   6  -8   34.56   11.79
  -3  -6  -8   27.96   12.47
   3   6  -7   56.59   14.98
   3  -6  -7   50.43   15.66
  -3   6  -7   33.78   11.75
  -3  -6  -7   52.03   14.90
   3   6  -6   55.89   13.60
   3  -6  -6   71.00   17.97
  -3   6  -6   68.61   15.91
  -3  -6  -6   72.07   14.91
  -3   6  -5   47.93   10.21
   3   6  -5   39.66   12.14
   3  -6  -5   33.24   12.78
  -3   6  -5   47.62   13.10
  -3  -6  -5   42.32   13.77
  -3  -6  -4   11.77   11.24
   3   6  -4   -3.83    7.93
  -3   6  -4   15.25    8.05
   3  -6  -4    8.23    8.11
  -3   6  -4    2.65    6.34
  -3   6  -3  140.56   18.49
   3   6  -3  103.22   17.92
   3  -6  -3  146.29   21.35
  -3   6  -3  127.69   17.58
  -3  -6  -3  147.66   20.51
  -3  -6  -2   87.68   10.19
   3   6  -2  101.12   17.33
   3  -6  -2  119.61   19.02
  -3   6  -2   86.43   14.33
  -3  -6  -2  108.67   18.37
  -3   6  -2  104.68   15.88
  -3  -6  -1   37.86    8.60
   3   6  -1   38.62   11.18
   3  -6  -1   39.12    9.99
  -3   6  -1   43.07   10.67
  -3  -6  -1   36.74   12.22
  -3   6  -1   49.94   12.99
  -3  -6   0   42.47    9.57
   3   6   0   21.01    8.64
  -3  -6   0   23.62   10.25
   3  -6   0   44.21   11.36
  -3   6   0   42.99    9.65
  -3   6   0   43.12   12.00
  -3  -6   1   35.38    8.80
  -3  -6   1   38.35   10.49
   3   6   1   39.04   10.76
   3  -6   1   42.18   13.21
   3  -6   1   29.66    8.83
  -3   6   1   46.31    9.65
  -3   6   1   28.14   10.49
  -3  -6   2   80.84   13.76
   3  -6   2   92.18   18.00
   3  -6   2   84.78   13.28
  -3   6   2   82.79   11.79
   3   6   2  110.15   14.09
  -3  -6   2   92.96   14.86
   3   6   2   84.33   16.31
  -3   6   2  102.31   16.92
  -3  -6   3  135.12   17.81
   3   6   3  105.52   18.13
  -3   6   3  110.50   20.11
   3  -6   3  121.93   14.37
   3  -6   3  122.38   20.87
   3   6   3  144.53   17.82
  -3  -6   3  117.89   17.73
  -3   6   3   72.85   16.12
   3   6   4    6.07    8.14
  -3  -6   4   -0.37    6.36
  -3   6   4    9.35    8.01
   3  -6   4   15.68    6.94
   3  -6   4    2.26    6.96
   3   6   4    0.99    4.89
  -3  -6   4    3.27    7.28
   3   6   4   -1.12    7.99
  -3   6   4    0.18    8.95
   3   6   5   34.51   10.97
  -3  -6   5   43.16   11.67
  -3   6   5   37.18   14.43
   3  -6   5   47.51   13.40
   3   6   5   68.32   14.78
   3   6   5   53.94   11.21
  -3   6   5   34.42   13.43
   3   6   6   57.97   15.35
   3   6   6   57.59   10.80
  -3  -6   6   54.31   14.27
  -3   6   6   55.28   15.86
   3  -6   6   63.44   16.23
   3   6   6   57.62   14.31
  -3   6   6   42.12   12.82
   3   6   7   33.46   11.77
  -3  -6   7   45.79   13.71
  -3   6   7   29.14   12.44
   3   6   7   42.00    9.50
  -3  -6   7   48.03   12.78
   3  -6   7   66.45   17.15
   3   6   7   55.39   14.99
  -3   6   7   31.04   12.04
   3   6   8   22.69   11.50
  -3   6   8   31.70   12.84
  -3  -6   8   31.88   10.99
  -3   6   8   20.80   11.50
  -3  -6   8   30.38   12.06
   3  -6   8   48.42   14.40
   3   6   8   38.80   14.02
   3   6   9   -8.85   10.13
  -3   6   9   23.06   12.96
  -3  -6   9    2.78    7.96
  -3  -6   9    3.89    8.60
   3  -6   9    9.65    7.80
  -3   6  10   18.09    9.85
  -3  -6  10    0.88    9.32
   3  -6  10   12.94    9.09
   3   6  10   10.69   11.15
   3   7  -8   26.91   15.66
   3  -7  -8   43.00   15.81
  -3   7  -8   43.06   15.65
  -3  -7  -8   26.68   13.58
   3   7  -7   24.48   14.00
   3  -7  -7   27.12   14.23
  -3  -7  -7   31.75   11.24
  -3   7  -7    9.94    7.94
   3   7  -6   69.75   18.13
  -3  -7  -6   61.26   16.51
   3  -7  -6   67.30   17.37
  -3   7  -6   50.54   14.71
   3   7  -5   43.42   14.31
   3  -7  -5   58.27   17.45
  -3   7  -5   61.43   13.97
  -3  -7  -5   65.96   16.58
  -3   7  -4   22.25    9.14
   3   7  -4   -5.09    7.39
   3  -7  -4   20.28   11.87
  -3   7  -4   19.11    9.55
  -3  -7  -4   29.80   11.37
  -3   7  -3   36.87   12.08
   3   7  -3   35.21   11.67
   3  -7  -3   28.69   11.64
  -3   7  -3   44.31   11.91
  -3  -7  -3   42.80   12.23
   3   7  -2   25.73   11.56
  -3   7  -2    5.29    7.51
   3  -7  -2   23.59   11.04
  -3  -7  -2   14.47    7.79
  -3   7  -2   11.72    6.97
   3   7  -1   42.42   12.08
   3  -7  -1   58.50   13.98
  -3   7  -1   58.39   12.17
  -3  -7  -1   71.38   17.54
  -3   7  -1   85.17   16.93
   3   7   0    5.29    7.36
   3   7   0    6.82    7.39
   3  -7   0   27.86   10.60
   3  -7   0  -10.88    8.53
  -3   7   0    2.24    5.98
  -3  -7   0    6.78    9.44
  -3  -7   0    4.03    4.89
  -3   7   0   -1.49    7.43
   3   7   1   37.67   14.03
   3  -7   1   69.45   16.29
   3  -7   1   31.64    9.27
  -3  -7   1   57.88   15.36
  -3   7   1   46.41   13.71
  -3  -7   1   39.20    9.80
  -3  -7   2    1.68    5.75
   3   7   2   16.51   11.28
   3  -7   2   13.57    7.51
   3  -7   2   11.23   10.35
  -3  -7   2    3.42    8.02
  -3   7   2   12.65   11.13
  -3  -7   3   39.39   11.33
   3   7   3   32.30   12.88
  -3   7   3   42.51   15.38
   3  -7   3   33.24    9.09
   3  -7   3   18.98   10.56
  -3  -7   3   24.30   11.18
  -3   7   3   39.17   12.87
   3   7   4    7.81    6.86
  -3  -7   4    9.08    7.70
  -3   7   4   -7.89   11.24
   3  -7   4   35.62   11.96
   3   7   4   12.04    7.76
  -3  -7   4   23.71   12.08
  -3   7   4   13.57    8.32
  -3  -7   5   64.36   14.98
  -3   7   5   47.54   15.33
   3  -7   5   43.65   14.03
   3   7   5   45.99   10.72
  -3   7   5   84.40   18.13
   3   7   5   41.05   14.69
   3   7   6   46.81   14.24
  -3  -7   6   33.92   11.91
  -3   7   6   72.28   17.78
   3  -7   6   66.42   17.75
  -3   7   6   51.66   16.08
   3   7   7   30.50   12.05
  -3  -7   7   23.75   12.07
  -3   7   7   29.52   13.72
   3  -7   7   43.73   15.52
  -3   7   7   31.08   13.13
   3   7   8   -1.53    7.89
  -3  -7   8   11.83    9.23
  -3   7   8   21.54   11.41
  -3  -7   8   24.74   13.92
   3  -7   8    4.92    8.46
  -3   7   8   25.32   12.46
   3   7   9    8.77    9.29
  -3   7   9   -0.81   11.75
   3   7  10    7.97    7.70
  -3   8  -7  -14.92   12.30
  -3   8  -6   34.78   14.89
   3   8  -5  -14.47   10.95
   3  -8  -5   11.85    8.86
  -3   8  -5   25.55   12.24
  -3  -8  -5   10.58    9.62
   3   8  -4   17.62   10.90
   3  -8  -4   30.54   12.02
  -3  -8  -4   16.16   10.56
  -3   8  -4   36.30   12.90
  -3   8  -3    6.68    8.67
   3   8  -3   -4.12   10.28
   3  -8  -3   -1.22    9.37
  -3   8  -3    4.82    6.97
  -3  -8  -3    0.24    8.99
   3   8  -2    7.71    8.00
   3   8  -2   13.69   10.25
   3  -8  -2    6.41   10.49
   3  -8  -2   13.26    9.15
  -3  -8  -2    3.61    9.45
  -3   8  -2   -2.28    6.39
   3   8  -1   12.55    8.94
   3  -8  -1   16.36    9.68
   3  -8  -1   38.41   12.68
  -3  -8  -1   27.47   12.28
  -3   8  -1   16.86   10.25
   3   8   0    5.74    9.95
   3  -8   0   26.04   12.09
   3  -8   0   12.57    9.62
  -3  -8   0    8.56    8.97
  -3   8   0    4.17    7.42
   3  -8   1   17.08    8.14
   3  -8   1   34.34   14.02
   3   8   1   -3.38    9.96
  -3  -8   1   18.62   10.79
  -3   8   1   17.41   12.15
  -3  -8   2   -0.70    5.17
   3   8   2    6.31    8.76
   3  -8   2    3.32    8.77
  -3  -8   2   -4.13    8.33
  -3   8   2   -0.75    7.89
  -3  -8   3    1.69    6.88
   3   8   3    0.65    9.54
  -3   8   3    0.46   10.53
   3  -8   3    4.68   10.21
  -3  -8   3   15.74   12.01
  -3   8   3  -10.62   11.03
   3   8   4   28.60   12.48
  -3  -8   4   35.22   10.16
  -3   8   4   29.19   14.60
   3  -8   4   10.05    9.34
  -3   8   4    8.07    9.26
   3   8   5   19.63   12.34
  -3  -8   5   18.80   10.67
  -3   8   5   -4.50   10.15
   3  -8   5   18.98   11.47
  -3   8   5   21.61   12.91
   3   8   6   11.37   12.49
  -3  -8   6   14.62   10.04
  -3   8   6    3.06   12.15
  -3  -8   7    0.30    6.97
  -3   8   7    0.02    8.41
   3  -9  -3   18.29   11.56
   3  -9  -2   27.90   14.29
   3  -9  -2   47.71   15.46
  -3   9  -2   58.30   17.10
   3  -9  -1   24.72   12.82
   3  -9  -1   17.76   11.46
  -3   9  -1   35.69   15.59
   3  -9   0   49.92   16.24
  -3   9   0   14.63    9.57
  -3   9   1   10.73    8.54
  -3   9   2   38.52   17.71
  -3   9   3   29.76   17.53
  -3  -9   4   15.76    8.52
  -4   0 -14    5.96    6.25
   4   0 -13    0.90    9.93
  -4   0 -13   28.09   12.04
   4   0 -12   96.79   16.24
   4   0 -12  111.10   20.74
  -4   0 -12  136.90   20.62
   4   0 -11   82.14   15.22
   4   0 -11   66.77   16.69
  -4   0 -11   91.77   17.24
   4   0 -10  112.79   17.13
   4   0 -10  134.11   21.14
  -4   0 -10  119.41   17.62
   4   0  -9   22.14    9.65
  -4   0  -9   26.99    9.50
   4   0  -8   15.34    7.93
  -4   0  -8   21.24    8.06
   4   0  -7  209.86   21.49
  -4   0  -7  265.72   23.87
   4   0  -6   20.52    7.61
  -4   0  -6   15.35    8.38
   4   0  -5  218.74   20.29
  -4   0  -5  213.18   20.36
   4   0  -4  169.24   17.49
  -4   0  -4  182.26   13.53
  -4   0  -4  200.64   19.25
   4   0  -3 1078.24   41.16
  -4   0  -3 1105.00   42.57
  -4   0  -3 1136.26   33.75
   4   0  -2 1631.93   49.18
   4   0  -2 1623.23   44.23
  -4   0  -2 1634.71   50.82
  -4   0  -2 1613.64   41.70
   4   0  -1  178.71   17.37
   4   0  -1  196.57   16.18
  -4   0  -1  253.84   20.17
  -4   0  -1  194.43   15.93
   4   0   0   10.42    6.58
   4   0   0    2.94    5.75
  -4   0   0    6.48    5.96
  -4   0   1  197.92   15.39
   4   0   1  163.98   15.59
  -4   0   1  204.02   16.97
  -4   0   2 1608.88   44.18
   4   0   2 1587.33   46.95
  -4   0   2 1608.56   48.18
  -4   0   3 1160.87   39.32
   4   0   3 1131.25   41.34
  -4   0   3 1135.41   42.02
  -4   0   4  187.89   17.60
   4   0   4  170.02   17.55
  -4   0   4  162.85   17.07
  -4   0   4  152.13    8.38
  -4   0   5  209.93   19.81
   4   0   5  204.64   14.71
   4   0   5  245.16   21.26
  -4   0   5  229.50   20.13
  -4   0   5  218.75   17.47
  -4   0   6   19.83    7.19
   4   0   6    9.36    7.64
   4   0   6   15.27    5.04
  -4   0   6   10.81    5.96
  -4   0   6   10.89    6.98
  -4   0   7  265.19   24.33
   4   0   7  238.30   15.60
   4   0   7  243.95   22.75
  -4   0   7  243.82   22.56
  -4   0   7  225.36   20.37
   4   0   7  230.36   24.98
  -4   0   8   26.44    9.93
   4   0   8   44.66   11.61
   4   0   8   28.03    6.15
   4   0   8   15.99    8.13
  -4   0   8   26.15    8.70
  -4   0   9   34.77   11.34
   4   0   9   30.72   11.87
   4   0   9   32.77   11.34
  -4   0   9   24.25    9.57
  -4   0  10   96.94   16.07
   4   0  10  121.37   18.87
  -4   0  10  129.20   20.09
   4   0  10  104.27   18.77
  -4   0  11   65.85   13.44
   4   0  11   91.14   18.48
  -4   0  12   88.80   16.89
  -4   0  12   69.12   16.36
   4   0  12   97.21   20.01
  -4   0  13    6.62    8.79
  -4   0  13   29.20   13.10
   4   0  13    6.66   10.45
  -4  -1 -14   26.42   12.00
  -4   1 -14   42.70   13.26
  -4  -1 -13   23.61   11.22
   4   1 -13   10.23   10.54
   4  -1 -13   20.68   13.30
  -4   1 -13   20.62   11.76
   4  -1 -12   41.96   11.93
   4   1 -12    4.83    9.75
   4  -1 -12   10.74    7.98
  -4  -1 -12   10.39    6.86
  -4   1 -12   42.81   13.30
   4   1 -11   14.21    8.53
   4  -1 -11   22.35   10.04
   4   1 -11   19.86   10.55
  -4  -1 -11   28.79    9.48
  -4   1 -11   28.07   10.46
   4   1 -10   43.13   10.12
   4  -1 -10   36.11   11.11
   4   1 -10   41.56   12.73
  -4  -1 -10   59.48   12.96
  -4   1 -10   67.71   14.92
   4   1  -9   44.27   11.00
   4  -1  -9   50.62   13.74
   4   1  -9   51.39   13.11
  -4  -1  -9   45.28   11.53
  -4   1  -9   36.30   12.25
   4   1  -8   78.37   13.92
   4  -1  -8   78.89   14.71
   4   1  -8   92.55   17.02
  -4  -1  -8  101.27   14.78
  -4   1  -8  106.64   16.67
   4   1  -7  359.82   29.27
   4   1  -7  322.26   24.65
   4  -1  -7  349.43   27.92
  -4  -1  -7  339.60   26.30
  -4   1  -7  347.96   27.98
  -4   1  -7  287.10   10.23
   4   1  -6   10.61    7.05
   4  -1  -6   19.14   10.03
   4   1  -6   20.44    8.88
  -4  -1  -6   11.73    8.18
  -4   1  -6   13.77    7.93
  -4   1  -6   19.16    4.32
   4   1  -5   75.99   12.45
   4  -1  -5   52.05   11.16
   4   1  -5   51.03   11.75
  -4  -1  -5   95.08   13.84
   4  -1  -5   73.18    9.15
  -4   1  -5   78.13   13.89
  -4   1  -5   92.90    8.24
   4   1  -4  236.21   20.38
   4   1  -4  230.53   19.65
   4  -1  -4  246.80   21.67
   4  -1  -4  252.96   16.39
  -4  -1  -4  204.65   19.24
  -4   1  -4  263.52   21.87
  -4   1  -4  255.25   14.62
  -4   1  -4  224.00   13.19
  -4   1  -3   49.12    5.96
   4   1  -3   44.53    8.76
   4  -1  -3   43.16   11.12
   4   1  -3   57.25   11.22
  -4  -1  -3   68.42   12.04
  -4   1  -3   66.49   12.21
  -4   1  -3   64.39    8.42
   4  -1  -3   63.48    8.83
   4   1  -2  290.86   20.51
   4  -1  -2  299.97   22.79
   4  -1  -2  325.52   18.96
  -4  -1  -2  307.72   22.47
  -4   1  -2  357.35   24.91
  -4   1  -2  316.53   18.19
  -4   1  -2  283.28   11.93
   4  -1  -1   51.13    8.57
   4  -1  -1   54.60   10.74
   4   1  -1   39.96    8.25
  -4  -1  -1   52.01   10.68
  -4   1  -1   58.75   11.13
   4   1  -1   48.03    9.85
  -4   1  -1   65.11    9.98
  -4  -1   0    6.32    3.75
   4  -1   0   -2.50    5.71
   4  -1   0    8.63    6.05
   4   1   0    1.04    3.41
  -4  -1   0   11.22    6.80
  -4   1   0   -2.78    6.58
  -4   1   0    8.44    5.88
   4   1   0    6.25    6.85
  -4  -1   1   47.33    8.30
  -4  -1   1   50.66    7.09
   4  -1   1   41.59    8.92
   4   1   1   52.60    7.04
  -4   1   1   58.94   10.64
  -4  -1   1   43.23    9.09
   4  -1   1   66.90   10.49
  -4   1   1   61.87    9.95
   4   1   1   40.88    9.32
   4  -1   1   44.21    7.39
  -4  -1   2  335.85   18.40
  -4   1   2  302.20   21.34
   4   1   2  293.96   13.26
   4  -1   2  295.27   20.04
   4   1   2  310.18   21.74
   4  -1   2  338.73   22.33
  -4  -1   2  312.82   22.38
  -4   1   2  325.36   22.44
  -4  -1   2  327.41   17.42
  -4   1   2  327.79   14.62
   4  -1   2  269.24   15.10
  -4   1   3   55.27    7.18
  -4  -1   3   41.93    7.48
   4  -1   3   52.11   11.26
  -4   1   3   35.05    9.57
   4   1   3   70.08   12.40
   4   1   3   49.30    4.50
  -4  -1   3   40.64    9.73
  -4   1   3   33.21    8.56
   4  -1   3   43.18    5.55
  -4  -1   3   48.49    6.84
   4  -1   4  195.05   11.89
  -4  -1   4  252.80   18.45
  -4   1   4  226.41   19.95
   4   1   4  249.48   20.52
   4  -1   4  239.12   21.18
  -4  -1   4  252.39   21.35
  -4   1   4  250.98   21.72
  -4  -1   4  227.32   11.64
  -4   1   4  270.71   16.69
   4  -1   4  182.17    8.99
   4   1   5   72.18    8.43
  -4  -1   5   81.52   13.03
  -4   1   5   72.65   13.73
   4   1   5   78.23    7.04
   4  -1   5   65.27    6.60
   4  -1   5   88.28   11.70
  -4   1   5   76.41   10.08
  -4  -1   5   97.78   13.83
   4   1   5   83.02   13.56
  -4  -1   5   81.46    6.02
   4   1   5   45.59    6.67
   4  -1   5   90.75   14.50
   4   1   6   17.99    4.11
   4   1   6    8.86    8.36
  -4  -1   6   14.87    6.21
  -4   1   6   29.11    9.65
   4  -1   6   10.96    2.75
   4  -1   6    5.19    8.23
   4  -1   6    9.16    5.79
   4   1   6    4.96    2.40
  -4  -1   6   22.02    9.88
   4   1   6   21.10   10.17
  -4   1   6    2.74    4.97
  -4  -1   7  386.92   27.80
  -4   1   7  339.51   27.84
   4  -1   7  359.54   23.20
   4   1   7  284.67   11.62
   4   1   7  332.17   26.29
  -4  -1   7  331.68   26.17
   4  -1   7  374.22   28.87
  -4  -1   7  353.99   26.05
  -4   1   7  363.02   24.67
   4   1   7  319.97   29.05
   4   1   7  269.44   12.97
  -4   1   8   84.88   13.15
  -4  -1   8   88.95   14.73
  -4   1   8  110.49   17.38
   4  -1   8  104.10   16.96
   4  -1   8   90.99   12.47
  -4  -1   8   83.47   14.94
   4   1   8   82.26   15.46
   4   1   8  109.38   18.96
  -4  -1   8  104.58   15.81
   4  -1   8  106.06   18.67
  -4   1   9   55.39   11.58
  -4  -1   9   47.39   11.69
  -4   1   9   47.29   12.55
   4   1   9   40.62   11.55
   4  -1   9   62.99   10.57
  -4  -1   9   34.08   10.60
   4   1   9   52.66   14.88
   4  -1   9   69.35   16.00
  -4  -1   9   41.65   11.08
  -4   1  10   43.79   10.70
  -4  -1  10   60.40   13.41
  -4   1  10   46.38   13.63
   4   1  10   48.17   12.33
   4  -1  10   44.24    9.34
   4   1  10   39.18   12.89
   4  -1  10   39.90   13.45
  -4  -1  10   54.18   12.81
  -4   1  11   11.83    8.62
  -4  -1  11   28.33    9.43
  -4   1  11   21.83   10.60
   4   1  11   14.47    7.69
   4   1  11   27.18   11.30
   4  -1  11   16.09   10.87
  -4  -1  11   21.93    9.88
  -4  -1  12   39.64   12.14
  -4   1  12   38.37   11.98
  -4  -1  12   40.27   14.26
  -4   1  12   61.36   15.78
   4   1  12   17.89   12.77
   4  -1  12   38.43   14.24
  -4  -1  13   -9.46    7.02
  -4  -1  13    7.76    9.45
  -4   1  13   18.49   10.59
  -4   1  13   11.26   10.81
   4   1  13    2.04   10.34
   4  -1  13    5.01   10.66
   4  -1  14   21.39   12.51
  -4  -2 -13   37.10   15.66
   4  -2 -13   51.87   13.92
   4   2 -13   25.61   14.40
  -4   2 -13   74.04   18.78
   4   2 -13   41.62   15.29
  -4  -2 -12   19.51   11.08
   4  -2 -12   26.41   10.13
   4   2 -12   17.09   13.24
  -4   2 -12   13.09   10.35
  -4  -2 -11   68.11   16.49
   4  -2 -11   64.13   16.04
   4   2 -11   59.57   15.48
  -4  -2 -11   73.73   14.19
  -4   2 -11   53.63   15.60
  -4  -2 -10   39.18   13.18
   4  -2 -10   12.10    9.17
   4   2 -10   36.86   12.74
  -4  -2 -10   37.11    9.94
  -4   2 -10   16.52   10.06
  -4  -2  -9  161.91   22.78
   4  -2  -9  132.28   18.65
   4   2  -9  128.87   20.57
  -4  -2  -9  153.28   17.86
  -4   2  -9  144.86   20.54
  -4  -2  -8   16.73    9.43
   4  -2  -8   29.13   10.39
   4   2  -8   28.70   11.21
  -4  -2  -8   29.39    9.89
  -4   2  -8   32.22   11.69
  -4  -2  -7   -6.14    7.07
   4  -2  -7   -3.02    7.21
   4   2  -7   -3.28    6.26
  -4  -2  -7    4.39    5.37
  -4   2  -7    8.22    6.35
   4  -2  -7    0.19    2.63
  -4  -2  -6    5.11    8.95
   4  -2  -6   10.23    7.27
   4   2  -6   17.86    8.37
  -4  -2  -6   13.77    5.87
  -4   2  -6   17.31   10.31
   4  -2  -6   20.04    4.74
  -4  -2  -5   60.95   13.28
   4  -2  -5   46.12    6.61
  -4  -2  -5   41.60    6.52
   4  -2  -5   28.79   10.39
   4   2  -5   51.31   11.58
  -4  -2  -5   47.40   10.62
  -4   2  -5   49.24   11.40
  -4  -2  -4  116.36   15.82
  -4  -2  -4   76.18    7.31
   4  -2  -4   73.36    8.42
   4  -2  -4   95.89   15.36
   4   2  -4   87.58   13.88
  -4  -2  -4   70.47   11.74
  -4   2  -4  100.84   14.50
  -4  -2  -3   82.74   13.00
  -4  -2  -3   75.85    6.18
   4  -2  -3   78.81   13.96
   4  -2  -3  104.31   10.26
   4   2  -3  108.09   14.03
  -4  -2  -3   96.49   13.60
  -4   2  -3  102.43   14.69
  -4  -2  -2  107.55   14.32
   4  -2  -2  104.94   14.43
   4   2  -2   86.22   12.29
   4  -2  -2  112.07   10.95
  -4   2  -2  122.20   15.49
   4   2  -1  590.62   27.04
   4  -2  -1  600.04   31.30
   4  -2  -1  600.98   25.51
  -4   2  -1  580.69   31.15
  -4  -2  -1  618.02   30.24
  -4  -2   0   21.92    7.33
   4  -2   0   22.77    7.02
  -4  -2   0    9.43    2.22
   4  -2   0   11.15    5.92
   4   2   0    9.98    4.60
  -4   2   0    0.24    6.51
  -4  -2   1  549.15   18.09
   4   2   1  544.71   21.96
   4  -2   1  565.03   28.41
   4   2   1  612.97   31.31
   4   2   1  549.90   21.60
   4  -2   1  623.76   29.25
  -4   2   1  605.87   30.68
  -4  -2   1  606.87   27.37
   4  -2   2   85.42    9.18
  -4  -2   2  100.35    9.30
   4   2   2   89.88    8.12
  -4   2   2  106.40   14.87
   4   2   2   81.85    7.99
   4  -2   2  102.41   12.77
  -4   2   2  101.29   13.06
  -4  -2   2  104.16   14.43
   4  -2   2   94.99   12.95
  -4   2   2   95.30    6.84
   4   2   2  109.85   14.44
  -4  -2   2  108.04   11.47
   4   2   3   90.90   13.82
  -4  -2   3  110.34   11.03
   4   2   3   98.37    7.21
   4  -2   3   99.14   13.81
  -4   2   3   77.12   14.10
   4  -2   3   93.76   12.04
   4   2   3   92.15    6.94
  -4  -2   3  110.48   15.73
  -4   2   3   98.79    8.46
   4  -2   3   90.37    8.46
  -4  -2   3  100.70   10.29
  -4   2   4   84.57    9.37
  -4  -2   4   74.05   10.07
   4   2   4   80.16   12.46
  -4   2   4   87.96   14.87
   4   2   4   67.36    4.16
  -4  -2   4   81.88    8.92
  -4  -2   4   91.88   14.43
   4  -2   4   76.59   12.98
  -4   2   4   91.78    9.66
   4   2   4   84.46   14.64
   4  -2   4   67.44    5.75
   4   2   5   44.80    8.15
  -4   2   5   48.99    8.55
  -4  -2   5   43.18    9.19
   4   2   5   55.07   14.51
  -4   2   5   33.13   10.18
   4  -2   5   44.22   10.39
   4  -2   5   46.61   10.11
   4   2   5   47.21   10.30
  -4   2   5   44.11    6.05
  -4  -2   5   42.12   10.03
  -4  -2   5   57.21    7.01
   4   2   6    7.51    3.72
  -4   2   6   21.61    6.05
  -4  -2   6   10.80    5.76
  -4   2   6   33.52   10.99
   4  -2   6   15.13    7.50
  -4  -2   6    6.32    6.95
   4   2   6   26.08    7.83
   4  -2   6   12.31    7.64
   4   2   6   23.17    9.16
   4   2   7    8.92    4.84
  -4   2   7    0.81    5.71
  -4  -2   7   -0.69    5.51
  -4   2   7    1.15    6.38
   4  -2   7    8.56    5.62
  -4  -2   7    1.63    7.50
   4   2   7    0.82    7.89
   4   2   7   12.67    7.42
   4   2   8   29.01    6.37
  -4   2   8   39.70    8.95
  -4  -2   8   37.44    9.43
  -4   2   8   33.06   10.41
   4   2   8   36.84   10.05
   4  -2   8   27.69    9.13
  -4  -2   8   30.55   10.33
   4   2   8   60.42   16.99
   4  -2   8   22.01    9.99
  -4  -2   9  127.51   18.47
  -4   2   9  118.33   16.65
  -4   2   9  172.04   23.13
   4  -2   9  183.25   19.84
  -4  -2   9  133.68   18.74
   4   2   9  148.77   19.11
   4   2   9  163.43   23.93
  -4  -2   9  145.96   20.02
   4  -2   9  146.60   22.01
  -4  -2  10   48.68   12.63
  -4   2  10   55.55   13.03
  -4   2  10   42.30   12.97
   4   2  10   43.97   12.30
   4   2  10   34.97   13.70
  -4  -2  10   36.44   12.02
  -4  -2  10   19.97    8.57
   4  -2  10   22.95    9.16
   4  -2  10   31.04   13.13
  -4   2  11   46.04   11.95
  -4   2  11   81.91   17.50
   4   2  11   50.13   13.23
   4  -2  11   48.69   12.02
   4   2  11   34.77   11.86
   4  -2  11   38.61   13.25
  -4  -2  11   74.37   15.98
  -4   2  12  -15.24   10.77
  -4   2  12   10.73    8.39
   4   2  12    7.49   10.11
   4  -2  12    3.11    8.57
  -4  -2  12   -0.03    7.13
  -4  -2  13   34.32   13.27
  -4   2  13   57.30   16.57
  -4   2  13   34.49   12.29
   4   2  13   76.25   19.95
   4  -2  13   32.96   12.75
   4  -2  14    4.99    8.93
  -4  -3 -13   57.41   16.80
   4  -3 -13   21.90   12.15
  -4  -3 -12   19.50   10.55
   4   3 -12  -11.19    9.42
   4  -3 -12   13.18   11.03
  -4   3 -12   22.36   13.45
   4   3 -12  -16.07   10.43
  -4  -3 -11   31.19   12.25
   4   3 -11   45.06   15.29
   4  -3 -11   30.69   12.87
  -4   3 -11   40.14   12.68
   4   3 -11   36.93   13.65
  -4  -3 -10   66.06   15.33
   4   3 -10   48.55   13.84
   4  -3 -10   31.47   11.72
  -4   3 -10   69.64   17.01
   4   3 -10   48.47   13.39
  -4  -3  -9   18.95   12.80
   4   3  -9   12.85    9.70
   4  -3  -9   13.48    9.36
  -4  -3  -9    7.80    7.00
  -4   3  -9   29.89   12.51
  -4  -3  -8  181.08   23.61
   4   3  -8  157.67   22.11
   4  -3  -8  158.96   22.00
  -4  -3  -8  143.07   17.32
  -4   3  -8  176.72   22.77
  -4  -3  -7   12.97    8.28
   4   3  -7   48.98   12.71
   4  -3  -7   20.44    9.24
  -4  -3  -7   11.22    6.72
  -4   3  -7   39.79   12.88
  -4  -3  -6   79.56   15.87
   4   3  -6   75.41   15.22
   4  -3  -6   44.50   12.45
  -4  -3  -6   58.16   12.42
  -4   3  -6   40.98   11.77
  -4  -3  -5   20.18    9.49
   4   3  -5  -11.52    8.80
   4  -3  -5    6.43    7.98
   4  -3  -5    0.42    2.17
  -4   3  -5    6.22    7.18
  -4  -3  -4   79.05   14.30
   4   3  -4   58.91   12.09
   4  -3  -4   58.56   12.68
   4  -3  -4   60.02    7.07
  -4   3  -4   64.53   11.77
  -4  -3  -3   69.25   13.07
   4   3  -3   75.59    9.11
   4   3  -3   79.75   12.32
   4  -3  -3   89.12   14.60
  -4   3  -3   86.92   13.45
   4  -3  -3   72.05    8.32
  -4  -3  -2    3.90    6.01
   4   3  -2    3.22    4.83
   4  -3  -2   -5.44    7.33
  -4   3  -2   -5.69    6.11
   4  -3  -2   -2.80    3.97
  -4  -3  -1   36.81   10.17
   4  -3  -1   36.64    7.71
   4   3  -1   26.84    7.88
   4  -3  -1   45.36   11.30
  -4   3  -1   50.88   11.09
  -4  -3   0  211.05   19.08
   4   3   0  211.59   16.74
   4  -3   0  206.13   19.00
  -4   3   0  244.78   20.72
   4  -3   0  223.74   17.03
   4  -3   1   27.77    7.68
   4   3   1   34.99    7.61
   4  -3   1   32.28    9.35
   4   3   1   48.03   11.70
  -4   3   1   45.30   10.25
   4   3   1   26.71    5.29
  -4  -3   1   38.49    9.21
   4   3   2    5.40    4.12
   4  -3   2    8.10    5.28
  -4   3   2    5.86    6.15
   4   3   2    1.49    2.62
   4   3   2    3.24    7.13
   4  -3   2    7.45    6.93
   4   3   2   -5.98    6.43
  -4  -3   2    8.30    6.19
   4  -3   3   69.17    8.39
   4  -3   3   91.49   13.88
   4   3   3   86.94    8.96
   4   3   3   78.02    5.46
  -4   3   3  117.97   18.70
  -4  -3   3  103.70   12.49
   4  -3   3   89.78   11.94
   4  -3   3   66.74    8.48
   4   3   3   75.10   13.53
   4   3   3   77.92   12.80
   4   3   4   56.58   10.97
  -4   3   4   60.04   12.80
   4  -3   4   51.94    9.60
  -4  -3   4   57.64   12.41
  -4  -3   4   75.44    9.91
   4   3   4   65.24   12.16
   4   3   5   22.85    7.84
  -4   3   5   16.00    9.54
   4   3   5   13.86    7.24
   4  -3   5    3.82    7.69
  -4  -3   5   15.09    8.50
  -4  -3   5    4.50    5.33
   4   3   5    1.14    7.11
   4   3   6   50.26   10.35
  -4   3   6   37.65   11.64
   4   3   6   62.63   11.72
   4  -3   6   56.50   12.93
  -4  -3   6   44.20   12.88
  -4  -3   6   62.57    8.65
   4   3   6   66.43   13.98
   4   3   7   25.45    8.47
  -4   3   7   33.33   10.53
   4  -3   7   33.28   10.97
  -4  -3   7   20.67    9.00
   4   3   7   12.28    5.40
   4   3   7   31.32   12.65
   4   3   8  158.01   18.15
  -4   3   8  136.50   20.26
   4  -3   8  159.35   20.45
  -4  -3   8  142.17   18.22
   4   3   8  157.04   22.41
   4   3   8  137.65   15.44
  -4   3   9    7.46    8.17
   4   3   9    9.63    7.40
   4  -3   9    4.96    5.65
  -4  -3   9   12.35    7.90
   4   3   9    7.17    8.88
   4  -3   9    4.00    8.67
  -4   3  10   54.40   15.17
  -4  -3  10   65.93   14.47
   4  -3  10   53.40   13.50
   4   3  10   43.67   15.42
   4   3  10   47.94   11.72
  -4  -3  10   50.21   13.18
   4  -3  10   47.05   12.44
  -4   3  11   30.63   12.10
   4   3  11   31.59   14.26
   4   3  11   28.29   10.11
  -4  -3  11   33.63    9.87
   4  -3  11   30.06   11.14
   4  -3  11   18.76    9.54
  -4  -3  11   26.26   12.61
  -4   3  12   11.15   10.28
   4   3  12   -3.68    7.21
   4  -3  12    1.17    8.94
   4   3  12    4.74   11.25
  -4  -3  12   -0.02    8.70
   4  -3  13    3.00    8.46
  -4  -4 -12    0.23    7.89
   4  -4 -12   -2.30    7.52
   4   4 -12   19.74   11.64
  -4  -4 -11   16.19   11.09
   4   4 -11   11.96   11.18
   4  -4 -11   -3.26    9.34
  -4   4 -11    8.57   10.94
   4   4 -11   -7.01   10.22
  -4  -4 -10    6.15    9.61
   4   4 -10   14.89   10.61
   4  -4 -10   24.59   13.71
  -4   4 -10   18.34    9.48
   4   4 -10   13.71    9.21
  -4  -4  -9   -0.15    7.19
   4   4  -9   -5.87    8.90
   4  -4  -9   18.69   13.24
  -4   4  -9   15.45    9.55
   4   4  -9    2.79    7.63
  -4  -4  -8   27.66   11.11
   4   4  -8   15.62    9.65
   4  -4  -8   40.57   12.12
  -4   4  -8   21.65   11.04
   4   4  -8   15.78    6.44
  -4  -4  -7  172.45   22.51
   4   4  -7  182.43   23.37
   4  -4  -7  170.91   23.71
  -4   4  -7  172.59   22.52
   4   4  -7  140.93   19.63
  -4  -4  -6    7.68    8.58
   4   4  -6    5.07    7.44
   4  -4  -6    0.38    7.19
  -4   4  -6   -7.99    6.82
   4   4  -6   -6.03    6.04
  -4  -4  -5  159.37   20.83
   4   4  -5  152.52   19.05
   4  -4  -5  148.46   21.46
  -4   4  -5  181.55   21.97
   4   4  -5  148.13   17.85
   4   4  -4   55.07   12.01
   4  -4  -4   58.39   13.81
  -4   4  -4   35.11   11.15
   4   4  -4   54.11   10.36
  -4  -4  -4   73.72   13.50
   4   4  -3  196.81   20.17
   4  -4  -3  186.23   21.32
  -4   4  -3  201.14   21.03
   4   4  -3  215.49   17.82
  -4  -4  -3  230.61   22.72
  -4   4  -3  196.89   16.02
   4   4  -2   41.71   10.43
   4  -4  -2   41.28   11.30
  -4   4  -2   32.16    8.01
  -4   4  -2   28.51    8.86
   4   4  -2   35.70    7.05
   4   4  -2   30.84    6.23
  -4  -4  -2   25.64    9.78
   4   4  -1   51.78   10.01
   4  -4  -1   45.97   11.45
  -4   4  -1   56.70   11.30
   4   4  -1   62.95    8.04
   4   4  -1   60.43    9.48
  -4   4  -1   59.43   11.06
  -4  -4  -1   42.95   11.71
   4   4   0    5.59    4.98
   4  -4   0   11.50    7.09
  -4   4   0   13.33    7.27
   4   4   0    9.37    6.14
  -4  -4   0   -0.22    6.02
  -4   4   0    1.12    5.17
  -4   4   1   65.74   12.78
   4   4   1   57.12    9.75
   4  -4   1   41.21    9.60
  -4   4   1   66.34   11.85
   4   4   1   59.27   10.51
  -4  -4   1   55.82   11.58
   4   4   2   24.57    6.66
   4  -4   2   40.29    9.99
  -4   4   2   42.17    8.92
   4   4   2   30.89    9.83
   4   4   2   36.82    9.54
  -4  -4   2   27.76    8.63
  -4   4   2   14.02    7.69
   4   4   3  214.62   16.04
  -4   4   3  188.23   23.49
   4  -4   3  193.07   17.36
   4   4   3  212.41   20.55
  -4   4   3  191.74   17.66
  -4  -4   3  221.02   19.37
   4   4   3  224.30   21.17
   4   4   4   48.80   11.74
  -4   4   4   50.47   15.10
   4  -4   4   50.53    9.42
   4  -4   4   66.04   14.33
  -4  -4   4   67.58   11.11
   4   4   4   45.81   11.72
   4   4   4   62.78   11.74
   4   4   5  143.72   17.13
  -4   4   5  164.86   22.73
   4  -4   5  135.51   14.11
   4  -4   5  136.99   19.06
  -4  -4   5  149.46   19.57
  -4  -4   5  185.45   16.87
   4   4   5  144.90   19.58
   4   4   5  147.39   18.72
   4   4   6    9.20    7.32
  -4   4   6    2.34    8.19
   4   4   6   -1.29    5.15
   4  -4   6    3.40    6.57
  -4  -4   6   14.13    9.80
  -4  -4   6    3.01    5.05
   4   4   6   -1.68    8.23
   4   4   7  135.14   17.29
  -4   4   7  156.21   22.84
   4   4   7  181.68   19.25
   4  -4   7  150.88   20.75
  -4  -4   7  157.19   19.94
   4   4   7  189.09   24.48
   4   4   8   15.88    6.58
  -4   4   8   13.92    9.99
   4  -4   8    5.38    7.72
  -4  -4   8   19.12    8.99
   4   4   8   12.32    7.82
   4   4   8   -3.84   10.64
   4   4   9    7.70    5.86
  -4   4   9   18.98   11.79
   4  -4   9   -1.84    7.14
  -4  -4   9   -0.39    8.12
   4   4   9    7.17    8.61
   4  -4   9   -6.48    6.50
  -4   4  10    6.13    7.03
   4   4  10    7.18    6.68
  -4  -4  10   16.89    9.58
   4  -4  10    0.36    6.22
   4   4  10   21.84   14.75
   4  -4  10   -7.32    8.62
  -4   4  11  -10.14   10.08
  -4  -4  11   10.56    7.93
   4  -4  11    3.54    7.39
   4   4  11   -0.90   11.49
  -4  -4  11    8.24   12.26
   4  -4  11   -5.69    6.68
   4  -4  12    7.27    8.04
   4   5 -11    7.36    8.64
  -4  -5 -11   14.18   11.80
   4   5 -10   10.51   11.07
   4  -5 -10   13.92   10.12
  -4   5 -10   18.51   10.91
   4   5 -10    3.40    6.91
  -4  -5 -10    1.05    9.86
   4   5  -9   26.41   15.65
   4  -5  -9   40.88   15.05
  -4   5  -9   37.12   13.89
   4   5  -9   11.84    9.36
  -4  -5  -9   29.45   11.56
   4   5  -8   14.75   10.12
   4  -5  -8    1.86    8.76
  -4   5  -8   13.86   11.17
   4   5  -8   10.00    7.40
  -4  -5  -8   10.01   13.08
   4   5  -7   24.52   10.88
   4  -5  -7   25.03   11.68
  -4   5  -7   31.26   11.31
   4   5  -7   26.66    9.45
  -4  -5  -7   32.62   10.99
   4   5  -6   19.20   11.16
   4  -5  -6    8.28    9.44
  -4   5  -6   12.67    8.84
   4   5  -6    5.14    5.45
  -4  -5  -6    6.02    8.62
   4   5  -5   64.10   14.63
   4  -5  -5   73.78   16.85
  -4   5  -5   98.92   17.16
   4   5  -5   83.64   13.59
  -4  -5  -5   82.01   15.95
   4   5  -4   45.89   12.38
   4  -5  -4   37.14   11.76
  -4   5  -4   33.24   11.31
   4   5  -4   32.15    8.54
  -4  -5  -4   23.59   11.94
  -4   5  -4   25.54    6.93
   4   5  -3   16.09    7.95
   4  -5  -3   24.45   10.87
  -4   5  -3   14.32    7.24
  -4  -5  -3   22.40   10.02
   4   5  -3   16.42    6.08
  -4   5  -3   36.53    8.64
   4   5  -2   35.75    9.90
   4  -5  -2   44.31   12.75
  -4   5  -2   62.95   12.82
  -4  -5  -2   51.42   12.68
  -4   5  -2   61.54   11.36
   4   5  -1   81.39   13.95
   4  -5  -1   84.33   14.79
  -4   5  -1   81.02   12.98
   4   5  -1   83.73   10.22
  -4  -5  -1   89.68   15.71
  -4   5  -1   90.97   14.21
   4   5   0  188.19   19.39
   4  -5   0  186.57   20.89
  -4   5   0  165.96   18.31
  -4  -5   0  214.96   22.79
   4   5   0  195.30   16.58
  -4   5   0  210.96   22.34
   4   5   1   83.45   12.97
   4  -5   1   77.76   13.72
  -4   5   1   78.93   12.99
   4   5   1   96.36   13.42
  -4  -5   1   89.87   14.95
  -4   5   1   82.02   14.83
   4   5   2   45.75    9.50
   4  -5   2   40.91   10.27
  -4   5   2   48.05   10.22
   4   5   2   55.31   10.89
  -4  -5   2   27.08    9.62
  -4   5   2   45.28   11.43
   4  -5   3   20.81    7.82
   4  -5   3   16.05    7.30
  -4   5   3   26.91    7.93
   4   5   3   26.83    8.89
  -4  -5   3   28.20    9.26
   4   5   3   19.14    8.14
  -4   5   3   21.86   10.05
   4   5   4   33.58   10.89
  -4   5   4   40.26   12.70
   4  -5   4   27.33    7.84
   4  -5   4   20.09   10.79
   4   5   4   37.59   10.23
  -4  -5   4   37.24   10.31
   4   5   4   38.28   10.75
  -4   5   4   41.94   11.81
   4   5   5   81.17   15.20
  -4   5   5  100.62   20.61
   4  -5   5   83.70   11.23
   4  -5   5   87.81   17.50
  -4  -5   5  100.05   14.27
   4   5   5  102.07   17.03
   4   5   5   73.59   13.05
   4   5   6    4.03    5.56
   4   5   6    9.32    5.91
  -4   5   6   12.09   12.28
   4  -5   6   -1.14    7.07
  -4  -5   6    8.16    7.16
   4   5   6   17.02   10.82
   4   5   7   26.35   11.18
  -4   5   7   29.36   11.69
   4   5   7   28.78    9.95
   4  -5   7   37.18   12.84
  -4  -5   7   28.99   11.74
   4   5   7   29.00   11.30
   4   5   8    8.79    6.30
  -4   5   8    6.96    9.08
   4  -5   8    5.62    7.22
  -4  -5   8   -8.44   10.17
   4   5   8   18.36    9.06
   4   5   8   10.93   10.58
   4   5   9   26.68   10.10
  -4   5   9   31.65   11.91
  -4  -5   9   31.71   13.28
   4  -5   9   22.99   11.32
   4   5   9   31.13   12.75
   4  -5   9   21.66    8.66
   4   5   9   14.40    6.67
  -4   5  10   20.60   11.93
  -4  -5  10    0.20    7.64
   4  -5  10   15.79    9.76
   4   5  10   22.56   12.99
   4  -5  11    8.16    9.29
   4   5  11   21.40   14.29
   4  -5  12   65.48   18.13
   4   6  -9   27.23   13.24
   4  -6  -9   16.91   10.50
  -4   6  -9   32.72   13.03
  -4  -6  -9   17.64    8.39
   4   6  -8   63.32   16.97
   4  -6  -8   28.63   13.32
  -4   6  -8   76.84   18.38
  -4  -6  -8   47.72   15.18
   4   6  -7   54.34   15.20
   4  -6  -7   57.81   15.99
  -4   6  -7   54.28   15.45
  -4  -6  -7   60.91   15.36
   4   6  -6   69.59   15.83
   4  -6  -6   70.34   17.31
  -4   6  -6   90.61   18.30
  -4  -6  -6   88.42   17.47
   4   6  -5   33.20   12.21
   4  -6  -5   31.23   12.57
  -4   6  -5   24.17   11.53
  -4  -6  -5   11.49    7.29
   4   6  -4   22.72   11.28
   4  -6  -4    6.36    8.28
  -4   6  -4   17.23   10.48
  -4  -6  -4   22.59   11.08
   4   6  -3   87.48   16.98
   4  -6  -3   88.55   17.26
  -4   6  -3   91.09   16.08
  -4  -6  -3   57.10   14.86
  -4   6  -3   97.07   14.85
   4   6  -2   43.40   11.32
   4  -6  -2   38.92   12.00
  -4  -6  -2   42.59   13.37
  -4   6  -2   44.46   12.85
  -4   6  -2   73.48   14.03
   4   6  -1   52.35   12.92
   4  -6  -1   56.67   13.70
  -4   6  -1   58.90   11.90
  -4  -6  -1   66.05   14.50
  -4   6  -1   76.34   15.54
   4   6   0   11.23    5.72
  -4   6   0   13.78    6.85
  -4  -6   0    1.23    7.88
  -4   6   0   17.89    8.83
   4   6   1   60.39   12.07
  -4  -6   1   44.41   10.28
   4  -6   1   55.79   12.08
  -4   6   1   68.51   12.56
  -4  -6   1   80.93   16.08
  -4   6   1   64.72   14.33
  -4  -6   2   48.87   11.26
   4  -6   2   51.56   14.01
   4  -6   2   51.81   11.36
  -4   6   2   58.63   10.87
   4   6   2   37.40    9.84
  -4  -6   2   68.11   14.36
  -4   6   2   55.31   14.27
   4   6   3   69.29   15.91
  -4  -6   3   77.04   13.84
  -4   6   3  108.67   21.35
   4  -6   3   81.61   12.81
   4  -6   3   79.92   17.51
   4   6   3  104.30   16.78
   4   6   3   86.21   14.60
  -4  -6   3   90.04   15.28
  -4   6   3   81.03   16.79
   4   6   4   13.96    6.78
  -4  -6   4    0.38    5.18
  -4   6   4    6.34    9.24
   4  -6   4   21.13   10.97
   4   6   4   15.83    8.63
  -4  -6   4    9.09    7.35
   4   6   4   12.19    9.86
  -4   6   4    6.73    9.23
   4   6   5   22.16    9.39
  -4   6   5   18.61   10.80
  -4  -6   5   22.69    9.59
   4  -6   5   11.41    8.30
  -4  -6   5   25.02    9.47
   4   6   5   42.46   12.68
   4   6   5   32.34    9.28
  -4   6   5   24.04   11.82
   4   6   6   52.21   13.95
   4   6   6   83.20   14.16
  -4   6   6   96.57   20.75
  -4  -6   6   97.16   17.86
   4  -6   6   68.01   17.13
   4   6   6  104.62   18.17
  -4   6   6   93.92   18.89
   4   6   7   49.93   14.47
  -4   6   7   41.37   15.28
   4   6   7   42.01   11.65
  -4  -6   7   49.95   13.15
   4  -6   7   55.72   16.28
   4   6   7   62.26   16.86
   4   6   8   58.43   15.97
  -4   6   8   40.42   14.65
  -4  -6   8   64.72   14.07
   4  -6   8   49.59   15.33
   4   6   8   46.06   15.26
   4   6   9   18.92   10.63
  -4   6   9   24.83   13.39
  -4  -6   9   12.27   10.43
   4  -6   9    8.24    7.15
   4   6   9   27.96   14.82
   4   6  10   25.17   12.70
   4   7  -7    6.32   10.84
   4  -7  -7   -4.93   10.89
  -4   7  -7    1.04    7.80
  -4  -7  -7   12.41   11.00
   4   7  -6    8.51    9.84
  -4   7  -6   22.47    9.81
  -4  -7  -6   14.29    8.93
   4   7  -5    9.02    9.84
   4  -7  -5    1.09    8.58
  -4   7  -5  -10.61    9.04
  -4  -7  -5    2.94    8.48
   4   7  -4   17.91   10.62
  -4  -7  -4   15.43   11.19
   4  -7  -4   11.15   10.12
  -4   7  -4   29.88   11.58
   4   7  -3   22.23   10.71
   4  -7  -3   54.52   16.29
  -4   7  -3   56.79   13.67
  -4  -7  -3   52.24   15.58
   4   7  -2   43.87   12.90
   4  -7  -2   45.43   12.98
  -4   7  -2   67.00   14.72
  -4  -7  -2   59.24   15.35
  -4   7  -2   64.63   15.18
   4   7  -1   19.04    9.22
   4  -7  -1   36.66   11.36
  -4   7  -1   41.78   10.34
  -4  -7  -1   31.78   11.72
  -4   7  -1   10.56    7.49
   4   7   0   43.39   13.05
   4  -7   0   38.99   13.21
  -4   7   0   30.82    9.88
  -4  -7   0   43.24   12.83
  -4   7   0   54.63   14.73
   4   7   1   36.41   15.82
   4  -7   1   29.45   13.77
   4  -7   1    9.63    7.59
  -4  -7   1   16.44    8.16
  -4   7   1   10.23    7.72
   4   7   2   71.64   17.33
  -4  -7   2   52.43   11.97
   4  -7   2   61.05   12.74
   4  -7   2   46.65   14.91
  -4  -7   2   28.94   10.99
  -4   7   2   80.50   17.34
   4   7   3   35.81   14.73
  -4  -7   3   24.00    8.47
  -4   7   3   38.61   17.70
   4  -7   3   32.86   14.07
   4   7   3   39.26   10.59
  -4  -7   3   28.57    9.80
  -4   7   3    9.05    6.76
   4   7   4   21.14   12.43
  -4  -7   4    7.06    6.83
  -4   7   4   17.08   12.29
   4  -7   4   34.20   14.78
   4   7   4   24.28   10.97
  -4  -7   4   18.76    9.91
  -4   7   4   23.92   11.41
   4   7   5   10.12    9.15
  -4  -7   5    4.25    6.25
  -4   7   5   -8.60   10.09
   4   7   5   -6.55    8.72
   4  -7   5    3.58    9.74
  -4  -7   5   20.57   11.26
  -4   7   5   15.59   10.87
   4   7   6   -2.59    7.61
  -4   7   6    8.02   10.76
  -4  -7   6  -10.55    8.30
   4  -7   6    3.02    8.34
  -4   7   6    6.31    8.23
   4   7   7  -15.74    9.23
  -4   7   7   13.19   13.00
  -4  -7   7    0.13    7.21
  -4  -7   7   -5.36    8.55
   4  -7   7   18.24   12.55
  -4   7   7  -11.43    8.92
   4   7   8   19.97   13.33
  -4  -7   8   23.35   10.56
   4   7   9    2.25    7.16
  -4   8  -6   60.39   17.43
  -4   8  -5   17.32    9.69
   4   8  -4   10.85    9.47
   4  -8  -4   19.89   11.94
  -4   8  -4    6.40    6.88
   4   8  -3    7.14   11.02
   4  -8  -3   10.35   10.14
  -4   8  -3   24.59   10.41
  -4  -8  -3    7.80   12.80
   4   8  -2    0.10    7.19
   4  -8  -2    1.90    8.59
  -4  -8  -2   11.38   10.79
   4   8  -1    8.70    8.01
   4   8  -1   24.86   12.06
   4  -8  -1    9.66    9.31
   4  -8  -1   34.95   12.76
  -4  -8  -1   10.40    8.93
  -4   8  -1   18.69   10.20
   4   8   0    8.57   10.34
   4  -8   0   18.08   11.41
   4  -8   0   16.18    9.69
  -4  -8   0   42.20   15.70
  -4   8   0   23.32   10.73
   4   8   1   12.29   12.31
   4  -8   1   14.06    9.47
   4  -8   1   27.72   13.00
  -4  -8   1   39.90   13.64
  -4   8   1   24.04   10.77
   4   8   2   -2.80    8.00
  -4   8   2   33.93   17.17
   4  -8   2   10.31   12.92
  -4  -8   2   12.13    9.30
  -4   8   2  -20.57   10.89
   4   8   3   -0.93    7.81
  -4   8   3   13.41   14.50
   4  -8   3   31.53   14.56
   4   8   3    8.81    7.90
  -4  -8   3    9.78    7.58
  -4   8   3    8.47    8.23
   4   8   4    6.57    7.92
  -4  -8   4   -0.01    5.49
  -4  -8   4   -3.68    9.48
  -4   8   4    5.91    8.15
   4   8   5    2.54    9.17
  -4  -8   5    2.42    6.96
  -4  -8   6   49.93   14.37
   4  -9  -1   -7.18    8.76
  -4   9   0   23.87   11.46
  -5   0 -13    5.17    8.94
   5   0 -12   -2.86    6.93
   5   0 -12    6.94    7.75
  -5   0 -12   -4.50    7.85
   5   0 -11    4.69    6.44
   5   0 -11   -4.17    7.20
  -5   0 -11   -4.90    7.17
   5   0 -10    7.53    7.14
   5   0 -10   -9.14    7.03
  -5   0 -10   -2.32    7.97
   5   0  -9    6.19    7.21
   5   0  -9   -4.45    8.55
  -5   0  -9   -2.54    7.70
   5   0  -8    0.58    8.44
  -5   0  -8   -0.33    6.62
   5   0  -7    0.90    7.36
  -5   0  -7   -0.23    3.95
  -5   0  -7    8.42    8.47
   5   0  -6   -5.66    6.79
  -5   0  -6    1.55    4.25
  -5   0  -6  -11.93    6.14
   5   0  -5   -2.84    6.48
  -5   0  -5    1.14    4.49
  -5   0  -5   -6.39    7.69
   5   0  -4   -0.92    6.82
  -5   0  -4   -4.59    7.73
  -5   0  -4   -2.53    5.10
   5   0  -4    7.10    6.12
   5   0  -3   -6.45    7.12
  -5   0  -3   -4.18    7.37
  -5   0  -3    1.97    5.28
   5   0  -3    5.57    5.94
   5   0  -2   -7.13    8.54
  -5   0  -2   -6.34    6.77
  -5   0  -2    3.37    5.34
   5   0  -2  -11.77    5.75
   5   0  -1   -5.53    8.62
  -5   0  -1   -0.50    6.89
  -5   0  -1    4.56    6.49
   5   0  -1   -8.26    6.39
   5   0   0   -0.82    5.46
  -5   0   0   14.29    8.44
  -5   0   0    5.96    6.48
  -5   0   1    0.63    5.46
   5   0   1   -0.37    6.92
  -5   0   1   11.04    7.41
  -5   0   2   -3.29    5.27
   5   0   2    1.60    6.41
  -5   0   2   -1.87    6.53
  -5   0   3   -2.36    3.61
  -5   0   3  -12.82    8.37
   5   0   3    1.83    6.10
  -5   0   3    8.67    8.75
  -5   0   4    3.68    3.24
  -5   0   4   -1.76    5.13
  -5   0   4    3.25    8.24
   5   0   4   18.40    9.36
   5   0   5   -2.53    6.68
  -5   0   5    4.73    6.19
  -5   0   5   -0.47    8.38
  -5   0   5    2.63    4.62
  -5   0   5   -1.05    2.25
  -5   0   6    0.22    5.89
   5   0   6   -2.61    7.00
   5   0   6    0.68    3.97
  -5   0   6    6.51    8.06
  -5   0   6   -5.12    5.59
  -5   0   7   -2.06    6.91
   5   0   7    8.47    4.22
   5   0   7    1.19    6.47
  -5   0   7    5.61    6.31
   5   0   7    7.39    8.88
  -5   0   7   14.77    7.73
  -5   0   8   -8.14    6.59
   5   0   8    4.17    8.54
   5   0   8   15.29   11.23
  -5   0   8    0.86    5.40
  -5   0   9    7.56    7.83
   5   0   9    3.60    7.84
   5   0   9  -11.36    9.64
  -5   0   9   11.86    7.25
  -5   0  10   11.55    9.37
   5   0  10    4.21    8.84
  -5   0  10   -1.03    8.05
   5   0  10   11.40   10.96
  -5   0  11    1.80    7.76
  -5   0  11   -5.26    8.59
   5   0  11   11.72   11.84
  -5   0  12   -5.27    8.61
  -5   0  12    0.34    8.89
   5   0  12    7.94    9.30
  -5   0  13   -7.26    7.95
  -5   1 -13   -1.08    9.96
  -5  -1 -12   11.77    8.15
   5  -1 -12    3.35    8.76
   5   1 -12   -7.26    9.19
   5  -1 -12   25.59   10.93
  -5  -1 -12   14.08    9.92
  -5   1 -12    6.30    8.59
   5   1 -11   52.21   13.11
   5  -1 -11   60.06   14.09
   5   1 -11   70.84   19.04
  -5  -1 -11   70.41   15.27
  -5   1 -11   86.33   17.23
   5   1 -10   14.61    6.03
   5  -1 -10   16.82   11.23
   5   1 -10    0.89    7.93
  -5  -1 -10   14.95    8.78
  -5   1 -10   11.81    6.98
   5   1  -9   12.05    8.61
   5  -1  -9    5.49    8.06
   5   1  -9   28.46   11.51
  -5  -1  -9    8.89    6.92
  -5   1  -9   15.58    8.95
   5   1  -8   13.14    7.81
   5  -1  -8   35.87   12.99
   5   1  -8   38.26   11.76
   5  -1  -8   26.79    7.46
  -5  -1  -8   36.32   11.42
  -5   1  -8   31.18   10.92
   5   1  -7   12.77    7.24
   5  -1  -7   14.99   10.22
   5   1  -7   15.99    9.84
  -5  -1  -7    9.67    7.22
  -5   1  -7   19.41    9.88
   5  -1  -7   20.37    5.87
   5  -1  -6  125.10   13.18
   5   1  -6  103.13   17.18
   5  -1  -6  131.28   20.18
   5   1  -6  134.18   18.33
  -5   1  -6  120.34   10.83
  -5  -1  -6  134.29   18.39
  -5   1  -6  147.59   19.85
   5   1  -5   11.66    8.11
   5  -1  -5   16.76    9.37
   5   1  -5   24.46    8.64
  -5  -1  -5   31.05   10.79
  -5   1  -5   30.06    8.75
  -5   1  -5   25.21    6.42
   5  -1  -5   19.78    6.39
   5   1  -4   23.98    8.96
   5  -1  -4   42.63   12.13
   5   1  -4   37.71   11.32
  -5  -1  -4   24.38   10.36
  -5   1  -4   39.82   11.28
  -5   1  -4   35.01    7.38
   5  -1  -4   36.20    8.53
   5  -1  -3   54.40    9.43
  -5   1  -3   29.86    5.00
   5  -1  -3   44.08   12.27
   5   1  -3   34.89    9.57
  -5  -1  -3   59.93   13.43
  -5   1  -3   56.07   13.12
  -5   1  -3   46.52    9.04
  -5   1  -2   28.06    4.92
   5  -1  -2   33.78    8.85
   5  -1  -2   45.44   10.92
   5   1  -2   46.64    9.63
  -5  -1  -2   48.12   11.68
  -5  -1  -2   48.99    9.94
  -5   1  -2   33.84   10.62
   5   1  -2   38.55   10.47
  -5   1  -2   36.89    7.96
   5   1  -1  180.26   16.47
   5   1  -1  174.97   18.29
   5  -1  -1  151.32   18.14
   5  -1  -1  152.62   15.94
  -5   1  -1  177.21   20.11
  -5   1  -1  172.08   16.56
  -5  -1  -1  148.03   16.76
  -5  -1   0   17.77    6.18
  -5  -1   0    0.13    4.70
   5  -1   0   13.60    6.69
   5  -1   0    5.96    5.06
   5   1   0    3.91    4.35
  -5   1   0    7.30    8.98
  -5  -1   0   25.00    8.89
  -5   1   0   11.48    7.52
   5   1   0    6.82    6.29
   5   1   1  147.77   17.45
  -5  -1   1  156.60   13.53
  -5   1   1  162.10   17.54
   5   1   1  173.90   13.49
   5  -1   1  146.29   16.92
   5  -1   1  159.57   17.27
  -5   1   1  199.01   21.37
  -5  -1   1  184.54   19.31
  -5   1   1  149.79   17.10
  -5  -1   1  153.85   15.11
  -5  -1   2   42.23    8.29
   5   1   2   55.45   12.13
  -5  -1   2   35.43    7.60
  -5   1   2   55.59   11.09
   5   1   2   32.47    5.91
  -5  -1   2   47.44   11.21
  -5   1   2   46.81   11.44
   5  -1   2   48.83   11.12
  -5  -1   3   50.15    8.04
   5  -1   3   39.26    9.81
  -5  -1   3   43.94    8.99
  -5   1   3   58.90   12.36
   5   1   3   38.83    9.31
   5   1   3   49.05    5.43
  -5  -1   3   49.92   13.19
  -5   1   3   49.70   11.01
  -5   1   3   56.18    7.96
   5  -1   3   31.51    5.80
  -5  -1   4   37.14    8.70
  -5   1   4   17.66    7.82
   5  -1   4   30.68   10.82
   5   1   4   39.92   11.02
  -5  -1   4   61.21   13.83
  -5   1   4   26.17    9.05
  -5   1   4   30.47    7.29
  -5  -1   4   30.46    5.41
  -5  -1   5   25.07    8.76
  -5   1   5   16.96    8.11
   5  -1   5   13.39    6.43
  -5  -1   5   19.38   10.85
   5   1   5   16.66    8.18
  -5  -1   5   25.12    4.40
  -5   1   5   14.75    5.70
   5  -1   6  124.05   18.77
  -5  -1   6  137.86   16.94
  -5   1   6  119.84   17.49
   5  -1   6  114.32   14.33
  -5  -1   6  155.25   19.94
   5   1   6  139.31   21.26
   5   1   6   87.29    8.80
   5   1   6  130.66   17.93
  -5   1   6  117.88   13.83
  -5   1   7    6.30    5.33
  -5  -1   7   11.38    7.24
  -5   1   7   35.62   11.27
   5   1   7    9.09    6.46
   5  -1   7    6.49    5.37
   5  -1   7   16.07    9.13
  -5  -1   7   13.46    7.81
  -5  -1   7   14.90    7.95
   5   1   7   11.06    8.47
  -5   1   8   19.54    8.33
  -5  -1   8   15.86    8.28
  -5   1   8   27.92   10.58
   5  -1   8   16.72    8.31
   5   1   8   14.09    8.98
   5  -1   8   22.43    7.72
  -5  -1   8   18.46    8.61
  -5  -1   8   36.40   11.11
   5   1   8   27.42   12.11
   5  -1   8   22.70   10.13
   5  -1   9    6.64    9.34
  -5   1   9   17.07    7.69
   5   1   9   35.06   11.89
  -5  -1   9   15.14    8.68
  -5   1   9    3.94    7.27
  -5  -1   9   10.65    6.73
   5   1   9   12.85   10.90
   5  -1   9    0.07    8.48
  -5  -1   9   19.20    8.54
  -5   1  10    6.07    5.94
  -5  -1  10    9.46    7.76
  -5   1  10   38.86   12.85
   5   1  10    4.46    6.91
   5   1  10   10.97   11.77
   5  -1  10    7.83   12.46
  -5  -1  10   16.24    9.59
  -5   1  11   52.58   13.89
  -5  -1  11   50.47   15.07
  -5   1  11   96.83   19.83
   5   1  11   54.94   17.14
   5  -1  11   57.63   16.70
   5   1  11   62.59   15.10
  -5  -1  11   42.93   11.73
  -5  -1  12    2.08    7.47
  -5   1  12    1.78    7.63
  -5  -1  12   12.26    9.34
  -5   1  12    3.91    8.90
   5   1  12    0.99    9.47
   5  -1  12   10.88   13.51
  -5   1  13   12.19   10.62
   5  -2 -13   15.19   12.46
  -5  -2 -12   13.07   11.21
   5  -2 -12    0.01    7.95
  -5   2 -12   32.82   13.19
  -5  -2 -11   -7.97    9.28
   5  -2 -11   13.18   10.81
   5   2 -11    9.76   11.48
  -5   2 -11   18.13   10.06
  -5  -2 -10   33.31   15.76
   5  -2 -10   13.68    9.24
   5   2 -10   11.38    7.15
  -5  -2 -10   24.03   10.33
  -5   2 -10   14.18   10.64
  -5  -2  -9   16.12    9.89
   5  -2  -9   15.91   10.39
   5   2  -9   -6.90    7.84
  -5  -2  -9   11.55    8.96
  -5   2  -9   10.81    8.37
  -5  -2  -8   68.42   15.74
   5  -2  -8   63.38   15.78
   5   2  -8   65.02   14.70
  -5  -2  -8   70.51   15.04
  -5   2  -8   52.38   13.73
  -5  -2  -7   37.97   11.92
   5  -2  -7   29.15   11.85
   5   2  -7   56.23   14.52
  -5  -2  -7   48.56   12.43
  -5   2  -7   46.07   12.14
  -5  -2  -6    3.55    7.38
   5  -2  -6   22.22    5.66
   5  -2  -6   19.70    9.75
   5   2  -6   27.20   11.67
  -5  -2  -6   16.85    8.41
  -5   2  -6   18.00   10.67
  -5  -2  -5   12.83    8.62
   5  -2  -5    7.55    3.90
   5  -2  -5   15.89    9.08
   5   2  -5    6.79    6.45
  -5  -2  -5   15.67    8.84
  -5   2  -5   24.26   10.16
  -5  -2  -4   18.68    9.18
   5  -2  -4   31.83   10.65
   5  -2  -4   15.47    5.69
   5   2  -4   17.86    9.85
  -5  -2  -4   23.60    7.81
  -5   2  -4   20.75   10.04
  -5  -2  -3   23.19    8.97
   5  -2  -3   21.65   10.64
   5   2  -3   28.80    9.38
   5  -2  -3   27.80    6.76
  -5   2  -3   32.32    9.92
  -5  -2  -2  135.50   17.48
  -5  -2  -2   86.15    6.83
   5  -2  -2  118.73   17.04
   5   2  -2  123.03   15.13
  -5   2  -2  132.18   17.65
   5  -2  -2  124.15   13.33
  -5  -2  -1   42.10   10.75
  -5  -2  -1   35.70    4.69
   5  -2  -1   70.18   13.29
   5   2  -1   52.73    9.97
  -5   2  -1   34.40    9.49
   5   2  -1   53.47   12.31
   5  -2  -1   56.01    9.67
  -5  -2   0    9.29    6.08
   5  -2   0    5.86    6.60
  -5  -2   0    0.43    2.58
   5  -2   0   -8.06    6.91
   5   2   0    3.28    5.34
  -5   2   0   -1.07    6.42
   5   2   0   13.58    8.55
  -5  -2   1   46.20    9.97
  -5  -2   1   41.47    6.44
   5  -2   1   58.64   12.24
   5  -2   1   20.96    8.46
   5   2   1   41.35    7.39
  -5   2   1   34.18    9.85
  -5  -2   1   55.31   12.60
   5   2   1   39.19   10.54
  -5  -2   2  121.93   11.14
   5   2   2  120.96   10.44
  -5   2   2  130.30   18.75
   5  -2   2  111.87   14.92
   5  -2   2  112.13   15.27
  -5  -2   2  131.27   17.59
  -5   2   2   95.43    6.82
   5   2   2  124.20   16.26
  -5  -2   2  124.36   13.52
  -5   2   3   33.68    5.31
   5   2   3   38.42   10.36
  -5  -2   3   58.74    9.19
  -5   2   3   28.89    9.98
   5   2   3   33.16    4.87
   5  -2   3   27.16    8.56
  -5  -2   3   38.40   11.35
   5  -2   3   25.99    9.36
  -5  -2   3   21.69    5.97
  -5   2   4   17.38    4.94
  -5  -2   4   22.85    6.66
   5  -2   4   20.92    8.21
  -5   2   4   41.00   11.74
   5   2   4   17.04    7.79
  -5  -2   4   28.53   12.01
  -5  -2   4   29.13    6.60
  -5   2   5   22.16    5.99
  -5  -2   5   15.98    7.46
  -5   2   5   10.42    7.83
   5  -2   5   22.39    8.64
   5   2   5   15.59    8.10
  -5  -2   5   16.49    8.86
   5  -2   5    6.91    7.56
  -5  -2   5   17.34    5.37
   5   2   5   12.14    8.00
   5   2   6   25.26    6.55
  -5   2   6   12.99    5.10
  -5  -2   6   20.11    7.90
  -5   2   6   37.21   11.06
   5  -2   6   35.46   11.07
   5  -2   6   24.98    9.23
  -5  -2   6   25.48   10.16
   5   2   6   11.61    7.17
   5   2   6   26.00    9.71
  -5   2   7   43.14    8.68
  -5  -2   7   54.50   11.22
  -5   2   7   35.03   12.63
   5  -2   7   63.44   12.25
  -5  -2   7   51.13   12.75
   5  -2   7   54.58   14.37
   5   2   7   44.73   13.70
   5   2   7   54.82   12.63
  -5   2   8   53.82   11.04
  -5  -2   8   68.94   13.66
  -5   2   8   42.54   14.68
   5   2   8   38.58   11.46
   5  -2   8   59.86   12.05
  -5  -2   8   64.74   15.27
   5   2   8   57.01   14.13
  -5   2   9    6.21    6.31
  -5  -2   9   10.75    8.30
  -5   2   9    9.71    8.54
   5   2   9    0.65    6.14
   5  -2   9    3.02    6.24
  -5  -2   9    7.97    9.22
  -5  -2   9   14.27    9.40
   5   2   9    1.82    9.71
   5  -2   9   -5.15    8.45
   5   2  10   37.38   11.53
  -5  -2  10   22.03    9.89
  -5   2  10   29.93    9.57
  -5   2  10   19.65   11.58
  -5  -2  10   -0.75    7.51
   5   2  10   18.96   10.01
   5  -2  10   34.17   13.63
  -5  -2  10   25.50   11.02
  -5  -2  11   22.80   11.47
  -5   2  11   14.79    8.94
  -5   2  11   -5.25    9.86
   5   2  11   -0.66    9.44
   5   2  11   -0.38    6.00
   5  -2  11   10.28    7.60
  -5  -2  11    9.37    7.78
  -5   2  12   28.43   11.13
  -5   2  12   12.91    9.35
   5   2  12    7.56    9.28
   5   2  12    1.17    9.04
   5  -2  12   32.52   13.19
  -5  -2  12   19.81   16.38
  -5   2  13    1.82    7.60
   5  -3 -12   35.96   13.34
  -5  -3 -11    6.91    9.24
   5  -3 -11   16.59   11.64
   5   3 -11    0.69    8.37
  -5   3 -11    9.07   11.04
   5   3 -11   20.03   12.12
  -5  -3 -10   13.31   10.61
   5  -3 -10    4.48    8.79
   5   3 -10   10.57   11.50
  -5   3 -10    2.30    8.02
  -5  -3  -9   13.11   10.43
   5  -3  -9   -9.32    9.33
   5   3  -9    5.16    7.62
  -5  -3  -9    0.96    7.20
  -5   3  -9    5.11    7.86
  -5  -3  -8    0.30   10.45
   5  -3  -8   -5.27    9.67
   5   3  -8    5.93    8.29
  -5  -3  -8   -1.79    5.90
  -5   3  -8    3.52    7.13
  -5  -3  -7   14.99   11.18
   5  -3  -7   12.22    7.77
   5   3  -7    4.83    7.37
  -5  -3  -7   22.75   10.53
  -5   3  -7   27.73   10.69
  -5  -3  -6    2.34    9.26
   5  -3  -6   12.94    9.72
   5   3  -6   12.65    9.46
  -5   3  -6    8.80    7.77
  -5  -3  -5   45.75   11.89
   5  -3  -5   46.30   12.60
   5   3  -5   20.78    9.06
  -5   3  -5   23.51    9.41
  -5  -3  -4  139.48   20.50
   5  -3  -4  115.76   18.69
   5   3  -4  145.61   18.88
   5  -3  -4  130.44   12.24
  -5   3  -4  148.34   19.88
  -5  -3  -3   24.50   10.30
   5  -3  -3   25.38   10.96
   5   3  -3    5.59    6.42
   5  -3  -3   28.61    6.84
  -5   3  -3   15.74    8.82
  -5  -3  -2   48.08    9.81
   5  -3  -2   49.27   12.93
   5   3  -2   51.90   10.90
   5  -3  -2   60.08    9.58
  -5   3  -2   52.01   12.41
  -5  -3  -1   76.06   13.80
   5   3  -1   63.65   10.96
   5  -3  -1   77.61   14.46
  -5   3  -1  110.61   16.14
   5  -3  -1   74.77   10.81
   5  -3   0    7.88    5.96
   5   3   0   10.22    5.67
   5  -3   0   12.42    7.83
  -5   3   0    5.01    6.02
   5   3   0    3.99    7.99
  -5  -3   0   21.19    8.23
   5   3   1   67.70    9.39
   5  -3   1   69.10   12.68
   5  -3   1   95.41   13.92
  -5   3   1   66.41   12.54
   5   3   1   88.27   15.49
  -5  -3   1   60.74   11.47
   5   3   2   61.09    8.56
   5  -3   2   53.54   10.83
  -5   3   2   56.89   11.83
   5   3   2   51.16   12.02
   5  -3   2   45.90   10.48
  -5  -3   2   61.01   10.98
   5   3   3   26.85    5.57
  -5   3   3   24.91   11.05
   5  -3   3   20.38    7.50
   5  -3   3   20.58    8.87
  -5  -3   3   23.03    9.69
   5   3   3   16.85    8.83
  -5  -3   3    7.87    4.48
   5   3   3   10.88    7.49
   5   3   4  129.05   17.46
  -5   3   4  136.45   20.04
   5  -3   4  113.09   14.45
   5  -3   4  123.73   17.25
  -5  -3   4  139.07   19.46
  -5  -3   4  154.43   14.99
   5   3   4  142.36   19.65
   5   3   5   37.38    9.69
  -5   3   5   40.53   13.19
   5   3   5   31.04    9.50
   5  -3   5   16.58    9.11
   5  -3   5   15.57    8.61
  -5  -3   5   35.86   11.71
  -5  -3   5   34.38    7.57
   5   3   5   42.14   12.41
   5   3   6    6.92    5.83
  -5   3   6   -0.73    8.07
   5  -3   6   11.00    8.29
   5   3   6    4.19    6.41
  -5  -3   6   15.10    9.19
   5   3   6    5.85    9.24
   5   3   7   10.07    6.39
  -5   3   7   16.49    9.50
   5  -3   7   12.86    8.51
  -5  -3   7   16.47    9.16
   5   3   7   18.41    8.59
   5   3   7   23.01   10.61
  -5   3   8   19.51   11.76
   5  -3   8   10.08    8.21
  -5  -3   8   10.32    8.84
   5   3   8    1.32    9.06
   5   3   8   16.28    8.12
   5   3   9   -4.95    8.76
  -5   3   9    1.75    8.61
   5   3   9   -5.42    5.74
   5  -3   9    9.13    8.43
  -5  -3   9   -3.63    9.08
   5  -3   9   18.62    9.80
  -5   3  10  -13.99   11.07
   5   3  10    1.32    5.75
   5  -3  10   -6.27    7.82
  -5  -3  10   -0.56    7.53
   5   3  10    3.11   11.18
  -5  -3  10    1.67    8.40
   5  -3  10    1.23   10.97
  -5   3  11    9.65   10.30
   5   3  11    8.50    8.38
  -5  -3  11   -6.23   10.46
   5   3  11   -0.62    9.40
   5  -3  11    5.05    7.52
  -5  -3  11   -2.62   10.03
   5   3  12   18.98   10.33
   5  -3  12    5.82   10.02
   5   4 -11    7.00    7.37
  -5  -4 -10   48.64   16.96
   5   4 -10   17.63   12.26
   5  -4 -10   25.03   11.82
  -5   4 -10   19.35   10.02
   5   4 -10   44.03   15.20
  -5  -4  -9   81.00   20.13
   5   4  -9   46.61   14.25
   5  -4  -9   46.15   15.32
  -5   4  -9   67.89   16.74
   5   4  -9   40.45   14.71
  -5  -4  -8   21.93   11.31
   5   4  -8    9.67    6.84
   5  -4  -8   23.34   12.79
  -5   4  -8    1.81    8.33
   5   4  -8    2.15    6.95
  -5  -4  -7   25.30   13.15
   5   4  -7   43.56   13.93
   5  -4  -7   23.86   10.34
  -5   4  -7   18.17   10.52
   5   4  -7   12.37    8.83
  -5  -4  -6   21.14   10.68
   5   4  -6   36.95   11.68
   5  -4  -6   20.81   11.48
  -5   4  -6   18.62    8.65
   5   4  -6   15.56    7.82
  -5  -4  -5   59.36   15.73
   5   4  -5   26.47    9.84
   5  -4  -5   24.24   11.05
  -5   4  -5   51.64   14.01
   5   4  -5   25.84    9.72
   5   4  -4   69.72   14.08
   5  -4  -4   45.40   14.42
  -5   4  -4   50.07   12.92
   5   4  -4   56.46   11.13
  -5  -4  -4   83.05   17.18
   5   4  -3   98.54   15.63
   5  -4  -3   74.86   16.26
  -5   4  -3   74.49   15.03
   5   4  -3   78.52   12.19
  -5  -4  -3   71.84   15.55
   5   4  -2   38.71   10.79
   5  -4  -2   40.48   11.85
  -5   4  -2   30.45   11.32
   5   4  -2   27.62    7.14
  -5  -4  -2   36.35   11.23
   5   4  -1    3.66    5.85
   5  -4  -1    0.56    7.48
  -5   4  -1    4.51    7.48
   5   4  -1    5.75    4.28
  -5  -4  -1    9.74    7.92
   5   4   0   21.70    7.47
   5  -4   0   23.57    9.53
  -5   4   0   31.51    9.90
   5   4   0   15.42    8.12
  -5  -4   0   13.24    7.90
   5   4   1    1.83    4.52
   5  -4   1    4.24    6.84
  -5   4   1    9.83    6.58
   5   4   1   10.10    8.95
   5   4   1   11.48    7.30
  -5  -4   1    3.69    6.42
   5   4   2   38.76    7.86
   5  -4   2   25.79    8.53
  -5   4   2   27.32    8.88
   5   4   2   39.17   11.64
   5   4   2   32.75    9.71
  -5  -4   2   42.88   10.54
   5   4   3   91.33   11.18
  -5   4   3   92.40   19.50
   5  -4   3   78.32   13.30
   5   4   3   95.63   15.60
   5   4   3   85.67   14.88
  -5  -4   3   91.63   13.36
   5   4   4   68.58   13.04
  -5   4   4   78.54   17.84
   5  -4   4   61.33   12.08
  -5  -4   4   76.07   14.65
  -5  -4   4   46.44    9.87
   5   4   4   73.29   14.72
   5   4   5   30.48    9.43
   5   4   5   37.90   10.67
  -5   4   5   43.30   14.88
   5  -4   5   42.52   12.07
  -5  -4   5   34.77   12.04
  -5  -4   5   35.10    8.67
   5   4   5   46.42   12.78
   5   4   6   11.72    6.95
  -5   4   6   18.33    9.26
   5   4   6    3.40    6.28
   5  -4   6   15.45    8.81
  -5  -4   6    8.38   10.10
   5   4   6   22.43   10.83
   5   4   7   20.52    8.05
  -5   4   7   16.52    9.86
   5  -4   7    4.16    6.38
   5   4   7   24.33    7.84
  -5  -4   7    4.16    7.48
   5   4   7   12.39    8.69
  -5   4   8   -3.42    8.79
   5  -4   8   16.93    9.24
  -5  -4   8   12.94    8.89
   5   4   8   12.68    7.86
   5   4   8   13.03   11.71
   5   4   9   39.65   11.13
  -5   4   9   52.22   15.74
   5  -4   9   67.59   16.75
  -5  -4   9   38.34   13.50
   5   4   9   67.24   18.57
  -5   4  10   60.25   17.30
   5   4  10   22.42    8.59
   5  -4  10   42.81   15.08
  -5  -4  10   17.12    9.07
   5   4  10   41.52   18.48
   5  -4  10   33.39   14.17
  -5  -4  11   10.61   10.54
   5  -4  11    0.85    7.57
   5  -4  11    9.32    9.74
   5   4  11    6.84    8.65
  -5  -4  12   32.39   13.98
   5   5 -10   12.02    8.45
   5   5  -9    7.26    8.28
   5  -5  -9   12.72   10.49
  -5   5  -9    7.61    9.60
   5   5  -9    1.87    7.74
  -5  -5  -9   20.09   11.22
   5   5  -8   11.42   10.84
   5  -5  -8   11.40   10.75
  -5   5  -8    9.21   10.37
   5   5  -8   13.52    8.92
  -5  -5  -8   12.19   11.06
   5   5  -7   50.14   15.37
   5  -5  -7   65.24   17.85
  -5   5  -7   37.83   12.87
   5   5  -7   28.63   11.35
  -5  -5  -7   62.28   15.48
   5   5  -6   -4.82    8.94
   5  -5  -6  -16.06   10.35
  -5   5  -6  -14.02   10.00
   5   5  -6    3.79    6.30
  -5  -5  -6   -2.96    7.79
   5   5  -5   18.89    8.30
   5  -5  -5   29.41   12.04
  -5   5  -5   13.17    9.81
   5   5  -5   17.35    7.73
  -5  -5  -5   22.99   10.91
   5   5  -4   43.87   12.45
   5  -5  -4   57.81   14.72
  -5   5  -4   55.37   13.40
   5   5  -4   57.65   11.52
  -5  -5  -4   37.57   12.57
   5   5  -3   27.77   10.42
   5  -5  -3   53.61   14.43
  -5   5  -3   59.87   14.60
  -5  -5  -3   43.74   13.80
   5   5  -2   96.26   16.09
   5  -5  -2   96.34   18.49
  -5   5  -2   91.43   16.06
  -5  -5  -2  114.46   18.40
   5   5  -1   92.66   14.91
   5  -5  -1   87.38   16.72
  -5   5  -1   81.46   15.44
  -5  -5  -1   89.18   16.46
   5   5   0   16.41    6.71
   5  -5   0   10.18    8.48
  -5   5   0   -4.84    5.76
   5   5   0    0.72    4.74
  -5  -5   0    6.35    8.62
   5   5   1  119.06   15.08
   5  -5   1   80.89   14.46
   5   5   1  103.02   17.59
  -5   5   1   94.36   15.17
   5   5   1   65.56   11.98
  -5  -5   1  111.06   16.80
   5   5   2   92.00   13.04
   5  -5   2   88.43   14.89
  -5   5   2   97.66   15.50
   5   5   2   93.52   17.14
   5   5   2   86.87   14.60
  -5  -5   2   94.17   16.09
  -5   5   3   42.06   13.82
   5  -5   3   47.49   10.73
  -5   5   3   45.75   11.64
   5   5   3   51.51   13.13
  -5  -5   3   53.26   11.74
   5   5   3   52.48   12.41
   5   5   4   55.22   14.96
  -5   5   4   76.78   18.22
   5  -5   4   40.45   10.16
   5  -5   4   41.02   13.19
  -5  -5   4   66.59   12.71
   5   5   4   67.02   15.08
   5   5   4   34.93    9.58
   5   5   5    6.08    6.93
   5   5   5   24.69    9.16
  -5   5   5   28.81   13.12
   5  -5   5    3.72    6.95
  -5  -5   5   13.61    8.15
  -5  -5   5   29.33    9.21
   5   5   5   22.06   10.25
   5   5   6   10.61    7.94
  -5   5   6    0.63   10.16
   5   5   6    1.82    6.17
   5  -5   6   -2.39    9.99
  -5  -5   6   -0.61    8.68
   5   5   6   -3.97    7.80
   5   5   7   70.04   14.90
  -5   5   7   34.13   12.66
   5   5   7   46.87   12.30
   5  -5   7   48.39   14.08
  -5  -5   7   39.66   10.53
   5   5   7   68.22   17.28
  -5   5   8  -15.88   11.97
   5  -5   8   26.67    9.94
  -5  -5   8   -1.05    8.83
   5   5   8   11.96    8.74
   5   5   8    1.35    7.83
  -5   5   9   11.71   10.29
   5  -5   9   29.68   12.97
  -5  -5   9   -1.94    8.97
   5   5   9   -3.13    8.77
   5   5   9   12.29    8.11
  -5  -5  10    7.73    9.89
   5  -5  10   10.02   10.45
  -5  -5  11  -19.46   11.30
   5   6  -9  -21.48   10.41
   5   6  -8    7.44    7.08
   5   6  -7   34.18   14.45
   5  -6  -7   90.66   20.39
  -5   6  -7   74.90   17.75
  -5  -6  -7   95.67   21.89
   5   6  -6    4.38    9.02
   5  -6  -6   -5.64    8.96
  -5   6  -6   -0.68    8.41
  -5  -6  -6   -0.20    9.14
   5   6  -5    0.39    8.30
   5  -6  -5    2.80    8.83
  -5   6  -5   12.53   11.40
  -5  -6  -5    9.19   10.39
   5   6  -4   -1.10    6.96
   5  -6  -4   -1.81    8.77
  -5   6  -4   -6.25    9.00
  -5  -6  -4    4.87    7.64
   5   6  -3   17.44    9.68
   5  -6  -3   29.29   11.16
  -5   6  -3   18.30    9.14
  -5  -6  -3    1.68    7.48
   5   6  -2   67.48   14.21
   5  -6  -2   48.32   15.23
  -5   6  -2   51.20   13.18
  -5  -6  -2   51.42   15.17
   5   6  -1   21.89    9.06
   5  -6  -1    8.46    8.28
  -5   6  -1   27.75    9.98
  -5  -6  -1   14.12   11.63
  -5   6  -1   14.49    7.14
   5   6   0   27.16    9.52
   5  -6   0   18.74    9.37
  -5   6   0   40.18   11.97
  -5  -6   0   26.93    9.77
  -5   6   0   32.55   10.95
   5   6   1   11.84    6.13
   5  -6   1   36.57   11.31
  -5   6   1   34.54   10.32
  -5  -6   1   26.56   10.90
   5  -6   2   52.50   13.25
  -5   6   2   43.14   11.61
   5   6   2   47.12   12.76
  -5  -6   2   40.11   12.19
   5   6   3    3.53    6.96
  -5   6   3    8.93   10.89
   5  -6   3   10.50    7.01
   5  -6   3   12.58   10.81
   5   6   3   14.20    8.55
  -5  -6   3   15.33    9.82
   5   6   3    9.01    6.40
   5   6   4    4.28    6.87
  -5   6   4   14.05   11.92
   5  -6   4    1.00    6.91
  -5  -6   4   19.33   10.03
   5   6   4   -1.62    6.43
   5   6   4   -3.92    7.38
   5   6   5    4.91    7.40
   5   6   5  -10.46    9.77
  -5   6   5    9.33   10.82
   5  -6   5   -3.46    7.83
  -5  -6   5    0.77    6.20
   5   6   5   11.97    6.84
   5   6   6    6.49    7.06
   5   6   6    5.60    6.57
  -5   6   6   24.63   13.29
   5  -6   6   -3.23    7.58
  -5  -6   6    4.32   10.06
   5   6   6   16.59   12.07
   5   6   7   43.41   14.68
  -5   6   7   51.26   18.19
   5   6   7   56.97   13.29
   5  -6   7   49.76   15.65
  -5  -6   7   74.55   18.03
   5   6   7   76.73   17.32
   5   6   8   14.60    8.73
   5  -6   8   15.90   10.59
  -5  -6   8   14.43   12.74
   5   6   8  -12.25    9.88
  -5  -6   9    3.45   10.45
   5   6   9    0.97    8.25
  -5   7  -6   42.22   15.57
   5   7  -5   16.82    8.47
   5  -7  -5   15.76   12.31
  -5   7  -5   13.58    8.09
   5   7  -4   16.83   11.61
   5  -7  -4   21.08   11.41
  -5   7  -4    3.20    8.57
  -5  -7  -4   14.61   10.22
   5   7  -3    5.67    8.88
   5  -7  -3    6.71    9.17
  -5   7  -3   13.24    8.25
  -5  -7  -3    3.15   10.17
   5   7  -2    5.87    7.32
   5  -7  -2   39.94   13.76
  -5   7  -2   27.43   10.73
  -5  -7  -2   26.54   14.57
   5   7  -1   13.13   10.34
   5  -7  -1   23.42   11.11
  -5   7  -1   -0.21    6.65
  -5  -7  -1   14.80   10.58
  -5   7  -1    6.88    5.59
   5   7   0   31.20   11.40
   5  -7   0   14.59   10.19
  -5  -7   0   29.72   11.37
  -5   7   0   35.21   11.37
   5  -7   1    7.29    6.88
  -5  -7   1   16.47   11.08
  -5   7   1    8.11    7.00
   5   7   2   33.00   13.40
   5  -7   2   13.61    8.54
   5  -7   2   12.62   10.92
   5   7   2   14.01    8.31
  -5  -7   2   27.34   10.33
  -5   7   2    5.43    7.92
   5   7   3   -3.89    8.57
  -5   7   3   10.73   14.40
   5  -7   3   15.76   12.17
   5   7   3    7.21    6.84
  -5  -7   3    6.13    8.78
  -5   7   3   11.02    8.78
   5   7   4    7.75   10.86
  -5   7   4  -11.94   10.21
   5  -7   4   16.28   11.57
  -5  -7   4   20.95   10.94
   5   7   4   13.42    7.88
   5   7   5    9.04    8.26
   5   7   5   -6.18   10.35
  -5   7   5   23.40   13.63
  -5  -7   5    2.40    8.82
   5   7   6   25.98   13.85
   5   7   6   14.38    8.82
  -5  -7   6   18.71    9.46
   5   7   7   18.43   12.72
  -5   8  -4    2.79    8.35
   5   8  -3    6.41    9.72
   5   8  -2   26.69   12.31
   5  -8  -2   10.15    8.34
   5   8  -1    3.22    7.37
   5  -8  -1   -2.80    7.70
   5  -8   0  -12.22    9.03
  -5   8   1    7.22   10.48
   5   8   2   -1.97    6.57
  -5   8   2    4.52    8.66
   5   8   3    0.62    6.51
  -5  -8   3  -20.48   10.86
  -5  -8   4   -9.26    8.63
   5   8   4   -7.86    7.52
  -6   0 -12   52.07   15.75
   6   0 -11   -1.12    7.72
  -6   0 -11   54.45   15.71
   6   0 -10   62.53   15.55
   6   0 -10   97.71   20.35
  -6   0 -10   96.46   19.50
   6   0  -9   29.57   10.64
   6   0  -9   28.40   11.35
  -6   0  -9   22.89    8.87
   6   0  -8    9.40    9.42
   6   0  -8   23.77   11.39
   6   0  -8    3.78    5.12
  -6   0  -8    5.89    9.43
   6   0  -7   37.24   12.41
  -6   0  -7   30.98   12.70
   6   0  -7   20.61    8.07
   6   0  -6   93.93   17.63
  -6   0  -6  117.14   18.58
   6   0  -6  117.68   15.81
   6   0  -5   25.16    9.49
  -6   0  -5   11.09    9.36
  -6   0  -5   24.52    7.90
   6   0  -5   27.53    8.70
   6   0  -4  304.14   29.66
   6   0  -4  334.64   25.82
  -6   0  -4  376.19   32.54
  -6   0  -4  326.78   24.05
   6   0  -3  167.46   21.21
   6   0  -3  176.59   18.86
  -6   0  -3  194.38   24.68
  -6   0  -3  181.96   18.79
   6   0  -2   27.03    9.03
   6   0  -2   -2.18    7.83
  -6   0  -2   12.92   10.54
  -6   0  -2   20.68    7.92
   6   0  -1    7.27    6.33
  -6   0  -1   22.85   10.62
  -6   0  -1   21.61    9.07
   6   0   0    4.72    6.48
  -6   0   0   17.70    7.00
  -6   0   0    4.77    6.56
  -6   0   1   23.24    8.32
   6   0   1   23.14    8.83
  -6   0   1   12.72    9.00
  -6   0   2   15.96    7.97
   6   0   2   27.08    8.67
  -6   0   2   23.66   10.31
  -6   0   3  194.79   19.96
   6   0   3  193.66   22.29
  -6   0   3  194.46   22.71
  -6   0   3  199.16   16.15
  -6   0   4  325.51   26.71
   6   0   4  332.05   28.43
  -6   0   4  321.28   28.55
  -6   0   4  317.97   17.95
   6   0   5   18.94    9.41
  -6   0   5   36.87   11.57
  -6   0   5    5.48    7.41
  -6   0   5   22.75    6.63
  -6   0   6  100.08   16.17
   6   0   6  129.52   19.82
  -6   0   6  113.86   17.95
  -6   0   6   97.24   14.05
  -6   0   7   20.77   11.20
   6   0   7   36.67   11.18
  -6   0   7   33.93   10.23
  -6   0   7   10.94    6.82
   6   0   8   24.81   10.84
  -6   0   8   18.25    8.99
   6   0   8   18.98   10.59
  -6   0   8   12.45    7.98
  -6   0   9   30.78   10.42
   6   0   9   23.77   12.72
   6   0   9   34.96   13.32
  -6   0   9   34.24   10.55
  -6   0  10   48.08   13.05
  -6   0  10   83.36   18.64
   6   0  10  101.49   19.34
   6   0  10   82.72   20.89
  -6   0  11   15.43   10.08
  -6   0  11   29.15   12.65
   6   0  11   20.46   12.24
   6   0  11   28.24   14.35
  -6   0  12   29.54   12.70
   6  -1 -12   -2.23    6.66
  -6  -1 -12  -14.38    8.98
   6   1 -11   23.51   11.62
   6  -1 -11   23.52   11.47
  -6  -1 -11   20.64   13.47
  -6   1 -11   16.81   12.15
   6   1 -10   16.13    8.37
   6  -1 -10   15.70    9.78
   6   1 -10    7.79    9.40
  -6  -1 -10   -2.68    7.12
  -6   1 -10    7.26   10.77
   6   1  -9  -21.27   10.12
   6  -1  -9    1.02    8.24
   6   1  -9    6.94   10.34
  -6  -1  -9   12.55    8.85
  -6   1  -9   17.75   10.86
   6   1  -8   18.72    9.21
   6  -1  -8   23.68   12.02
   6   1  -8   16.06    8.48
  -6  -1  -8   27.88   12.70
  -6   1  -8   33.98   13.15
   6   1  -7   70.52   15.28
   6  -1  -7   59.70   15.81
   6   1  -7   55.56   14.07
  -6  -1  -7   92.78   17.25
  -6   1  -7   84.78   18.26
   6   1  -6   45.98   12.85
   6  -1  -6   93.20   17.76
   6   1  -6  110.21   17.74
  -6  -1  -6   94.41   14.22
  -6  -1  -6   99.01   18.42
  -6   1  -6  103.25   20.04
   6  -1  -6   75.38   11.51
   6  -1  -5  124.37   19.57
   6  -1  -5  134.36   15.42
   6   1  -5   99.53   16.87
  -6  -1  -5  128.45   15.73
  -6  -1  -5  133.29   20.19
   6   1  -5  128.17   17.74
  -6   1  -5  123.03   20.94
  -6   1  -5  112.07   13.47
   6  -1  -4    9.28    5.94
   6  -1  -4    8.18    9.17
   6   1  -4    3.48    5.24
  -6  -1  -4   13.68    9.03
  -6  -1  -4   17.20    8.78
  -6   1  -4   -3.37    8.24
   6   1  -4    7.87    7.16
  -6   1  -4   -4.01    5.46
   6  -1  -3   20.38    8.15
   6  -1  -3   14.22   10.99
   6   1  -3   26.54    8.95
  -6  -1  -3   25.72   11.80
  -6   1  -3   26.96   10.27
  -6  -1  -3   27.99   10.27
   6   1  -3    3.16    6.04
  -6   1  -3   12.61    6.13
   6  -1  -2   38.20    9.68
   6  -1  -2   24.34   11.31
   6   1  -2   29.00    8.75
  -6   1  -2   38.24   12.93
  -6  -1  -2   26.72   10.34
  -6   1  -2   21.53    7.81
   6   1  -2   45.40   11.89
  -6  -1  -1   54.24   11.60
  -6  -1  -1   51.81    8.96
   6  -1  -1   54.28   13.80
   6  -1  -1   52.08   11.18
   6   1  -1   57.05   10.91
  -6   1  -1   70.19   15.12
  -6  -1  -1   63.59   12.93
  -6   1  -1   51.25   10.52
   6   1  -1   43.17   11.22
   6   1   0    1.29    6.15
  -6  -1   0   13.45    7.06
  -6  -1   0    8.17    5.14
   6  -1   0   10.90    7.69
   6   1   0   -5.86    4.52
  -6   1   0   -0.06    8.01
   6  -1   0   11.53    8.39
  -6  -1   0    5.21    9.22
  -6   1   0   -0.10    6.15
  -6  -1   1   66.05   11.97
   6   1   1   50.16   11.40
  -6  -1   1   64.83   10.52
  -6   1   1   70.28   13.30
   6   1   1   73.12   10.15
  -6  -1   1   41.21   10.89
   6  -1   1   53.13   12.13
  -6   1   1   59.19   11.40
  -6  -1   2   33.39    8.22
  -6  -1   2   38.42    8.58
  -6   1   2   39.78   11.97
   6   1   2   35.66   10.95
   6   1   2   27.36    6.07
  -6  -1   2   26.95   10.83
  -6   1   2   33.29   11.04
  -6   1   2   26.67    5.34
   6  -1   2   34.35   10.16
  -6  -1   3   18.17    6.13
   6  -1   3   17.46   10.01
  -6  -1   3   24.39    7.80
  -6   1   3   19.41    8.34
   6   1   3   20.00    8.69
  -6  -1   3   -2.62    8.14
  -6   1   3    9.80    9.16
  -6   1   3   25.65    6.25
  -6  -1   4   23.49    7.69
  -6   1   4    7.85    6.14
   6  -1   4   12.82    8.88
   6   1   4   17.07    8.88
  -6  -1   4    0.62    7.69
  -6   1   4    2.72    6.71
  -6   1   4   14.30    5.83
  -6  -1   4   12.67    4.95
  -6  -1   5  120.15   15.93
  -6   1   5  135.24   19.74
   6  -1   5  127.93   19.17
  -6  -1   5  124.07   20.19
   6   1   5  116.57   17.82
  -6   1   5   99.95   12.35
  -6  -1   6   76.69   14.25
  -6   1   6   77.64   15.39
   6  -1   6   79.68   13.27
  -6  -1   6  130.68   20.70
   6  -1   6  108.02   18.56
  -6   1   6   86.20   12.64
   6   1   6  101.10   16.48
  -6   1   7   77.80   13.14
  -6  -1   7   72.07   14.79
  -6   1   7   60.42   14.19
   6   1   7   66.79   14.83
   6  -1   7   90.76   17.16
  -6  -1   7   61.92   16.10
  -6  -1   7   60.87   13.46
   6   1   7   58.56   17.33
  -6   1   8   22.58    7.98
   6  -1   8   25.80   12.48
  -6  -1   8   24.11   10.48
  -6   1   8   24.96   10.83
   6   1   8   37.84   11.93
  -6  -1   8   24.72   11.75
  -6  -1   8   24.55   10.19
   6   1   8   31.99   14.95
   6  -1   8   28.18   15.08
   6  -1   9   17.53   10.05
  -6   1   9    2.49    7.71
  -6  -1   9  -10.79    7.06
  -6   1   9   -0.87    8.30
  -6  -1   9   11.25    7.74
   6   1   9    9.86   13.07
   6  -1   9   20.39   11.44
  -6  -1   9   -7.27    8.02
   6   1   9    8.07    8.09
  -6   1  10    9.81    8.08
  -6  -1  10    8.89    9.12
  -6   1  10   15.87   11.58
   6   1  10    7.69    8.01
   6  -1  10   10.03    9.31
   6   1  10    4.73   10.83
   6  -1  10   24.85   13.84
  -6  -1  10   -6.85    7.65
  -6   1  11   23.27   10.10
  -6  -1  11   11.95    9.77
  -6   1  11   -0.73    7.56
   6  -1  11    5.67    9.46
  -6  -1  11    7.04    8.05
  -6  -1  12   -9.16    9.00
   6  -2 -11   18.14   12.07
  -6  -2 -10   23.87   12.48
   6  -2 -10   15.20   10.16
   6   2 -10   23.82   13.27
  -6  -2 -10   19.66   11.58
  -6   2 -10   20.46   12.29
  -6  -2  -9   10.72   10.59
   6  -2  -9    3.24    7.53
   6   2  -9   -0.76    8.73
  -6  -2  -9   19.30   10.86
  -6   2  -9   36.31   12.95
  -6  -2  -8  103.95   21.49
   6  -2  -8   65.55   17.04
   6   2  -8   62.62   17.29
  -6  -2  -8   52.31   15.63
  -6   2  -8   79.89   17.52
  -6  -2  -7   48.92   14.09
   6  -2  -7   43.79   13.87
   6   2  -7   36.74   12.74
  -6  -2  -7   41.01   13.21
  -6   2  -7   40.10   14.26
  -6  -2  -6    1.78    7.57
   6  -2  -6    2.43    9.55
   6   2  -6   -1.31    8.29
  -6  -2  -6    2.53    6.81
  -6   2  -6   13.19   10.86
  -6  -2  -5    0.42    7.56
   6  -2  -5   12.74    9.71
   6  -2  -5    8.25    5.85
   6   2  -5   10.96    7.85
  -6  -2  -5    2.99    8.93
  -6   2  -5   24.45    9.97
  -6  -2  -4   19.48   10.21
   6  -2  -4   26.53   10.72
   6   2  -4   31.34   10.08
   6  -2  -4   28.01    7.55
  -6   2  -4   35.39   12.34
  -6  -2  -3   10.37    7.35
   6  -2  -3   19.71    9.98
   6   2  -3   12.60    7.14
  -6   2  -3    5.75    7.73
   6   2  -3   35.70   11.88
   6  -2  -3   15.97    6.32
  -6  -2  -2   32.81   10.99
   6  -2  -2   36.28   12.81
   6   2  -2   51.80   10.40
  -6  -2  -2   62.53   14.09
  -6   2  -2   53.13   14.05
   6   2  -2   42.66   11.72
   6  -2  -2   45.41    9.72
  -6  -2  -1   32.99    9.97
   6  -2  -1   20.71    9.75
   6   2  -1   47.70   10.84
  -6  -2  -1   21.98    9.66
  -6   2  -1   37.96   12.60
   6   2  -1   44.01   11.51
   6  -2  -1   16.14    7.73
   6   2   0  184.69   17.23
   6  -2   0  163.25   20.69
   6  -2   0  211.24   20.74
  -6   2   0  211.72   24.16
  -6  -2   0  220.10   23.62
  -6  -2   0  190.39   20.11
   6   2   0  174.21   21.47
  -6  -2   1   34.70    9.48
   6  -2   1   23.20    9.04
  -6   2   1   34.67   10.92
   6  -2   1   19.06    9.62
   6   2   1   37.76    7.88
  -6   2   1   28.34   11.23
  -6  -2   1   35.44   12.43
   6   2   1   20.60   10.09
   6   2   2   37.44   11.46
  -6  -2   2   38.00    7.43
  -6   2   2   43.24   12.35
   6  -2   2   29.94    9.30
   6   2   2   37.27    6.92
   6  -2   2   44.37   11.74
  -6  -2   2   36.34   12.54
  -6  -2   2   33.70    8.77
  -6  -2   3   27.09    6.30
   6   2   3   24.63    9.82
  -6   2   3   36.88   12.03
  -6  -2   3    9.70    8.36
   6  -2   3   16.34    9.09
  -6  -2   3    0.97    4.60
   6  -2   4   29.43   11.69
  -6  -2   4   20.99    7.19
  -6   2   4   23.24   10.32
   6   2   4   24.74    9.01
  -6  -2   4   33.35   11.81
  -6  -2   4   25.63    6.85
  -6  -2   5    1.46    4.34
  -6   2   5   -0.68    7.07
   6  -2   5    5.21    8.09
   6   2   5   -0.36    6.37
  -6  -2   5    7.47    8.49
   6   2   5   15.09   12.01
   6  -2   6   20.19    9.67
  -6  -2   6   10.01    6.26
  -6   2   6    2.93    9.19
   6  -2   6   11.59    7.86
  -6  -2   6   19.88   12.15
   6   2   6    2.94    6.18
   6   2   6   18.69   10.05
  -6  -2   7   50.88   12.30
  -6   2   7   33.06   12.36
   6  -2   7   26.24    9.90
  -6  -2   7   58.53   15.35
   6  -2   7   33.01   11.42
   6   2   7   56.13   16.65
   6   2   7   48.07   12.63
  -6  -2   8   70.50   15.52
  -6   2   8   96.23   18.93
   6   2   8   69.93   15.41
  -6  -2   8   65.42   14.66
   6   2   8   81.66   19.56
   6  -2   8   59.20   15.20
  -6  -2   9   -3.73    5.89
  -6   2   9   -2.33    7.63
   6   2   9    5.67    7.37
  -6  -2   9   11.22    8.71
  -6  -2   9   -4.64    7.01
   6   2   9    4.91    8.22
   6  -2   9   -1.31    9.88
  -6  -2  10   11.67    8.96
  -6   2  10   38.11   14.97
  -6  -2  10   18.08    8.84
   6   2  10   16.68   13.69
   6  -2  10   19.23   12.15
  -6  -2  10    9.38    8.14
   6   2  10   27.79   13.01
  -6  -2  11    2.30    6.72
   6  -2  11   19.65   15.13
  -6  -2  11   15.20    9.94
   6  -3 -10   17.02   10.77
  -6  -3  -9   48.63   16.96
   6  -3  -9   72.43   18.47
   6   3  -9   38.88   13.11
  -6   3  -9   19.16   13.38
  -6  -3  -8   26.76   11.91
   6  -3  -8   23.50   12.93
   6   3  -8   10.98    9.13
  -6   3  -8   33.96   13.68
  -6  -3  -7   28.77   11.56
   6  -3  -7   45.54   15.04
   6   3  -7   16.97    9.89
  -6   3  -7    8.87    9.14
  -6  -3  -6   13.26   10.80
   6  -3  -6    6.37   10.60
   6   3  -6   -0.34    8.38
  -6   3  -6    3.85    8.76
  -6  -3  -5   63.42   15.34
   6  -3  -5   55.94   14.83
   6   3  -5   44.92   13.60
  -6   3  -5   60.90   15.81
  -6  -3  -4   21.64   11.36
   6  -3  -4   17.44   11.52
   6   3  -4  -11.41    8.57
  -6   3  -4   12.23    9.80
  -6  -3  -3    0.42    7.80
   6  -3  -3   13.67    5.69
   6  -3  -3   -0.46    7.06
   6   3  -3   -5.73    6.57
  -6   3  -3  -12.08    8.11
  -6  -3  -2   22.10   10.80
   6  -3  -2   13.39    8.74
   6   3  -2   10.00    6.33
   6  -3  -2   31.51    8.69
   6   3  -2   17.82    9.47
  -6   3  -2   25.89   11.72
  -6  -3  -1   19.96    9.38
   6  -3  -1   28.00   11.40
   6   3  -1   15.88    7.81
  -6   3  -1   16.42    9.62
   6   3  -1    8.70    7.96
   6  -3  -1   19.50    8.17
   6   3   0    0.97    4.58
   6  -3   0   11.04    8.25
  -6   3   0   -8.67    8.94
   6   3   0    3.35    7.49
   6  -3   0    4.57    5.97
  -6  -3   0    0.04    7.08
   6  -3   1   -3.27    5.82
   6   3   1   23.18    7.06
   6  -3   1   13.05    7.42
  -6   3   1   16.10    8.63
  -6  -3   1   14.21   10.88
   6   3   1   20.91    9.52
  -6  -3   1   27.05    8.58
  -6   3   2   19.22   12.39
   6  -3   2    4.54    7.39
   6  -3   2   17.10    8.83
  -6  -3   2   22.33   10.63
   6   3   2   17.27    8.14
  -6  -3   2   18.39    8.11
   6   3   3    5.88    7.76
  -6   3   3   13.57   10.92
   6  -3   3   -7.88    7.61
  -6  -3   3   -2.94    8.43
   6   3   3    9.11    8.78
  -6  -3   3   11.59    6.92
   6  -3   3    4.37    7.66
   6   3   4   15.82   10.28
  -6   3   4   40.40   14.79
   6  -3   4    3.49    6.30
  -6  -3   4   18.67   10.10
  -6  -3   4   22.97    6.70
   6   3   4   32.94   12.43
  -6   3   5   71.12   16.65
   6  -3   5   37.48   11.70
   6   3   5   43.66   13.62
   6  -3   5   51.35   13.57
  -6  -3   5   62.24   15.68
   6   3   5   58.79   15.17
  -6   3   6   -4.35    9.67
   6  -3   6    1.75    5.96
   6   3   6   -7.64    7.36
  -6  -3   6   -5.25    8.88
   6   3   6   10.50    9.89
  -6   3   7   16.21   10.83
   6  -3   7   18.66   10.07
  -6  -3   7   24.88   11.49
   6   3   7   12.73    6.71
   6   3   7   18.41   10.14
  -6   3   8   18.85   11.53
   6  -3   8   12.46    7.12
  -6  -3   8   25.68   11.79
   6   3   8   23.53   13.18
   6   3   8   10.09    7.38
  -6   3   9   45.99   14.15
   6   3   9   27.87   11.22
  -6  -3   9   33.06   10.97
   6   3   9   23.49   15.49
  -6   3  10   16.99   10.19
   6   3  10   15.55    8.04
  -6  -3  10  -17.26   10.98
   6   3  10    6.20    9.43
  -6  -3  10   24.76   14.33
   6  -3  10   -7.94    8.51
   6   3  11   -0.49    5.64
   6  -3  11   16.24   13.25
   6   4 -10    4.32    7.48
   6   4  -9   31.22   11.79
  -6  -4  -8   48.40   15.03
   6   4  -8   40.52   15.40
   6  -4  -8   38.77   15.62
  -6   4  -8   30.84   11.91
   6   4  -8   28.18   12.97
  -6  -4  -7    8.51    9.18
   6   4  -7   15.03   10.54
   6  -4  -7   16.07   10.30
  -6   4  -7   19.49   10.99
   6   4  -7   29.55   11.37
  -6  -4  -6   52.58   15.75
   6   4  -6   28.51   10.89
   6  -4  -6   36.18   14.01
  -6   4  -6   40.28   14.19
  -6  -4  -5   47.83   14.71
   6   4  -5   16.41    9.54
   6  -4  -5   45.60   14.52
  -6   4  -5   25.55   12.61
  -6  -4  -4  129.76   22.08
   6   4  -4  135.12   20.05
   6  -4  -4  127.15   22.09
  -6   4  -4  168.53   23.91
   6   4  -3    6.06    8.06
   6  -4  -3    5.88    9.72
  -6   4  -3   13.96    8.45
  -6  -4  -3   15.57    9.21
   6   4  -2   45.21   10.86
   6  -4  -2   15.23    8.54
  -6   4  -2   35.65   11.49
   6  -4  -2   21.39    7.50
  -6  -4  -2   42.15   12.11
   6   4  -1   17.08    7.88
   6  -4  -1   25.10   10.72
  -6   4  -1   15.66    8.91
   6   4  -1   24.16   11.20
   6  -4  -1   18.84    7.96
  -6  -4  -1   20.75    9.83
   6   4   0   37.48    9.89
   6  -4   0   38.14   12.68
   6  -4   0   20.11    8.19
  -6   4   0   26.52    9.75
   6   4   0   30.70   12.86
   6   4   0   14.59    7.69
  -6  -4   0   37.68   11.25
   6   4   1   22.56    7.16
   6  -4   1   25.58    9.09
   6  -4   1   19.96    9.76
  -6   4   1    9.70    8.18
   6   4   1   30.24   11.20
   6   4   1   20.53    9.42
  -6  -4   1   20.79    8.50
  -6   4   2   58.68   17.06
   6  -4   2   29.61   10.74
  -6   4   2   29.97   10.45
  -6  -4   2   43.56   14.57
   6   4   2   41.63   11.76
   6   4   2   44.02   12.78
  -6  -4   2   32.43    9.99
  -6   4   3   12.46   10.78
   6  -4   3   19.96    8.82
  -6  -4   3   -4.63    9.70
   6   4   3   10.57    9.99
  -6  -4   3    7.09    6.38
   6   4   3   29.44   10.84
   6   4   4  157.34   21.55
  -6   4   4  152.63   25.57
   6  -4   4  120.26   16.83
  -6  -4   4  154.81   23.10
  -6  -4   4  148.04   17.64
   6   4   4  170.10   22.83
   6   4   5   31.19   12.40
  -6   4   5   25.15   12.21
   6   4   5   36.84   11.44
   6  -4   5   27.06   11.61
  -6  -4   5   35.70   12.82
   6   4   5   37.43   13.59
  -6   4   6   67.45   18.60
   6   4   6   64.87   14.34
   6  -4   6   48.18   13.21
  -6  -4   6   53.92   14.36
   6   4   6   71.78   17.74
  -6   4   7   10.92    9.89
   6  -4   7    1.26    7.75
   6   4   7    7.96    7.86
  -6  -4   7   13.58    9.78
   6   4   7   -5.11    8.45
  -6   4   8   24.41   12.84
   6  -4   8   27.12   11.60
  -6  -4   8   71.83   18.80
   6   4   8   21.14    8.88
   6   4   8   57.87   16.74
   6   4   9   39.69   13.03
   6  -4   9   24.00   11.93
  -6  -4   9   31.35   14.46
   6   4   9   56.38   17.40
   6   4  10    1.26    5.69
   6  -4  10  -35.62   14.46
   6   5  -9    7.43    7.70
   6   5  -7    1.97    8.53
   6  -5  -7   -0.52   10.26
  -6   5  -7    0.57   10.58
  -6  -5  -7   33.61   14.12
   6   5  -6    0.75    7.06
   6  -5  -6  -17.06   11.44
  -6   5  -6   10.12    9.92
  -6  -5  -6    4.39   10.69
   6   5  -5   38.37   13.17
   6  -5  -5    5.29    7.86
  -6  -5  -5   14.36   13.47
   6   5  -4   19.81    9.78
   6  -5  -4   -0.52    8.65
  -6   5  -4   25.90   11.60
  -6  -5  -4   -8.28    8.61
   6   5  -3    2.85    6.14
   6  -5  -3    3.14    7.65
  -6   5  -3   11.25    8.91
  -6  -5  -3    3.70   10.97
   6   5  -2   20.07    9.51
   6  -5  -2   24.38   12.30
  -6   5  -2   29.13   11.46
  -6  -5  -2   11.68    9.20
   6   5  -1   41.36   10.58
   6  -5  -1   55.90   14.21
  -6   5  -1   48.11   13.76
  -6  -5  -1   39.69   13.63
   6   5   0   80.44   13.01
   6  -5   0  101.23   17.94
  -6   5   0   95.73   16.59
   6   5   0   86.65   17.78
  -6  -5   0   76.13   15.96
   6  -5   1   69.44   14.27
  -6   5   1   49.97   13.07
   6   5   1   47.71   12.53
  -6  -5   1   35.61   12.44
  -6   5   2   22.93   14.29
   6  -5   2   26.28   10.49
  -6   5   2   38.23   11.52
   6   5   2    5.98    7.32
   6   5   2   14.54    8.44
  -6  -5   2   26.71   10.58
  -6   5   3   22.63   14.50
   6  -5   3    9.50    7.42
  -6  -5   3   -0.01    8.73
  -6  -5   3   21.53    9.91
   6   5   3   21.13    9.69
   6   5   3  -11.13    9.41
   6   5   4   30.21   11.40
  -6   5   4   -1.93   10.90
   6  -5   4   -2.92    7.38
   6  -5   4   -8.04    7.05
  -6  -5   4   -3.84    7.85
  -6  -5   4   11.85    7.92
   6   5   4    7.72    9.52
   6   5   5   22.68   10.55
   6   5   5   37.43   12.40
  -6   5   5   43.83   19.12
   6  -5   5   23.94   11.71
  -6  -5   5   39.20   14.93
   6   5   5   27.39   12.32
   6   5   6   10.44    8.45
  -6   5   6  -11.18   11.48
   6   5   6    1.41    6.79
   6  -5   6  -10.91    8.69
  -6  -5   6  -15.47    9.82
   6   5   6  -17.61   12.99
  -6   5   7   16.71   10.35
   6   5   7    0.31    5.87
   6  -5   7    2.17    8.97
  -6  -5   7    6.01   10.64
   6   5   7   -6.69    8.84
   6  -5   8    0.01    7.14
  -6  -5   8   -0.72    8.33
   6   5   8    3.90    6.40
   6   5   8   12.26   10.76
   6  -5   9    4.41    9.22
   6   5   9    4.72    8.65
   6   6  -6   19.36   14.09
   6   6  -5   18.72   11.93
   6  -6  -5   25.27   13.19
  -6   6  -5   27.33   10.55
  -6  -6  -5   13.10    9.97
   6   6  -4   39.01   13.80
   6  -6  -4   43.96   16.24
  -6   6  -4   17.36    9.38
  -6  -6  -4   34.65   15.05
   6   6  -3   22.38   11.31
   6  -6  -3   19.45   11.54
  -6  -6  -3    4.54    9.43
   6   6  -2   35.32   11.55
   6  -6  -2   22.45   11.88
  -6   6  -2   26.04   10.81
  -6  -6  -2   31.08   13.12
   6   6  -1   17.70    9.16
   6  -6  -1    3.73    7.66
  -6   6  -1    0.01    8.05
  -6  -6  -1   -7.21   10.00
   6  -6   0   69.70   15.41
  -6   6   0   72.27   15.82
   6   6   0   59.54   15.99
  -6  -6   0   91.24   18.45
   6  -6   1   -4.23    8.38
  -6   6   1   10.50    9.08
   6   6   1    9.13    9.35
  -6  -6   1    4.46    7.81
  -6   6   2    8.03   12.89
   6  -6   2   26.02   10.68
   6   6   2   23.72   10.49
  -6  -6   2   14.04    9.01
  -6   6   3   29.98   16.25
   6  -6   3    6.83   10.53
  -6  -6   3   38.58   12.47
   6   6   3   21.84   11.53
   6   6   4   12.94   11.14
  -6   6   4   34.17   13.47
   6  -6   4   16.63   11.72
  -6  -6   4   28.97   16.18
   6   6   4   24.25   10.97
   6   6   5    4.77    9.07
   6   6   5   10.53    8.69
   6  -6   5   24.03   10.45
  -6  -6   5   30.30   14.07
   6   6   6   -5.85    8.02
   6   6   6   -5.86    6.74
   6   6   6  -27.31   11.82
   6   6   7   16.15    9.28
   6   6   7    2.01    7.88
   6   7  -4   28.60   15.20
  -6   7  -4   13.09   11.32
   6   7  -3   31.58   15.31
  -6   7  -3   25.02   12.62
   6   7  -2   24.12   10.80
   6  -7  -2   15.30   11.98
  -6   7  -2   14.26    8.18
   6  -7  -1   -4.20    9.65
  -6  -7  -1    4.55   11.55
   6  -7   0   -2.04    8.66
  -6  -7   0    2.77    9.20
   6  -7   1    5.32    7.80
  -6  -7   1   14.59   10.41
   6   7   2   17.08   11.84
  -6  -7   2   30.79   14.53
   6   7   3   21.90   12.79
  -6  -7   3   50.07   16.27
   6   7   4   17.61   10.83
   7   0 -10   -1.03    9.01
   7   0  -9   18.89   14.01
   7   0  -9   -3.72    7.84
  -7   0  -9    9.76   10.88
   7   0  -8    4.01    9.57
   7   0  -8    3.74    8.62
  -7   0  -8    4.36   11.50
   7   0  -7    2.19    7.37
   7   0  -7   10.04    9.08
  -7   0  -7  -15.51   11.60
   7   0  -7   -7.56    6.49
   7   0  -6   17.18   10.80
   7   0  -6    2.21    7.58
  -7   0  -6   15.13   10.33
   7   0  -6    0.10    5.64
   7   0  -5  -11.97    8.07
  -7   0  -5  -14.98   10.38
   7   0  -5  -16.90    7.82
  -7   0  -4   15.69   11.06
  -7   0  -4    2.49    6.07
   7   0  -4    7.40    6.55
   7   0  -3   -1.09    6.05
  -7   0  -3    2.67    5.78
   7   0  -2  -10.03    6.60
  -7   0  -2   -4.20    9.29
  -7   0  -2   -7.37    7.65
  -7   0  -1   11.39    7.01
   7   0  -1   -8.73    7.58
  -7   0  -1   -4.94    6.75
  -7   0   0   -2.64    5.65
   7   0   0   -4.86    6.47
  -7   0   0   -2.91    6.58
  -7   0   1   25.91    9.55
   7   0   1    5.96    6.71
  -7   0   1    6.57    7.47
  -7   0   2    2.14    5.06
  -7   0   2    3.99    7.52
   7   0   2    2.24    5.99
  -7   0   2    1.25    7.40
  -7   0   3    2.05    6.09
  -7   0   3    1.54    7.73
   7   0   3   -8.69    7.91
  -7   0   4   19.54    9.59
  -7   0   4   13.78   10.53
   7   0   4    7.78    8.44
  -7   0   5    8.72    7.65
   7   0   5    5.44    7.92
  -7   0   5   -6.47    8.46
  -7   0   6   -2.29    7.09
   7   0   6   -6.76    7.94
  -7   0   6   -2.39    8.02
  -7   0   7    5.12    6.84
   7   0   7    7.76    7.90
   7   0   8    1.82    8.44
  -7   0   8    6.93    7.14
   7   0   8   12.43   11.66
  -7   0   9    6.90    9.64
   7   0   9   25.10   11.85
   7   0   9   -0.63   11.04
  -7   0  10   23.49   12.50
  -7  -1 -10    7.26   10.81
   7  -1  -9    2.87    7.97
   7   1  -9   -0.26    6.88
  -7  -1  -9   17.75   11.89
  -7   1  -9    0.89    8.08
   7  -1  -8   -5.84   10.08
   7   1  -8   14.98   11.60
  -7  -1  -8   10.65   12.20
  -7   1  -8   10.86   11.07
   7   1  -8    2.81    8.13
   7  -1  -7   -5.99    9.26
   7   1  -7    2.28    8.23
  -7  -1  -7   -1.73    7.37
  -7   1  -7    4.38    8.10
   7   1  -7   -3.64    6.42
   7  -1  -6   -0.19    8.26
   7   1  -6   18.50    9.26
  -7  -1  -6   29.73   12.42
  -7   1  -6   34.86   12.97
   7   1  -6   27.33   11.34
   7  -1  -5   41.85   10.25
   7  -1  -5   53.20   15.10
   7   1  -5   54.55   13.68
  -7  -1  -5   54.70   16.73
  -7   1  -5   64.29   17.85
  -7  -1  -5   71.97   14.27
   7   1  -5   55.89   13.17
   7  -1  -4    6.98    5.40
   7  -1  -4   14.01    9.88
   7   1  -4   21.18   11.65
  -7  -1  -4    9.50    9.94
  -7   1  -4   16.99   10.35
  -7  -1  -4   14.45    8.72
   7   1  -4   22.89   10.40
  -7  -1  -3   -2.08    7.23
   7  -1  -3   -7.15    9.44
   7  -1  -3    6.06    6.67
   7   1  -3    8.43    6.91
  -7   1  -3    9.54   10.04
  -7  -1  -3    4.22    6.14
  -7   1  -3    3.23    6.82
   7   1  -3    4.19    6.30
  -7  -1  -2   -4.15    6.50
   7  -1  -2   -4.48    8.02
   7  -1  -2   -2.56    5.59
   7   1  -2    6.82    6.92
  -7   1  -2   18.72   12.40
  -7  -1  -2   18.92    9.26
  -7   1  -2    3.17    6.66
   7   1  -2   11.14    7.87
   7   1  -1   24.41    9.94
  -7  -1  -1   13.89    8.26
   7  -1  -1   34.30   11.52
   7   1  -1   28.45    8.85
  -7   1  -1   25.42   11.88
   7  -1  -1    9.36    7.26
  -7  -1  -1   22.00   10.49
  -7   1  -1   22.98    9.60
  -7  -1   0   36.21    9.95
   7   1   0   42.76   12.66
  -7   1   0   48.02   12.55
   7   1   0   46.66    9.75
  -7  -1   0   46.20   12.59
   7  -1   0   33.95   10.50
  -7   1   0   37.72   11.63
  -7  -1   1   25.12    8.61
  -7   1   1   16.87    8.89
   7   1   1   31.61   10.52
  -7  -1   1   16.25   10.77
  -7   1   1   21.81    9.46
   7  -1   1   18.12    8.90
  -7  -1   2   11.18    7.70
  -7   1   2   20.16    9.22
   7   1   2   -0.02    6.14
  -7  -1   2    7.77   10.39
  -7   1   2    9.48    9.10
   7  -1   2    1.72    5.77
   7  -1   3   -3.17    6.93
  -7   1   3   14.02    9.82
   7   1   3   15.09    9.48
  -7  -1   3   -4.61    8.34
  -7   1   3    3.25    7.58
  -7   1   4   46.91   13.47
   7  -1   4   32.82   10.73
   7   1   4   27.99   10.55
  -7  -1   4   16.67    9.42
  -7  -1   5   60.01   12.52
  -7   1   5   57.38   14.24
   7  -1   5   62.69   14.80
  -7  -1   5   59.49   15.37
   7   1   5   25.07   11.91
   7   1   6   24.88    9.93
  -7  -1   6    7.52    6.69
  -7   1   6   14.10    9.63
  -7  -1   6    4.68    8.96
   7  -1   6   39.85   13.00
  -7  -1   7   -6.93    7.50
  -7   1   7    3.59    7.41
   7  -1   7    9.89    8.91
   7   1   7    8.33    9.66
  -7  -1   7    3.43   10.42
  -7  -1   7   12.98    8.25
   7   1   7   -0.29    9.11
  -7  -1   8   13.81   10.11
  -7   1   8   -0.01    8.62
   7   1   8   -1.14    8.59
  -7  -1   8   -1.29    9.91
   7   1   8    7.05    9.09
   7  -1   8   13.84    9.14
  -7  -1   8   14.81    7.46
  -7  -1   9  -15.50    9.34
  -7   1   9    1.17    7.49
   7  -1   9   -2.75   10.35
  -7  -1   9    1.75    8.25
   7   1   9    7.04    7.63
  -7  -1  10   16.11   11.57
  -7  -1  10    1.08    7.18
  -7  -2 -10   -4.44    8.34
  -7  -2  -9   39.04   14.59
  -7  -2  -8   17.67   11.04
   7  -2  -8   37.27   15.41
   7   2  -8    8.00    8.91
  -7  -2  -8    2.55    8.38
  -7   2  -8   28.67   14.43
  -7  -2  -7   10.58    9.43
   7  -2  -7   37.49   13.72
   7   2  -7   10.54   11.04
  -7  -2  -7   14.29   10.26
  -7   2  -7   31.92   13.16
  -7  -2  -6   23.57   12.42
   7  -2  -6   -2.62    9.15
   7   2  -6    2.57    7.15
  -7  -2  -6   28.53   13.11
  -7  -2  -6   -7.32    7.43
   7   2  -6    3.95    7.71
  -7   2  -6   -3.25    8.68
  -7  -2  -5   25.93   11.62
   7  -2  -5    2.37   10.34
   7   2  -5   28.27   11.25
  -7  -2  -5   26.45   10.08
  -7   2  -5    1.23   10.13
   7   2  -5   13.32    9.36
  -7  -2  -4    9.04    9.56
   7  -2  -4  -14.52    9.80
   7   2  -4    5.84    5.92
  -7  -2  -4   -5.98    7.41
  -7   2  -4   -1.37    7.44
   7  -2  -4   -7.21    5.64
   7   2  -4   11.45    8.86
  -7  -2  -3   36.79   13.69
   7  -2  -3   18.64   10.70
   7   2  -3   29.98   10.75
  -7   2  -3   32.00   13.08
  -7  -2  -3   52.93   13.24
   7  -2  -3   16.13    8.17
   7   2  -3   34.96   11.15
  -7  -2  -2    3.64    6.63
   7  -2  -2    3.86    7.83
   7   2  -2   31.27    9.93
  -7   2  -2   17.70    8.77
  -7  -2  -2   25.79   10.86
   7   2  -2    8.99    9.21
   7  -2  -2    9.10    6.40
  -7  -2  -1   24.84   11.22
   7  -2  -1   15.92    8.42
   7   2  -1   28.86    9.59
  -7   2  -1   24.37   12.82
  -7  -2  -1   27.17   10.34
   7   2  -1   26.25   10.90
   7  -2  -1   16.03    8.39
  -7  -2   0    4.39    8.14
   7  -2   0   -7.85    6.97
   7  -2   0   -7.33    9.70
   7   2   0    2.91    5.23
  -7   2   0    2.92    8.35
  -7  -2   0    2.53    8.40
   7   2   0   -1.14    7.18
  -7  -2   1   26.41    9.71
   7   2   1   30.74   11.32
  -7   2   1   50.12   13.84
   7  -2   1   31.91   10.03
   7  -2   1   15.00    8.48
  -7  -2   1   36.20   13.62
   7   2   2   16.88    8.87
  -7   2   2    4.14    7.81
   7  -2   2   12.07    8.21
  -7  -2   2    6.80    8.16
  -7  -2   2   15.74    7.81
  -7   2   3   14.92    8.97
   7   2   3   22.11   10.56
  -7  -2   3    8.31    8.09
   7  -2   3   22.69    9.31
   7  -2   4   -5.96    7.37
  -7   2   4   -9.67    9.92
   7   2   4   14.38    9.33
  -7  -2   4   10.39    8.17
  -7   2   5   36.46   12.64
   7  -2   5   18.95    9.88
   7   2   5    8.27    6.49
  -7  -2   5   25.32   12.95
   7   2   5   28.31   13.17
  -7   2   6   -2.63    6.94
  -7  -2   6   -3.33    7.73
   7   2   6    6.24    6.68
   7  -2   6   -2.02    6.54
   7   2   6   14.69   11.65
   7   2   7   10.73    8.15
  -7   2   7    5.91    8.59
   7  -2   7   10.56    9.48
  -7  -2   7    0.21    9.86
   7   2   7   23.39   11.35
  -7   2   8    8.99    7.28
   7   2   8    9.53    9.85
  -7  -2   8   31.67   14.77
  -7  -2   8   25.47   13.40
   7   2   8   20.38   12.02
   7  -2   8    1.03    7.16
  -7   2   9    7.27    8.83
  -7  -2   9    1.39    7.56
  -7  -2  10   -3.13    7.40
   7   3  -8   -0.27    9.22
  -7  -3  -7   -1.20    9.13
   7  -3  -7   15.44   12.17
   7   3  -7   -0.09    8.58
  -7   3  -7   16.27   11.12
  -7  -3  -6   13.71   11.09
   7  -3  -6    6.15    9.61
   7   3  -6   16.41   11.11
  -7   3  -6   13.41   10.17
  -7  -3  -5   10.08    8.70
   7  -3  -5   28.80   11.46
   7   3  -5   20.94   10.12
  -7   3  -5   33.51   13.36
  -7  -3  -4    1.81    7.25
   7  -3  -4   19.53   10.19
   7   3  -4    2.85    6.94
  -7   3  -4   -6.63   10.45
   7   3  -4    6.40    9.96
  -7  -3  -3  -12.20    9.32
   7  -3  -3   -5.45    8.18
   7   3  -3    1.45    6.26
  -7   3  -3   11.41   10.40
   7   3  -3   13.72    8.97
  -7  -3  -2   75.23   15.88
   7  -3  -2   22.74   11.09
   7   3  -2   53.15   12.30
   7  -3  -2   39.87   10.81
  -7  -3  -2   53.78   13.23
  -7   3  -2   29.90   12.40
   7   3  -2   61.06   15.44
  -7  -3  -1   20.00   10.15
   7  -3  -1    1.46    7.07
   7   3  -1    2.11    5.79
  -7   3  -1    0.35    7.57
  -7  -3  -1   -9.79   11.12
   7  -3  -1   -4.82    5.82
   7   3  -1   -7.22    8.08
   7  -3   0   51.11   14.33
  -7   3   0   70.24   15.98
  -7  -3   0   43.81   15.78
   7   3   0   51.52   14.27
   7  -3   0   58.90   13.58
  -7  -3   0   82.10   15.53
   7  -3   1    3.47    7.03
  -7   3   1   16.37   10.57
   7  -3   1    1.53    7.92
  -7   3   1   -1.89    8.05
  -7  -3   1   -7.76    7.96
   7   3   1   13.19    8.96
  -7  -3   1   -4.54    6.60
   7   3   2   41.26   12.34
  -7   3   2   31.84   15.14
   7  -3   2   30.37   11.06
   7  -3   2   41.96   13.05
  -7  -3   2   64.70   12.85
   7   3   3   -0.50    7.23
  -7   3   3   10.88   11.80
  -7  -3   3    4.08    9.56
   7  -3   3   -0.75    5.80
   7   3   3  -12.99    7.67
   7  -3   4   12.16    9.34
  -7   3   4   -3.99    9.12
   7   3   4   11.50    9.42
  -7  -3   4   -8.12    8.25
   7   3   4   -5.61    8.42
   7  -3   5    7.55    8.56
  -7   3   5    5.78    8.17
   7   3   5   19.11   10.15
  -7  -3   5   33.21   13.95
   7   3   5   12.52   12.25
  -7   3   6   39.30   14.54
   7  -3   6    6.23    8.41
   7  -3   6  -21.59    9.38
   7   3   6    4.16    6.37
  -7  -3   6    9.47   10.31
   7   3   6   12.69    8.92
  -7   3   7  -11.12   10.58
  -7  -3   7    9.19    9.20
   7   3   7   11.02    9.41
   7   3   7  -19.50   10.25
   7   3   8   -0.01    6.13
   7   3   8  -16.27    9.97
  -7  -3   9    2.45    6.68
   7   4  -7    3.18    8.06
  -7  -4  -6   12.92   11.75
   7   4  -6   12.62    9.70
   7  -4  -6   -1.03    9.88
  -7   4  -6   23.63   13.73
  -7  -4  -5   21.21   12.68
   7   4  -5   15.45    9.80
   7  -4  -5    2.25    9.60
  -7   4  -5    2.17    7.56
   7   4  -4   32.75   12.82
   7  -4  -4   11.97   12.02
  -7   4  -4   25.65   11.29
  -7  -4  -4   18.02   10.78
   7   4  -3   28.71   10.52
   7  -4  -3   23.61   13.78
  -7   4  -3   40.79   14.58
   7   4  -3    9.92    9.99
  -7  -4  -3   25.82   12.31
   7   4  -2    9.24    6.58
   7  -4  -2   25.51   11.46
  -7   4  -2    9.93    9.17
   7   4  -2    7.07    7.39
  -7  -4  -2   30.85   14.25
   7  -4  -1   16.31   10.15
  -7   4  -1    1.86    7.75
   7   4  -1   11.32    9.23
  -7  -4  -1   -0.61    8.22
   7  -4   0    6.73    7.22
  -7  -4   0    8.20   10.21
  -7   4   0   23.18   11.09
   7   4   0   -1.38    7.55
   7  -4   0    8.85    6.82
  -7  -4   0   -1.59    8.01
  -7   4   1   30.27   12.85
   7  -4   1    9.60    7.69
   7  -4   1    9.10    8.92
  -7   4   1   12.03    9.75
  -7  -4   1    1.45    9.31
   7   4   1   14.27    9.27
   7   4   1    7.73    8.95
  -7  -4   1   -1.74    7.45
  -7   4   2   21.15   11.74
   7  -4   2    8.86    6.68
  -7  -4   2   14.02   11.85
   7  -4   2    3.21    7.05
   7   4   2   16.64   10.80
  -7  -4   2   24.78   10.04
   7   4   2   30.60   12.87
   7   4   3   35.03   11.91
  -7   4   3   30.54   14.56
   7  -4   3   26.50   11.00
  -7  -4   3   50.99   16.71
   7   4   3    1.88    6.69
  -7   4   4   33.22   17.43
   7   4   4   31.43   12.47
  -7  -4   4   31.73   14.89
   7   4   4   14.20   11.30
  -7   4   5    7.73    8.92
   7   4   5    6.75    8.16
   7  -4   5   16.16    7.69
  -7  -4   5   27.31   11.31
   7   4   5    6.25    7.52
  -7   4   6    2.24    7.94
   7  -4   6   -1.78    6.56
   7   4   6   16.19    9.57
  -7  -4   6   -0.38   10.56
   7   4   6    2.73   10.87
   7  -4   7   -2.26    6.47
   7   4   7   34.29   15.30
   7   5  -6    7.17    8.10
   7   5  -5    0.82    6.99
   7   5  -4   -6.24    7.62
   7  -5  -4   -8.05    9.17
  -7   5  -4   -7.99   11.56
  -7  -5  -4    4.89    8.39
   7   5  -3    3.73    6.11
   7  -5  -3   35.39   13.76
  -7   5  -3   18.69   12.09
  -7  -5  -3   12.71   10.11
   7  -5  -2   31.34   13.70
  -7   5  -2   18.56   10.32
   7   5  -2   29.71   12.90
  -7  -5  -2   32.64   13.01
   7  -5  -1   33.64   12.63
  -7   5  -1   36.93   13.76
   7   5  -1   66.74   18.28
  -7  -5  -1   47.46   14.18
   7  -5   0   52.36   15.47
  -7   5   0   59.94   15.37
   7   5   0   63.99   16.89
  -7  -5   0   50.74   14.97
  -7   5   1   60.66   19.31
   7  -5   1   13.91    9.46
  -7  -5   1   63.54   17.16
  -7   5   1   36.59   12.80
   7   5   1   36.14   13.68
  -7  -5   1   44.40   13.96
  -7   5   2   19.83   13.27
   7  -5   2   26.44   11.88
  -7  -5   2   50.61   16.68
  -7  -5   2   31.02   11.44
   7   5   2   27.74   11.55
   7   5   3   24.50   11.34
  -7   5   3    5.50   10.34
   7  -5   3    1.38    8.19
  -7  -5   3   21.60   16.53
   7   5   4    0.94    6.64
  -7   5   4    4.71   10.17
   7  -5   4    3.50   10.11
   7   5   4   26.09   11.67
   7  -5   5    1.07    6.63
   7   5   5  -22.22   11.38
   7  -5   6    7.55    9.46
   7   5   6   20.92   10.61
   7   6  -4    3.98    7.00
  -7   6  -2   -7.16   10.85
   7  -6  -1   21.27   11.56
  -7   6  -1   24.99   12.39
  -7  -6  -1   17.44   11.10
   7  -6   0    6.37    8.35
  -7   6   0    5.85   10.60
  -7  -6   0   15.58   11.93
   7  -6   1   14.57   10.49
  -7  -6   1   22.64   11.98
   7  -6   2    0.80    6.77
   7   6   4    1.46    9.46
   8   0  -7  -11.58    9.22
   8   0  -6   11.68    8.76
  -8   0  -6   21.34   13.30
   8   0  -5   54.58   13.91
   8   0  -5   81.54   19.45
  -8   0  -5   75.00   20.53
   8   0  -4   19.32   10.07
   8   0  -4   35.05   12.03
  -8   0  -4   -0.03    8.51
   8   0  -3   33.51   11.35
   8   0  -3   33.14   12.04
  -8   0  -3   36.79   10.09
   8   0  -2    3.18    6.95
   8   0  -2   32.38   10.58
  -8   0  -2   23.14   10.55
   8   0  -1   -7.43    7.33
  -8   0  -1  -14.40   10.54
  -8   0   0   22.86   10.09
   8   0   0   20.99   10.52
  -8   0   0   11.23    7.30
   8   0   1    8.18    6.86
  -8   0   1    8.74    9.12
  -8   0   2   31.62   12.47
   8   0   2   30.64   12.83
  -8   0   3   23.37   11.20
   8   0   3   27.79   11.39
   8   0   4   39.95   13.94
  -8   0   4   27.98   11.55
   8   0   5  104.01   20.20
  -8   0   5  114.98   22.52
   8   1  -7   -7.23    8.36
  -8  -1  -6  106.74   23.44
   8   1  -6   52.58   15.65
  -8  -1  -6   82.87   20.41
   8   1  -6   31.65   12.60
  -8  -1  -5   12.08    8.21
   8  -1  -5   10.21    9.63
   8   1  -5    8.21    8.44
  -8   1  -5   22.48   11.22
   8   1  -5    0.63    6.54
  -8  -1  -4   24.27   12.59
   8  -1  -4   24.68   10.93
   8  -1  -4   15.82    9.11
   8   1  -4    8.53    9.22
  -8   1  -4   29.97   14.21
  -8  -1  -4   22.64   10.17
   8   1  -4   17.33   11.10
   8   1  -3    3.07    7.86
  -8  -1  -3   13.54    9.93
   8  -1  -3  -11.73   11.46
   8   1  -3   16.46    9.13
   8  -1  -3   -0.01    5.38
  -8   1  -3   22.54   14.52
  -8  -1  -3    8.77    9.29
  -8  -1  -2   28.72   11.25
   8   1  -2    9.56    8.03
   8   1  -2    8.60    6.42
  -8   1  -2    2.40   10.09
   8  -1  -2   11.92    8.53
  -8   1  -2   15.58    8.32
  -8  -1  -1   16.53   10.46
   8   1  -1   23.39   11.67
  -8  -1  -1   22.78   12.11
   8  -1  -1   22.42   10.18
  -8   1  -1    3.37    6.73
  -8  -1   0   11.76    9.11
   8   1   0   13.70    9.49
  -8  -1   0   -0.77    7.35
  -8   1   0    7.33    8.56
   8  -1   0  -18.22    8.92
  -8   1   1   14.82   10.40
   8   1   1  -24.28   10.39
  -8  -1   1   23.79   11.01
  -8   1   1   21.22   10.13
   8  -1   1  -11.93    8.10
   8  -1   2    8.89    8.27
  -8   1   2   -4.68    7.04
   8   1   2    2.30    7.56
  -8  -1   2   -5.02    7.82
  -8   1   3    3.84    8.34
   8  -1   3   10.26    9.78
   8   1   3  -20.30   10.13
  -8  -1   3   -0.74    8.83
  -8   1   4   18.06   10.61
   8  -1   4   16.49    9.69
  -8  -1   4   18.82   12.17
   8   1   4   40.47   14.51
  -8   1   5    2.37    6.75
  -8  -1   5   13.21    9.60
   8  -1   5   -3.68    7.42
   8   1   5    8.97    8.04
  -8   1   6   52.65   15.37
  -8   1   7   10.04    8.27
  -8   1   8  -13.51    9.75
   8   2  -7   16.22   12.56
   8   2  -6    4.56    7.63
   8   2  -6   13.17   11.23
  -8  -2  -5   11.54   11.99
   8   2  -5   20.71   10.54
   8   2  -5   17.74    9.83
  -8  -2  -4   29.58   11.90
   8  -2  -4   12.38   10.52
   8   2  -4   32.25   12.82
  -8   2  -4   10.69   11.94
  -8  -2  -4   10.98    8.94
   8   2  -4    4.84    9.28
  -8  -2  -3   28.01   11.71
   8  -2  -3    4.33    8.38
   8   2  -3   29.01   11.22
  -8   2  -3   -5.63    9.52
  -8  -2  -3   10.04   10.59
   8   2  -3    1.28    6.91
  -8  -2  -2   19.33   10.64
   8  -2  -2   34.56   11.37
   8  -2  -2    5.66    9.36
  -8   2  -2   10.19   12.65
  -8  -2  -2   21.74    9.82
   8   2  -2    2.64    7.57
  -8  -2  -1   19.99   10.51
   8   2  -1    5.41    7.68
   8  -2  -1    2.93    5.54
  -8   2  -1   26.23   12.03
   8  -2  -1   -8.62    9.66
  -8   2  -1    5.62    8.35
  -8  -2  -1    6.62    9.99
  -8  -2   0  -19.64    9.32
   8   2   0    5.25    6.78
  -8   2   0   19.49   11.22
   8  -2   0   -2.23    5.65
  -8  -2   0   26.66   13.56
  -8   2   1   14.90   10.84
   8   2   1    5.93    7.01
   8  -2   1   19.22   10.83
  -8  -2   1   16.77   12.74
  -8   2   2   34.27   14.12
   8   2   2   23.16   10.86
   8  -2   2    0.01    6.48
  -8  -2   2   54.66   16.88
  -8   2   3   -2.40    7.80
   8   2   3   29.67   12.07
  -8  -2   3   25.64   12.20
   8  -2   3    4.27    7.75
   8  -2   4   19.02   11.28
  -8   2   4   29.82   14.09
   8   2   4   29.25   12.61
  -8  -2   4    8.08   12.20
  -8   2   5   20.64    9.34
   8  -2   5    4.60    8.13
   8   2   5    2.76    9.83
  -8   2   6   15.52   10.84
  -8   2   7   45.41   16.15
   8   3  -6   -2.39    7.52
   8   3  -5    8.18    8.34
  -8  -3  -5   14.92    7.53
   8   3  -5    0.47    7.04
  -8  -3  -4   27.01   13.17
   8   3  -4    8.69    7.94
  -8  -3  -4   21.78   10.81
   8   3  -4    8.42    9.78
  -8  -3  -3   18.26    8.35
   8  -3  -3    1.37   10.38
  -8   3  -3    4.29   12.07
  -8  -3  -3    1.13    7.68
   8   3  -3   18.44   12.22
  -8  -3  -2   16.30   10.21
   8  -3  -2   -0.21    7.55
  -8   3  -2   20.07   12.14
  -8  -3  -2  -11.32    9.80
   8   3  -2   -0.37    8.31
   8  -3  -1   16.06   11.03
  -8   3  -1   -2.76    8.14
  -8  -3  -1   -7.62    9.31
   8   3  -1  -17.12   10.19
  -8  -3  -1    8.09    8.84
   8   3   0   16.63   10.00
   8  -3   0   11.96    7.80
  -8   3   0   23.67   13.97
   8  -3   0  -16.49   12.62
  -8  -3   0    0.86    8.13
  -8  -3   0   20.25    9.63
   8   3   1    0.16    7.47
   8  -3   1   -0.01    7.72
  -8   3   1    7.59    8.20
  -8  -3   1   -1.92   11.13
   8   3   2   -5.30    7.67
  -8   3   2   10.13   10.12
   8  -3   2   17.72    9.13
  -8  -3   2   -8.51    8.47
  -8   3   3   -3.42    8.37
   8   3   3  -24.41   11.12
  -8  -3   3    6.26    9.27
   8   3   3   -7.51   10.27
   8  -3   3   -4.32    6.99
  -8   3   4   10.29   10.43
   8  -3   4    5.69    7.12
   8   3   4   -1.19    8.41
  -8   3   5    1.94    8.04
   8  -3   5    0.09    8.45
   8   3   5   -5.09   10.32
   8   4  -5   27.33   12.26
  -8  -4  -4    8.53    7.67
  -8  -4  -3   19.65   10.85
  -8  -4  -3   35.27   14.31
  -8  -4  -2   12.54   12.54
  -8  -4  -2   50.43   16.39
   8  -4  -1   -1.31    8.50
  -8   4  -1   -7.12    8.50
  -8  -4  -1    3.61    9.68
  -8  -4  -1    7.32   10.80
  -8   4   0   12.61   10.88
   8  -4   0   25.23   11.93
  -8   4   0   32.47   13.49
  -8  -4   0   20.01   10.73
  -8   4   1    0.69    9.88
   8  -4   1    1.59    7.60
  -8   4   2   40.05   15.97
   8  -4   2   36.56   13.34
   8   4   2   18.04   11.60
  -8   4   3   17.02    9.38
   8   4   3    5.64    9.44
   8   4   4   14.19    8.31
   8  -4   5   29.71   13.00
  -8  -5  -1   12.34    9.47
  -8  -5   0   33.90   13.61
   8  -5   2    4.85    7.81
  -9   0  -3   -1.85    7.59
   9   0  -3    3.48    5.78
  -9   0  -2  -11.32    8.97
   9   0  -2    5.76    6.94
   9   0  -1    2.51    6.25
  -9   0  -1   -2.79    7.04
   9   0   0  -10.94    8.16
  -9   0   0  -19.44   10.60
  -9   0   1  -26.05   11.90
   9  -1  -4   22.51   10.62
  -9  -1  -3    3.91    9.02
  -9  -1  -2   -1.95    7.01
  -9  -1  -2   -2.44    7.44
   9  -1  -2   -0.01    5.88
  -9  -1  -1   10.62    9.28
   9  -1  -1   -1.89    5.77
   9  -1   0   23.63   10.26
  -9  -1   0    7.89   11.02
   9  -1   1   21.62   10.22
  -9  -2  -3    0.55    7.30
  -9  -2  -2  -17.21    9.84
   9  -2   0   17.92    9.25
   9  -2   1    0.01    7.21
   0   0   0    0.00    0.00


TITL qx396 in Pna2(1)
REM Pna2(1) (#33 in standard setting)
CELL 0.71073   6.523780   6.961810  11.359193  90.0000  90.0000  90.0000
ZERR   10.00   0.001280   0.000753   0.000939   0.0000   0.0000   0.0000
LATT -1
SYMM -x,-y, z+1/2
SYMM  x+1/2,-y+1/2, z
SYMM -x+1/2, y+1/2, z+1/2
SFAC C H N O
UNIT 10.00 10.00 10.00 10.00
TREF
HKLF 4
END
_computing_structure_solution     'SHELXT 2018/2 (Sheldrick, 2018)'
;
_shelx_hkl_checksum              77171
loop_
_space_group_symop_operation_xyz
'x, y, z'
'-x, -y, z+1/2'
'x+1/2, -y+1/2, z'
'-x+1/2, y+1/2, z+1/2'
loop_
_atom_site_label
_atom_site_type_symbol
_atom_site_fract_x
_atom_site_fract_y
_atom_site_fract_z
_atom_site_U_iso_or_equiv
_atom_site_adp_type
_atom_site_occupancy
_atom_site_site_symmetry_order
_atom_site_calc_flag
_atom_site_refinement_flags_posn
_atom_site_refinement_flags_adp
_atom_site_refinement_flags_occupancy
_atom_site_disorder_assembly
_atom_site_disorder_group
O3 O 0.4234(4) 0.7606(4) 0.3839(2) 0.0231(6) Uani 1 1 d . . . . .
O4 O 0.2847(4) 0.8191(4) 0.5530(2) 0.0254(7) Uani 1 1 d . . . . .
O2 O 0.3204(4) 0.4357(4) 0.3002(2) 0.0257(7) Uani 1 1 d . . . . .
O1 O 0.4169(5) 0.2146(3) 0.4217(2) 0.0256(7) Uani 1 1 d . . . . .
N4 N 0.3428(5) 0.7030(4) 0.4766(3) 0.0190(7) Uani 1 1 d . . . . .
N3 N 0.3580(5) 0.3817(4) 0.4018(3) 0.0217(7) Uani 1 1 d . . . . .
N2 N 0.2073(5) 0.5409(5) 0.6990(3) 0.0238(7) Uani 1 1 d . . . . .
N1 N 0.2675(6) 0.2400(5) 0.6334(3) 0.0217(8) Uani 1 1 d . . . . .
C2 C 0.3259(6) 0.5066(5) 0.4985(3) 0.0180(8) Uani 1 1 d . . . . .
C1 C 0.2675(6) 0.4287(5) 0.6132(3) 0.0201(8) Uani 1 1 d . . . . .
D2 D 0.220(6) 0.206(6) 0.701(4) 0.015(10) Uiso 1 1 d . . . . .
D1 D 0.311(6) 0.165(7) 0.575(4) 0.015(10) Uiso 1 1 d . . . . .
D4 D 0.203(6) 0.671(7) 0.683(4) 0.023(12) Uiso 1 1 d . . . . .
D3 D 0.182(6) 0.491(6) 0.767(4) 0.014(10) Uiso 1 1 d . . . . .
loop_
_atom_site_aniso_label
_atom_site_aniso_U_11
_atom_site_aniso_U_22
_atom_site_aniso_U_33
_atom_site_aniso_U_23
_atom_site_aniso_U_13
_atom_site_aniso_U_12
O3 0.0323(16) 0.0180(14) 0.0190(14) 0.0043(10) 0.0008(12) -0.0040(11)
O4 0.0429(18) 0.0133(14) 0.0200(14) -0.0039(11) 0.0007(13) 0.0007(12)
O2 0.047(2) 0.0164(14) 0.0133(13) 0.0011(11) -0.0021(12) -0.0014(13)
O1 0.041(2) 0.0151(12) 0.0201(14) -0.0014(11) -0.0003(13) 0.0054(11)
N4 0.0267(18) 0.0150(15) 0.0153(15) 0.0003(12) -0.0026(13) -0.0004(12)
N3 0.0283(17) 0.0190(16) 0.0177(16) -0.0008(14) 0.0029(14) 0.0010(13)
N2 0.0400(19) 0.0172(18) 0.0142(15) 0.0013(14) 0.0041(15) -0.0011(15)
N1 0.033(2) 0.0168(16) 0.0157(17) 0.0022(14) 0.0032(16) 0.0009(15)
C2 0.025(2) 0.0145(17) 0.0142(18) -0.0018(14) 0.0001(14) 0.0016(14)
C1 0.025(2) 0.0169(18) 0.0188(18) 0.0002(16) -0.0053(15) -0.0009(16)
loop_
_atom_type_symbol
_atom_type_description
_atom_type_scat_dispersion_real
_atom_type_scat_dispersion_imag
_atom_type_scat_source
C C 0.0033 0.0016 'International Tables Vol C Tables 4.2.6.8 and 6.1.1.4'
D D 0.0000 0.0000 'International Tables Vol C Tables 4.2.6.8 and 6.1.1.4'
N N 0.0061 0.0033 'International Tables Vol C Tables 4.2.6.8 and 6.1.1.4'
O O 0.0106 0.0060 'International Tables Vol C Tables 4.2.6.8 and 6.1.1.4'
loop_
_geom_angle_atom_site_label_1
_geom_angle_atom_site_label_2
_geom_angle_atom_site_label_3
_geom_angle
_geom_angle_site_symmetry_1
_geom_angle_site_symmetry_3
_geom_angle_publ_flag
O3 N4 O4 120.6(3) . . ?
O3 N4 C2 120.1(3) . . ?
O4 N4 C2 119.2(3) . . ?
O2 N3 O1 120.9(3) . . ?
O2 N3 C2 120.5(3) . . ?
O1 N3 C2 118.6(3) . . ?
C1 N2 D4 117(3) . . ?
C1 N2 D3 119(3) . . ?
D4 N2 D3 124(4) . . ?
C1 N1 D2 115(3) . . ?
C1 N1 D1 116(3) . . ?
D2 N1 D1 128(4) . . ?
N4 C2 N3 116.9(3) . . ?
N4 C2 C1 122.9(3) . . ?
N3 C2 C1 120.1(3) . . ?
N2 C1 N1 117.3(4) . . ?
N2 C1 C2 121.4(3) . . ?
N1 C1 C2 121.3(3) . . ?
loop_
_geom_bond_atom_site_label_1
_geom_bond_atom_site_label_2
_geom_bond_distance
_geom_bond_site_symmetry_2
_geom_bond_publ_flag
O3 N4 1.243(4) . ?
O4 N4 1.245(4) . ?
O2 N3 1.239(4) . ?
O1 N3 1.246(4) . ?
N4 C2 1.394(5) . ?
N3 C2 1.417(4) . ?
N2 C1 1.309(5) . ?
N2 D4 0.92(5) . ?
N2 D3 0.86(4) . ?
N1 C1 1.334(5) . ?
N1 D2 0.87(4) . ?
N1 D1 0.89(5) . ?
C2 C1 1.462(5) . ?
loop_
_geom_contact_atom_site_label_1
_geom_contact_atom_site_label_2
_geom_contact_distance
_geom_contact_site_symmetry_1
_geom_contact_site_symmetry_2
_geom_contact_publ_flag
? ? ? ? ? ?
loop_
_geom_hbond_atom_site_label_D
_geom_hbond_atom_site_label_H
_geom_hbond_atom_site_label_A
_geom_hbond_distance_DH
_geom_hbond_distance_HA
_geom_hbond_distance_DA
_geom_hbond_angle_DHA
_geom_hbond_site_symmetry_A
N1 D2 O3 0.87(4) 2.31(4) 3.110(4) 154(4) 4_545
loop_
_geom_torsion_atom_site_label_1
_geom_torsion_atom_site_label_2
_geom_torsion_atom_site_label_3
_geom_torsion_atom_site_label_4
_geom_torsion
_geom_torsion_site_symmetry_1
_geom_torsion_site_symmetry_2
_geom_torsion_site_symmetry_3
_geom_torsion_site_symmetry_4
_geom_torsion_publ_flag
O3 N4 C2 N3 -14.5(5) . . . . ?
O4 N4 C2 N3 168.7(3) . . . . ?
O3 N4 C2 C1 168.7(3) . . . . ?
O4 N4 C2 C1 -8.1(6) . . . . ?
O2 N3 C2 N4 -28.2(5) . . . . ?
O1 N3 C2 N4 154.6(3) . . . . ?
O2 N3 C2 C1 148.7(4) . . . . ?
O1 N3 C2 C1 -28.5(5) . . . . ?
N4 C2 C1 N2 7.1(6) . . . . ?
N3 C2 C1 N2 -169.7(4) . . . . ?
N4 C2 C1 N1 -175.0(4) . . . . ?
N3 C2 C1 N1 8.3(6) . . . . ?
