#------------------------------------------------------------------------------
#$Date: 2022-02-04 21:37:57 +0200 (Fri, 04 Feb 2022) $
#$Revision: 272668 $
#$URL: file:///home/coder/svn-repositories/cod/cif/7/70/91/7709190.cif $
#------------------------------------------------------------------------------
#
# This file is available in the Crystallography Open Database (COD),
# http://www.crystallography.net/
#
# All data on this site have been placed in the public domain by the
# contributors.
#
data_7709190
loop_
_publ_author_name
'M\"uller, Felix'
'Wickemeyer, Lucas'
'Schwabedissen, Jan'
'Ertl, Martin'
'Neumann, Beate'
'Stammler, Hans-Georg'
'Monkowius, Uwe'
'Mitzel, Norbert W.'
_publ_section_title
;
 Synthesis, structural and photophysical properties of
 dimethylphosphino(perfluoro-)phenylene-based gold(I) dimers.
;
_journal_issue                   5
_journal_name_full
'Dalton transactions (Cambridge, England : 2003)'
_journal_page_first              1955
_journal_page_last               1967
_journal_paper_doi               10.1039/d1dt03658k
_journal_volume                  51
_journal_year                    2022
_chemical_formula_moiety         'C16 H12 Au2 F8 P2'
_chemical_formula_sum            'C16 H12 Au2 F8 P2'
_chemical_formula_weight         812.13
_space_group_crystal_system      monoclinic
_space_group_IT_number           12
_space_group_name_Hall           '-C 2y'
_space_group_name_H-M_alt        'C 1 2/m 1'
_atom_sites_solution_hydrogens   geom
_atom_sites_solution_primary     direct
_audit_creation_date             2019-05-11
_audit_creation_method
;
Olex2 1.3-ac4
(compiled 2018.12.18 svn.r3554 for Rigaku Oxford Diffraction, GUI svn.r1)
;
_audit_update_record
;
2021-10-08 deposited with the CCDC.	2021-12-28 downloaded from the CCDC.
;
_cell_angle_alpha                90
_cell_angle_beta                 97.2703(12)
_cell_angle_gamma                90
_cell_formula_units_Z            2
_cell_length_a                   15.16837(19)
_cell_length_b                   6.99146(10)
_cell_length_c                   8.76220(11)
_cell_measurement_reflns_used    16046
_cell_measurement_temperature    200.0(1)
_cell_measurement_theta_max      36.6880
_cell_measurement_theta_min      2.3280
_cell_volume                     921.75(2)
_computing_cell_refinement       'CrysAlisPro 1.171.40.47a (Rigaku OD, 2019)'
_computing_data_collection       'CrysAlisPro 1.171.40.47a (Rigaku OD, 2019)'
_computing_data_reduction        'CrysAlisPro 1.171.40.47a (Rigaku OD, 2019)'
_computing_molecular_graphics    'Olex2 (Dolomanov et al., 2009)'
_computing_publication_material  'Olex2 (Dolomanov et al., 2009)'
_computing_structure_refinement  'ShelXL (Sheldrick, 2015)'
_computing_structure_solution    'ShelXS (Sheldrick, 2008)'
_diffrn_ambient_environment      N~2~
_diffrn_ambient_temperature      200.0(1)
_diffrn_detector                 'CCD plate'
_diffrn_detector_area_resol_mean 8.0951
_diffrn_detector_type            Eos
_diffrn_measured_fraction_theta_full 0.998
_diffrn_measured_fraction_theta_max 0.977
_diffrn_measurement_details
;
List of Runs (angles in degrees, time in seconds):

  # Type    Start    End  Width  t~exp~   \w     \q     \k     \f   Frames
#--------------------------------------------------------------------------
  1  \w    -20.00  40.00   1.00    5.00    --    0.00 -99.00  90.00   60
  2  \w     18.00 105.00   1.00    5.00    --   36.42  57.00  60.00   87
  3  \w    -20.00  77.00   1.00    5.00    --   36.42 -99.00-120.00   97
  4  \w    -36.00  74.00   1.00    5.00    --   36.42 -19.00 120.00  110
  5  \w    -20.00  77.00   1.00    5.00    --   36.42 -99.00  30.00   97
  6  \w    -34.00  59.00   1.00    5.00    --   36.42 -38.00  30.00   93
  7  \w      0.00  28.00   1.00    5.00    --   36.42  92.00   7.36   28
  8  \w     18.00 105.00   1.00    5.00    --   36.42  57.00   0.00   87
  9  \w      8.00 106.00   1.00    5.00    --   36.42  77.00 120.00   98
 10  \w    -20.00  77.00   1.00    5.00    --   36.42 -99.00 155.00   97
 11  \w      8.00 106.00   1.00    5.00    --   36.42  77.00-180.00   98
 12  \w      8.00 106.00   1.00    5.00    --   36.42  77.00 -90.00   98
 13  \w    -32.00  55.00   1.00    5.00    --   36.42 -57.00 -90.00   87
 14  \w    -19.00  68.00   1.00    5.00    --    0.00  57.00-180.00   87
 15  \w      0.00  28.00   1.00    5.00    --   36.42  92.00 109.25   28
 16  \w     35.00 110.00   1.00    5.00    --   36.42 178.00-180.00   75
 17  \w     18.00 105.00   1.00    5.00    --   36.42  57.00 150.00   87
 18  \w     18.00 105.00   1.00    5.00    --   36.42  57.00  90.00   87
 19  \w    -20.00  77.00   1.00    5.00    --   36.42 -99.00 -90.00   97
 20  \w     18.00 105.00   1.00    5.00    --   36.42  57.00-120.00   87
 21  \w     -2.00  24.00   1.00    5.00    --   36.42  96.00-102.88   26
;
_diffrn_measurement_device       'four-circle diffractometer'
_diffrn_measurement_device_type  'SuperNova, Single source at offset/far, Eos'
_diffrn_measurement_method       '\w scans'
_diffrn_orient_matrix_type
'CrysAlisPro convention (1999,Acta A55,543-557)'
_diffrn_orient_matrix_UB_11      0.0393854000
_diffrn_orient_matrix_UB_12      -0.0050488000
_diffrn_orient_matrix_UB_13      -0.0356669000
_diffrn_orient_matrix_UB_21      0.0210998000
_diffrn_orient_matrix_UB_22      0.0648751000
_diffrn_orient_matrix_UB_23      0.0552292000
_diffrn_orient_matrix_UB_31      0.0150224000
_diffrn_orient_matrix_UB_32      -0.0778287000
_diffrn_orient_matrix_UB_33      0.0483572000
_diffrn_radiation_monochromator  mirror
_diffrn_radiation_probe          x-ray
_diffrn_radiation_type           MoK\a
_diffrn_radiation_wavelength     0.71073
_diffrn_reflns_av_R_equivalents  0.0354
_diffrn_reflns_av_unetI/netI     0.0180
_diffrn_reflns_Laue_measured_fraction_full 0.998
_diffrn_reflns_Laue_measured_fraction_max 0.977
_diffrn_reflns_limit_h_max       25
_diffrn_reflns_limit_h_min       -25
_diffrn_reflns_limit_k_max       11
_diffrn_reflns_limit_k_min       -11
_diffrn_reflns_limit_l_max       14
_diffrn_reflns_limit_l_min       -14
_diffrn_reflns_number            25772
_diffrn_reflns_point_group_measured_fraction_full 0.998
_diffrn_reflns_point_group_measured_fraction_max 0.977
_diffrn_reflns_theta_full        25.242
_diffrn_reflns_theta_max         37.092
_diffrn_reflns_theta_min         2.343
_diffrn_source                   'micro-focus sealed X-ray tube'
_diffrn_source_type              'SuperNova (Mo) X-ray Source'
_exptl_absorpt_coefficient_mu    16.148
_exptl_absorpt_correction_T_max  0.439
_exptl_absorpt_correction_T_min  0.110
_exptl_absorpt_correction_type   gaussian
_exptl_absorpt_process_details
;
CrysAlisPro 1.171.40.47a (Rigaku Oxford Diffraction, 2019)
Numerical absorption correction based on gaussian integration over
			a multifaceted crystal model
Empirical absorption correction using spherical harmonics,
 implemented in SCALE3 ABSPACK scaling algorithm.
;
_exptl_crystal_colour            'clear colourless'
_exptl_crystal_colour_lustre     clear
_exptl_crystal_colour_primary    colourless
_exptl_crystal_density_diffrn    2.926
_exptl_crystal_description       block
_exptl_crystal_F_000             736
_exptl_crystal_size_max          0.215
_exptl_crystal_size_mid          0.159
_exptl_crystal_size_min          0.098
_refine_diff_density_max         1.174
_refine_diff_density_min         -0.992
_refine_diff_density_rms         0.165
_refine_ls_extinction_coef       0.00079(10)
_refine_ls_extinction_expression Fc^*^=kFc[1+0.001xFc^2^\l^3^/sin(2\q)]^-1/4^
_refine_ls_extinction_method     'SHELXL-2018/3 (Sheldrick 2018)'
_refine_ls_goodness_of_fit_ref   1.111
_refine_ls_hydrogen_treatment    constr
_refine_ls_matrix_type           full
_refine_ls_number_parameters     84
_refine_ls_number_reflns         2449
_refine_ls_number_restraints     0
_refine_ls_restrained_S_all      1.111
_refine_ls_R_factor_all          0.0179
_refine_ls_R_factor_gt           0.0148
_refine_ls_shift/su_max          0.003
_refine_ls_shift/su_mean         0.000
_refine_ls_structure_factor_coef Fsqd
_refine_ls_weighting_details
'w=1/[\s^2^(Fo^2^)+(0.0155P)^2^+0.2406P] where P=(Fo^2^+2Fc^2^)/3'
_refine_ls_weighting_scheme      calc
_refine_ls_wR_factor_gt          0.0336
_refine_ls_wR_factor_ref         0.0343
_reflns_Friedel_coverage         0.000
_reflns_number_gt                2327
_reflns_number_total             2449
_reflns_threshold_expression     'I > 2\s(I)'
_cod_data_source_file            d1dt03658k2.cif
_cod_data_source_block           compound6
_cod_depositor_comments
'Adding full bibliography for 7709188--7709191.cif.'
_cod_database_code               7709190
_shelx_shelxl_version_number     2018/3
_chemical_oxdiff_formula         C16H12Au2F8P2
_shelx_space_group_comment
;
The symmetry employed for this shelxl refinement is uniquely defined
by the following loop, which should always be used as a source of
symmetry information in preference to the above space-group names.
They are only intended as comments.
;
_diffrn_oxdiff_digest_frames
;
01ef6cb40df2727b65ab6011914fe00f8101715ed2a
;
_diffrn_oxdiff_digest_hkl
;
01c7f57cbb200d824e9b740aeabdc81e9d93aa
;
_reflns_odcompleteness_completeness 99.90
_reflns_odcompleteness_iscentric 1
_reflns_odcompleteness_theta     26.32
_olex2_refinement_description
;
1. Fixed Uiso
 At 1.5 times of:
  All C(H,H,H) groups
2.a Idealised Me refined as rotating group:
 C7(H7A,H7B,H7C)
;
_shelx_res_file
;
TITL Mueller01_1_200_00 in C2/m #12
    mueller01_1_200_00.res
    created by SHELXL-2018/3 at 09:28:49 on 11-May-2019
REM reset to C2/m #12
CELL 0.71073 15.168373 6.991456 8.762198 90 97.2703 90
ZERR 2 0.000192 0.000102 0.000111 0 0.0012 0
LATT 7
SYMM -X,+Y,-Z
SFAC C H Au F P
UNIT 32 24 4 16 4

L.S. 10
PLAN  5
TEMP -73.15(10)
BOND
more -2
bond $h
conf
fmap 2
acta
OMIT 2 0 0
REM <olex2.extras>
REM <HklSrc "%.\\Mueller01_1_200_00.hkl">
REM </olex2.extras>

WGHT    0.015500    0.240600
EXTI    0.000793
FVAR       2.95287
AU1   3    0.545363    0.500000    0.867099    10.50000    0.01917    0.02929 =
         0.02376    0.00000    0.00031    0.00000
P1    5    0.407733    0.500000    0.727949    10.50000    0.02128    0.03157 =
         0.02398    0.00000   -0.00083    0.00000
F1    4    0.787214    0.500000    1.385172    10.50000    0.02811    0.05339 =
         0.03076    0.00000   -0.00772    0.00000
F2    4    0.926170    0.500000    1.227664    10.50000    0.02004    0.05163 =
         0.05317    0.00000   -0.00793    0.00000
F3    4    0.900474    0.500000    0.914151    10.50000    0.02262    0.07380 =
         0.05292    0.00000    0.01175    0.00000
F4    4    0.736556    0.500000    0.762396    10.50000    0.02872    0.06216 =
         0.03105    0.00000    0.00596    0.00000
C1    1    0.669706    0.500000    0.992865    10.50000    0.02034    0.02515 =
         0.02635    0.00000    0.00173    0.00000
C2    1    0.683948    0.500000    1.155190    10.50000    0.01965    0.02532 =
         0.02951    0.00000   -0.00063    0.00000
C3    1    0.771043    0.500000    1.229134    10.50000    0.02318    0.02879 =
         0.03190    0.00000   -0.00323    0.00000
C4    1    0.843773    0.500000    1.151584    10.50000    0.01739    0.03011 =
         0.04441    0.00000   -0.00299    0.00000
C5    1    0.830476    0.500000    0.993068    10.50000    0.02093    0.03481 =
         0.04002    0.00000    0.00616    0.00000
C6    1    0.745018    0.500000    0.918119    10.50000    0.02302    0.02953 =
         0.03202    0.00000    0.00251    0.00000
C7    1    0.388313    0.295981    0.600441    11.00000    0.03486    0.04628 =
         0.03822   -0.01415    0.00204   -0.00163
AFIX 137
H7A   2    0.434110    0.291805    0.531017    11.00000   -1.50000
H7B   2    0.329636    0.307675    0.539946    11.00000   -1.50000
H7C   2    0.390694    0.178173    0.661429    11.00000   -1.50000
AFIX   0
HKLF 4




REM  Mueller01_1_200_00 in C2/m #12
REM wR2 = 0.0343, GooF = S = 1.111, Restrained GooF = 1.111 for all data
REM R1 = 0.0148 for 2327 Fo > 4sig(Fo) and 0.0179 for all 2449 data
REM 84 parameters refined using 0 restraints

END

WGHT      0.0155      0.2406

REM Highest difference peak  1.174,  deepest hole -0.992,  1-sigma level  0.165
Q1    1   0.5180  0.5000  0.7863  10.50000  0.05    1.17
Q2    1   0.5699  0.5000  0.9447  10.50000  0.05    0.61
Q3    1   0.4481  0.0000  0.4845  10.50000  0.05    0.57
Q4    1   0.4215  0.1722  0.6028  11.00000  0.05    0.54
Q5    1   0.3158  0.2535  0.5814  11.00000  0.05    0.51
;
_shelx_res_checksum              60308
_shelx_hkl_file
;
   0   0   1 10.0736 10.6731  12
   0   0   1 454373. 3238.12  14
   0   0  -2 63981.8 2083.78   9
   0   0   2 60271.5 1780.67  10
   0   0  -2 62106.6 2157.92  17
   0   0  -2 66926.3 1990.88  18
   0   0   2 71005.4 1970.68   5
   0   0   2 60414.9 1974.89   6
   0   0  -2 59150.6 2212.22  14
   0   0   2 61384.6 1754.60  16
   0   0  -2 62415.8 1982.10  15
   0   0   2 73539.4 2310.79  14
   0   0   2 61035.8 1793.04  12
   0   0  -2 65559.3 1815.68   2
   0   0  -2 59181.4 1813.77   1
   0   0   2 57439.2 1824.96   1
   0   0   3 306154. 7663.99  10
   0   0  -3 306936. 8177.96   9
   0   0  -3 298111. 8324.08  17
   0   0  -3 314163. 8029.30  18
   0   0   3 312444. 8037.60   6
   0   0   3 321113. 7257.63   8
   0   0  -3 318647. 7277.66   7
   0   0  -3 303637. 8006.46  15
   0   0  -3 306172. 8477.73  14
   0   0   3 302617. 7607.50  16
   0   0   3 309179. 7689.46  12
   0   0  -3 304605. 7728.81   1
   0   0  -3 334718. 7790.51   2
   0   0   3 303117. 7780.44   1
   0   0  -4 319305. 9073.65  17
   0   0  -4 343649. 8732.60  18
   0   0   4 313433. 8576.26   6
   0   0   4 325303. 7633.61   8
   0   0  -4 305063. 9111.99  14
   0   0   4 324447. 8129.91  16
   0   0  -4 321731. 8679.39  15
   0   0  -4 329985. 8284.43   1
   0   0  -4 345688. 8349.98   2
   0   0   4 320957. 8358.29   1
   0   0  -4 345131. 8970.72   9
   0   0   4 322994. 8201.04  10
   0   0  -5 45850.2 2378.43  17
   0   0  -5 45453.1 2104.46  18
   0   0   5 44437.7 2008.67   6
   0   0   5 43869.3 1677.97  16
   0   0  -5 38830.9 2299.49  14
   0   0  -5 48298.5 1835.47   1
   0   0   5 50978.8 1452.91   3
   0   0   5 43342.0 1837.90   1
   0   0  -5 47345.3 1847.77   2
   0   0  -5 49620.1 2324.85   9
   0   0   5 44589.1 1732.06  10
   0   0   5 44641.3 1172.34   8
   0   0  -6 771.933 310.186  18
   0   0  -6 789.374 360.351  17
   0   0   6 904.573 326.729   6
   0   0  -6 1277.61 425.723  14
   0   0   6 992.803 243.306  16
   0   0   6 468.160 183.797   1
   0   0  -6 714.006 235.027   1
   0   0  -6 993.269 276.569   2
   0   0   6 962.197 141.610   3
   0   0  -6 849.441 349.786   9
   0   0   6 650.331 215.762  10
   0   0  -7 178161. 5876.79  18
   0   0  -7 172289. 6314.44  17
   0   0   7 169919. 5539.60   6
   0   0  -7 184125. 5052.71  13
   0   0   7 174746. 5099.63  16
   0   0  -7 187954. 5407.04   2
   0   0  -7 189899. 5359.10   1
   0   0   7 175133. 5405.76   1
   0   0  -7 180024. 6173.13   9
   0   0   7 181863. 5224.06  10
   0   0  -8 181100. 6937.21  17
   0   0  -8 186536. 6462.03  18
   0   0   8 188512. 6159.24   6
   0   0   8 199553. 5736.55  16
   0   0  -8 209678. 5997.89   1
   0   0   8 201958. 5822.53  10
   0   0  -8 204582. 6983.98   9
   0   0   9 5450.11 672.184  16
   0   0   9 6037.10 830.734   6
   0   0   9 4292.51 607.583  10
   0   0  -9 5001.86 930.162   9
   0   0  -9 3429.08 697.683  18
   0   0  -9 3775.85 849.114  17
   0   0  10 15666.4 1197.33  16
   0   0  10 13510.1 1333.39   6
   0   0  10 16687.9 1302.77  10
   0   0 -10 13366.5 1595.57   9
   0   0 -10 12968.0 1666.46  17
   0   0 -10 13923.4 1504.27  18
   0   0 -11 35620.1 2587.07  18
   0   0 -11 32695.8 2775.60  17
   0   0  11 35428.7 2319.59   6
   0   0  11 41323.4 2171.72  16
   0   0  11 39193.0 2206.67  10
   0   0 -11 38765.0 2929.96   9
   0   0  11 38558.1 2126.06   4
   0   0 -12 16019.3 1966.53   9
   0   0  12 17538.2 1508.85  10
   0   0  12 18560.3 1675.85   6
   0   0  12 15441.7 1348.41  16
   0   0 -12 16711.7 2054.00  17
   0   0 -12 13233.5 1633.45  18
   0   0 -12 15235.1 1960.72  11
   0   0  12 18757.7 1473.45   4
   0   0 -13 569.141 647.615  17
   0   0 -13-118.791 518.753  11
   0   0 -13 622.352 752.204   9
   0   0  13 195.570 352.742  10
   0   0  13 881.425 575.000   6
   0   0 -14 4154.92 1156.99  17
   0   0 -14 5183.92 1253.76  11
   0   0  14 8113.20 1131.39  10
   0   0 -14 6805.20 1416.46   9
   0  -2   1 669341. 15549.5   5
   0  -2   1 669839. 15317.6   4
   0  -2  -1 696880. 15729.7   3
   0  -2   1 648055. 15831.5   3
   0  -2  -1 668534. 15580.8  19
   0  -2   1 657158. 15627.7  19
   0   2   1 660395. 15534.0  20
   0  -2  -1 654166. 15599.7  18
   0  -2  -1 660550. 15239.0  17
   0   2   1 679367. 15412.2   6
   0   2  -1 662964. 15351.8  14
   0  -2  -1 685822. 15777.4  13
   0  -2   1 664231. 15443.7  13
   0  -2   1 648523. 15472.0  14
   0  -2  -1 645282. 15311.4  14
   0   2   1 650923. 15626.8  12
   0  -2  -1 665671. 15331.2   9
   0  -2   1 651462. 15556.3  10
   0  -2   2 82945.5 2146.04   4
   0  -2   2 89088.7 2753.57   3
   0  -2  -2 85370.6 2438.25   3
   0  -2  -2 87931.3 2456.68  19
   0  -2   2 82092.3 2533.96  19
   0   2   2 79030.5 2492.46  20
   0  -2  -2 91314.0 2538.17  17
   0  -2  -2 83137.7 2659.72  18
   0  -2   2 79278.8 2500.47  16
   0  -2   2 81462.8 2585.14   5
   0   2   2 81960.6 2537.16   6
   0  -2   2 78549.3 2221.00   6
   0  -2   2 81709.5 2655.52  14
   0  -2   2 82251.3 2226.95  13
   0  -2  -2 80054.2 2584.70  14
   0   2  -2 83389.7 2640.56  14
   0  -2  -2 92980.1 2822.59  13
   0   2   2 79760.3 2494.87  12
   0  -2  -2 83082.2 2415.59   9
   0  -2   2 79695.7 2416.69  10
   0  -2  -3 298014. 6886.21   3
   0  -2   3 286965. 6841.96   4
   0   2   3 264455. 6893.17   1
   0   2  -3 284599. 7425.81   1
   0  -2   3 316253. 7578.40   3
   0  -2  -3 302080. 7111.36  19
   0  -2   3 289679. 7273.12  19
   0  -2   3 286525. 7251.05  16
   0  -2  -3 325497. 7767.92  17
   0   2  -3 285537. 6967.71  18
   0  -2  -3 288992. 7648.06  18
   0   2   3 299047. 7543.06   6
   0  -2   3 277369. 7159.66   6
   0  -2   3 280011. 7484.21   5
   0  -2   3 305032. 7718.02  14
   0  -2  -3 309749. 7723.53  13
   0  -2  -3 286083. 7709.26  14
   0   2  -3 264183. 7686.26  14
   0  -2   3 286462. 6767.03  13
   0   2   3 282200. 7270.18  12
   0  -2  -3 290322. 7338.56   9
   0  -2   3 284518. 7185.13  10
   0  -2   4 195179. 4924.15   4
   0   2  -4 203920. 5599.65   1
   0   2  -4 200499. 4831.51   2
   0   2   4 189977. 5029.93   1
   0  -2   4 201602. 5440.55   3
   0  -2   4 196502. 5220.44  19
   0  -2  -4 207022. 5093.95  19
   0   2  -4 193042. 5975.96  17
   0  -2   4 194560. 5285.24  16
   0   2  -4 196225. 5202.62  18
   0  -2  -4 202897. 5961.01  17
   0  -2  -4 206338. 5899.49  18
   0  -2   4 175608. 5263.23   6
   0  -2   4 195923. 5619.94   5
   0   2   4 214364. 5769.54   6
   0   2  -4 196640. 5765.96  15
   0  -2  -4 202344. 5717.97  13
   0  -2  -4 201766. 6002.40  14
   0  -2   4 206373. 5853.06  14
   0   2  -4 168896. 5852.06  14
   0   2   4 190478. 5330.90  12
   0  -2  -4 193511. 5535.43   9
   0  -2   4 195821. 5259.88  10
   0   2  -4 192972. 5838.31   9
   0  -2   5 73221.3 2238.79   4
   0  -2   5 72455.3 2518.74   3
   0   2   5 73007.5 2400.71   1
   0   2  -5 74270.6 2127.84   2
   0   2  -5 75590.0 2828.87   1
   0  -2  -5 77633.2 2292.37  19
   0  -2   5 73600.7 2381.32  19
   0   2  -5 70860.7 2581.14  18
   0  -2   5 76384.6 2561.44  16
   0   2  -5 70628.4 3158.19  17
   0  -2  -5 72866.7 3134.61  17
   0  -2  -5 73060.7 3076.39  18
   0  -2   5 73414.4 2803.31   5
   0   2   5 75310.3 2878.86   6
   0  -2   5 66702.3 2566.63   6
   0  -2   5 80026.7 3047.15  14
   0  -2  -5 78011.8 2886.16  13
   0  -2  -5 73728.4 3186.96  14
   0   2  -5 65736.1 3138.62  14
   0   2  -5 72981.7 3031.22  15
   0   2   5 71995.9 2591.30  12
   0   2  -5 72043.9 3087.30   9
   0  -2   5 71828.5 2513.88  10
   0  -2  -5 74843.2 2882.34   9
   0  -2   6 3692.77 405.672   4
   0   2  -6 4036.32 374.424   2
   0   2  -6 3698.81 546.879   1
   0   2   6 3552.08 467.364   1
   0  -2   6 3356.07 429.844   3
   0  -2   6 3693.65 409.064  19
   0  -2  -6 4417.15 395.218  19
   0   2  -6 2954.31 605.229  17
   0  -2  -6 4004.01 694.626  18
   0   2  -6 4331.52 590.138  18
   0  -2  -6 4260.12 693.198  17
   0  -2   6 5988.28 618.269  16
   0   2   6 3940.67 600.480   6
   0  -2   6 3418.88 506.579   6
   0   2   6 3594.07 408.795   8
   0   2  -6 2976.19 601.392  15
   0   2  -6 3674.89 730.916  14
   0  -2  -6 2843.79 606.926  14
   0  -2  -6 4672.08 649.892  13
   0   2   6 3378.04 515.245  12
   0  -2  -6 2913.30 554.391   9
   0  -2   6 3849.21 507.307  10
   0   2  -6 3500.09 670.330   9
   0  -2   7 139676. 4274.88   3
   0   2  -7 154034. 5004.44   1
   0   2   7 154882. 4634.40   1
   0   2   7 150779. 4670.59  10
   0   2  -7 143792. 5465.76   9
   0  -2   7 150491. 4646.20  10
   0  -2  -7 147924. 5227.42   9
   0  -2  -7 151551. 5460.22  18
   0   2  -7 147371. 4856.41  18
   0   2  -7 143657. 5566.35  17
   0  -2   7 146548. 4609.90  16
   0  -2  -7 150827. 5569.52  17
   0   2   7 152425. 4066.26   8
   0  -2   7 136879. 4675.36   6
   0   2   7 152721. 5029.73   6
   0   2  -7 123002. 5427.56  14
   0   2  -7 154848. 5561.87  15
   0  -2  -7 139903. 5480.86  14
   0  -2  -7 151447. 4903.21  13
   0   2   7 146747. 4529.93  16
   0   2   7 149578. 4724.65  12
   0  -2   7 153229. 4283.43   4
   0   2   8 161616. 4922.45   1
   0  -2   8 142725. 4403.66   3
   0  -2   8 155579. 4932.53  10
   0   2   8 157236. 4967.78  10
   0   2  -8 147866. 5838.56   9
   0  -2  -8 152014. 5607.83   9
   0   2  -8 151560. 5196.55  18
   0   2  -8 142918. 5877.03  17
   0  -2   8 158264. 4921.61  16
   0  -2  -8 146112. 5668.18  18
   0  -2  -8 151246. 5879.20  17
   0  -2   8 141867. 4959.23   6
   0   2   8 158120. 5315.09   6
   0   2  -8 160349. 5962.31  15
   0   2   8 158701. 4855.22  16
   0  -2  -8 161951. 5166.60  13
   0   2   8 158304. 5040.64  12
   0  -2   8 158065. 4549.61   4
   0   2   9 8371.03 909.361  10
   0  -2   9 7572.53 838.869  10
   0  -2  -9 7894.03 1162.15   9
   0   2  -9 6578.58 1092.85   9
   0  -2   9 8530.91 908.107  16
   0   2  -9 8941.82 1032.51  18
   0   2  -9 6873.07 1108.58  17
   0  -2  -9 9147.34 1288.12  17
   0  -2  -9 7176.32 1119.17  18
   0  -2   9 6119.95 837.572   6
   0   2   9 5484.61 828.906   6
   0  -2  -9 7331.67 858.184  13
   0   2   9 7521.74 816.490  16
   0   2   9 8224.92 918.589  12
   0  -2   9 7672.61 723.307   4
   0   2  10 17411.5 1347.92  16
   0   2  10 18406.7 1594.12   6
   0  -2  10 17492.0 1454.70   6
   0  -2 -10 15082.3 1697.34  18
   0   2 -10 16314.1 1861.92  17
   0  -2 -10 16827.4 1825.03  17
   0  -2  10 20524.0 1476.79  16
   0   2 -10 15160.8 1779.60   9
   0   2  10 19043.7 1471.26  10
   0  -2 -10 18569.8 1851.91   9
   0  -2  10 19431.3 1445.07  10
   0   2  11 30244.1 1872.93  16
   0   2  11 28067.1 2067.95   6
   0  -2  11 26460.7 1905.61   6
   0   2 -11 23221.5 2349.34  17
   0  -2 -11 23635.5 2309.41  17
   0  -2  11 30703.6 1927.11  16
   0  -2 -11 22879.5 2200.93  18
   0  -2  11 31307.6 1969.96  10
   0  -2 -11 30670.7 2540.96   9
   0   2  11 29507.3 1938.20  10
   0   2 -11 25455.3 2417.80   9
   0  -2 -12 12572.4 1723.14  17
   0  -2 -12 16309.8 1907.00  18
   0  -2  12 16890.6 1456.43  16
   0   2 -12 14960.7 1985.81  17
   0   2  12 13622.2 1498.78   6
   0   2  12 15992.2 1403.90  16
   0  -2 -12 12462.9 1647.62  11
   0   2 -12 12883.8 1948.84  11
   0   2  12 16294.6 1507.39  10
   0  -2 -12 14858.3 1883.73   9
   0  -2  12 17298.8 1503.94  10
   0   2 -12 13880.9 1897.26   9
   0   2  13-133.326 380.659   6
   0   2 -13 455.164 454.916  11
   0   2  13-193.744 453.560  10
   0  -2  13 244.123 337.155  10
   0   2 -13 189.975 560.680   9
   0  -2 -13 882.714 703.497   9
   0  -2 -13-12.8140 467.675  17
   0  -2 -13-739.827 630.712  18
   0   2 -13 306.513 504.573  17
   0   2  14 8661.50 1223.16  10
   0  -2 -14 8999.26 1623.52   9
   0  -2  14 7162.82 1076.86  10
   0   2 -14 8040.30 1610.48   9
   0   2  14 6827.26 1076.91   4
   0   2 -14 5729.12 1410.39  11
   0   2 -14 6984.87 1455.90  17
   0  -2 -14 6817.65 1399.41  17
   0  -2 -14 4959.32 1126.86  18
   0  -4   0 999999. 23102.6   3
   0   4   0 940420. 23049.0  21
   0   4   0 925127. 22562.9  20
   0  -4   0 957031. 22747.1  19
   0  -4   0 920570. 22595.1  13
   0   4   0 956944. 22993.4  12
   0   4   0 993788. 21971.7  11
   0  -4   0 995500. 22261.8   5
   0  -4   1 226076. 6488.05   3
   0  -4  -1 236865. 6478.91   3
   0   4   1 212073. 6053.41  20
   0  -4  -1 224760. 6184.08  19
   0  -4   1 221836. 6212.97  19
   0   4  -1 211838. 6010.29  20
   0   4  -1 212414. 6425.61  21
   0  -4  -1 221583. 5264.86  17
   0   4   1 234102. 5550.78   6
   0  -4   1 221019. 5975.90  13
   0   4  -1 228370. 5367.75  14
   0  -4  -1 220059. 6219.44  13
   0   4  -1 219937. 5810.29  11
   0   4  -1 219410. 6406.15  12
   0   4   1 214111. 6347.14  12
   0   4   1 224860. 5234.74  11
   0  -4   1 225857. 6270.08  10
   0  -4  -1 217420. 5561.90   5
   0  -4   1 225810. 5940.17   5
   0  -4   1 221116. 5899.19   4
   0  -4  -2 25355.5 935.730   5
   0  -4   2 26009.2 1116.01   4
   0  -4   2 26160.1 1551.73   3
   0   4  -2 25770.2 1325.90  20
   0  -4  -2 26864.1 1407.66  19
   0   4   2 25638.1 1365.69  20
   0  -4   2 25416.7 1411.60  19
   0  -4  -2 24680.5 1363.16  18
   0  -4  -2 27205.0 994.009  17
   0   4  -2 26924.6 1138.34  17
   0   4   2 27991.3 1211.31   6
   0  -4   2 26709.8 1359.06   5
   0  -4  -2 27514.2 952.091  14
   0  -4  -2 25569.9 1489.22  13
   0   4  -2 24637.6 1061.78  14
   0  -4   2 25338.7 1196.38  13
   0   4   2 25635.3 1466.88  12
   0   4  -2 27099.3 1393.60  11
   0  -4   2 24805.0 1366.95  10
   0  -4  -2 24871.0 1105.49   9
   0  -4   3 153748. 3959.80   4
   0  -4  -3 145258. 3717.43   5
   0  -4   3 162744. 4929.09   3
   0   4  -3 165818. 4738.22   1
   0  -4  -3 154041. 4509.01   3
   0  -4   3 142326. 4516.93  19
   0  -4  -3 157050. 4573.84  19
   0   4   3 145204. 4556.97  20
   0   4  -3 139774. 4376.98  17
   0  -4  -3 148412. 4102.92  17
   0  -4  -3 147444. 4666.82  18
   0  -4   3 141965. 4518.64   5
   0   4   3 156100. 4387.35   6
   0   4  -3 146018. 4339.22  14
   0  -4   3 142057. 4040.17  13
   0  -4  -3 159582. 4956.88  13
   0  -4  -3 141613. 4116.89  14
   0   4   3 147063. 4659.57  12
   0  -4  -3 147806. 4204.55   9
   0  -4   3 146237. 4464.76  10
   0  -4   4 151226. 3960.64   4
   0  -4   4 152704. 4815.54   3
   0  -4  -4 152429. 4327.54   3
   0   4  -4 158996. 4894.01   1
   0  -4   4 143511. 4572.49  19
   0   4   4 150040. 4812.36  20
   0  -4  -4 163992. 4712.24  19
   0   4  -4 149732. 4779.64  17
   0  -4  -4 153366. 4955.59  18
   0  -4  -4 151401. 4439.71  17
   0  -4   4 149754. 4765.00   5
   0   4   4 156637. 4639.74   6
   0   4  -4 139490. 4674.97  14
   0  -4   4 149061. 4017.28  13
   0  -4  -4 142075. 4490.66  14
   0  -4  -4 155638. 5121.48  13
   0   4   4 153734. 4790.95  12
   0  -4   4 148476. 4563.31  10
   0  -4  -4 153326. 4489.41   9
   0  -4  -5 32611.4 1266.01   3
   0  -4   5 33494.1 1235.62   4
   0   4   5 34220.4 1393.83   1
   0  -4   5 33255.9 1739.95   3
   0   4  -5 37502.7 1975.22   1
   0  -4   5 32105.8 1638.64  19
   0  -4  -5 36888.2 1727.91  19
   0  -4  -5 34966.1 1775.83  17
   0  -4   5 33281.4 1767.72  16
   0  -4  -5 34683.4 2034.30  18
   0   4  -5 31930.4 1919.72  17
   0   4  -5 32632.2 1427.32  18
   0  -4   5 33040.9 1870.47   5
   0   4   5 34964.9 1779.57   6
   0  -4   5 33133.0 1195.76  13
   0  -4  -5 35645.8 2045.84  13
   0   4  -5 30731.4 1871.97  14
   0   4  -5 30947.2 1946.80  15
   0  -4  -5 31283.0 1749.25  14
   0   4   5 35472.2 1837.44  12
   0  -4  -5 35792.5 1765.91   9
   0  -4   5 33365.2 1675.61  10
   0   4  -5 32835.0 1982.56   9
   0  -4   6 1722.98 447.385   5
   0  -4   6 2211.11 282.062   4
   0   4   6 2021.08 334.544   1
   0  -4   6 1583.20 385.951   3
   0  -4   6 1588.14 354.966  19
   0  -4  -6 2115.84 389.879  19
   0   4  -6 1636.23 319.064  18
   0  -4  -6 1512.17 408.915  17
   0  -4  -6 2659.45 666.896  18
   0   4  -6 1986.60 534.971  17
   0   4   6 1516.59 393.508   6
   0  -4   6 2558.73 495.780  16
   0  -4  -6 2766.01 548.153  14
   0  -4  -6 1941.92 522.217  13
   0   4  -6 1774.15 513.898  15
   0   4  -6 1519.73 443.435  14
   0   4   6 2082.12 483.452  12
   0  -4   6 1848.25 416.130  10
   0  -4  -6 1629.03 437.468   9
   0   4  -6 1337.88 464.469   9
   0  -4   7 93280.5 3495.82   3
   0  -4   7 98909.5 3452.38  19
   0  -4  -7 100618. 4064.92  17
   0   4  -7 101644. 4372.12  17
   0  -4   7 102104. 3815.99  16
   0  -4  -7 96033.1 4314.11  18
   0   4   7 102694. 3862.41   6
   0  -4  -7 97368.3 4050.70  14
   0  -4  -7 103213. 4135.39  13
   0   4  -7 98072.2 4435.51  15
   0   4   7 109890. 3950.64  12
   0  -4   7 105304. 3743.57  10
   0  -4  -7 107476. 4066.19   9
   0   4  -7 100899. 4435.78   9
   0  -4   8 92268.4 3534.79   3
   0  -4   8 103765. 3552.63  19
   0  -4  -8 104622. 4398.12  17
   0  -4   8 108439. 4058.86  16
   0   4  -8 97236.3 4579.73  17
   0  -4  -8 105686. 4686.79  18
   0   4   8 105186. 4062.94   6
   0   4  -8 100089. 4747.35  15
   0  -4  -8 100894. 4209.85  13
   0   4   8 109610. 4152.45  12
   0  -4  -8 110382. 4367.38   9
   0   4  -8 104365. 4713.62   9
   0  -4   8 111929. 4003.95  10
   0  -4  -9 3827.46 822.635   9
   0   4  -9 2020.85 676.161   9
   0  -4   9 3141.73 608.707  10
   0  -4  -9 3712.98 811.061  17
   0   4  -9 2747.05 723.896  17
   0  -4  -9 3291.87 790.620  18
   0   4   9 2801.58 629.291   6
   0  -4   9 2159.98 547.592  16
   0  -4  -9 2513.83 610.836  13
   0   4  -9 3461.03 909.837  15
   0   4  -9 2548.73 827.586  11
   0   4   9 3377.00 691.656  12
   0  -4   9 2332.11 447.582   3
   0   4 -10 7562.79 1258.42  17
   0  -4  10 9815.63 1145.03  16
   0  -4 -10 8902.45 1387.12  18
   0  -4 -10 9774.32 1372.99  17
   0   4  10 8361.25 1071.28   6
   0   4 -10 8985.19 1463.65  15
   0   4  10 10664.8 1141.75  16
   0  -4 -10 10048.3 1231.48  13
   0   4 -10 8779.63 1495.84  11
   0   4  10 10237.9 1228.03  12
   0   4  10 9866.56 1152.78  10
   0  -4 -10 10826.4 1383.91   9
   0   4 -10 8981.28 1384.66   9
   0  -4  10 9455.80 1115.65  10
   0  -4 -11 22211.7 2105.75  17
   0  -4 -11 21480.2 2185.23  18
   0  -4  11 21000.3 1738.87  16
   0   4 -11 19316.5 2123.90  17
   0   4  11 20644.6 1777.91   6
   0   4  11 23201.8 1778.97  16
   0   4 -11 22955.0 2540.70  11
   0   4  11 21910.9 1861.99  12
   0  -4  11 23069.0 1813.83  10
   0   4 -11 21568.3 2264.95   9
   0  -4 -11 21931.0 2098.71   9
   0   4  11 22145.9 1827.57  10
   0  -4 -12 10585.4 1526.63  17
   0  -4 -12 10034.8 1562.34  18
   0   4 -12 10837.0 1717.24  17
   0   4  12 9239.30 1251.96   6
   0   4  12 10956.2 1259.95  16
   0   4 -12 9065.29 1680.68  11
   0  -4 -12 10014.6 1520.26   9
   0   4  12 14500.0 1510.60  10
   0  -4  12 11986.6 1350.17  10
   0   4 -12 9248.44 1557.89   9
   0   4 -13-553.849 625.453  17
   0  -4 -13-203.197 584.752  18
   0  -4 -13 540.376 585.090  17
   0   4  13-16.6085 391.433   6
   0   4 -13 3.66507 674.978  11
   0  -4 -13 228.865 484.026   9
   0   4 -13-294.411 558.475   9
   0  -4  13 1369.56 592.143  10
   0   4  13 724.266 527.367  10
   0  -6   0 352018. 9002.47   5
   0  -6   0 348509. 9962.96   3
   0  -6   0 330995. 9414.64  13
   0   6   0 363932. 10134.7  12
   0  -6   0 345649. 9601.25  19
   0   6   0 365612. 9563.17  20
   0   6   0 376892. 10245.8  21
   0   6  -1 92833.0 3347.77  20
   0  -6   1 89114.5 3419.16  19
   0   6  -1 92604.4 3843.31  21
   0  -6  -1 87255.8 3406.43  19
   0   6   1 89299.3 3361.77  20
   0  -6   1 89074.0 3094.79   5
   0  -6   1 89313.5 3668.97   3
   0  -6  -1 95483.9 3717.99   3
   0  -6   1 85365.0 3222.41  13
   0  -6  -1 83911.9 3339.60  13
   0   6  -1 90932.2 2880.35  11
   0   6  -1 97434.0 3809.54  12
   0   6   1 92315.4 3769.78  12
   0  -6  -1 92985.3 2820.46   5
   0  -6   2 8601.76 806.174   5
   0   6   2 8140.87 864.334  20
   0   6  -2 8642.18 861.373  20
   0  -6   2 10326.3 998.643  19
   0  -6  -2 9221.38 956.364  19
   0   6  -2 9025.56 1074.27  21
   0  -6  -2 8489.68 897.559  13
   0  -6   2 8874.17 790.949  13
   0   6  -2 10367.5 821.379  11
   0   6  -2 8831.89 1056.59  12
   0   6   2 10309.5 1130.12  12
   0  -6   2 8359.03 977.414   3
   0  -6  -2 10235.5 1029.77   3
   0  -6  -3 73953.0 3068.62   3
   0  -6   3 72651.2 3205.04   3
   0  -6   3 65626.8 2794.31   5
   0   6   3 76653.5 2527.97   6
   0  -6   3 64525.6 2877.72  19
   0   6  -3 71906.9 3420.42  21
   0   6  -3 69791.2 2908.33  20
   0  -6  -3 73133.9 3031.04  19
   0   6   3 72128.8 3045.06  20
   0  -6  -3 64830.1 3051.75  13
   0  -6   3 75047.8 2647.07  13
   0   6  -3 67362.2 2822.52  11
   0   6   3 74457.7 3314.29  12
   0  -6   3 71841.7 3102.08  10
   0  -6  -3 75092.9 2594.06   9
   0  -6   4 66764.1 3018.30   3
   0  -6  -4 71053.4 2876.39   3
   0  -6  -4 66588.0 2933.15  19
   0   6  -4 69314.2 2884.94  20
   0  -6   4 65255.6 2875.87  19
   0   6   4 70551.9 3083.84  20
   0   6   4 70044.3 2588.28   6
   0  -6   4 64113.3 2820.91   5
   0  -6   4 63040.0 2371.45  13
   0  -6  -4 68946.2 3191.98  13
   0   6  -4 62801.7 2926.68  11
   0   6   4 74547.1 3306.96  12
   0  -6  -4 71947.8 2614.57   9
   0  -6   4 70782.1 3013.37  10
   0  -6   5 17992.4 1434.02   3
   0  -6  -5 19236.1 1421.68  19
   0  -6   5 16921.6 1342.42  19
   0   6  -5 19424.7 1414.76  20
   0  -6  -5 20098.8 1582.38  18
   0  -6   5 18531.4 1422.89   5
   0   6   5 20176.3 1307.39   6
   0  -6  -5 18691.4 1631.23  13
   0   6  -5 19226.7 1594.36  11
   0   6   5 22000.7 1710.39  12
   0  -6  -5 20714.3 1315.80   9
   0   6  -5 19722.6 1599.83   9
   0  -6   5 21655.4 1541.26  10
   0  -6   6 2334.65 530.864   3
   0  -6   6 1123.87 383.543  19
   0  -6  -6 1758.85 446.648  19
   0  -6  -6 1683.60 537.157  18
   0   6   6 2396.71 477.091   6
   0  -6  -6 1492.59 426.420  13
   0   6  -6 2022.76 560.058  15
   0   6  -6 2100.19 642.044  11
   0   6   6 1596.39 618.446  12
   0  -6  -6 2203.68 473.857   9
   0  -6   6 1516.16 477.229  10
   0   6  -6 2192.47 557.188   9
   0  -6   7 50773.5 2578.04   3
   0  -6   7 56687.7 2637.22  19
   0  -6  -7 62275.1 3339.87  18
   0   6   7 59827.1 2738.63   6
   0   6  -7 56799.2 3395.73  15
   0  -6  -7 56841.3 3138.33  13
   0   6   7 65635.8 3247.59  12
   0   6  -7 58058.0 3400.01  11
   0  -6   7 66284.4 3018.63  10
   0  -6  -7 59574.0 2811.47   9
   0   6  -7 54756.1 3190.55   9
   0  -6   8 42573.5 2310.29   3
   0  -6   8 46862.9 2359.71  19
   0  -6  -8 45244.3 2983.92  18
   0   6   8 46545.8 2487.92   6
   0   6  -8 46354.2 3180.64  15
   0  -6  -8 50802.3 2969.38  13
   0   6  -8 47607.7 3242.19  11
   0   6   8 55524.4 3009.57  12
   0   6  -8 44777.2 2997.17   9
   0  -6   8 55200.6 2803.93  10
   0  -6  -8 52173.7 2755.26   9
   0  -6  -9 2330.30 630.001   9
   0   6  -9 995.355 471.013   9
   0  -6   9 3353.26 735.750  10
   0  -6  -9 2691.29 839.994  18
   0   6   9 1680.10 539.759   6
   0  -6  -9 2397.41 706.469  13
   0   6  -9 1568.38 630.265  15
   0   6   9 2542.88 749.454  12
   0   6  -9 1947.51 764.349  11
   0  -6   9 2381.77 527.380   3
   0  -6 -10 4685.10 977.290  18
   0   6  10 5281.44 856.833   6
   0  -6 -10 4602.88 946.554  13
   0   6 -10 5521.31 1182.28  15
   0   6 -10 4913.31 1250.12  11
   0   6  10 7269.87 1190.34  12
   0  -6 -10 7761.99 1184.11   9
   0   6 -10 5148.32 1062.21   9
   0  -6  10 4985.99 918.380  10
   0  -6 -11 13113.7 1780.00  18
   0   6  11 11688.8 1333.84   6
   0   6  11 13267.9 1572.15  12
   0   6 -11 12922.3 1966.88  11
   0   6  11 11611.1 1447.73  10
   0  -6 -11 12055.8 1547.03   9
   0  -6  11 11627.2 1425.76  10
   0   6  11 12844.0 1465.28  16
   0  -6 -11 9877.17 1378.12  13
   0   6  12 5064.02 918.085   6
   0   6  12 5348.91 995.839  16
   0   6  12 6046.11 1129.68  12
   0   6 -12 7115.70 1497.88  11
   0  -6 -12 5869.88 1205.47   9
   0   6  12 7877.64 1274.47  10
   0  -6  12 4918.25 964.356  10
   0  -8   0 110588. 4188.22  13
   0  -8   0 103976. 4218.71  19
   0   8   0 120221. 4289.41  20
   0   8   0 116459. 4822.23  12
   0  -8   0 105196. 4455.78   3
   0  -8  -1 35303.6 2114.95  13
   0  -8   1 32726.9 1970.42  13
   0   8  -1 39395.2 2155.41  20
   0  -8  -1 33407.2 2120.43  19
   0  -8   1 34055.7 2135.67  19
   0   8   1 39844.5 2210.29  20
   0   8  -1 40666.7 2645.71  21
   0   8  -1 39182.9 2547.74  12
   0   8   1 36137.0 2487.36  12
   0  -8   1 31700.3 2174.69   3
   0  -8  -1 32945.5 2201.24   3
   0  -8   2 3741.19 608.250  13
   0  -8  -2 3343.85 665.954  13
   0   8   2 3396.45 647.159  20
   0  -8   2 3842.92 703.165  19
   0   8  -2 3091.69 790.579  21
   0   8  -2 3806.48 661.097  20
   0  -8  -2 2847.16 627.523  19
   0   8  -2 3402.44 778.799  12
   0   8   2 3360.00 840.056  12
   0  -8  -2 3570.17 682.001   3
   0  -8   2 3099.79 703.554   3
   0  -8   3 26584.0 1623.82  13
   0  -8  -3 26346.0 1910.58  13
   0   8  -3 28946.8 1893.79  20
   0  -8  -3 25110.1 1829.18  19
   0   8   3 28967.4 1959.77  20
   0  -8   3 26853.3 1868.71  19
   0   8  -3 26105.8 2193.12  21
   0   8   3 27268.2 2184.76  12
   0   8  -3 28532.7 2222.52  12
   0  -8   3 23609.2 1901.44   3
   0  -8  -3 27053.9 1910.35   3
   0  -8   4 25489.0 1912.62   3
   0   8  -4 27660.6 1873.43  20
   0   8   4 28364.4 2017.58  20
   0  -8  -4 24449.5 1824.73  19
   0  -8   4 25996.5 1851.89  19
   0   8  -4 27607.1 2274.18  21
   0  -8  -4 25235.4 1934.72  13
   0   8  -4 28204.4 2243.20  12
   0   8   4 29983.1 2323.88  12
   0  -8  -4 26012.9 1820.75   3
   0   8  -5 7175.19 1180.86  21
   0   8  -5 9046.11 1067.93  20
   0  -8  -5 8504.76 1064.27  19
   0  -8   5 10001.6 1143.92  19
   0  -8  -5 8463.86 1155.03  13
   0  -8   5 8413.82 1074.59   3
   0   8  -5 10087.2 1343.47  12
   0   8   5 10176.6 1360.64  12
   0  -8   5 10098.0 1246.13  10
   0  -8  -6 974.393 399.583  19
   0   8  -6 2998.74 836.666  21
   0  -8   6 1265.69 486.745  19
   0  -8  -6 1411.48 548.324  13
   0  -8   6 2027.17 583.702   3
   0   8   6 1331.13 641.000  12
   0   8  -6 2350.41 621.885  11
   0  -8   6 2258.33 671.514  10
   0  -8   7 24056.3 1818.47  19
   0  -8  -7 24394.4 2084.77  13
   0  -8   7 20906.1 1688.73   3
   0   8  -7 24644.0 2080.24  11
   0   8   7 27197.5 2319.90  12
   0  -8   7 25093.4 2056.08  10
   0  -8   8 20234.1 1658.09  19
   0  -8  -8 20691.2 1973.71  13
   0  -8   8 21342.1 1704.23   3
   0   8  -8 19669.4 2016.59  11
   0   8   8 24625.1 2262.05  12
   0  -8   8 21767.6 1963.26  10
   0  -8  -9 1538.30 667.441  13
   0  -8   9 1411.93 487.976   3
   0   8  -9 748.167 572.624  11
   0   8   9 485.937 527.552  12
   0  -8 -10 2261.74 709.676  13
   0  -8  10 2725.65 655.800   3
   0   8 -10 1932.38 810.115  11
   0   8  10 3741.38 979.109  12
   0  -8  10 1931.63 665.680  10
   0 -10   0 35632.8 2456.45   3
   0  10   0 41068.3 2934.85  12
   0 -10   0 33064.1 2312.40  19
   0 -10   0 35662.1 2275.74  13
   0 -10  -1 8527.92 1157.34   3
   0 -10   1 10373.8 1298.68   3
   0  10   1 11462.2 1550.83  12
   0  10  -1 11929.6 1583.68  12
   0 -10   1 10101.2 1254.99  19
   0 -10  -1 10337.1 1272.61  19
   0 -10  -1 8875.69 1138.85  13
   0 -10   1 7683.42 1029.73  13
   0 -10  -2 607.140 454.738   3
   0 -10   2 641.155 542.407   3
   0  10   2 989.149 633.329  12
   0  10  -2 1217.83 733.769  12
   0 -10   2-1.64599 419.175  19
   0 -10  -2 476.442 410.024  19
   0 -10  -2 500.310 406.328  13
   0 -10   2 626.700 375.172  13
   0 -10   3 8071.54 1150.04   3
   0  10  -3 10811.4 1565.52  12
   0  10   3 8924.37 1419.97  12
   0  10  -3 9106.70 1431.25  21
   0 -10   3 8533.76 1163.88  19
   0 -10  -3 8626.22 1147.31  19
   0 -10  -3 9302.46 1245.25  13
   0 -10   4 9161.28 1248.57   3
   0  10  -4 9911.05 1480.96  12
   0  10   4 12391.8 1688.43  12
   0 -10   4 8839.40 1192.85  19
   0 -10  -4 9660.91 1264.37  19
   0 -10  -4 8630.90 1215.19  13
   0 -10   5 2468.32 703.187   3
   0  10  -5 2390.93 827.651  12
   0  10   5 3803.07 988.316  12
   0 -10   5 1670.44 563.059  19
   0  10  -5 1904.31 794.712  21
   0 -10  -5 1902.03 602.304  19
   0 -10  -5 1845.76 694.357  13
   0 -10   6 166.775 395.841   3
   0  10   6 1392.24 685.008  12
   0  10  -6 1378.22 750.859  12
   0  10  -6-162.387 512.363  21
   0 -10   6 235.793 369.538  19
   0 -10  -6 33.9810 384.428  13
   0 -10   7 8827.31 1206.98   3
   0 -10  -7 8810.33 1320.92  13
   0  10   7 8980.05 1501.10  12
   0  10  -7 9905.65 1565.94  12
   0  10  -7 11785.6 1755.38  21
   0 -10   7 9223.67 1247.02  19
   1   1 -14 7300.69 1514.82  11
   1  -1 -14 7538.90 1405.94  11
   1  -1 -14 7181.22 1485.61   9
  -1   1  14 8652.91 1185.74  10
   1   1 -14 7195.12 1505.40   9
  -1  -1  14 9302.35 1208.78  10
   1  -1 -14 9138.64 1618.94  17
   1   1 -14 8053.95 1594.50  17
  -1  -1  13-168.805 431.185  10
   1  -1 -13 231.732 651.199   9
  -1   1  13 715.919 452.828  10
   1   1 -13 240.597 530.949   9
   1  -1 -13 493.663 669.078  17
   1  -1 -13-85.0942 396.555  18
   1   1 -13 505.264 471.248  17
   1   1 -13 332.370 673.798  11
   1  -1 -13-338.253 585.694  11
  -1   1  13-103.814 387.255   4
   1  -1 -12 14229.2 1817.82   9
  -1   1  12 15715.8 1451.16  10
   1   1 -12 12153.1 1726.25   9
  -1  -1  12 14691.6 1375.09  10
   1  -1 -12 13476.5 1831.93  17
   1  -1 -12 11897.2 1557.91  18
   1   1 -12 11045.7 1702.62  17
  -1   1  12 12250.6 1416.16   6
  -1   1  12 15138.6 1282.31  16
   1   1 -12 12939.6 1868.47  11
   1  -1 -12 14648.5 1825.92  11
  -1   1  12 15378.3 1436.94   4
  -1   1  11 38329.6 2203.15  10
   1   1 -11 34440.7 2810.77   9
   1  -1 -11 35201.7 2782.40   9
  -1  -1  11 39522.3 2195.14  10
   1  -1 -11 32033.0 2756.90  17
  -1  -1  11 37032.8 2041.29  16
   1   1 -11 37433.1 2974.13  17
   1  -1 -11 34015.6 2570.80  18
  -1   1  11 32452.0 2252.19   6
  -1  -1  11 33102.2 2198.12   6
  -1   1  11 39500.3 2066.55  16
   1   1 -11 31492.7 2798.56  11
   1  -1 -11 31460.1 2616.63  11
  -1  -1  11 37963.7 2008.77   4
   1  -1 -10 40862.2 2772.08  18
   1  -1 -10 45176.7 3113.44  17
   1   1 -10 44455.6 3119.00  17
   1   1 -10 46613.4 2697.41  18
  -1  -1  10 52230.7 2357.30  16
  -1  -1  10 43238.1 2477.69   6
  -1   1  10 46340.9 2617.60   6
  -1   1  10 49612.8 2285.20  16
  -1  -1  10 50365.4 2419.15  10
   1   1 -10 44931.1 3078.67   9
  -1   1  10 50969.3 2454.80  10
   1  -1 -10 49216.1 3160.16   9
  -1  -1  10 51201.6 2320.56   4
   1  -1  -9-48.9560 374.380   9
  -1   1   9 33.7772 238.485  10
   1   1  -9 252.403 408.453   9
  -1  -1   9 129.922 271.195  10
   1  -1  -9 1131.83 506.267  18
   1   1  -9 729.194 402.291  18
   1  -1  -9 348.908 568.231  17
   1   1  -9 636.009 484.872  17
  -1   1   9 466.377 377.659   6
  -1  -1   9 183.997 273.197   6
  -1  -1   9 15.5957 168.931  16
  -1   1   9-24.8083 202.007  16
   1  -1  -9 56.1084 172.155   1
  -1  -1   9 235.618 209.266   4
   1   1  -8 135863. 5397.21   9
  -1   1   8 143674. 4529.04  10
  -1  -1   8 141466. 4463.60  10
   1  -1  -8 149715. 5511.79   9
   1   1  -8 128303. 4788.34  18
   1  -1  -8 134125. 5174.29  18
  -1  -1   8 137890. 4328.02  16
   1   1  -8 133020. 5498.48  17
   1  -1  -8 132784. 5477.87  17
  -1  -1   8 124161. 4626.54   6
  -1   1   8 132097. 4801.39   6
  -1   1   8 140380. 4324.35  16
   1  -1  -8 145322. 4442.73  13
  -1  -1   8 142305. 4372.99   4
   1  -1  -8 145618. 4394.03   1
   1   1  -8 149423. 4771.43   1
   1   1  -7 245486. 6862.49   1
  -1  -1   7 225179. 6066.05   3
  -1   1   7 234195. 6628.49   1
   1  -1  -7 255649. 6499.45   1
  -1  -1   7 246295. 6618.91  10
   1  -1  -7 239340. 7507.84   9
  -1   1   7 244684. 6642.51  10
   1   1  -7 237844. 7571.14   9
   1  -1  -7 237443. 7372.30  18
   1   1  -7 229691. 7696.76  17
   1   1  -7 237882. 7005.59  18
   1  -1  -7 235202. 7721.12  17
  -1   1   7 226493. 6960.18   6
  -1   1   7 238990. 5794.83   8
  -1  -1   7 212061. 6768.04   6
   1   1  -7 200020. 7529.81  14
   1  -1  -7 243371. 6625.33  13
   1  -1  -7 221483. 7669.34  14
  -1  -1   7 234780. 6434.57  16
  -1   1   7 237837. 6418.76  16
  -1   1   7 238297. 6663.38  12
  -1  -1   7 245735. 6501.39   4
  -1   1   6 70030.8 2540.22   1
   1   1  -6 76892.1 2287.92   2
  -1  -1   6 69296.3 2220.00   3
   1   1  -6 68831.5 2653.04   1
   1  -1  -6 71689.4 2390.73   1
  -1  -1   6 72206.0 2531.54  10
  -1   1   6 67002.7 2499.33  10
   1   1  -6 69389.7 3138.61   9
   1  -1  -6 72819.0 3092.52   9
   1  -1  -6 66775.6 2991.92  18
   1   1  -6 71359.1 2792.55  18
   1   1  -6 68138.8 3210.33  17
   1  -1  -6 69559.8 3229.71  17
  -1  -1   6 61759.8 2644.17   6
  -1   1   6 64618.6 2733.23   6
  -1   1   6 71235.0 2032.82   8
   1  -1  -6 64113.9 3158.80  14
   1   1  -6 78480.4 3242.47  15
   1   1  -6 71295.3 1936.82  13
  -1   1   6 68780.5 2378.51  16
   1  -1  -6 71897.8 2587.92  13
  -1  -1   6 69785.9 2936.50  14
   1   1  -6 59447.9 3117.90  14
  -1  -1   6 66659.4 2381.40  16
  -1   1   6 67376.6 2534.20  12
  -1  -1   6 67814.6 2412.92   4
  -1  -1   5 67503.6 2240.28   4
   1   1  -5 65486.7 2434.08   1
  -1   1   5 65603.7 2303.69   1
   1  -1  -5 67582.2 2176.05   1
   1   1  -5 71676.4 2062.94   2
  -1  -1   5 67798.4 2144.20   3
  -1  -1   5 63461.0 1920.39  19
   1  -1  -5 71649.4 3036.36  17
   1   1  -5 67786.6 2953.91  17
   1  -1  -5 64916.2 2783.47  18
   1   1  -5 70998.0 2531.09  18
  -1  -1   5 54248.0 2361.47   6
  -1   1   5 67897.3 1973.34   8
  -1   1   5 62874.3 2539.78   6
   1  -1  -5 69515.3 2422.85  13
   1   1  -5 57468.0 2860.37  14
   1   1  -5 69915.9 2863.05  15
  -1  -1   5 69357.4 2767.12  14
   1   1  -5 70858.1 1808.79  13
  -1  -1   5 64140.0 2189.12  16
   1  -1  -5 60141.6 2852.82  14
  -1   1   5 79954.9 3031.78  14
  -1   1   5 65871.7 2346.14  12
   1  -1  -5 64939.2 2734.04   9
  -1  -1   5 66903.7 2306.25  10
   1   1  -5 63774.6 2806.60   9
  -1   1   5 63025.2 2288.09  10
  -1  -1   4 391617. 9258.54   4
  -1   1   4 385015. 9331.23   1
   1  -1  -4 385687. 9169.42   1
   1   1  -4 411699. 9018.71   2
  -1  -1   4 399394. 9285.91   3
   1   1  -4 375929. 9536.53   1
   1  -1  -4 415311. 8886.95  19
  -1  -1   4 401299. 9052.51  19
   1  -1  -4 407530. 10043.1  18
   1   1  -4 359792. 10039.5  17
   1  -1  -4 393110. 10182.5  17
  -1  -1   4 383285. 9239.04  16
   1   1  -4 407337. 9569.38  18
  -1   1   4 355957. 9626.79   6
  -1  -1   4 352274. 9533.81   6
  -1   1   4 405743. 9132.59   8
   1  -1  -4 346172. 10015.0  14
   1  -1  -4 399748. 9543.47  13
  -1  -1   4 378153. 9927.58  14
   1   1  -4 347754. 10070.9  14
   1   1  -4 403008. 10055.7  15
  -1   1   4 436232. 10227.1  14
  -1   1   4 380543. 9420.81  12
  -1  -1   4 388984. 9361.69  10
   1   1  -4 375516. 10005.7   9
   1  -1  -4 382843. 9807.97   9
  -1  -1   3 463094. 10926.1   4
   1  -1  -3 439792. 10819.3   1
   1   1  -3 437487. 11178.3   1
  -1  -1   3 466640. 11088.4   3
  -1   1   3 432895. 10908.0   1
   1  -1  -3 514737. 10739.8  19
  -1  -1   3 472134. 10901.8  19
  -1  -1   3 452539. 10940.7  16
   1   1  -3 443033. 11576.5  17
   1  -1  -3 483901. 11501.3  18
   1   1  -3 473251. 11093.2  18
   1  -1  -3 495992. 11647.7  17
  -1   1   3 417173. 11243.7   6
  -1   1   3 471230. 11012.5   8
  -1  -1   3 437858. 11170.3   6
  -1  -1   3 510717. 11656.0  14
   1   1  -3 457660. 11664.6  14
   1   1  -3 452958. 11475.3  15
  -1   1   3 470747. 11617.6  14
   1  -1  -3 442631. 11569.9  14
   1  -1  -3 492692. 11273.3  13
  -1   1   3 454294. 11085.5  12
   1   1  -3 461651. 11552.3   9
   1  -1  -3 458081. 11307.9   9
  -1  -1   3 458768. 11032.3  10
  -1  -1   2 235684. 5740.37   4
  -1  -1   2 241044. 5991.20   3
  -1   1   2 223609. 5646.74   1
   1  -1  -2 220598. 5601.96   1
   1  -1  -2 261967. 5712.77  19
  -1  -1   2 243488. 5816.05  19
  -1  -1   2 234881. 5797.01  16
   1  -1  -2 258936. 6114.75  17
   1   1  -2 253883. 6186.60  17
   1  -1  -2 246204. 6100.47  18
   1   1  -2 238386. 5718.21  18
  -1  -1   2 216543. 5830.72   6
  -1   1   2 236739. 6025.71   6
  -1  -1   2 251969. 6153.27  14
   1  -1  -2 243689. 6110.51  14
  -1   1   2 257838. 6213.23  14
   1  -1  -2 253775. 6033.57  13
   1   1  -2 242569. 6152.62  14
   1   1  -2 239915. 6082.20  15
  -1   1   2 226321. 5864.73  12
   1   1  -2 224356. 6088.24   9
  -1  -1   2 228731. 5816.34  10
   1  -1  -2 236022. 5980.78   9
   1  -1  -1 207274. 4994.54   3
  -1  -1   1 206927. 4932.55   4
  -1  -1   1 220045. 5200.01   3
  -1  -1   1 220718. 5060.24  19
  -1   1   1 205732. 4983.35  20
   1  -1  -1 215569. 5011.26  19
   1  -1  -1 218909. 5158.27  18
   1   1  -1 230390. 4998.25  17
   1  -1  -1 214590. 5011.32  17
  -1   1   1 199838. 4972.37   6
   1  -1  -1 223056. 4981.98  14
  -1  -1   1 222109. 5068.31  14
   1   1  -1 219429. 5072.95  14
   1  -1  -1 215362. 5136.25  13
  -1   1   1 218616. 4992.08  14
  -1  -1   1 223094. 4912.28  13
  -1   1   1 200047. 5014.63  12
   1   1  -1 224461. 5176.96  11
   1   1  -1 193744. 5004.18   9
   1  -1  -1 211198. 5045.97   9
  -1  -1   1 198140. 4992.54  10
  -1  -1   0 555680. 13567.1   2
  -1  -1   0 613107. 13627.2   3
   1  -1   0 588907. 13718.4   3
  -1   1   0 584209. 13598.2  21
   1   1   0 593781. 13622.6  20
   1   1   0 577244. 13622.5  21
   1  -1   0 583257. 13625.3  19
   1  -1   0 591695. 13568.8  13
   1   1   0 584831. 13648.8  12
  -1   1   0 578987. 13554.5  12
   1  -1   0 581301. 13491.0   5
  -1  -1   0 605845. 13570.6   4
   1  -1   1 188569. 4750.14   5
   1  -1   1 190912. 4921.73   3
  -1   1  -1 176707. 4741.35   1
   1  -1   1 176324. 4703.91   1
  -1  -1  -1 206431. 4624.55   3
  -1  -1  -1 190186. 4866.29   2
   1   1   1 189172. 4735.67  20
   1  -1   1 193060. 4756.27  19
  -1  -1  -1 194285. 4852.67  18
   1  -1   1 192310. 4708.37  16
   1  -1   1 202440. 4620.16   6
   1   1   1 193367. 4727.96   6
   1  -1   1 190862. 4576.81  13
   1   1   1 188915. 4689.69  12
   1  -1   1 194901. 4636.97  10
  -1  -1  -1 192693. 4642.19   9
   1  -1   2 47543.3 1621.61   5
   1  -1   2 45003.8 1588.44   1
   1   1   2 42885.6 1368.42   1
  -1  -1  -2 49049.3 1719.01   2
  -1   1  -2 46838.1 1625.97   1
  -1   1  -2 46140.6 1353.29   2
   1  -1   2 47218.5 1668.27   3
   1   1   2 49963.7 1600.28  20
   1  -1   2 50072.7 1495.14  19
  -1  -1  -2 48012.4 1740.45  18
   1  -1   2 45853.3 1477.85  16
   1  -1   2 48189.7 1579.74   6
   1   1   2 50713.8 1692.68   6
  -1   1  -2 44391.5 1898.87  14
   1   1   2 47678.3 1480.36  12
  -1  -1  -2 49254.4 1648.61   9
   1  -1   2 46762.8 1429.49  10
   1   1   3 104437. 2961.10   1
   1  -1   3 101201. 3202.04   1
  -1   1  -3 105608. 3244.65   1
  -1  -1  -3 118624. 3434.68   2
   1  -1   3 118294. 3273.27   3
  -1   1  -3 107917. 2868.95   2
   1  -1   3 109588. 2962.11  19
  -1   1  -3 113463. 3142.11  18
  -1  -1  -3 113463. 3515.52  18
   1   1   3 112971. 3395.09   6
   1  -1   3 110766. 3278.68   5
   1  -1   3 106279. 3250.66   6
  -1  -1  -3 114921. 3767.38  14
  -1   1  -3 108375. 3385.25  15
  -1   1  -3 106101. 3810.76  14
   1  -1   3 108570. 3066.50  16
   1   1   3 113766. 3083.65  12
   1  -1   3 109529. 3023.45  10
  -1  -1  -3 107709. 3371.93   9
   1  -1   4 206906. 5930.73   1
  -1   1  -4 225571. 5551.11   2
   1   1   4 208890. 5664.98   1
  -1  -1  -4 239278. 6238.80   2
  -1   1  -4 216955. 5972.34   1
  -1  -1  -4 215284. 5653.03   1
   1  -1   4 248101. 5876.58   3
   1  -1   4 216908. 5508.13  19
  -1  -1  -4 227773. 6632.05  17
  -1   1  -4 221947. 5941.98  18
  -1  -1  -4 227520. 6342.49  18
   1   1   4 207632. 6111.64   6
   1  -1   4 220549. 6046.99   6
   1  -1   4 215569. 6000.47   5
  -1   1  -4 220664. 6272.05  15
  -1  -1  -4 214284. 6695.93  14
  -1   1  -4 203532. 6713.16  14
   1  -1   4 218750. 5733.55  16
   1   1   4 217686. 5736.46  12
  -1   1  -4 215822. 6358.16   9
  -1  -1  -4 222353. 6229.79   9
   1  -1   4 218063. 5695.64  10
   1  -1   5 151819. 4389.26  10
   1   1   5 147672. 4384.40  10
  -1   1  -5 151523. 5130.05   9
  -1  -1  -5 153782. 4995.75   9
  -1   1  -5 149986. 4723.83  18
  -1  -1  -5 164583. 5154.85  18
  -1  -1  -5 156400. 5359.14  17
   1  -1   5 155088. 4712.56   5
   1   1   5 158099. 4919.50   6
   1  -1   5 151637. 4714.31   6
  -1   1  -5 160171. 4117.78   7
   1   1   5 162117. 3961.52   8
   1  -1   5 153436. 4414.39  16
  -1   1  -5 153996. 5058.26  15
  -1   1  -5 148348. 5484.66  14
  -1  -1  -5 155662. 5526.60  14
   1   1   5 151916. 4390.02  16
   1   1   5 151306. 4437.86  12
   1  -1   5 170420. 4396.06   3
   1   1   5 149913. 4425.42   1
  -1  -1  -5 153435. 4372.66   1
  -1   1  -5 156294. 4294.18   2
  -1   1  -5 158992. 4687.71   1
   1  -1   5 153889. 4660.87   1
  -1  -1  -5 162406. 4868.57   2
  -1  -1  -6 334.396 257.660   9
   1  -1   6 67.7450 152.318  10
  -1   1  -6 327.879 340.394   9
   1   1   6 57.7539 154.335  10
  -1   1  -6 1983.92 487.401  17
  -1   1  -6 182.184 227.661  18
  -1  -1  -6 1029.19 422.585  17
  -1  -1  -6 84.1132 256.935  18
  -1   1  -6 100.684 87.1283   7
   1  -1   6 447.319 248.437   6
   1   1   6 362.196 283.640   6
   1   1   6 392.117 91.1167   8
   1  -1   6 494.655 218.437  16
   1   1   6 275.354 180.249  16
  -1   1  -6 625.084 345.218  15
  -1   1  -6 216.667 201.385  14
  -1  -1  -6 197.775 249.344  14
  -1  -1  -6 459.390 207.353   1
   1   1   6 152.509 157.165   1
   1  -1   6 117.136 118.874   3
  -1   1  -6 1785.46 397.618   1
  -1  -1  -6 1294.38 386.553   2
  -1   1  -6 1698.25 308.180   2
   1  -1   6 681.059 240.760   1
  -1   1  -7 191054. 5321.39   2
  -1  -1  -7 178586. 5753.70   2
  -1   1  -7 189139. 5668.28   1
   1   1   7 187301. 5512.76   1
  -1  -1  -7 188823. 5389.99   1
  -1   1  -7 171997. 6261.65   9
  -1  -1  -7 189986. 6266.70   9
   1   1   7 180851. 5332.03  10
   1  -1   7 183638. 5334.46  10
  -1   1  -7 175137. 6452.14  17
  -1   1  -7 182737. 5902.00  18
  -1  -1  -7 181405. 6462.22  17
  -1  -1  -7 181056. 6123.37  18
   1   1   7 178766. 5785.99   6
   1  -1   7 170400. 5574.40   6
  -1   1  -7 188645. 4693.17   7
  -1  -1  -7 163362. 6424.68  14
   1  -1   7 180949. 5311.28  16
  -1   1  -7 154171. 6367.84  14
   1   1   7 179990. 5290.44  16
  -1   1  -7 190277. 6332.84  15
   1   1   7 180792. 5378.77  12
   1  -1   7 179813. 4848.02   3
  -1   1  -8 99235.3 4592.24  17
  -1  -1  -8 97373.7 4216.91  18
  -1   1  -8 97819.9 4067.67  18
  -1  -1  -8 96337.4 4507.26  17
   1  -1   8 91971.5 3747.34   6
   1   1   8 100785. 3967.05   6
   1   1   8 101594. 3548.19  16
  -1  -1  -8 104590. 3700.58  13
   1  -1   8 105444. 3600.71  16
  -1   1  -8 108709. 4547.95  15
  -1   1  -8 100364. 3479.08   2
  -1  -1  -8 108725. 3672.71   1
   1   1   8 108206. 3793.01   1
  -1  -1  -8 101919. 3980.10   2
  -1  -1  -8 108103. 4488.89   9
   1  -1   8 103668. 3572.61  10
  -1   1  -8 105495. 4568.06   9
   1   1   8 104044. 3604.45  10
  -1  -1  -9 13064.7 1436.23  18
  -1  -1  -9 13696.7 1622.49  17
  -1   1  -9 15084.4 1694.91  17
   1  -1   9 16409.4 1205.07  16
  -1   1  -9 14657.1 1417.42  18
   1  -1   9 12813.0 1214.55   6
   1   1   9 15943.2 1400.17   6
   1   1   9 14992.2 1158.73  16
  -1   1  -9 11828.1 1436.91   9
   1   1   9 16308.1 1232.53  10
  -1  -1  -9 13892.5 1545.72   9
   1  -1   9 13356.1 1104.05  10
   1  -1   9 15195.1 1088.42   4
  -1   1 -10 1560.63 692.431  17
  -1   1 -10 2296.19 611.543  18
  -1  -1 -10 816.841 477.522  18
  -1  -1 -10 1545.35 685.021  17
   1  -1  10 1331.52 478.396   6
   1   1  10 1633.64 534.330   6
   1   1  10 1884.45 478.674  16
   1  -1  10 423.172 253.678  16
  -1   1 -10 1176.82 605.696   9
   1   1  10 2037.73 474.768  10
   1  -1  10 709.904 319.730  10
  -1  -1 -10 1719.02 677.380   9
   1  -1  10 1730.99 392.475   4
   1   1  11 28517.5 1821.03  16
   1  -1  11 25595.3 1909.48   6
   1   1  11 25738.2 1979.47   6
   1  -1  11 28331.8 1822.03  16
  -1  -1 -11 25748.9 2428.43  17
  -1  -1 -11 21795.7 2095.91  18
  -1   1 -11 24129.7 2045.50  18
  -1   1 -11 24913.2 2440.67  17
   1   1  11 29579.3 1888.18  10
  -1  -1 -11 29288.4 2512.48   9
   1  -1  11 29580.1 1857.35  10
  -1   1 -11 25089.1 2381.80   9
   1   1  12 28881.4 1911.47  16
   1   1  12 23848.4 1997.32   6
   1  -1  12 27059.3 2044.60   6
  -1  -1 -12 21441.2 2139.91  18
  -1   1 -12 24408.2 2499.76  17
  -1  -1 -12 23120.9 2428.74  17
   1  -1  12 28028.1 1901.16  16
   1   1  12 28799.5 1972.66  10
  -1   1 -12 21565.8 2361.97   9
   1  -1  12 28630.7 1916.34  10
  -1  -1 -12 30715.6 2697.59   9
  -1   1 -13 3688.01 1079.35   9
   1   1  13 4930.71 887.192  10
  -1  -1 -13 4306.87 1111.61   9
   1  -1  13 4444.21 830.698  10
  -1  -1 -13 3054.32 1010.52  17
  -1   1 -13 3100.30 1031.42  17
  -1  -1 -13 3518.19 983.294  18
   1  -1  13 5556.88 966.146   6
   1   1  13 3610.64 877.076   6
   1   1  13 4374.46 792.001  16
  -1   1 -13 3520.17 1094.69  11
  -1  -1 -13 2619.07 898.445  11
   1   1  13 3170.99 683.584   4
   1   1  14 2979.61 806.345   6
  -1  -1 -14 2952.12 922.075  11
  -1   1 -14 3029.81 1081.52  11
   1  -1  14 3536.73 813.301  10
  -1   1 -14 2747.54 1026.78   9
  -1  -1 -14 4737.57 1321.71   9
   1   1  14 4427.87 882.853  10
  -1   1 -14 3190.97 1037.10  17
  -1  -1 -14 4966.50 1249.86  17
   1   3 -14 7541.34 1571.38   9
  -1   3  14 8185.96 1247.76   4
   1  -3 -14 3767.54 1114.95  18
   1  -3 -14 8391.27 1506.42  17
   1   3 -14 7186.98 1463.37  17
   1   3 -13-172.592 508.710  17
   1  -3 -13 614.526 487.330  18
   1  -3 -13 197.002 556.165  17
   1   3 -13-300.741 639.123  11
   1   3 -13 1039.69 733.921   9
   1  -3 -13 1171.60 823.992   9
  -1   3  13 144.185 404.181  10
  -1  -3  13 128.697 343.899  10
   1   3 -12 9041.16 1519.07  17
   1  -3 -12 10816.8 1567.18  17
   1  -3 -12 13157.5 1748.41  18
  -1   3  12 10273.5 1299.87   6
  -1   3  12 10884.0 1161.33  16
   1   3 -12 7675.54 1520.53  11
  -1   3  12 10396.3 1248.76  10
   1   3 -12 8934.12 1560.69   9
   1  -3 -12 9763.96 1487.76   9
  -1  -3  12 11368.1 1259.38  10
   1  -3 -11 25382.6 2335.99  18
   1  -3 -11 24511.7 2304.75  17
  -1  -3  11 26532.5 1858.18  16
   1   3 -11 27306.1 2561.69  17
  -1   3  11 30282.8 2139.72   6
  -1   3  11 28810.2 1857.52  16
   1   3 -11 20962.9 2441.51  11
  -1  -3  11 30994.2 2005.85  10
   1   3 -11 24034.0 2399.27   9
   1  -3 -11 27653.2 2383.73   9
  -1   3  11 28776.5 2000.17  10
   1   3 -10 33447.2 2694.28  17
   1  -3 -10 35487.0 2666.95  17
   1  -3 -10 36238.8 2710.35  18
  -1  -3  10 41188.8 2256.96  16
  -1   3  10 39513.4 2404.28   6
  -1   3  10 42264.6 2219.48  16
   1  -3 -10 35581.8 2406.30  11
  -1   3  10 40874.3 2399.33  12
   1   3 -10 32318.6 2891.88  11
   1  -3 -10 42029.3 2797.79   9
  -1   3  10 39691.3 2284.81  10
  -1  -3  10 42710.7 2326.86  10
   1   3 -10 37673.7 2850.71   9
   1  -3  -9 1046.37 594.491  17
   1  -3  -9 664.825 416.321  18
   1   3  -9-397.070 433.692  17
  -1   3   9 155.389 309.237   6
   1  -3  -9 193.939 260.409  13
  -1  -3   9 672.725 324.419  16
  -1   3   9 165.767 238.876  16
  -1   3   9-163.762 319.688  12
   1   3  -9 75.0985 502.801  11
  -1   3   9 289.095 335.568  10
  -1  -3   9-228.253 304.102  10
   1   3  -9 199.087 341.153   9
  -1  -3   8 96003.5 3069.22   4
  -1  -3   8 83872.0 3099.75   3
  -1  -3   8 95739.3 3065.94  19
  -1  -3   8 93480.4 3543.48  16
   1  -3  -8 92357.3 4186.50  17
   1  -3  -8 96460.8 4348.39  18
   1   3  -8 85842.5 4203.20  17
  -1   3   8 95943.4 3794.80   6
   1  -3  -8 100237. 3881.54  13
   1   3  -8 88748.0 4271.25  15
  -1   3   8 95361.6 3682.42  12
  -1  -3   8 98687.4 3582.49  10
   1  -3  -8 89497.8 3978.06   9
   1   3  -8 86105.1 4148.83   9
  -1  -3   7 171859. 4825.82   4
  -1   3   7 177441. 5078.56   1
  -1  -3   7 162471. 5052.76   3
  -1  -3   7 170054. 4921.03  19
   1   3  -7 173465. 6210.16  17
  -1  -3   7 173803. 5361.14  16
   1  -3  -7 179457. 6157.82  17
   1  -3  -7 168674. 6187.11  18
   1   3  -7 178443. 5240.96  18
  -1   3   7 183725. 5162.71   8
  -1   3   7 180319. 5674.45   6
   1  -3  -7 183962. 5802.78  13
   1  -3  -7 165127. 5961.90  14
   1   3  -7 170507. 6204.39  15
  -1   3   7 180501. 5534.10  12
  -1  -3   7 178299. 5370.05  10
   1  -3  -7 177286. 5886.82   9
   1   3  -7 169788. 6139.03   9
  -1  -3   6 53110.5 1842.29   4
  -1  -3   6 48103.4 2072.77   3
  -1   3   6 50113.1 1907.29   1
   1   3  -6 58406.0 2522.80   1
   1  -3  -6 54705.3 1920.03  19
  -1  -3   6 49577.1 1977.84  19
   1   3  -6 51446.2 2680.46  17
   1  -3  -6 51801.4 2716.24  18
   1  -3  -6 50280.2 2563.13  17
   1   3  -6 55910.0 2108.98  18
  -1  -3   6 50063.9 2167.41  16
  -1   3   6 54245.4 2405.73   6
   1  -3  -6 47846.5 2501.29  14
   1   3  -6 40969.0 2511.38  14
   1   3  -6 50289.5 2667.49  15
  -1  -3   6 47555.4 2341.22  14
   1  -3  -6 50741.3 2449.69  13
  -1   3   6 51580.1 2267.07  12
  -1  -3   6 51929.6 2177.28  10
   1   3  -6 51932.4 2708.05   9
   1  -3  -6 50801.0 2425.87   9
  -1  -3   5 54220.6 1779.42   4
  -1  -3   5 53353.8 2154.62   3
  -1   3   5 53136.6 1822.23   1
   1   3  -5 52154.1 1492.83   2
   1   3  -5 56555.3 2391.36   1
   1  -3  -5 59372.1 2029.13  19
  -1  -3   5 54712.7 2056.12  19
  -1  -3   5 49436.1 2098.57  16
   1   3  -5 52196.3 2502.17  17
   1  -3  -5 56913.6 2476.21  17
   1   3  -5 51458.7 1909.87  18
   1  -3  -5 54046.6 2594.70  18
  -1   3   5 50486.7 2229.07   6
  -1  -3   5 54791.0 2361.46  14
   1  -3  -5 49386.6 2353.77  14
   1   3  -5 51748.1 2562.93  14
   1   3  -5 50764.5 2506.89  15
   1  -3  -5 53946.0 2450.67  13
  -1   3   5 54642.0 2224.07  12
   1   3  -5 51399.0 2520.96   9
   1  -3  -5 53427.5 2294.24   9
  -1  -3   5 53821.1 2138.82  10
  -1  -3   4 213605. 5356.85   4
   1   3  -4 219310. 6096.96   1
  -1   3   4 208082. 5307.00   1
  -1  -3   4 209155. 5959.93   3
   1  -3  -4 232538. 5804.45  19
  -1  -3   4 208241. 5762.37  19
   1   3  -4 198542. 6108.70  17
   1  -3  -4 222761. 6333.94  18
  -1  -3   4 209727. 5848.93  16
   1  -3  -4 213660. 5957.50  17
   1   3  -4 213545. 5351.46  18
  -1  -3   4 215375. 6118.05   5
  -1   3   4 204012. 5894.06   6
   1   3  -4 214543. 6225.40  15
   1   3  -4 213483. 6271.49  14
  -1  -3   4 214538. 5149.46  13
   1  -3  -4 229520. 6355.87  13
   1  -3  -4 208420. 6000.84  14
  -1  -3   4 191979. 5951.00  14
  -1   3   4 214414. 5939.60  12
  -1  -3   4 213568. 5790.55  10
   1  -3  -4 215932. 5920.42   9
   1   3  -4 202051. 6194.59   9
   1  -3  -3 345432. 8666.98   3
  -1  -3   3 336328. 8374.49   4
  -1  -3   3 357699. 9164.59   3
   1  -3  -3 370582. 8874.03  19
  -1   3   3 337297. 8888.51  20
  -1  -3   3 353019. 8885.58  19
   1  -3  -3 347000. 9141.37  18
   1   3  -3 347585. 8933.32  17
   1  -3  -3 346639. 8722.67  17
  -1   3   3 327109. 8752.18   6
  -1  -3   3 344109. 9052.38   5
  -1  -3   3 350918. 8354.27  13
   1  -3  -3 365882. 9300.50  13
   1  -3  -3 360825. 8754.41  14
  -1  -3   3 335257. 8927.64  14
   1   3  -3 360131. 9024.44  14
  -1   3   3 339426. 8919.20  12
   1   3  -3 351927. 9320.41  11
  -1  -3   3 345470. 8783.39  10
   1   3  -3 341210. 9008.73   9
   1  -3  -3 354941. 8807.78   9
   1  -3  -2 127212. 3368.55   5
  -1  -3   2 131918. 3529.65   4
  -1  -3   2 137006. 4178.72   3
   1  -3  -2 134211. 3945.03   3
  -1  -3   2 129795. 3849.71  19
  -1   3   2 129257. 3773.54  20
   1  -3  -2 135696. 3877.87  19
   1  -3  -2 133890. 3540.22  17
   1  -3  -2 127555. 3949.97  18
   1   3  -2 145773. 3615.80  17
  -1  -3   2 132198. 3893.86   5
  -1   3   2 131894. 3647.95   6
  -1  -3   2 137179. 3786.97  14
  -1  -3   2 132581. 3578.86  13
   1  -3  -2 136352. 3413.18  14
   1  -3  -2 136730. 4092.30  13
   1   3  -2 132104. 3661.71  14
  -1   3   2 125672. 3898.05  12
   1   3  -2 132031. 3971.02  11
  -1  -3   2 128998. 3831.99  10
   1  -3  -2 125356. 3635.72   9
   1  -3  -1 142018. 3741.49   5
  -1  -3   1 143407. 3922.56   4
  -1  -3   1 149581. 4396.58   3
   1  -3  -1 146863. 4375.91   3
  -1   3   1 137445. 3935.98  20
  -1  -3   1 147832. 4141.51  19
   1   3  -1 139206. 4095.44  20
   1  -3  -1 147431. 4176.72  19
   1  -3  -1 140977. 3601.69  17
  -1   3   1 148970. 3627.67   6
  -1  -3   1 150393. 3998.33   5
   1  -3  -1 149138. 4241.94  13
  -1  -3   1 149388. 3733.65  14
  -1  -3   1 147580. 3972.59  13
   1   3  -1 147442. 3691.41  14
   1   3  -1 151583. 3974.86  11
  -1   3   1 139093. 4200.18  12
  -1  -3   1 139227. 4128.97  10
   1  -3  -1 140420. 3843.22   9
   1  -3   0 348356. 8808.45   3
  -1  -3   0 336387. 8610.72   3
  -1  -3   0 327148. 8369.87  19
  -1   3   0 322707. 8166.01  20
   1  -3   0 334917. 8493.15  19
  -1   3   0 333305. 8608.68  21
   1   3   0 325308. 8395.52  20
   1   3   0 328527. 8613.49  21
   1   3   0 328675. 7822.75   6
   1  -3   0 335798. 8401.88  13
  -1  -3   0 335360. 8373.85  13
  -1  -3   0 340309. 7737.64  14
  -1   3   0 316952. 8522.57  12
   1   3   0 327783. 7895.06  11
  -1   3   0 360954. 7917.58  11
   1   3   0 320184. 8600.93  12
  -1  -3   0 362496. 8021.12   5
   1  -3   0 319776. 8095.76   5
  -1  -3   0 335560. 8373.06   4
  -1  -3  -1 226933. 5047.85   5
   1  -3   1 204397. 5528.60   5
  -1  -3  -1 218254. 5794.06   3
   1  -3   1 204783. 6006.98   3
   1   3   1 206005. 5662.30  20
   1  -3   1 218946. 5791.64  19
  -1  -3  -1 215290. 5661.59  19
  -1   3  -1 208888. 5426.80  20
  -1  -3  -1 216633. 5033.31  17
  -1  -3  -1 212635. 5593.67  18
   1   3   1 216907. 5339.78   6
   1  -3   1 209512. 5536.63  13
  -1   3  -1 212768. 5212.74  14
  -1  -3  -1 205871. 5772.90  13
   1   3   1 215897. 5081.31  11
   1   3   1 201529. 5780.36  12
   1  -3   1 210220. 5694.74  10
  -1  -3  -1 208944. 5166.98   9
  -1  -3  -2 8439.68 324.184   5
   1  -3   2 8331.31 442.273   4
   1  -3   2 8063.75 658.952   5
   1  -3   2 7410.80 751.220   3
  -1   3  -2 8407.35 663.979   1
  -1  -3  -2 8894.71 671.430   3
  -1  -3  -2 8728.57 647.357  19
   1   3   2 7271.88 639.467  20
   1  -3   2 7731.47 662.035  19
  -1  -3  -2 9148.79 557.562  17
  -1  -3  -2 9255.52 719.400  18
   1   3   2 8865.91 634.105   6
  -1   3  -2 7661.16 624.260  14
   1  -3   2 8544.89 562.734  13
  -1  -3  -2 7906.60 745.861  13
   1   3   2 7489.73 668.154  12
   1  -3   2 7514.72 615.481  10
  -1  -3  -2 7318.81 493.992   9
   1  -3   3 56675.9 2193.27   5
   1  -3   3 54326.2 1557.51   4
  -1  -3  -3 56965.5 1970.99   3
  -1   3  -3 57315.0 2205.16   1
   1  -3   3 60836.1 2420.42   3
   1  -3   3 54698.0 2122.94  19
   1   3   3 54787.1 2171.82  20
  -1  -3  -3 57256.1 2034.13  19
  -1  -3  -3 55872.7 2123.71  17
   1  -3   3 50470.3 2072.42  16
  -1  -3  -3 55678.7 2281.13  18
   1   3   3 55324.0 2131.61   6
   1  -3   3 53491.1 1749.22   6
   1  -3   3 55421.3 1773.15  13
  -1  -3  -3 56304.1 2249.38  14
  -1   3  -3 47732.6 2200.04  14
  -1  -3  -3 61057.2 2466.31  13
   1   3   3 54846.2 2120.88  12
   1  -3   3 55065.6 2006.98  10
  -1  -3  -3 56579.5 1974.91   9
   1  -3   4 175481. 4258.43   4
   1  -3   4 177677. 5230.21   3
  -1   3  -4 184755. 5263.00   1
   1   3   4 165155. 4565.97   1
  -1  -3  -4 171046. 4496.14   3
   1   3   4 175031. 5205.60  20
  -1  -3  -4 176553. 4836.07  19
   1  -3   4 178342. 4982.61  19
   1  -3   4 172761. 5015.60  16
  -1   3  -4 169383. 4669.21  18
  -1  -3  -4 179097. 5446.70  18
  -1  -3  -4 177233. 5302.94  17
   1  -3   4 158967. 4635.04   6
   1  -3   4 170572. 5152.84   5
   1   3   4 178644. 5203.16   6
  -1  -3  -4 173224. 5440.69  14
   1  -3   4 171112. 4391.28  13
  -1   3  -4 149597. 5335.97  14
  -1  -3  -4 180357. 5495.47  13
   1   3   4 169535. 4998.53  12
  -1  -3  -4 176970. 4984.87   9
   1  -3   4 167819. 4842.56  10
   1  -3   5 127322. 3367.25   4
  -1   3  -5 141253. 4414.77   1
   1  -3   5 123134. 4082.36   3
   1   3   5 126426. 3713.00   1
  -1   3  -5 128469. 3519.90   2
   1  -3   5 124271. 3923.25  19
  -1  -3  -5 130349. 3855.78  19
  -1   3  -5 125977. 4675.37  17
  -1  -3  -5 129835. 4594.79  18
  -1   3  -5 130423. 3873.74  18
   1  -3   5 133031. 4109.97  16
  -1  -3  -5 134497. 4584.19  17
   1   3   5 136916. 4375.12   6
   1  -3   5 126052. 4259.70   5
   1  -3   5 115753. 3778.46   6
  -1   3  -5 124672. 4546.28  15
  -1  -3  -5 129118. 4635.76  14
  -1   3  -5 112983. 4558.60  14
  -1  -3  -5 133118. 4495.64  13
   1   3   5 130577. 4093.44  12
   1  -3   5 129068. 3965.63  10
  -1   3  -5 127762. 4607.55   9
  -1  -3  -5 134228. 4249.38   9
   1  -3   6 1351.64 215.204   4
   1  -3   6 702.067 325.305   5
   1   3   6 1343.28 284.240   1
   1  -3   6 1347.98 344.699   3
  -1   3  -6 1185.14 371.573   1
  -1   3  -6 1104.71 220.726   2
   1  -3   6 1006.87 254.687  19
  -1   3  -6 1119.01 294.395  18
  -1  -3  -6 1061.25 256.283  19
  -1  -3  -6 1800.99 502.508  17
  -1   3  -6 1078.87 435.277  17
  -1  -3  -6 1365.32 471.612  18
   1   3   6 1310.84 409.954   6
   1  -3   6 868.666 297.510   6
   1  -3   6 587.832 268.073  16
  -1  -3  -6 1051.25 363.952  14
  -1   3  -6 1120.01 443.760  14
  -1   3  -6 781.594 324.504  15
   1   3   6 1198.63 359.525  12
  -1  -3  -6 342.161 265.455  13
  -1   3  -6 585.912 391.898   9
  -1  -3  -6 2847.85 510.536   9
   1  -3   6 1574.96 374.214  10
   1  -3   7 121424. 3348.23   4
   1  -3   7 105990. 3705.79   3
   1   3   7 114718. 3783.13   1
  -1  -3  -7 124699. 3643.55  19
   1  -3   7 115568. 3713.31  19
   1  -3   7 114813. 4043.55  16
  -1   3  -7 109641. 4753.82  17
  -1   3  -7 109778. 4044.85  18
  -1  -3  -7 119399. 4727.75  18
  -1  -3  -7 116190. 4631.67  17
   1   3   7 128197. 4394.13   6
   1  -3   7 109531. 3843.58   6
   1  -3   7 109336. 4121.80   5
  -1   3  -7 112821. 4738.77  15
  -1  -3  -7 112553. 4677.16  14
  -1  -3  -7 113933. 4305.17  13
   1   3   7 119982. 4084.33  12
   1  -3   7 121810. 3994.87  10
  -1  -3  -7 109812. 4313.76   9
  -1   3  -7 108626. 4729.98   9
   1  -3   8 82658.4 3251.82  10
  -1  -3  -8 86922.8 3815.72   9
  -1   3  -8 80104.2 4061.87   9
  -1   3  -8 80584.4 4056.78  17
  -1   3  -8 81431.6 3404.19  18
  -1  -3  -8 81975.4 3961.61  18
   1  -3   8 81620.9 3348.76  16
  -1  -3  -8 82216.7 3902.39  17
  -1   3  -8 83800.7 3104.00   7
   1   3   8 87707.1 3594.91   6
   1  -3   8 77967.5 3172.31   6
  -1  -3  -8 82374.9 3552.66  13
  -1   3  -8 83647.0 4135.74  15
   1   3   8 92452.2 3491.64  12
   1   3   8 86461.8 3201.27   1
   1  -3   8 80372.4 2945.87   3
   1  -3   9 12200.1 1157.05  16
  -1  -3  -9 9803.94 1291.87  17
  -1  -3  -9 10602.5 1382.93  18
  -1   3  -9 9869.47 1389.48  17
   1  -3   9 10290.6 1029.38   6
   1   3   9 10578.2 1141.58   6
  -1   3  -9 13036.2 1593.12  15
   1   3   9 9817.01 1024.50  16
  -1  -3  -9 11180.5 1182.36  13
   1   3   9 10395.1 1082.90  12
   1  -3   9 10862.4 1079.35  10
  -1  -3  -9 11514.9 1360.60   9
  -1   3  -9 9572.98 1371.76   9
   1   3   9 11849.9 1171.29  10
  -1  -3 -10 1521.40 640.900  17
  -1   3 -10 1112.53 565.444  17
  -1  -3 -10 2422.49 706.064  18
   1   3  10 2163.38 607.176   6
   1  -3  10 2455.81 580.369   6
  -1   3 -10 2717.31 782.284  15
  -1  -3 -10 1860.06 531.688  13
   1   3  10 2459.13 564.760  16
   1  -3  10 1947.22 523.901  16
   1   3  10 1266.86 429.522  12
   1   3  10 1483.11 495.549  10
  -1  -3 -10 1744.72 583.943   9
  -1   3 -10 2366.49 747.797   9
   1  -3  10 2436.05 576.198  10
   1   3  11 22510.0 1688.98  16
   1   3  11 17341.0 1640.21   6
   1  -3  11 15603.0 1415.23   6
  -1   3 -11 16488.4 1982.03  17
   1  -3  11 18863.6 1581.96  16
  -1  -3 -11 18206.2 1970.61  18
  -1  -3 -11 19756.3 2026.89  17
   1   3  11 18796.7 1604.17  10
  -1   3 -11 15606.5 1933.45   9
   1  -3  11 21075.1 1644.69  10
  -1  -3 -11 19070.2 1976.84   9
  -1  -3 -12 26156.6 2458.35  17
  -1  -3 -12 22162.0 2272.10  18
   1  -3  12 22950.8 1837.22  16
  -1   3 -12 19609.0 2275.54  17
   1   3  12 21557.3 1906.74   6
   1   3  12 23579.0 1829.20  16
  -1   3 -12 19186.4 2394.37  11
  -1  -3 -12 24344.1 2334.06   9
   1   3  12 27928.7 2025.14  10
  -1   3 -12 23195.6 2474.10   9
   1  -3  12 23121.2 1836.88  10
  -1   3 -13 1654.80 795.777  17
  -1  -3 -13 2187.99 831.896  18
  -1  -3 -13 4058.75 1131.65  17
   1   3  13 3298.91 821.190   6
  -1   3 -13 2254.78 977.722  11
   1  -3  13 3989.91 845.771  10
  -1  -3 -13 2754.30 920.528   9
  -1   3 -13 3335.32 1092.94   9
   1   3  13 4283.48 877.281  10
   1   3  13 2673.13 673.858  16
   1  -5 -13 609.724 599.052  17
   1   5 -13-49.1406 576.463   9
   1  -5 -13 540.421 645.590   9
   1  -5 -12 7266.64 1267.43  17
   1   5 -12 6588.21 1352.75  17
  -1   5  12 6834.17 1082.80   6
  -1   5  12 6792.39 1032.86  16
   1   5 -12 8789.68 1702.20  11
  -1   5  12 9328.83 1343.40  12
  -1  -5  12 5940.69 1022.38  10
  -1   5  12 6765.99 1124.98  10
   1   5 -12 5606.26 1229.74   9
   1  -5 -12 8185.82 1366.32   9
   1  -5 -11 18795.3 1874.92  17
   1  -5 -11 17086.9 1979.95  18
   1   5 -11 18027.9 2081.28  17
  -1   5  11 19725.7 1738.53   6
  -1   5  11 19375.7 1683.29  16
  -1   5  11 20625.0 1885.18  12
   1   5 -11 18678.9 2388.88  11
  -1   5  11 17690.5 1703.31  10
  -1  -5  11 16954.4 1624.59  10
   1  -5 -11 18789.4 1904.50   9
   1   5 -11 16000.6 1983.65   9
   1  -5 -10 18337.1 2009.36  18
   1   5 -10 16166.8 1870.89  17
   1  -5 -10 19441.8 1829.22  17
  -1   5  10 17633.7 1604.09   6
   1   5 -10 21722.6 2248.75  15
   1  -5 -10 20562.6 1868.72  13
   1   5 -10 18818.0 2253.54  11
  -1   5  10 19732.2 1788.22  12
   1  -5 -10 18326.3 1839.83   9
   1   5 -10 20132.9 2062.57   9
  -1  -5  10 21765.2 1732.65  10
   1  -5  -9 159.932 414.073   9
   1   5  -9 49.8718 361.069   9
  -1  -5   9 117.866 380.554  10
   1  -5  -9 148.549 481.501  18
   1  -5  -9-209.435 459.215  17
   1   5  -9 624.075 447.842  17
  -1   5   9-95.5434 344.548   6
   1   5  -9-541.281 584.323  15
   1  -5  -9 855.919 426.375  13
   1   5  -9 854.933 548.419  11
  -1   5   9 424.131 448.649  12
  -1  -5   9 223.491 268.418   3
  -1  -5   8 53174.9 2525.62   3
  -1  -5   8 58304.6 2548.72  19
   1  -5  -8 60705.0 3016.47  17
   1   5  -8 56120.4 3189.94  17
   1  -5  -8 56057.4 3316.64  18
  -1   5   8 61256.3 2892.46   6
  -1   5   8 69672.1 3102.03   8
   1   5  -8 56952.6 3415.95  15
   1  -5  -8 64911.6 3305.29  13
   1   5  -8 58602.1 3640.68  11
  -1   5   8 68987.0 3220.25  12
   1  -5  -8 63051.3 3107.52   9
  -1  -5   8 67046.9 3006.97  10
   1   5  -8 55177.1 3259.87   9
  -1  -5   7 83333.0 3353.80   3
  -1  -5   7 85711.8 3270.90  19
   1   5  -7 90636.7 3961.80  17
   1  -5  -7 89108.9 4129.88  18
   1  -5  -7 93326.2 3675.49  17
  -1   5   7 95954.4 3642.63   6
   1  -5  -7 93577.9 4031.62  13
   1   5  -7 88684.1 4204.37  15
  -1   5   7 99612.4 3906.38  12
   1   5  -7 75160.2 4142.16  11
   1   5  -7 86501.1 4027.84   9
  -1  -5   7 96309.6 3643.05  10
   1  -5  -7 96617.7 3764.16   9
  -1  -5   6 20069.7 1403.24   3
  -1  -5   6 22526.9 1400.57  19
   1  -5  -6 23175.5 1425.60  19
   1   5  -6 20702.0 1561.08  17
   1  -5  -6 22036.4 1424.39  17
   1  -5  -6 21554.6 1738.98  18
  -1   5   6 20286.6 1398.43   6
   1  -5  -6 21335.5 1699.76  13
   1   5  -6 20929.8 1546.77  14
   1   5  -6 22508.1 1799.69  15
  -1   5   6 22360.9 1621.83  12
   1   5  -6 20450.1 1814.74  11
   1  -5  -6 23287.5 1514.28   9
   1   5  -6 21231.0 1692.75   9
  -1  -5   6 25459.2 1577.82  10
   1  -5  -5 14015.4 913.377   3
  -1  -5   5 14515.3 816.557   4
  -1   5   5 14468.7 805.912   1
  -1  -5   5 15714.2 1207.65   3
  -1  -5   5 15134.6 1129.73  19
   1  -5  -5 18210.0 1237.52  19
   1   5  -5 13741.7 1112.16  17
   1  -5  -5 13115.0 1258.82  18
   1  -5  -5 15358.2 1058.51  17
  -1   5   5 14628.2 1085.09   6
   1   5  -5 13928.0 1291.18  15
   1  -5  -5 15518.0 1396.46  13
   1  -5  -5 13534.9 935.407  14
   1   5  -5 13234.8 1092.59  14
  -1   5   5 16159.4 1322.42  12
   1   5  -5 12731.6 1291.21  11
   1   5  -5 13913.5 1259.73   9
   1  -5  -5 18317.3 1200.17   9
  -1  -5   5 15090.3 1170.71  10
  -1  -5   4 130387. 3778.06   4
   1  -5  -4 142106. 4271.28   3
   1  -5  -4 139040. 3616.74   5
   1   5  -4 145486. 4655.87   1
  -1  -5   4 132747. 4522.68   3
  -1  -5   4 128077. 4330.78  19
   1  -5  -4 140632. 4481.62  19
  -1   5   4 135923. 4526.65  20
   1   5  -4 126631. 4353.00  20
   1   5  -4 126224. 4031.92  17
   1  -5  -4 140590. 3976.51  17
  -1  -5   4 128539. 4394.74   5
  -1   5   4 134767. 4142.00   6
   1  -5  -4 125571. 3674.30  14
   1  -5  -4 142969. 4885.91  13
   1   5  -4 126273. 4115.84  14
  -1  -5   4 132028. 3774.57  13
  -1  -5   4 134481. 4252.82  14
  -1   5   4 138550. 4691.27  12
   1   5  -4 131737. 4686.77  11
   1  -5  -4 136705. 4182.73   9
  -1  -5   4 137897. 4442.12  10
   1   5  -4 130731. 4469.71   9
   1  -5  -3 156034. 4052.76   5
  -1  -5   3 149600. 4272.26   4
  -1  -5   3 159439. 5163.98   3
   1  -5  -3 158771. 4906.19   3
   1  -5  -3 163362. 4961.13  19
  -1  -5   3 147742. 4775.84  19
  -1   5   3 150997. 4781.12  20
   1   5  -3 142519. 4745.44  20
   1   5  -3 149975. 4078.79  17
   1  -5  -3 155763. 4146.40  17
  -1  -5   3 146119. 4713.62   5
  -1   5   3 170069. 4470.76   6
  -1  -5   3 145868. 4312.88  13
   1   5  -3 145907. 4274.25  14
   1  -5  -3 160921. 5172.63  13
   1  -5  -3 150994. 3769.73  14
  -1  -5   3 148118. 4509.83  14
  -1   5   3 159128. 5113.87  12
   1   5  -3 148599. 4830.96  11
   1  -5  -3 152899. 4452.16   9
  -1  -5   3 154115. 4861.34  10
  -1  -5   2 58942.7 2171.76   4
   1  -5  -2 60147.6 1952.49   5
   1  -5  -2 67295.6 2755.00   3
  -1  -5   2 59852.1 2665.59   3
  -1  -5   2 59547.1 2462.49  19
   1   5  -2 58319.5 2757.51  21
   1  -5  -2 63039.6 2569.85  19
   1   5  -2 59869.4 2499.53  20
  -1   5   2 57658.3 2367.55  20
   1  -5  -2 58603.8 1790.16  17
  -1  -5   2 54232.9 2271.25   5
  -1   5   2 64885.1 1923.91   6
   1  -5  -2 61808.6 2611.68  13
  -1  -5   2 54394.7 2167.32  13
   1   5  -2 57322.8 1896.89  14
  -1  -5   2 55431.8 2022.55  14
   1   5  -2 61638.0 2353.02  11
  -1   5   2 57487.5 2646.50  12
  -1  -5   2 61449.3 2559.01  10
   1  -5  -2 62916.9 2197.34   9
  -1  -5   1 52883.5 2489.97   3
   1  -5  -1 57224.6 2613.78   3
  -1  -5   1 53748.5 2063.97   5
  -1  -5   1 56659.3 2357.68  19
   1   5  -1 56488.0 2636.04  21
   1   5  -1 58647.4 2384.91  20
   1  -5  -1 60444.5 2472.55  19
  -1   5   1 57176.8 2262.00  20
  -1  -5   1 49667.3 1686.57  14
  -1  -5   1 56246.6 2197.99  13
   1  -5  -1 57084.5 2400.47  13
   1   5  -1 60855.2 2674.88  12
   1   5  -1 59249.4 2063.41  11
  -1   5   1 58100.9 2607.61  12
  -1  -5   1 57929.3 2228.15   4
   1  -5  -1 58959.2 1978.30   5
  -1  -5   0 227491. 6765.22   3
   1  -5   0 230056. 6953.42   3
   1   5   0 231701. 5492.17   6
  -1  -5   0 228043. 5926.02   5
   1   5   0 223147. 6483.47  20
  -1   5   0 223240. 6862.65  21
  -1  -5   0 220317. 6455.43  19
   1   5   0 226264. 6847.52  21
  -1   5   0 224150. 6291.34  20
   1  -5   0 230616. 6610.56  19
   1  -5   0 221837. 6428.48  13
  -1  -5   0 215872. 6337.68  13
  -1   5   0 239358. 5670.77  11
   1   5   0 227856. 5741.01  11
  -1   5   0 227560. 6817.85  12
   1   5   0 224370. 6858.97  12
   1  -5   0 220551. 6078.01   5
   1  -5   1 73802.7 3139.78   3
  -1  -5  -1 76902.7 3045.58   3
   1  -5   1 72058.8 2920.50  19
  -1   5  -1 74860.7 2687.59  20
   1   5   1 72599.8 2850.80  20
  -1  -5  -1 72541.5 2821.49  19
  -1   5  -1 79035.0 3194.48  21
   1   5   1 77317.7 2277.89   6
  -1  -5  -1 77162.8 2215.41   5
   1  -5   1 72787.8 2715.39  13
  -1  -5  -1 74635.5 2857.81  13
  -1   5  -1 75592.1 2456.13  11
  -1   5  -1 74679.6 3086.64  12
   1   5   1 74533.8 3108.36  12
   1   5   1 73260.8 2064.31  11
   1  -5   1 75860.3 2660.65   5
   1  -5   2 9091.47 813.154   5
   1  -5   2 9744.14 998.391   3
  -1   5  -2 12920.8 991.676   1
  -1  -5  -2 9859.09 932.365   3
  -1   5  -2 10435.8 1032.65  21
   1   5   2 11332.8 968.167  20
  -1   5  -2 10085.8 829.589  20
  -1  -5  -2 9500.69 873.743  19
   1  -5   2 9904.57 948.000  19
  -1  -5  -2 10605.6 491.992  17
  -1  -5  -2 10238.3 895.069  18
  -1  -5  -2 10559.6 460.632   5
   1   5   2 10436.7 716.206   6
  -1   5  -2 9929.49 576.554  14
   1  -5   2 10305.4 800.168  13
  -1  -5  -2 9532.82 951.840  13
  -1  -5  -2 10246.9 508.796  14
   1  -5   2 11992.8 1023.33  10
  -1   5  -2 10311.0 1025.80  12
   1   5   2 11658.2 1073.89  12
  -1   5  -2 11473.5 873.623  11
  -1  -5  -2 10056.7 659.892   9
   1  -5   3 38390.9 1484.69   4
  -1   5  -3 44806.2 2124.02   1
   1  -5   3 45020.4 2265.74   3
  -1  -5  -3 44451.0 2043.49   3
  -1   5  -3 40763.9 1843.16  20
   1   5   3 40888.9 2073.27  20
   1  -5   3 39769.4 1985.84  19
  -1  -5  -3 41753.0 1969.03  19
  -1  -5  -3 42411.8 1506.84  17
  -1   5  -3 38725.8 1830.82  17
  -1  -5  -3 40655.2 2024.67  18
   1  -5   3 39249.8 1929.43   5
   1   5   3 45370.6 1841.62   6
  -1  -5  -3 42704.6 2186.57  13
  -1  -5  -3 38352.3 1526.71  14
  -1   5  -3 39448.9 1637.75  14
   1  -5   3 40886.8 1696.43  13
  -1   5  -3 38212.0 1983.79  11
   1   5   3 40608.5 2151.67  12
  -1  -5  -3 38943.7 1599.50   9
   1  -5   3 42241.3 2044.84  10
  -1   5  -4 112083. 3894.93   1
   1  -5   4 97027.2 3718.90   3
  -1  -5  -4 101847. 3418.15   3
  -1  -5  -4 98808.8 3508.09  19
   1   5   4 98911.7 3735.77  20
   1  -5   4 96370.1 3552.06  19
  -1  -5  -4 96519.0 3715.09  18
  -1   5  -4 96018.1 3571.43  17
  -1  -5  -4 101677. 3130.80  17
   1  -5   4 96833.4 3589.92   5
   1   5   4 104330. 3480.19   6
  -1  -5  -4 96091.0 3847.54  13
   1  -5   4 93768.2 2994.10  13
  -1   5  -4 90952.0 3311.60  14
  -1  -5  -4 91876.2 3164.08  14
   1   5   4 96498.9 3732.30  12
   1  -5   4 97833.8 3546.24  10
  -1  -5  -4 99740.1 3200.63   9
  -1  -5  -5 64295.3 2356.47   3
   1  -5   5 61226.8 2760.19   3
   1   5   5 64796.0 2321.03   1
   1  -5   5 65193.5 2719.05  19
  -1  -5  -5 65438.2 2694.49  19
   1   5   5 65559.1 3000.73  20
  -1   5  -5 62782.8 2386.99  18
  -1   5  -5 63303.5 2909.35  17
  -1  -5  -5 62884.3 2995.49  18
  -1  -5  -5 67810.7 2569.45  17
   1  -5   5 61641.3 2791.04   5
   1   5   5 69730.6 2761.90   6
  -1  -5  -5 64363.1 3087.94  13
  -1   5  -5 62181.4 2742.40  14
   1  -5   5 64469.2 2179.78  13
  -1  -5  -5 58119.1 2522.00  14
   1   5   5 70480.2 2976.98  12
  -1  -5  -5 66894.3 2591.51   9
   1  -5   5 68674.6 2757.50  10
   1  -5   6-70.2952 277.294   5
   1  -5   6 15.3480 273.625   3
  -1  -5  -6 58.3957 201.039  19
   1  -5   6-246.265 283.955  19
  -1   5  -6 503.992 292.805  17
  -1  -5  -6-23.2941 215.855  17
  -1  -5  -6-19.2381 307.343  18
   1   5   6 21.4093 234.816   6
  -1   5  -6 174.675 318.158  15
  -1   5  -6 280.776 216.299  14
  -1  -5  -6 373.170 363.268  13
   1   5   6 176.011 285.133  12
  -1   5  -6 31.6613 287.046   9
   1  -5   6 49.3173 235.887  10
  -1  -5  -6-231.821 254.033   9
   1  -5   7 68615.2 2999.15   3
   1  -5   7 72196.5 2982.95  19
  -1   5  -7 74261.0 3666.44  17
  -1  -5  -7 73178.2 3678.39  18
  -1  -5  -7 75993.7 3291.86  17
   1  -5   7 73790.5 3315.52   5
   1   5   7 82415.7 3304.85   6
  -1   5  -7 75765.8 3905.41  15
  -1  -5  -7 76275.1 3562.01  13
   1   5   7 82411.9 3484.04  12
   1  -5   7 82123.4 3279.30  10
  -1   5  -7 73384.5 3780.64   9
  -1  -5  -7 81200.9 3379.85   9
   1  -5   8 43974.5 2216.03   3
   1  -5   8 42717.2 2164.50  19
  -1  -5  -8 44243.0 2538.64  17
  -1  -5  -8 47809.4 2944.70  18
   1  -5   8 43415.1 2497.13  16
  -1   5  -8 48783.4 2980.83  17
   1   5   8 43941.7 2423.60   6
  -1   5  -8 42898.2 3023.25  15
  -1  -5  -8 44311.6 2637.69  13
   1   5   8 50079.5 2654.53  12
   1  -5   8 51236.8 2553.53  10
  -1   5  -8 42049.3 2886.42   9
  -1  -5  -8 45232.1 2586.72   9
  -1  -5  -9 7180.36 1043.71   9
   1  -5   9 7091.64 960.379  10
  -1   5  -9 6317.65 1156.48   9
  -1  -5  -9 7010.25 1044.66  17
  -1   5  -9 6425.86 1129.72  17
  -1  -5  -9 6602.22 1171.16  18
   1   5   9 6445.60 910.268   6
  -1  -5  -9 6322.89 1007.01  13
  -1   5  -9 4801.77 1059.33  15
   1  -5   9 6024.59 945.118  16
  -1   5  -9 4863.70 1075.64  11
   1   5   9 6739.32 1035.57  12
   1  -5   9 5864.53 741.742   3
  -1  -5 -10 271.739 402.875  18
  -1   5 -10 487.636 458.267  17
  -1  -5 -10 321.469 414.094  17
   1   5  10 936.325 417.829   6
  -1  -5 -10 376.651 408.410  13
   1   5  10 453.028 391.342  16
  -1   5 -10 1194.83 686.391  15
   1  -5  10 825.768 439.564  16
   1   5  10 977.041 497.846  12
  -1   5 -10 164.066 638.486  11
  -1  -5 -10 477.134 418.787   9
   1  -5  10 365.264 384.941  10
  -1   5 -10-95.0904 425.848   9
  -1  -5 -11 12530.7 1731.01  18
  -1   5 -11 16533.5 1966.47  17
  -1  -5 -11 12562.8 1551.70  17
   1  -5  11 12192.3 1386.63  16
   1   5  11 10640.0 1312.30   6
   1   5  11 14220.8 1499.24  16
  -1   5 -11 13265.6 1921.94  15
  -1   5 -11 13071.4 1935.51  11
   1   5  11 14552.8 1585.62  12
  -1   5 -11 11809.2 1716.43   9
  -1  -5 -11 14439.7 1671.84   9
   1  -5  11 13603.0 1456.33  10
   1   5  11 13751.3 1498.34  10
  -1  -5 -12 11886.3 1620.78  17
  -1  -5 -12 11964.0 1746.90  18
  -1   5 -12 10987.3 1705.38  17
   1   5  12 10288.2 1289.23   6
   1   5  12 11501.3 1359.93  16
  -1   5 -12 12794.8 1965.56  11
   1   5  12 13972.1 1598.08  12
   1   5  12 13126.0 1523.81  10
  -1  -5 -12 9755.23 1479.26   9
  -1   5 -12 10718.6 1690.75   9
   1  -5  12 13746.3 1515.14  10
   1   5  13 3368.75 786.714  16
  -1   5 -13 2446.23 953.007   9
  -1  -5 -13 1424.57 677.726   9
  -1  -5 -13 1977.56 860.889  17
   1  -7 -11 8362.51 1303.40  13
  -1   7  11 9775.64 1491.07  12
   1   7 -11 10250.6 1757.61  11
  -1  -7  11 9052.09 1331.88  10
   1  -7 -10 11061.7 1455.50  13
   1   7 -10 7394.69 1392.61  15
  -1  -7  10 8177.03 1016.69   3
   1   7 -10 12559.4 1802.90  11
  -1   7  10 11097.2 1522.86  12
  -1  -7  10 11727.2 1457.30  10
   1  -7 -10 10253.4 1376.01   9
   1   7  -9 385.603 455.842  20
  -1  -7   9-217.664 309.488   3
   1  -7  -9 174.324 460.679  13
   1   7  -9-148.434 441.210  15
   1   7  -9 71.0254 503.943  11
  -1   7   9-389.442 621.976  12
   1  -7  -9 1121.88 563.000   9
  -1  -7   9 777.680 511.923  10
  -1  -7   8 21653.2 1596.94  19
   1   7  -8 20773.4 1829.28  20
  -1   7   8 28524.1 2253.47   8
   1  -7  -8 23387.3 2061.24  13
   1   7  -8 21630.1 2154.27  15
   1  -7  -8 22785.5 1756.37   9
  -1  -7   8 24275.2 1941.59  10
  -1   7   8 25757.0 2177.43  12
   1   7  -8 21434.4 2147.24  11
  -1  -7   8 21298.8 1627.17   3
  -1  -7   7 37541.8 2234.79   3
  -1  -7   7 39664.3 2248.78  19
   1   7  -7 44284.7 2591.79  20
   1   7  -7 36668.4 2716.69  15
   1  -7  -7 41279.7 2716.99  13
   1   7  -7 47345.1 2995.20  11
  -1   7   7 46073.7 2918.89  12
   1  -7  -7 45069.7 2398.31   9
  -1  -7   7 43509.1 2586.69  10
  -1  -7   6 7985.57 1006.91   3
   1  -7  -6 9516.26 1062.12  19
  -1  -7   6 9455.59 1030.92  19
   1   7  -6 11784.5 1235.32  20
   1  -7  -6 8892.45 1237.62  13
   1   7  -6 9295.75 1234.60  15
   1   7  -6 11699.4 1330.88  11
  -1   7   6 11093.6 1329.75  12
   1  -7  -6 9658.32 981.042   9
  -1  -7   6 10753.6 1187.33  10
  -1  -7   5 9849.62 1084.62   3
  -1  -7   5 7219.73 907.318  19
   1  -7  -5 7559.63 949.211  19
   1   7  -5 9307.29 1055.28  20
   1  -7  -5 8124.37 1161.32  13
   1   7  -5 8489.00 1083.82  15
  -1   7   5 9163.64 1204.12  12
   1   7  -5 8374.04 1045.52  11
  -1  -7   5 8988.33 1099.88  10
   1  -7  -5 9985.78 942.387   9
   1  -7  -4 44743.6 2335.22   3
   1  -7  -4 45106.9 2449.18  19
   1   7  -4 44002.3 2399.32  20
  -1   7   4 47624.8 2490.47  20
  -1  -7   4 42273.1 2292.72  19
   1   7  -4 41099.4 2657.99  21
  -1  -7   4 42256.3 1909.96  13
   1  -7  -4 41793.9 2490.47  13
  -1  -7   4 40129.4 2368.08   3
  -1  -7   4 46193.8 2527.94  10
  -1   7   4 46078.2 2709.24  12
   1   7  -4 47714.1 2765.13  12
   1   7  -4 43030.3 2304.15  11
   1  -7  -4 49241.1 2171.90   9
  -1  -7   3 75828.2 3439.43   3
   1  -7  -3 82188.3 3459.57   3
   1  -7  -3 74441.2 3374.44  13
  -1  -7   3 74500.1 2894.27  13
  -1   7   3 80120.4 3720.15  12
   1   7  -3 78225.2 3080.32  11
   1   7  -3 85406.1 3919.93  12
   1   7  -3 78438.9 3356.88  20
  -1   7   3 85125.4 3411.95  20
   1   7  -3 77259.7 3803.93  21
  -1  -7   3 74379.2 3263.20  19
   1  -7  -3 78714.1 3437.24  19
  -1  -7   2 16739.4 1148.63   5
   1  -7  -2 19026.4 1536.05   3
  -1  -7   2 17456.9 1520.10   3
   1   7  -2 20869.6 1709.15  12
  -1   7   2 18553.4 1660.61  12
   1   7  -2 18729.4 1687.31  21
   1  -7  -2 18024.5 1456.25  19
  -1   7   2 21445.5 1462.99  20
   1   7  -2 18027.9 1407.25  20
  -1  -7   2 19301.3 1446.06  19
   1  -7  -2 17108.4 1404.10  13
  -1  -7   2 16645.0 1227.35  13
   1  -7  -1 28160.6 1948.26   3
  -1  -7   1 24460.6 1770.93   3
  -1   7   1 26900.1 1971.64  12
   1   7  -1 27815.0 2015.30  12
  -1  -7   1 27367.7 1740.71  19
   1  -7  -1 28493.9 1812.95  19
   1   7  -1 27695.0 1741.74  20
   1   7  -1 29140.1 2062.72  21
  -1   7   1 29585.1 1720.62  20
  -1  -7   1 25687.7 1602.05  13
   1  -7  -1 26086.7 1713.96  13
  -1  -7   0 85285.2 3628.11   3
   1  -7   0 82293.8 3735.67   3
   1  -7   0 79969.1 3325.29  13
  -1  -7   0 79168.6 3264.90  13
   1   7   0 92391.6 3915.41  12
  -1   7   0 89586.6 3895.76  12
  -1   7   0 93586.5 3968.42  21
   1  -7   0 83502.6 3484.20  19
   1   7   0 91432.0 3532.41  20
  -1  -7   0 80455.1 3380.19  19
  -1   7   0 89460.6 3347.43  20
   1  -7   1 43156.6 2025.49   5
  -1  -7  -1 43791.7 2261.59  13
   1  -7   1 45756.4 2229.88  13
  -1  -7  -1 42502.7 2410.53   3
   1  -7   1 42520.8 2515.93   3
  -1   7  -1 47419.7 2631.09  12
   1   7   1 49559.1 2734.75  12
  -1   7  -1 46498.3 2200.56  20
   1  -7   1 42399.6 2310.63  19
   1   7   1 50871.4 2466.14  20
  -1   7  -1 46904.6 2670.89  21
  -1  -7  -1 42937.6 2252.03  19
  -1   7  -2 961.202 311.430  20
   1  -7   2 450.620 301.111  19
  -1  -7  -2 1031.83 362.791  19
   1   7   2 1466.30 468.312  20
  -1   7  -2 654.671 422.853  21
   1  -7   2 985.581 417.820   3
  -1  -7  -2 549.643 366.295   3
  -1  -7  -2 661.570 311.363  13
   1  -7   2 603.806 342.149  13
  -1   7  -2 1188.88 525.983  12
   1   7   2 924.321 385.685  12
   1  -7   2 1328.11 377.879   5
   1  -7   3 13445.2 1158.66   5
   1  -7   3 13417.4 1331.56   3
  -1  -7  -3 12720.1 1205.69   3
  -1  -7  -3 12706.3 1235.15  13
   1  -7   3 12992.3 1021.17  13
   1   7   3 14004.2 1470.32  12
  -1   7  -3 11780.5 1324.61  12
  -1   7  -3 14814.8 1136.55  11
   1   7   3 14726.5 1343.16  20
  -1  -7  -3 12561.5 1184.40  19
  -1   7  -3 15367.4 1232.78  20
   1  -7   3 12795.3 1188.46  19
  -1   7  -3 13015.4 1439.92  21
   1  -7   4 38009.7 2153.28   5
  -1  -7  -4 46867.7 2340.00   3
   1  -7   4 40010.7 2421.32   3
  -1  -7  -4 42029.8 2452.50  13
   1  -7   4 45095.5 1982.95  13
   1   7   4 42738.5 2660.19  12
  -1   7  -4 42207.6 2256.52  11
   1  -7   4 45317.8 2466.43  10
  -1   7  -4 44416.5 2663.76  12
  -1  -7  -4 41606.4 2277.08  19
  -1   7  -4 44641.4 2264.27  20
   1  -7   4 43820.6 2339.66  19
   1   7   4 48304.3 2614.24  20
  -1   7  -4 40805.5 2633.98  21
   1   7   5 40724.7 2458.00  20
   1  -7   5 35192.7 2075.14  19
  -1  -7  -5 33679.4 2033.84  19
  -1   7  -5 36013.5 2063.25  20
   1  -7   5 31866.4 2007.40   5
  -1  -7  -5 34147.3 2268.87  13
   1  -7   5 35150.7 2174.43  10
   1   7   5 37109.3 2478.47  12
  -1   7  -5 38158.1 2292.79  11
   1  -7   5 31898.9 2087.11   3
   1  -7   6 499.928 330.410   5
  -1   7  -6 908.403 382.316  20
   1  -7   6 77.6469 273.898  19
  -1  -7  -6 114.273 266.170  19
  -1   7  -6 109.493 325.967  15
  -1  -7  -6-312.659 516.083  13
   1  -7   6-8.34199 274.099   3
   1   7   6 830.620 505.501  12
  -1   7  -6 750.296 533.971  11
   1  -7   6 230.975 328.164  10
   1  -7   7 27080.6 1817.10  19
  -1   7  -7 27327.2 1918.21  20
  -1  -7  -7 29689.9 2190.45  13
  -1   7  -7 27486.6 2382.14  15
   1  -7   7 23520.3 1726.79   3
  -1   7  -7 29923.6 2331.53  11
   1   7   7 34028.7 2401.04  12
   1  -7   7 32515.4 2182.37  10
  -1   7  -8 22669.9 1820.75  20
   1  -7   8 22276.1 1633.60  19
  -1  -7  -8 23745.1 2005.09  13
  -1   7  -8 22651.2 2255.80  15
   1  -7   8 21136.7 1615.11   3
  -1   7  -8 23204.6 2172.48  11
   1   7   8 23231.3 2032.76  12
   1  -7   8 26593.9 2025.54  10
   1  -7   9 3465.07 675.238  19
   1  -7   9 2675.95 612.357   3
   1   7   9 5110.72 1058.15  12
  -1   7  -9 4266.55 1026.49  11
   1  -7   9 3929.52 859.991  10
  -1   7  -9 3533.69 1007.58  15
  -1  -7  -9 3328.50 828.350  13
   1   7  10 322.213 444.525  12
  -1   7 -10 898.285 734.698  11
   1  -7  10 289.708 412.296  10
  -1   7 -10 905.642 554.110  15
  -1  -7 -10 1678.07 643.713  13
   1   7  11 5034.36 1129.87  12
  -1   7 -11 6434.26 1351.96  11
   1  -7  11 5166.49 1052.82  10
   1   7  11 6458.66 1145.63  16
  -1  -7 -11 4128.89 943.174  13
  -1   7 -11 6636.53 1430.29  15
   1  -9  -9 729.732 504.829  13
  -1  -9   9 220.750 324.607   3
  -1  -9   8 8430.90 1128.67  19
   1   9  -8 10166.3 1647.65  21
  -1   9   8 14236.5 1812.89   8
   1  -9  -8 11361.5 1506.47  13
  -1  -9   8 10864.1 1448.37  10
   1   9  -8 13239.7 1765.88  12
  -1   9   8 9043.82 1482.69  12
  -1  -9   8 8241.23 1111.67   3
   1  -9  -7 15119.6 1718.52  13
   1   9  -7 14359.3 1883.08  21
  -1  -9   7 13231.6 1419.17  19
  -1   9   7 17819.3 2028.63  12
   1   9  -7 15833.5 1907.12  12
  -1  -9   7 14383.9 1627.63  10
  -1  -9   7 15205.7 1495.66   3
  -1  -9   6 3499.20 791.037   3
  -1  -9   6 3557.60 769.012  19
   1   9  -6 4253.61 1054.58  21
   1  -9  -6 3249.51 780.121  13
  -1   9   6 4778.76 1056.50  12
   1   9  -6 3883.23 1008.38  12
  -1  -9   6 3096.08 806.066  10
   1  -9  -5 1973.08 625.271  13
   1  -9  -5 2175.35 611.171  19
  -1  -9   5 1870.20 579.494  19
   1   9  -5 2218.31 771.043  21
   1   9  -5 2702.20 810.735  12
  -1   9   5 1401.28 727.529  12
  -1  -9   5 2137.53 624.960   3
   1  -9  -4 17720.3 1672.44  13
  -1  -9   4 16818.0 1592.07  19
   1   9  -4 19422.2 1994.74  21
   1  -9  -4 16487.8 1599.05  19
   1   9  -4 21119.9 2014.96  12
  -1   9   4 20900.9 2032.16  12
  -1  -9   4 16567.0 1621.07   3
  -1  -9   3 22352.9 1868.09   3
  -1  -9   3 22057.4 1791.02  19
   1   9  -3 26069.8 2304.12  21
   1  -9  -3 22030.7 1814.40  19
   1  -9  -3 20495.8 1760.48  13
   1   9  -3 28190.9 2342.26  12
  -1   9   3 24678.7 2193.59  12
   1  -9  -3 24693.0 1910.44   3
   1  -9  -2 7446.29 1017.02  13
  -1  -9   2 6145.34 840.735  13
   1  -9  -2 7984.53 1107.03   3
  -1  -9   2 5549.87 934.561   3
  -1   9   2 7214.82 1166.34  12
   1   9  -2 8685.20 1288.24  12
   1   9  -2 8133.48 1323.51  21
  -1  -9   2 5996.55 937.094  19
   1  -9  -2 5091.62 873.454  19
   1  -9  -1 8654.06 1066.13  13
  -1  -9   1 9654.90 1078.07  13
   1  -9  -1 9067.06 1187.75   3
  -1  -9   1 6882.32 1022.69   3
  -1   9   1 10698.3 1417.59  12
   1   9  -1 10257.3 1389.84  12
  -1  -9   1 8054.42 1074.68  19
   1  -9  -1 9862.34 1198.26  19
   1  -9   0 29024.0 1989.40  13
  -1  -9   0 34019.5 2110.41  13
   1  -9   0 34019.6 2368.58   3
  -1  -9   0 30328.9 2186.06   3
  -1   9   0 38368.6 2676.69  12
   1   9   0 38282.9 2676.72  12
   1  -9   0 31054.2 2159.52  19
  -1  -9   0 32711.9 2169.25  19
  -1  -9  -1 13992.7 1334.78  13
   1  -9   1 12000.6 1198.69  13
   1  -9   1 13517.3 1455.83   3
  -1  -9  -1 14793.4 1440.27   3
   1   9   1 11817.5 1504.53  12
  -1   9  -1 15166.2 1626.61  12
  -1  -9  -1 11296.3 1266.07  19
   1  -9   1 13090.1 1338.98  19
   1  -9   2 521.201 378.519  13
  -1  -9  -2 578.555 394.224  13
  -1  -9  -2 312.579 391.268   3
   1  -9   2 209.170 441.823   3
   1   9   2 722.817 555.980  12
  -1   9  -2-148.710 482.997  12
   1  -9   2 266.794 324.213  19
  -1  -9  -2 1034.66 459.583  19
  -1   9  -2 524.222 501.582  21
   1   9   2 491.994 361.536  20
   1  -9   3 5784.11 813.109  13
  -1  -9  -3 5896.29 966.466  13
   1  -9   3 4569.91 873.753   3
  -1  -9  -3 4526.46 812.590   3
   1   9   3 7049.28 1186.77  12
  -1   9  -3 6391.35 1153.48  12
   1   9   3 4447.14 854.666  20
   1  -9   3 5468.13 895.286  19
  -1  -9  -3 4478.14 824.736  19
  -1   9  -3 5723.51 1105.02  21
  -1  -9  -4 15487.5 1556.01  13
   1  -9   4 17937.0 1680.18   3
  -1   9  -4 17870.9 1831.48  12
   1   9   4 18849.8 1965.34  12
  -1  -9  -4 15306.5 1480.25  19
   1   9   4 18847.7 1731.61  20
   1  -9   4 17528.1 1611.10  19
  -1   9  -4 19966.6 2009.56  21
  -1  -9  -5 10835.5 1323.12  13
   1  -9   5 10935.6 1298.67   3
   1   9   5 10489.8 1483.73  12
  -1   9  -5 10980.0 1499.65  12
   1  -9   5 9091.65 1179.74  19
  -1  -9  -5 9117.07 1131.35  19
  -1   9  -5 13284.9 1716.53  21
  -1  -9  -6 714.639 505.001  13
   1  -9   6-72.9384 330.867   3
   1   9   6 711.224 683.499  12
  -1   9  -6 100.550 506.097  12
  -1   9  -6 380.362 542.474  21
   1  -9   6-166.629 340.982  19
  -1  -9  -7 11878.3 1470.54  13
   1  -9   7 9944.40 1209.96   3
  -1   9  -7 12978.7 1723.42  12
   1   9   7 13771.2 1796.83  12
   1  -9   7 14549.8 1633.07  10
  -1   9  -7 12454.2 1755.45  21
   1  -9   7 11182.3 1328.61  19
   1  -9   8 8069.80 1127.25  19
  -1   9  -8 9556.89 1614.32  21
  -1  -9  -8 8191.33 1298.42  13
   1  -9   8 7230.44 1031.53   3
   1  -9   8 8903.21 1314.96  10
  -1   9  -8 13610.3 1799.55  12
   1   9   8 10659.5 1591.74  12
  -1   9  -9 978.983 735.909  12
   1  -9   9 1524.67 570.841   3
  -1 -11   4 4962.75 964.950   3
  -1  11   4 5648.92 1222.16  12
   1  11  -4 5240.90 1201.54  12
   1 -11  -4 4177.96 894.819  19
  -1 -11   4 6113.82 1052.17  19
   1  11  -4 6146.63 1304.74  21
   1 -11  -4 6547.91 1071.75  13
  -1 -11   3 7234.56 1157.48   3
  -1  11   3 7943.53 1356.69  12
   1  11  -3 8592.64 1480.65  12
  -1 -11   3 7641.37 1192.06  19
   1 -11  -3 7834.19 1181.55  19
   1 -11  -3 7021.00 1104.20  13
  -1 -11   2 1420.09 616.714   3
   1 -11  -2 709.824 446.829   3
  -1  11   2 3007.44 922.343  12
   1  11  -2 1463.75 780.126  12
  -1 -11   2 1883.48 655.731  19
   1 -11  -2 811.109 487.885  19
   1 -11  -2 2129.05 683.582  13
  -1 -11   1 2868.20 754.155   3
   1 -11  -1 3234.85 806.372   3
   1  11  -1 4045.25 1041.09  12
  -1  11   1 2012.97 774.599  12
  -1 -11   1 2192.08 717.258  19
   1 -11  -1 1514.41 607.079  19
  -1 -11   1 1546.05 553.428  13
   1 -11  -1 1898.09 600.327  13
   1 -11   0 9050.83 1282.75   3
  -1 -11   0 8148.65 1199.61   3
   1  11   0 13167.6 1755.69  12
  -1  11   0 9366.22 1470.35  12
   1 -11   0 8605.70 1238.35  19
  -1 -11   0 9837.10 1275.60  19
   1 -11   0 9574.20 1205.90  13
  -1 -11   0 9080.05 1135.48  13
   1 -11   1 4168.70 893.678   3
  -1 -11  -1 4922.02 957.456   3
   1  11   1 4771.13 1068.61  12
  -1  11  -1 3646.92 987.425  12
   1 -11   1 4130.67 875.662  19
  -1 -11  -1 3596.61 803.916  19
   1 -11   1 3799.88 777.712  13
  -1 -11  -1 4861.22 891.218  13
   1 -11   2 58.5864 414.643   3
  -1 -11  -2 171.903 430.744   3
  -1  11  -2 71.1416 603.809  12
   1  11   2-204.515 561.123  12
  -1 -11  -2-156.122 396.637  19
   1 -11   2 160.578 400.520  19
  -1 -11  -2 413.552 495.774  13
   1 -11   3 1528.02 634.258   3
  -1  11  -3 1210.49 676.819  12
   1  11   3 3181.87 951.742  12
  -1 -11  -3 1576.22 595.747  19
   1 -11   3 1398.43 578.247  19
  -1 -11  -3 1420.52 561.526  13
   1 -11   4 3476.57 867.058   3
  -1 -11  -4 4992.15 935.537  13
  -1  11  -4 4625.13 1064.17  12
   1  11   4 6045.93 1258.98  12
  -1  11  -4 4126.90 1069.59  21
   1 -11   4 4976.21 946.639  19
  -1 -11  -4 4189.85 882.771  19
   2   0 -14 8127.25 1547.84  11
  -2   0  14 9908.11 1248.86  10
   2   0 -14 8114.93 1552.09   9
   2   0 -14 6261.48 1424.15  17
  -2   0  13 1824.58 613.767  10
   2   0 -13 1865.98 800.903   9
   2   0 -13-289.236 596.721  11
  -2   0  13 2182.13 550.081   4
   2   0 -13 1408.61 647.271  17
  -2   0  12 4918.10 782.074  10
   2   0 -12 2977.55 921.704   9
   2   0 -12 5145.24 1195.46  17
   2   0 -12 2623.43 934.192  11
  -2   0  12 4246.05 716.274   4
   2   0 -11 38840.8 2953.24   9
  -2   0  11 40534.9 2275.62  10
  -2   0  11 42264.1 2091.91  16
   2   0 -11 37763.3 2990.75  17
   2   0 -11 38437.5 2621.86  18
  -2   0  11 34707.5 2303.11   6
   2   0 -11 35556.2 2921.94  11
  -2   0  11 39682.9 2217.03   4
  -2   0  10 82652.0 3255.97  10
   2   0 -10 77778.8 4147.65   9
   2   0 -10 74752.1 3711.46  18
   2   0 -10 66802.0 3953.29  17
  -2   0  10 71778.9 3376.05   6
  -2   0  10 80035.7 2998.60  16
   2   0 -10 66960.2 3956.36  11
  -2   0  10 82504.7 3274.42   4
   2   0  -9 12757.7 1065.59   1
  -2   0   9 9847.77 966.823  10
   2   0  -9 13453.7 1493.00   9
   2   0  -9 9818.05 1338.85  17
   2   0  -9 11182.9 1221.55  18
  -2   0   9 9787.48 1067.95   6
  -2   0   9 11863.4 929.397  16
   2   0  -9 8379.85 1232.92  11
  -2   0   9 13187.0 1113.09   4
   2   0  -8 54723.5 2807.85  18
   2   0  -8 57751.2 3235.57  17
  -2   0   8 57004.9 2704.77   6
  -2   0   8 62068.5 2317.64  16
  -2   0   8 63094.3 2518.84  10
   2   0  -8 60144.4 3215.40   9
   2   0  -8 63592.7 2533.08   1
   2   0  -7 167988. 6194.52  17
   2   0  -7 174075. 5733.10  18
  -2   0   7 164315. 5534.15   6
  -2   0   7 189186. 5914.79  14
   2   0  -7 179412. 4844.42  13
  -2   0   7 182675. 5023.88  16
   2   0  -7 163068. 6215.24  14
  -2   0   7 181535. 4453.22   8
   2   0  -7 188277. 6259.77   9
  -2   0   7 183645. 5284.68  10
   2   0  -7 196253. 5339.68   1
  -2   0   7 177918. 4538.81   3
   2   0  -6 92906.5 3887.35  17
   2   0  -6 97394.5 3546.01  18
  -2   0   6 98794.5 2594.22   8
  -2   0   6 84434.0 3357.49   6
   2   0  -6 82527.3 3771.48  14
   2   0  -6 97316.9 2861.87  13
  -2   0   6 99335.8 2970.64  16
  -2   0   6 97479.7 3666.31  14
   2   0  -6 100698. 3900.89   9
  -2   0   6 101371. 3188.78  10
  -2   0   6 100755. 2690.43   3
   2   0  -6 102498. 3205.06   1
   2   0  -5 1681.88 346.409  18
   2   0  -5 598.740 273.464  17
  -2   0   5 750.467 263.019   6
  -2   0   5 620.024 120.017   8
  -2   0   5 883.035 188.351  16
   2   0  -5 787.724 162.454  13
  -2   0   5 1170.22 333.618  14
   2   0  -5 602.093 241.698  14
  -2   0   5 933.632 218.875  10
   2   0  -5 539.045 273.229   9
  -2   0   5 872.149 138.307   3
   2   0  -5 1383.67 258.845   1
   2   0  -4 152166. 4229.39  18
   2   0  -4 145685. 4548.93  17
  -2   0   4 139969. 4237.57   6
  -2   0   4 138723. 3572.43   8
  -2   0   4 158662. 4528.28  14
   2   0  -4 152355. 3710.48  13
   2   0  -4 141169. 4540.48  14
  -2   0   4 140806. 3704.30  16
  -2   0   4 132276. 3872.00  10
   2   0  -4 143348. 4387.55   9
  -2   0   4 144075. 3621.26   3
   2   0  -4 134043. 3868.96   1
  -2   0   3 400567. 10012.3  10
   2   0  -3 400147. 10312.6   9
   2   0  -3 452751. 10232.9  18
   2   0  -3 429486. 10482.6  17
  -2   0   3 396124. 10222.3   6
  -2   0   3 422952. 9819.65   8
  -2   0   3 446299. 10468.0  14
   2   0  -3 425092. 10538.7  14
  -2   0   3 422512. 9823.31  16
   2   0  -3 425754. 9831.73  13
   2   0  -3 432492. 10479.9  11
  -2   0   3 410115. 9786.83   3
   2   0  -3 382653. 9974.49   1
   2   0  -2 380226. 9607.04   9
  -2   0   2 384144. 9458.20  10
   2   0  -2 444971. 9582.00  18
   2   0  -2 418944. 9740.62  17
  -2   0   2 396023. 9396.75   8
   2   0  -2 423807. 9787.78  14
  -2   0   2 415868. 9721.76  14
   2   0  -2 396690. 9316.35  13
  -2   0   2 399472. 9271.84  16
   2   0  -2 430191. 9754.46  11
  -2   0   2 388910. 9531.14   4
   2   0  -1 34250.3 1009.32   9
  -2   0   1 31114.1 904.364  10
   2   0  -1 32885.1 1017.20  17
   2   0  -1 31698.3 1026.41  14
   2   0  -1 32485.1 891.800  13
  -2   0   1 33016.2 1021.86  14
  -2   0   1 31161.6 973.788   4
   2   0  -1 33004.2 1024.58  11
  -2   0   1 32332.7 968.323   8
   2   0   0 117324. 2559.07  11
  -2   0   0 133905. 2525.90   4
  -2   0  -1 364551. 8223.26   4
   2   0   1 348357. 8239.94   5
  -2   0  -1 343155. 8224.86   2
  -2   0  -1 322373. 8189.50   1
   2   0   1 331844. 8179.34   1
   2   0   1 360186. 8208.08  20
  -2   0  -1 341008. 8257.27  18
   2   0   1 345008. 8312.95   6
   2   0   1 345451. 8221.31  16
   2   0   1 370907. 8064.20  12
   2   0   1 353931. 8081.60  10
  -2   0  -2 171811. 4551.83   1
   2   0   2 169033. 4518.15   1
  -2   0  -2 177236. 4542.31   2
   2   0   2 181032. 4441.48  10
  -2   0  -2 178293. 4675.30  18
   2   0   2 178160. 4705.53   6
   2   0   2 182415. 4559.68  16
   2   0   2 185045. 4432.97  12
   2   0   2 185442. 4594.42   5
   2   0   3 129413. 3481.64  10
  -2   0  -3 140017. 4031.47   9
  -2   0  -3 131401. 3835.52  18
   2   0   3 129389. 3832.25   6
   2   0   3 134582. 3668.90   5
  -2   0  -3 132056. 3879.36  15
   2   0   3 131221. 3575.29  16
   2   0   3 131820. 3485.53  12
   2   0   3 126795. 3600.16   1
  -2   0  -3 129037. 3592.41   2
  -2   0  -3 129450. 3634.80   1
   2   0   4 440779. 10574.4  10
  -2   0  -4 429430. 11304.3   9
  -2   0  -4 440897. 11164.3  18
   2   0   4 432600. 11052.7   6
   2   0   4 431216. 10791.3   5
  -2   0  -4 434224. 11166.0  15
   2   0   4 443307. 10656.0  16
  -2   0  -4 437953. 11833.6  14
   2   0   4 450959. 10583.3  12
  -2   0  -4 432823. 10750.9   2
   2   0   4 436499. 10759.7   1
  -2   0  -4 444379. 10791.5   1
  -2   0  -5 421835. 11122.3  18
   2   0   5 419169. 10670.8   5
   2   0   5 403139. 10943.1   6
   2   0   5 422311. 10487.7  16
  -2   0  -5 384030. 11762.1  14
  -2   0  -5 436393. 11227.8  15
  -2   0  -5 428171. 11375.1   9
   2   0   5 421753. 10420.1  10
  -2   0  -5 430150. 10720.7   2
   2   0   5 417523. 10662.5   1
  -2   0  -5 441633. 10713.2   1
  -2   0  -6 5004.50 828.637  17
  -2   0  -6 5249.09 732.729  18
   2   0   6 3705.92 598.820   6
  -2   0  -6 4477.97 807.956  14
  -2   0  -6 6797.88 848.910  15
   2   0   6 4494.75 522.597  16
  -2   0  -6 5322.12 805.912   9
   2   0   6 4233.78 501.807  10
  -2   0  -6 4995.30 611.704   2
  -2   0  -6 5440.01 611.875   1
   2   0   6 6608.46 695.253   1
  -2   0  -7 87295.7 4101.67  17
  -2   0  -7 89490.6 3748.50  18
   2   0   7 88557.5 3518.30   6
  -2   0  -7 82891.4 4208.56  14
   2   0   7 87967.8 3115.62  16
  -2   0  -7 93685.9 3853.87  15
  -2   0  -7 89303.1 3906.11   9
   2   0   7 86848.8 3084.12  10
   2   0   7 90020.7 3343.89   1
  -2   0  -7 99517.7 3398.52   1
  -2   0  -7 88525.5 3344.95   2
  -2   0  -8 77428.0 3579.48  18
  -2   0  -8 74303.5 3871.79  17
   2   0   8 78314.8 3309.05   6
   2   0   8 77402.5 2931.00  16
   2   0   8 76137.9 2888.10  10
  -2   0  -8 72988.7 3646.51   9
  -2   0  -8 75901.9 3120.13   2
  -2   0  -9 54321.1 3410.23  17
  -2   0  -9 57197.0 3146.03  18
   2   0   9 56960.3 2852.61   6
   2   0   9 63221.7 2657.03  16
   2   0   9 61886.6 2597.53  10
  -2   0  -9 59256.6 3365.62   9
  -2   0  -9 58551.1 2755.62   2
   2   0  10 5421.16 737.921  16
   2   0  10 3949.21 779.161   6
  -2   0 -10 3229.45 880.604  17
  -2   0 -10 4256.31 874.693  18
  -2   0 -10 4231.98 945.607   9
   2   0  10 4271.69 681.499  10
   2   0  11 19726.7 1506.17  16
   2   0  11 19800.3 1690.96   6
  -2   0 -11 14402.5 1639.00  18
  -2   0 -11 18702.1 2085.66  17
   2   0  11 17948.5 1443.33  10
  -2   0 -11 19212.6 2056.02   9
   2   0  12 45970.9 2799.48   6
  -2   0 -12 39609.2 2947.67  18
  -2   0 -12 39941.9 3218.15  17
   2   0  12 52029.3 2677.98  16
  -2   0 -12 41323.0 3262.49   9
   2   0  12 47861.7 2569.00  10
   2   0  13 16542.3 1676.63   6
  -2   0 -13 13065.7 1933.11  17
   2   0  13 17238.5 1546.28  16
   2   0  13 18831.7 1640.85  10
  -2   0 -13 14953.3 2022.12   9
   2   0  14 1771.80 690.688   6
  -2   0 -14 596.933 679.708  11
   2   0  14 1232.66 560.954  10
  -2   0 -14 512.945 677.203   9
  -2   0 -14-607.783 727.520  17
  -2  -2  14 9078.42 1241.96  10
   2  -2 -14 10562.3 1788.25   9
   2   2 -14 10194.7 1750.50   9
  -2   2  14 8763.92 1215.39  10
   2   2 -14 8994.98 1726.41  11
  -2   2  14 9275.82 1274.18   4
   2  -2 -14 8026.56 1569.25  17
   2   2 -14 7232.68 1531.81  17
  -2  -2  13 737.395 449.968  10
   2  -2 -13 18.4297 580.617   9
  -2   2  13 1538.01 600.389  10
   2   2 -13 268.409 478.788   9
   2   2 -13 1436.07 670.639  17
   2  -2 -13 379.092 455.513  17
   2  -2 -13 198.768 426.279  18
   2   2 -13-115.930 621.626  11
  -2   2  13 876.655 493.914   4
   2   2 -12 1031.74 552.625  17
   2  -2 -12 2950.85 954.668  17
   2  -2 -12 2700.14 830.986  18
  -2   2  12 1906.11 645.461   6
   2  -2 -12 1639.75 655.062  11
   2   2 -12 1441.05 825.411  11
  -2  -2  12 2182.37 553.913  10
  -2   2  12 3900.35 778.333  10
   2  -2 -12 3193.89 965.176   9
   2   2 -12 905.710 487.082   9
   2  -2 -11 34031.6 2778.40  17
   2   2 -11 34721.7 2894.92  17
   2  -2 -11 34191.5 2660.64  18
  -2   2  11 37998.4 2428.83   6
  -2   2  11 38468.8 2063.73  16
   2  -2 -11 34267.0 2605.90  11
   2   2 -11 34662.2 3018.79  11
   2   2 -11 35549.3 2877.41   9
  -2   2  11 38504.9 2281.65  10
  -2  -2  11 41595.2 2287.83  10
   2  -2 -11 42225.8 3054.63   9
  -2  -2  10 77465.0 3158.80  10
   2  -2 -10 68952.4 3774.13   9
   2   2 -10 70291.0 3930.46   9
  -2   2  10 73333.1 3162.16  10
  -2  -2  10 69807.3 2933.58  16
   2  -2 -10 63306.2 3616.38  18
   2  -2 -10 60097.7 3650.86  17
   2   2 -10 60358.9 3784.22  17
  -2   2  10 66535.8 3259.82   6
  -2   2  10 73581.8 2918.87  16
   2  -2 -10 61670.1 3518.22  11
   2   2 -10 61206.5 3979.82  11
  -2  -2  10 72499.8 2829.02   4
   2   2  -9 6852.31 1092.25   9
  -2  -2   9 6746.97 809.604  10
   2  -2  -9 7351.03 1090.92   9
  -2   2   9 5989.10 788.023  10
   2   2  -9 8229.08 1221.74  17
  -2  -2   9 6665.13 762.038  16
   2  -2  -9 6455.04 1033.65  18
   2  -2  -9 5396.67 1015.25  17
  -2   2   9 6326.92 877.092   6
  -2   2   9 6405.78 720.419  16
   2  -2  -9 7140.30 852.873  13
   2  -2  -9 5457.34 910.404  11
   2   2  -9 7037.86 1228.24  11
  -2  -2   9 6569.35 715.573   4
  -2  -2   8 34473.0 1563.94   3
   2  -2  -8 38791.6 2425.72   9
  -2   2   8 38305.0 1981.98  10
  -2  -2   8 43556.7 2040.82  10
   2   2  -8 38334.0 2496.53   9
   2   2  -8 37354.3 1972.73  18
   2  -2  -8 36290.6 2397.30  18
  -2  -2   8 36614.3 1826.60  16
   2  -2  -8 34825.6 2382.38  17
   2   2  -8 35286.6 2475.20  17
  -2   2   8 38489.6 2168.98   6
   2  -2  -8 39076.9 2032.46  13
  -2   2   8 38334.6 1799.09  16
   2   2  -8 30253.0 2451.03  11
   2  -2  -8 38038.7 2338.81  11
  -2   2   8 39971.2 2041.72  12
  -2  -2   8 40179.2 1794.57   4
  -2  -2   7 184915. 5230.43   4
  -2   2   7 187378. 5276.90   1
  -2  -2   7 180222. 5116.61   3
   2   2  -7 199907. 5856.44   1
  -2  -2   7 185277. 4865.74  19
   2   2  -7 187527. 5491.54  18
  -2  -2   7 185925. 5372.86  16
   2  -2  -7 182034. 6288.01  18
   2  -2  -7 172791. 6242.56  17
   2   2  -7 171326. 6291.02  17
  -2   2   7 182250. 5833.01   6
  -2   2   7 193546. 5032.33   8
   2  -2  -7 175199. 6246.25  14
   2  -2  -7 194754. 5772.68  13
   2   2  -7 162120. 6326.93  14
  -2  -2   7 178612. 5868.65  14
  -2   2   7 187104. 5619.58  12
   2  -2  -7 175310. 6049.48   9
  -2  -2   7 186841. 5492.05  10
  -2   2   7 187749. 5543.51  10
   2   2  -7 183030. 6337.80   9
  -2  -2   6 71711.4 2398.27   4
   2   2  -6 74282.6 2860.78   1
  -2  -2   6 68703.7 2426.86   3
  -2   2   6 70440.9 2424.30   1
   2  -2  -6 73508.4 1977.34  19
  -2  -2   6 66961.5 2220.47  19
   2   2  -6 70068.1 2558.32  18
   2  -2  -6 74496.6 3252.80  18
  -2  -2   6 70050.1 2484.23  16
   2   2  -6 64643.0 3099.31  17
   2  -2  -6 69622.8 3161.19  17
  -2   2   6 64548.5 2749.06   6
  -2   2   6 70999.4 2385.26   8
   2   2  -6 72820.5 3180.06  15
  -2   2   6 82648.5 3269.67  14
   2  -2  -6 63133.5 3013.38  14
   2  -2  -6 73037.3 2816.45  13
   2   2  -6 59511.9 3098.18  14
  -2  -2   6 66217.0 2874.83  14
  -2   2   6 70307.4 2665.54  12
   2  -2  -6 73117.9 3015.09   9
   2   2  -6 72075.9 3173.39   9
  -2  -2   6 73447.3 2618.93  10
  -2  -2   5 495.517 151.429   4
  -2   2   5 1250.09 231.478   1
   2   2  -5 463.706 205.945   1
  -2  -2   5 1314.36 284.266   3
   2  -2  -5 1819.88 217.347  19
  -2  -2   5 572.031 171.893  19
   2   2  -5 702.783 187.977  18
   2   2  -5 713.531 280.063  17
   2  -2  -5 524.641 219.083  17
   2  -2  -5 1114.89 380.498  18
  -2   2   5 745.875 290.835   6
  -2   2   5 605.820 189.024   8
   2   2  -5 364.877 236.297  15
  -2  -2   5 1021.93 292.199  14
   2  -2  -5 1044.82 282.937  13
   2  -2  -5 637.569 267.425  14
  -2  -2   5 763.330 214.068  16
   2   2  -5 529.739 234.743  14
  -2   2   5 931.115 313.728  14
  -2   2   5 804.711 214.675  12
   2  -2  -5 630.487 265.380   9
   2   2  -5 341.211 218.736   9
  -2  -2   5 2205.51 336.969  10
  -2  -2   4 71807.8 2257.12   4
  -2  -2   4 70008.1 2460.90   3
   2   2  -4 73338.3 2612.41   1
  -2   2   4 72867.8 2183.09   1
   2  -2  -4 80046.8 2250.78  19
  -2  -2   4 73226.8 2335.28  19
  -2  -2   4 74197.6 2395.52  16
   2   2  -4 76113.9 2847.55  17
   2   2  -4 75328.7 2219.30  18
   2  -2  -4 81383.0 2927.03  18
   2  -2  -4 78425.0 2783.48  17
  -2   2   4 74187.4 2552.00   8
  -2   2   4 72431.9 2644.13   6
   2  -2  -4 74628.3 2760.85  14
  -2  -2   4 82011.3 2878.21  14
   2  -2  -4 81244.6 2789.92  13
   2   2  -4 74602.6 2898.77  14
   2   2  -4 75954.3 2858.40  15
  -2   2   4 86174.8 2977.23  14
   2   2  -4 76251.4 3063.99  11
   2  -2  -4 78268.7 2536.66  11
  -2   2   4 70509.8 2480.91  12
  -2  -2   4 73764.8 2430.15  10
   2  -2  -4 78160.1 2684.05   9
   2   2  -4 73123.8 2816.47   9
  -2  -2   3 528598. 12372.9   4
  -2  -2   3 495008. 12686.4   3
  -2   2   3 497219. 12104.9   1
   2  -2  -3 559594. 12496.2  19
  -2  -2   3 541993. 12553.0  19
   2   2  -3 533369. 12114.8  18
   2  -2  -3 537551. 12758.0  17
   2  -2  -3 540432. 12999.9  18
  -2  -2   3 507595. 12549.8  16
   2   2  -3 544546. 12808.7  17
  -2   2   3 525360. 12753.7   6
   2   2  -3 553400. 12995.6  14
   2  -2  -3 538576. 12721.4  14
  -2  -2   3 565188. 12897.2  14
   2   2  -3 498402. 12845.6  15
  -2   2   3 553996. 12956.1  14
   2  -2  -3 547336. 12952.3  13
  -2  -2   3 541807. 12039.4  13
  -2   2   3 525545. 12634.6  12
   2  -2  -3 543912. 12383.5  11
   2   2  -3 533070. 13144.7  11
  -2  -2   3 529475. 12557.3  10
   2   2  -3 488793. 12811.9   9
   2  -2  -3 535419. 12761.0   9
  -2  -2   2 140026. 3723.42   4
   2  -2  -2 139519. 3802.94   3
  -2  -2   2 141653. 4055.51   3
   2  -2  -2 150194. 3944.14  19
  -2  -2   2 147439. 3901.20  19
   2  -2  -2 146562. 3875.83  17
   2   2  -2 154575. 3817.94  17
  -2   2   2 143988. 3838.72   6
  -2  -2   2 147533. 3925.51  14
   2   2  -2 140173. 3912.70  15
   2   2  -2 142737. 3942.93  14
  -2   2   2 151338. 3914.81  14
   2  -2  -2 153460. 3763.80  14
   2  -2  -2 146432. 4136.75  13
  -2  -2   2 147892. 3636.42  13
  -2   2   2 135750. 3885.34  12
   2   2  -2 150099. 4139.50  11
   2  -2  -2 150427. 3502.58  11
  -2  -2   2 139936. 3852.08  10
   2  -2  -2 141376. 3942.03   9
   2   2  -2 139702. 3887.98   9
   2  -2  -1 3914.99 397.983   3
  -2  -2   1 3464.27 311.727   4
   2  -2  -1 4596.52 313.375   5
   2   2  -1 3906.92 389.769  20
  -2  -2   1 3917.08 357.842  19
  -2   2   1 3931.60 283.269  20
   2  -2  -1 4143.63 405.531  19
   2  -2  -1 4553.59 311.266  17
   2   2  -1 3636.54 215.948  17
  -2  -2   1 4098.03 417.963   3
  -2  -2   1 3599.16 289.557  14
   2   2  -1 3444.94 287.743  14
   2  -2  -1 4332.74 414.276  13
  -2   2   1 4031.17 241.574  14
   2  -2  -1 3826.62 213.966  14
   2   2  -1 3979.44 353.161  11
  -2   2   1 3546.58 345.281  12
   2   2  -1 3488.17 234.522   9
  -2  -2   1 3043.18 313.087  10
   2  -2  -1 3085.56 305.124   9
  -2  -2   0 176179. 4578.33   2
  -2  -2   0 181135. 4634.87   3
  -2   2   0 171050. 4352.63   1
   2  -2   0 175114. 4814.45   3
  -2   2   0 167021. 4595.32  21
  -2  -2   0 169613. 4489.34  19
   2   2   0 168560. 4629.45  20
   2  -2   0 180842. 4692.74  19
  -2   2   0 177000. 4209.07  20
   2   2   0 171750. 4646.54  21
  -2  -2   0 178280. 4355.19  18
   2  -2   0 173167. 4552.98  13
   2   2   0 168936. 4295.92  11
   2   2   0 169223. 4678.32  12
  -2   2   0 168695. 4532.55  12
   2  -2   0 166633. 4417.94   5
  -2  -2   0 180587. 4567.96   4
   2  -2   1 456713. 11595.5   5
  -2  -2  -1 500440. 11821.2   4
   2  -2   1 476040. 11981.3   3
  -2   2  -1 488624. 11629.8   1
  -2  -2  -1 487253. 11568.7   3
  -2  -2  -1 461742. 11801.7   2
  -2  -2  -1 467975. 11529.5  19
   2  -2   1 497234. 11791.5  19
   2   2   1 483483. 11693.7  20
  -2  -2  -1 468774. 11636.5  18
   2  -2   1 490656. 11682.8  16
   2  -2   1 516097. 11209.2   6
   2   2   1 470781. 11480.9   6
   2  -2   1 494051. 11514.1  13
   2   2   1 486635. 11319.9  11
   2   2   1 478084. 11654.3  12
   2  -2   1 492453. 11564.4  10
  -2  -2  -1 513045. 11242.1   9
   2  -2   2 36760.4 1516.63   5
   2  -2   2 38370.9 1705.31   3
  -2   2  -2 39447.9 1576.45   1
  -2  -2  -2 39520.1 1680.40   2
  -2  -2  -2 42165.9 1371.40   3
   2   2   2 36583.1 1507.12  20
   2  -2   2 39254.8 1526.33  19
   2  -2   2 36409.8 1453.49  16
  -2  -2  -2 38881.7 1633.18  18
   2  -2   2 36322.8 1308.82   6
   2   2   2 38298.8 1490.42   6
  -2   2  -2 39040.4 1781.11  14
   2  -2   2 35901.7 1267.61  13
   2   2   2 34918.4 1405.86  12
  -2  -2  -2 37781.1 1355.14   9
   2  -2   2 37423.0 1359.31  10
   2  -2   3 37236.0 1009.44   4
   2  -2   3 34914.4 1580.77   5
   2  -2   3 32994.9 1514.69   1
  -2  -2  -3 35693.7 1719.49   2
   2  -2   3 37336.0 1713.37   3
  -2  -2  -3 40584.9 1251.89   3
  -2   2  -3 35374.8 1615.89   1
   2  -2   3 35033.7 1459.61  19
   2   2   3 35960.9 1572.54  20
   2  -2   3 35173.5 1465.39  16
  -2  -2  -3 37296.5 1752.21  18
   2  -2   3 33664.3 1419.89   6
   2   2   3 36752.2 1597.65   6
  -2   2  -3 34291.5 1896.31  14
   2   2   3 34886.1 1437.50  12
  -2  -2  -3 37039.2 1541.82   9
   2  -2   3 35029.4 1374.75  10
   2  -2   4 433996. 9591.59   4
   2   2   4 393479. 9950.42   1
   2  -2   4 446959. 10614.1   3
  -2  -2  -4 459379. 9534.33   3
  -2   2  -4 426359. 9901.16   2
   2  -2   4 380224. 10328.9   1
  -2   2  -4 415518. 10551.0   1
  -2  -2  -4 403871. 10728.2   2
   2  -2   4 419370. 10141.5  19
   2  -2   4 410020. 10234.2  16
  -2   2  -4 407773. 10154.1  18
  -2  -2  -4 402203. 10912.2  17
  -2  -2  -4 392039. 10739.2  18
   2  -2   4 411151. 10316.7   6
   2   2   4 422500. 10581.2   6
   2  -2   4 398006. 10424.8   5
  -2   2  -4 378625. 11229.2  14
  -2  -2  -4 434090. 11139.3  14
   2   2   4 409020. 10173.0  12
   2  -2   4 417810. 10099.4  10
  -2  -2  -4 388058. 10409.4   9
   2  -2   5 366233. 8661.53   4
   2  -2   5 388098. 9418.22   3
  -2  -2  -5 361212. 9886.42   2
   2   2   5 350897. 9056.38   1
   2  -2   5 344101. 9430.44   1
  -2   2  -5 360558. 9608.42   1
  -2   2  -5 365253. 8895.42   2
   2  -2   5 357709. 9059.66  19
   2  -2   5 366952. 9294.49  16
  -2   2  -5 359481. 9349.19  18
  -2  -2  -5 358848. 9971.16  18
  -2  -2  -5 352661. 10123.6  17
  -2   2  -5 364355. 8400.52   8
   2  -2   5 346094. 9490.91   5
   2   2   5 363520. 9683.07   6
   2  -2   5 355878. 9376.66   6
  -2   2  -5 324785. 10396.2  14
  -2   2  -5 361831. 9933.27  15
  -2  -2  -5 341869. 10289.9  14
   2   2   5 362376. 9231.54  12
   2  -2   5 358995. 9142.24  10
  -2   2  -5 354592. 10058.2   9
  -2  -2  -5 357996. 9651.37   9
   2   2   6 1255.16 281.748   1
  -2  -2  -6 1598.13 435.896   2
  -2   2  -6 1867.04 436.163   1
  -2   2  -6 1431.84 276.562   2
   2  -2   6 680.131 246.369   3
   2  -2   6 1254.17 313.686  10
  -2  -2  -6 857.877 337.375   9
  -2   2  -6 2201.71 561.119   9
  -2   2  -6 1247.91 350.012  18
  -2  -2  -6 1712.31 478.469  17
  -2  -2  -6 1244.35 437.182  18
   2  -2   6 1604.70 375.238   6
  -2   2  -6 1889.75 335.241   7
   2  -2   6 1100.86 283.167  16
  -2   2  -6 1112.29 407.326  15
  -2   2  -6 745.083 341.257  14
  -2  -2  -6 2746.14 632.333  14
   2   2   6 793.066 281.344  12
   2  -2   6 895.115 191.456   4
   2  -2   6 769.611 290.504   5
  -2  -2  -7 58446.0 2814.09   2
   2   2   7 52684.0 2285.98   1
  -2   2  -7 51635.6 2093.92   2
  -2   2  -7 50733.6 2936.92   9
  -2  -2  -7 52679.6 2705.14   9
   2  -2   7 53575.4 2292.13  10
   2   2   7 55202.1 2322.40  10
   2  -2   7 54341.3 2375.90  16
  -2  -2  -7 52584.6 2952.67  17
  -2   2  -7 52842.2 2584.62  18
  -2  -2  -7 59030.4 2998.65  18
  -2   2  -7 50043.0 3011.26  17
   2  -2   7 51737.2 2461.94   5
   2   2   7 58655.0 2750.77   6
   2  -2   7 52379.8 2394.94   6
  -2   2  -7 57217.3 2124.37   7
  -2   2  -7 50787.0 2870.77  15
   2   2   7 54029.7 2326.04  16
  -2  -2  -7 50818.3 3053.41  14
   2   2   7 55030.7 2366.07  12
   2  -2   7 55673.8 1952.82   4
   2  -2   7 56150.2 2140.29   3
  -2  -2  -8 78125.8 3588.42   2
   2   2   8 84503.9 3229.41   1
   2   2   8 81694.2 3128.80  10
  -2   2  -8 70358.6 3852.12   9
  -2  -2  -8 85007.1 3766.39   9
   2  -2   8 78490.4 3084.35  10
  -2   2  -8 74859.1 3939.71  17
  -2  -2  -8 77699.0 3903.93  17
   2  -2   8 83544.7 3207.34  16
  -2  -2  -8 85030.9 3899.98  18
  -2   2  -8 76269.8 3467.70  18
   2  -2   8 74364.0 3163.94   6
   2   2   8 83061.8 3527.39   6
  -2  -2  -8 77782.2 3305.52  13
   2   2   8 81573.0 3130.74  16
  -2   2  -8 79201.0 3908.67  15
   2   2   8 82168.2 3214.23  12
   2  -2   8 81708.4 2709.18   4
  -2   2  -9 46117.5 2660.31  18
  -2  -2  -9 44769.1 2858.37  18
  -2  -2  -9 47034.6 3038.20  17
  -2   2  -9 44056.9 3036.90  17
   2  -2   9 48889.5 2387.50  16
   2   2   9 47287.4 2616.11   6
   2  -2   9 43313.5 2340.67   6
   2   2   9 49154.6 2363.80  16
  -2   2  -9 46074.2 3019.22  15
  -2  -2  -9 41119.2 2331.96  13
   2   2   9 47901.4 2384.18  12
  -2   2  -9 44230.4 3021.01   9
  -2  -2  -9 50188.3 2922.85   9
   2  -2   9 49832.8 2340.56  10
   2   2   9 50852.2 2390.72  10
   2  -2  10 4098.73 700.250  16
   2   2  10 4030.10 666.905  16
   2  -2  10 3847.86 689.969   6
   2   2  10 2836.12 662.225   6
  -2   2 -10 3671.35 769.724  18
  -2  -2 -10 3036.84 844.278  17
  -2  -2 -10 3730.20 870.970  18
  -2   2 -10 3320.81 868.300  17
   2   2  10 3833.20 657.641  10
  -2   2 -10 3218.64 856.206   9
  -2  -2 -10 2878.13 771.702   9
   2  -2  10 2864.80 568.946  10
   2   2  11 15172.8 1370.65  16
   2   2  11 13484.1 1442.66   6
   2  -2  11 12731.9 1307.30   6
   2  -2  11 14696.2 1357.80  16
  -2   2 -11 10147.4 1597.78  17
  -2  -2 -11 12964.1 1635.48  18
  -2  -2 -11 12891.5 1691.97  17
   2   2  11 14495.7 1337.45  10
   2  -2  11 13728.0 1291.56  10
  -2   2 -11 13657.0 1819.29   9
  -2  -2 -11 13192.6 1649.59   9
   2   2  12 47000.0 2617.60  16
   2   2  12 45824.9 2851.92   6
   2  -2  12 41663.9 2595.34   6
  -2  -2 -12 43631.2 3314.38  17
  -2   2 -12 37726.8 3213.21  17
  -2  -2 -12 36466.6 2945.05  18
   2  -2  12 47424.0 2653.54  16
  -2  -2 -12 44251.2 3301.58   9
   2  -2  12 46573.2 2597.45  10
  -2   2 -12 41805.0 3356.75   9
   2   2  12 48650.0 2703.73  10
   2  -2  13 13147.0 1401.52  16
  -2  -2 -13 10084.8 1663.49  17
  -2   2 -13 9622.37 1657.82  17
  -2  -2 -13 10613.0 1598.25  18
   2  -2  13 9659.97 1233.20   6
   2   2  13 12917.5 1492.83   6
  -2   2 -13 9915.11 1721.80  11
   2  -2  13 9000.17 1162.47  10
  -2   2 -13 10879.0 1779.67   9
  -2  -2 -13 11925.3 1740.15   9
   2   2  13 11956.0 1354.41  10
   2   2  13 14330.6 1437.13  16
   2  -2  14 1479.26 613.659  10
   2   2  14 716.317 514.249  10
  -2  -2 -14 250.325 462.188  18
   2   4 -13 619.882 692.031  17
   2  -4 -13 222.952 512.347  17
  -2   4  13 459.764 438.307  10
   2   4 -13 1037.76 711.603   9
   2  -4 -13 108.874 475.771   9
  -2  -4  13 139.936 388.118  10
   2   4 -13 217.105 690.854  11
   2  -4 -12 1955.62 735.302  17
   2   4 -12 2020.26 756.911  17
   2  -4 -12 1626.84 686.027  18
   2   4 -12 900.777 568.385  11
  -2  -4  12 2894.18 745.829  10
   2  -4 -12 1208.51 592.494   9
  -2   4  12 1705.83 606.965  10
   2   4 -12 2358.67 899.790   9
   2   4 -11 22177.5 2310.03  17
   2  -4 -11 21161.3 2172.84  18
   2  -4 -11 24212.3 2268.46  17
  -2   4  11 22035.5 1873.73   6
  -2   4  11 24942.7 1777.45  16
   2   4 -11 21552.6 2537.54  11
  -2   4  11 27801.7 2097.04  12
  -2   4  11 23960.6 1906.25  10
   2  -4 -11 27547.1 2368.68   9
  -2  -4  11 29145.6 2031.80  10
   2   4 -11 23508.3 2358.54   9
  -2  -4  10 45476.6 2505.27  16
   2  -4 -10 40286.8 2979.31  18
   2  -4 -10 45087.9 3004.96  17
   2   4 -10 46224.9 3207.74  17
  -2   4  10 44576.4 2629.54   6
  -2   4  10 48908.4 2504.72  16
   2  -4 -10 50402.5 2891.05  13
  -2   4  10 50997.7 2846.19  12
   2   4 -10 42974.3 3448.55  11
  -2  -4  10 50259.5 2681.63  10
  -2   4  10 51307.7 2772.22  10
   2  -4 -10 46482.2 2980.51   9
   2   4 -10 45909.1 3178.87   9
   2  -4  -9 4787.27 927.612   9
   2   4  -9 4599.41 973.864   9
  -2  -4   9 5095.54 790.868  10
   2  -4  -9 4381.23 909.664  17
   2  -4  -9 3648.75 901.159  18
   2   4  -9 5775.97 1047.29  17
  -2   4   9 5483.79 846.738   6
  -2  -4   9 4781.99 761.944  16
   2  -4  -9 5545.61 874.508  13
   2   4  -9 5180.41 1173.91  11
  -2   4   9 6559.84 950.157  12
  -2  -4   9 3759.70 565.312   3
  -2  -4   8 30122.0 1654.35   3
  -2  -4   8 29084.6 1519.95  19
  -2  -4   8 31005.9 1854.34  16
   2  -4  -8 30349.0 2343.41  18
   2  -4  -8 29361.5 2095.45  17
   2   4  -8 28640.3 2186.57  17
  -2   4   8 36265.6 1873.89   8
  -2   4   8 32243.7 1993.21   6
   2   4  -8 33025.7 2414.03  15
   2  -4  -8 33292.5 2173.44  13
  -2   4   8 33780.0 2045.47  12
   2   4  -8 27017.4 2400.08  11
  -2  -4   8 32088.7 1896.91  10
   2  -4  -8 33942.7 2187.38   9
   2   4  -8 28466.4 2167.59   9
  -2  -4   7 106724. 3206.09   4
  -2  -4   7 95866.9 3500.86   3
  -2  -4   7 97260.3 3363.93  19
   2   4  -7 90677.3 4089.50  17
   2  -4  -7 103773. 4073.89  17
   2  -4  -7 99810.3 4427.70  18
  -2   4   7 100654. 3839.73   6
  -2   4   7 106348. 3835.83   8
   2  -4  -7 108466. 4235.85  13
   2  -4  -7 94048.1 3903.54  14
   2   4  -7 104864. 4465.53  15
   2   4  -7 86052.7 4455.15  11
  -2   4   7 110144. 3982.07  12
  -2  -4   7 107120. 3772.23  10
   2  -4  -7 110451. 4108.11   9
   2   4  -7 102989. 4321.83   9
  -2  -4   6 56096.7 1939.43   4
  -2  -4   6 49023.2 2214.05   3
  -2   4   6 53042.3 1831.21   1
  -2  -4   6 51725.1 2143.45  19
   2  -4  -6 54887.2 2190.35  19
   2  -4  -6 53341.4 2785.87  18
   2   4  -6 48096.8 2514.37  17
   2  -4  -6 54573.6 2488.05  17
  -2   4   6 50527.8 2360.51   6
  -2  -4   6 50507.3 2377.22  14
   2  -4  -6 56023.5 2728.90  13
   2   4  -6 45791.6 2562.84  14
   2  -4  -6 52695.4 2443.64  14
   2   4  -6 50545.6 2748.99  15
   2   4  -6 47338.6 2871.28  11
  -2   4   6 56074.0 2505.03  12
   2   4  -6 47252.5 2588.02   9
   2  -4  -6 55202.9 2505.80   9
  -2  -4   6 57065.5 2394.89  10
  -2  -4   5 2.70223 116.533   4
  -2   4   5 447.014 128.460   1
   2   4  -5 295.182 209.370   1
  -2  -4   5 50.3242 230.494   3
   2  -4  -5 670.145 280.253  19
  -2  -4   5 109.183 171.363  19
   2  -4  -5 199.544 281.068  18
   2  -4  -5 177.392 244.514  17
   2   4  -5 97.3212 174.689  17
  -2   4   5 107.669 159.525   6
   2  -4  -5 1727.37 358.942  14
  -2  -4   5 322.509 209.674  14
   2   4  -5 166.282 185.007  14
   2  -4  -5 97.0234 253.097  13
  -2  -4   5 139.120 73.3743  13
   2   4  -5 1249.50 394.798  15
   2  -4  -5 379.337 123.892  11
  -2   4   5 297.717 267.007  12
   2   4  -5 761.851 390.870  11
   2   4  -5 67.4344 193.437   9
   2  -4  -5-139.164 203.370   9
  -2  -4   5 402.940 237.350  10
   2  -4  -4 63487.7 2248.01   3
  -2  -4   4 61435.3 2089.19   4
  -2   4   4 63735.5 1876.52   1
  -2  -4   4 63853.3 2572.61   3
   2  -4  -4 78011.4 2659.93  19
  -2  -4   4 63906.6 2456.76  19
   2   4  -4 65798.0 1822.15  18
   2  -4  -4 65440.3 2775.76  18
   2  -4  -4 65401.0 2369.30  17
   2   4  -4 66753.2 2429.29  17
  -2   4   4 69154.0 2517.75   6
  -2  -4   4 57894.6 2424.68  14
   2  -4  -4 70207.1 2895.47  13
  -2  -4   4 63371.0 1952.05  13
   2   4  -4 62255.2 2654.45  15
   2  -4  -4 67406.7 2236.17  14
   2   4  -4 62964.8 2520.87  14
   2   4  -4 63800.3 2867.66  11
  -2   4   4 64908.3 2632.64  12
   2  -4  -4 65003.2 1652.09  11
   2   4  -4 61938.0 2605.75   9
   2  -4  -4 63584.5 2456.74   9
  -2  -4   4 65812.9 2492.18  10
   2  -4  -3 254718. 6879.83   3
   2  -4  -3 247624. 6321.37   5
  -2  -4   3 249123. 6478.90   4
  -2  -4   3 251565. 7111.83   3
   2   4  -3 248504. 7011.50  20
   2  -4  -3 268891. 7073.07  19
  -2   4   3 244732. 6823.04  20
  -2  -4   3 245791. 6850.31  19
   2  -4  -3 255562. 6541.89  17
   2   4  -3 258349. 6440.97  17
  -2   4   3 267283. 6653.05   6
   2   4  -3 248619. 6684.46  14
  -2  -4   3 244142. 6384.62  13
  -2  -4   3 256055. 6783.77  14
   2  -4  -3 258695. 7288.72  13
   2  -4  -3 254701. 6221.89  14
   2   4  -3 259146. 7162.67  11
  -2   4   3 256974. 7087.39  12
   2   4  -3 244941. 6789.82   9
  -2  -4   3 254463. 6912.62  10
   2  -4  -3 251506. 6745.17   9
  -2  -4   2 128711. 3753.60   4
   2  -4  -2 128769. 3563.41   5
  -2  -4   2 133365. 4311.68   3
   2  -4  -2 133027. 4230.41   3
   2  -4  -2 131127. 4156.65  19
  -2  -4   2 127428. 3983.24  19
  -2   4   2 120405. 3790.06  20
   2   4  -2 132019. 4173.38  20
   2  -4  -2 133014. 3534.94  17
   2   4  -2 133608. 3264.45  17
  -2  -4   2 130264. 3937.43   5
   2  -4  -2 134214. 4260.73  13
  -2  -4   2 130583. 3681.90  14
   2   4  -2 131817. 3648.80  14
  -2  -4   2 128000. 3720.27  13
  -2   4   2 128924. 4175.64  12
   2   4  -2 131039. 3985.66  11
  -2  -4   2 129684. 4060.72  10
   2  -4  -2 129581. 3810.62   9
  -2  -4   1 10400.7 897.329   3
   2  -4  -1 9325.88 897.667   3
  -2  -4   1 9718.13 664.621   5
   2  -4  -1 10202.6 853.716  19
  -2   4   1 10031.4 683.016  20
  -2  -4   1 9198.95 743.818  19
   2   4  -1 8806.20 784.915  20
   2   4  -1 8450.55 857.664  21
  -2  -4   1 9650.39 542.983  14
  -2  -4   1 8843.32 684.067  13
   2  -4  -1 9350.22 806.905  13
   2   4  -1 10064.2 687.709  11
   2   4  -1 10288.1 922.393  12
  -2  -4   1 10674.1 843.150  10
  -2   4   1 9567.42 850.737  12
  -2  -4   1 9001.64 699.812   4
   2  -4  -1 9451.76 627.301   5
  -2  -4   0 137600. 4356.48   3
   2  -4   0 139233. 4576.49   3
   2   4   0 133644. 4204.18  20
   2  -4   0 137119. 4304.94  19
  -2   4   0 131380. 3804.73  20
  -2  -4   0 126087. 4056.39  19
   2   4   0 134222. 4379.12  21
  -2   4   0 136424. 4365.68  21
   2   4   0 131730. 3538.74   6
  -2  -4   0 147143. 3641.71   5
  -2  -4   0 133058. 4068.39  13
   2  -4   0 136142. 4182.55  13
  -2  -4   0 136603. 3428.70  14
  -2   4   0 143303. 3573.99  11
  -2   4   0 131277. 4272.76  12
   2   4   0 128820. 3617.77  11
   2   4   0 130568. 4371.65  12
  -2  -4   0 130245. 4101.26   4
   2  -4   0 131242. 3865.03   5
   2  -4   1 203260. 5726.43   5
  -2   4  -1 219219. 5774.40   1
   2  -4   1 209305. 6374.67   3
  -2  -4  -1 216774. 6040.21   3
  -2   4  -1 203873. 6151.78  21
  -2  -4  -1 214823. 5883.90  19
  -2   4  -1 207624. 5550.09  20
   2  -4   1 203194. 6034.49  19
   2   4   1 204830. 5976.45  20
  -2  -4  -1 211752. 5731.73  18
  -2  -4  -1 224348. 4941.28  17
   2   4   1 211076. 5437.31   6
  -2   4  -1 210100. 5137.45  14
  -2  -4  -1 203019. 5940.83  13
   2  -4   1 209547. 5778.90  13
   2   4   1 212097. 5278.29  11
   2  -4   1 208385. 5986.56  10
  -2   4  -1 215045. 6124.24  12
   2   4   1 206910. 6141.03  12
  -2  -4  -1 209914. 5179.89   9
   2  -4   2 51227.6 2106.27   5
   2  -4   2 48886.8 2389.92   3
  -2   4  -2 53273.0 2133.44   1
  -2  -4  -2 53829.6 2145.24   3
  -2   4  -2 51414.3 1891.56  20
  -2  -4  -2 52172.5 2102.26  19
   2   4   2 51734.3 2223.10  20
   2  -4   2 51760.7 2212.51  19
  -2  -4  -2 53781.4 1664.81  17
  -2  -4  -2 51806.3 2124.19  18
   2   4   2 52840.8 1931.97   6
   2  -4   2 52305.8 1958.57  13
  -2   4  -2 48650.7 1849.71  14
  -2  -4  -2 50729.7 2263.59  13
   2   4   2 51182.5 2241.26  12
   2  -4   2 52528.5 2138.72  10
  -2  -4  -2 49224.5 1660.69   9
   2  -4   3 29857.7 1590.99   5
  -2   4  -3 32979.4 1694.72   1
  -2  -4  -3 33090.4 1539.44   3
   2  -4   3 31746.4 1835.33   3
   2   4   3 31014.7 1688.67  20
   2  -4   3 30880.0 1620.99  19
  -2  -4  -3 32250.7 1575.05  19
  -2  -4  -3 30397.4 1663.16  18
  -2  -4  -3 32571.6 1399.62  17
   2   4   3 28360.9 1467.85   6
  -2  -4  -3 31797.0 1561.78  14
  -2   4  -3 30916.5 1572.30  14
   2  -4   3 30710.6 1348.74  13
  -2  -4  -3 32965.5 1801.07  13
   2   4   3 31173.8 1662.03  12
  -2  -4  -3 30584.7 1311.77   9
   2  -4   3 30718.5 1535.93  10
   2  -4   4 222584. 5246.92   4
  -2   4  -4 240536. 6615.60   1
   2  -4   4 223145. 6632.90   3
  -2  -4  -4 229221. 5997.33   3
  -2  -4  -4 221530. 6184.63  19
   2   4   4 216763. 6516.87  20
   2  -4   4 217895. 6282.48  19
  -2  -4  -4 220178. 6629.56  18
   2  -4   4 212257. 6331.79  16
  -2  -4  -4 217915. 6180.96  17
   2   4   4 216978. 6278.68   6
   2  -4   4 213674. 6394.63   5
   2  -4   4 213499. 5608.37   6
   2  -4   4 212737. 5711.27  13
  -2  -4  -4 219446. 6658.77  13
  -2   4  -4 193584. 6367.73  14
  -2  -4  -4 209373. 6427.68  14
   2   4   4 214844. 6329.00  12
   2  -4   4 208927. 6109.93  10
  -2  -4  -4 230894. 6052.80   9
   2   4   5 199913. 5609.14   1
  -2   4  -5 226823. 6468.80   1
  -2  -4  -5 203582. 5372.19   3
  -2   4  -5 202598. 5535.56   2
   2  -4   5 204252. 6180.29   3
   2   4   5 217796. 6472.06  20
  -2  -4  -5 203494. 5878.45  19
   2  -4   5 208098. 6013.88  19
   2  -4   5 202934. 6130.79  16
  -2   4  -5 208892. 5812.67  18
  -2  -4  -5 197441. 6125.35  17
  -2  -4  -5 202370. 6532.26  18
   2  -4   5 202813. 6241.04   5
   2  -4   5 192672. 5486.52   6
   2   4   5 213916. 6223.24   6
  -2   4  -5 195153. 6452.24  14
  -2  -4  -5 195119. 6385.80  14
  -2  -4  -5 211034. 6531.84  13
   2   4   5 211477. 6163.74  12
  -2  -4  -5 215998. 6031.91   9
   2  -4   5 199769. 5890.04  10
   2  -4   6 4460.94 672.997   5
   2   4   6 3209.75 455.356   1
   2  -4   6 2592.81 475.826   3
  -2   4  -6 3327.36 409.931   2
   2  -4   6 2033.26 403.527  19
  -2  -4  -6 4422.13 558.871  19
  -2  -4  -6 3690.10 633.463  17
  -2   4  -6 3201.29 712.502  17
  -2   4  -6 3805.18 539.366  18
  -2  -4  -6 3120.98 681.898  18
   2   4   6 4210.66 661.297   6
   2  -4   6 2815.80 444.617   6
   2  -4   6 3952.15 636.696  16
  -2  -4  -6 2573.30 585.897  14
  -2   4  -6 3150.70 668.993  14
  -2   4  -6 3544.47 742.470  15
   2   4   6 3532.92 587.669  12
  -2  -4  -6 3206.59 635.926  13
  -2   4  -6 3551.57 729.039   9
   2  -4   6 3252.56 541.605  10
  -2  -4  -6 3389.20 573.874   9
   2   4   7 45896.1 2042.08   1
   2  -4   7 41476.1 2062.07   3
  -2  -4  -7 45383.4 2029.54  19
   2  -4   7 41625.8 2043.20  19
  -2   4  -7 45743.4 2797.68  17
  -2   4  -7 45279.5 2241.96  18
   2  -4   7 44348.6 2332.09  16
  -2  -4  -7 43574.3 2655.58  18
  -2  -4  -7 47695.7 2556.14  17
   2   4   7 46498.0 2426.82   6
   2  -4   7 45834.2 2419.48   5
   2  -4   7 41685.1 1949.98   6
  -2  -4  -7 42416.3 2431.39  13
  -2  -4  -7 36144.1 2388.97  14
  -2   4  -7 42178.3 2760.19  15
   2   4   7 48135.5 2356.45  12
  -2  -4  -7 44401.3 2394.90   9
   2  -4   7 45724.6 2187.73  10
  -2   4  -7 43176.1 2779.66   9
   2  -4   8 42413.3 2111.70   3
   2  -4   8 49024.6 2240.06  19
  -2  -4  -8 47035.5 2913.97  18
   2  -4   8 49985.6 2585.52  16
  -2   4  -8 42076.5 2876.28  17
  -2  -4  -8 51992.5 2884.95  17
   2   4   8 51747.2 2631.94   6
   2  -4   8 46195.1 2173.80   6
   2  -4   8 45033.3 2489.19   5
  -2  -4  -8 46076.5 2627.40  13
  -2   4  -8 49508.5 3167.15  15
   2   4   8 50615.0 2546.31  12
   2  -4   8 52506.6 2477.88  10
  -2   4  -8 42832.2 2965.81   9
  -2  -4  -8 53103.9 2786.80   9
  -2   4  -9 29214.3 2446.79  17
  -2  -4  -9 30518.1 2452.42  18
   2  -4   9 32276.7 2100.96  16
  -2  -4  -9 30697.1 2274.13  17
   2   4   9 33359.2 2134.67   6
   2  -4   9 30748.5 1782.21   6
   2   4   9 31329.0 1995.78  16
  -2   4  -9 30783.3 2647.07  15
  -2  -4  -9 27845.8 2042.67  13
   2   4   9 32889.5 2092.03  12
   2  -4   9 32198.0 1986.92  10
  -2   4  -9 31868.7 2599.39   9
  -2  -4  -9 32430.3 2266.15   9
  -2   4 -10 1014.21 469.080  17
  -2  -4 -10 2109.11 681.130  17
  -2  -4 -10 3580.98 954.327  18
   2  -4  10 1942.96 488.980   6
   2   4  10 2642.80 646.094   6
   2  -4  10 3304.54 721.810  16
   2   4  10 3093.51 655.695  16
  -2   4 -10 1664.76 724.922  15
  -2  -4 -10 2229.55 606.938  13
   2   4  10 2514.75 648.487  12
   2   4  10 2058.73 548.975  10
  -2   4 -10 1644.85 578.396   9
   2  -4  10 3312.92 701.946  10
  -2  -4 -10 2837.85 717.976   9
  -2  -4 -11 9246.34 1380.62  17
  -2  -4 -11 10898.5 1528.49  18
  -2   4 -11 9604.30 1524.56  17
   2   4  11 11771.0 1392.17   6
   2   4  11 13407.2 1368.10  16
   2  -4  11 10570.6 1273.38  16
  -2   4 -11 11119.4 1746.44  15
   2   4  11 11942.9 1349.38  12
  -2  -4 -11 10753.1 1454.68   9
   2  -4  11 10617.8 1235.94  10
   2   4  11 10710.7 1283.23  10
  -2   4 -11 9667.93 1563.90   9
  -2  -4 -12 27692.9 2475.63  17
  -2   4 -12 25604.6 2602.96  17
  -2  -4 -12 24427.2 2437.51  18
   2  -4  12 29604.2 2202.78  16
   2   4  12 29001.3 2232.72   6
   2   4  12 31563.4 2230.23  16
  -2   4 -12 29585.6 2986.57  11
   2  -4  12 28385.4 2118.65  10
   2   4  12 32786.0 2293.95  10
  -2   4 -12 26606.8 2731.09   9
  -2  -4 -12 27823.8 2471.89   9
  -2  -4 -13 8133.88 1488.00  18
  -2  -4 -13 7719.46 1384.76  17
  -2   4 -13 7037.01 1422.16  17
   2   4  13 8476.37 1246.65   6
   2   4  13 7405.75 1123.50  16
   2   4  13 8315.80 1213.89  10
  -2   4 -13 8689.56 1639.18   9
   2  -4  13 8237.03 1164.25  10
  -2  -4 -13 8105.43 1428.45   9
  -2   4 -13 10460.8 1849.38  11
  -2   6  12 1524.82 657.608  10
   2  -6 -12 1507.61 759.180   9
  -2  -6  12 1200.01 579.298  10
  -2   6  12 1998.68 750.027  12
   2   6 -12 3177.67 1244.95  11
  -2   6  11 16179.7 1583.27  16
  -2   6  11 15495.4 1765.81  12
   2   6 -11 18060.4 2377.05  11
   2  -6 -11 14945.3 1738.43   9
  -2  -6  11 14589.1 1596.90  10
  -2   6  11 13800.5 1633.01  10
   2  -6 -10 21196.8 1964.53   9
  -2  -6  10 23415.8 1949.44  10
   2  -6 -10 23977.7 1965.45  17
   2  -6 -10 25445.1 2202.55  13
   2   6 -10 21010.6 2418.48  11
  -2   6  10 24316.7 2138.57  12
  -2  -6  10 21381.3 1558.16   3
   2  -6  -9 3595.93 809.907   9
  -2  -6   9 1845.79 562.781  10
   2  -6  -9 2766.90 669.535  17
  -2   6   9 3323.55 704.316   6
   2  -6  -9 3911.53 868.364  13
   2   6  -9 2890.13 789.630  15
  -2   6   9 2898.62 761.587  12
   2   6  -9 3647.34 935.299  11
  -2  -6   9 2874.44 586.166   3
  -2  -6   8 13051.5 1203.92   3
  -2  -6   8 16621.2 1265.41  19
   2  -6  -8 16962.0 1419.92  17
  -2   6   8 16915.2 1580.48   8
  -2   6   8 14712.9 1320.78   6
   2   6  -8 17894.4 1843.04  15
   2  -6  -8 16230.6 1673.01  13
   2   6  -8 12586.3 1655.75  11
  -2   6   8 18826.5 1703.08  12
   2  -6  -8 17945.9 1545.68   9
  -2  -6   8 17900.0 1532.37  10
  -2  -6   7 45359.0 2424.10   3
  -2  -6   7 50179.4 2410.95  19
   2  -6  -7 58685.6 2613.09  17
  -2   6   7 49834.3 2522.27   6
   2  -6  -7 55927.4 3100.56  13
   2   6  -7 49894.5 3068.13  15
   2   6  -7 50893.1 3198.63  11
  -2   6   7 59851.3 3093.93  12
  -2  -6   7 53943.7 2730.76  10
   2  -6  -7 56404.0 2721.73   9
  -2  -6   6 23558.5 1607.23   3
   2  -6  -6 26307.4 1711.30  19
   2   6  -6 22825.2 1700.45  20
  -2  -6   6 27184.9 1654.10  19
   2  -6  -6 24809.3 1469.33  17
  -2   6   6 24315.0 1575.88   6
   2  -6  -6 24322.5 1929.57  13
   2   6  -6 21538.3 1804.22  15
  -2   6   6 26586.7 1929.57  12
   2   6  -6 21666.9 1879.19  11
   2  -6  -6 25310.4 1630.81   9
  -2  -6   6 26271.8 1768.47  10
   2  -6  -5 114.840 197.904   3
  -2  -6   5 69.4118 244.659   3
  -2  -6   5 146.697 244.957  19
   2   6  -5 316.446 309.976  20
   2  -6  -5 404.071 233.505  19
   2  -6  -5 422.653 236.780  17
  -2   6   5 569.481 287.488   6
   2  -6  -5 1112.61 465.935  13
   2   6  -5-73.3119 253.833  15
   2   6  -5 585.392 389.604  11
  -2   6   5-12.5790 334.532  12
   2  -6  -5 116.714 225.700   9
  -2  -6   5 272.766 320.818  10
   2  -6  -4 35230.3 1869.04   3
  -2  -6   4 30764.4 1477.50   4
  -2  -6   4 31722.0 1915.51   3
   2  -6  -4 32790.8 1931.55  19
   2   6  -4 31945.6 1932.46  20
  -2  -6   4 32512.7 1850.47  19
   2  -6  -4 33245.8 2132.74  13
  -2  -6   4 32203.9 1470.40  13
  -2   6   4 36252.4 2178.73  12
   2   6  -4 31817.0 1945.82  11
   2  -6  -4 36184.8 1770.11   9
  -2  -6   4 34826.2 1989.98  10
  -2  -6   3 128244. 4585.65   3
  -2  -6   3 121818. 3924.57  13
   2  -6  -3 128070. 4677.24  13
   2   6  -3 123936. 3720.35  14
   2   6  -3 134655. 4998.08  21
   2   6  -3 125577. 4532.28  20
   2  -6  -3 131866. 4589.25  19
  -2   6   3 134094. 4368.10  20
  -2  -6   3 126006. 4377.49  19
   2   6  -3 129120. 4337.37  11
  -2   6   3 135135. 4839.14  12
  -2  -6   3 132220. 4567.23  10
  -2  -6   3 126769. 3954.69   4
   2  -6  -3 128591. 4527.56   3
  -2  -6   2 60238.2 2828.23   3
   2  -6  -2 62222.2 2900.55   3
   2  -6  -2 58372.6 2735.16  13
  -2  -6   2 58759.4 2380.16  13
   2   6  -2 62401.9 2784.37  20
   2   6  -2 63331.7 3118.12  21
   2  -6  -2 60669.4 2767.77  19
  -2   6   2 62379.3 2513.38  20
  -2  -6   2 57934.9 2586.15  19
  -2   6   2 63102.9 2963.96  12
   2   6  -2 61960.4 2428.61  11
   2   6  -2 63445.3 3033.48  12
  -2  -6   2 55474.4 2323.04   4
   2  -6  -2 64986.7 2206.30   5
  -2  -6   1 3578.29 629.378   3
   2  -6  -1 5115.06 799.367   3
  -2  -6   1 4143.80 556.748  13
   2  -6  -1 3740.53 642.471  13
   2  -6  -1 3551.98 618.003  19
  -2   6   1 5173.80 608.822  20
   2   6  -1 3496.94 584.728  20
  -2  -6   1 5036.36 650.901  19
   2   6  -1 4647.09 753.907  21
   2   6  -1 3730.01 461.341  11
  -2   6   1 4125.50 745.687  12
   2   6  -1 3380.61 665.866  12
   2  -6  -1 4322.26 504.985   5
  -2  -6   1 3764.10 532.654   4
  -2  -6   0 70046.4 3028.73   3
   2  -6   0 69455.3 3224.45   3
   2  -6   0 66958.0 2784.56  13
  -2  -6   0 66566.3 2704.02  13
  -2   6   0 70700.0 2647.28  20
   2   6   0 70125.7 2930.03  20
  -2  -6   0 62356.8 2739.36  19
   2   6   0 74098.2 3260.57  21
  -2   6   0 72401.8 3210.12  21
   2  -6   0 68943.6 2954.29  19
   2   6   0 64646.3 2195.86  11
  -2   6   0 73502.8 3179.97  12
   2   6   0 71364.0 3201.54  12
   2  -6   0 71520.2 2590.60   5
  -2  -6  -1 92056.6 3600.02   3
  -2   6  -1 107385. 3551.41   1
   2  -6   1 92294.7 3855.78   3
  -2   6  -1 95718.7 3875.20  21
   2   6   1 95026.9 3637.34  20
   2  -6   1 89069.2 3593.07  19
  -2   6  -1 93911.0 3247.99  20
  -2  -6  -1 89341.9 3408.38  19
   2  -6   1 91900.6 3361.16  13
  -2  -6  -1 89265.3 3411.74  13
  -2   6  -1 92610.5 3791.40  12
   2   6   1 99659.8 3947.56  12
  -2   6  -1 95392.5 2929.16  11
   2  -6   1 95406.0 3331.84   5
  -2   6  -2 24520.9 1555.46   1
  -2  -6  -2 22659.6 1538.78   3
   2  -6   2 20715.7 1644.90   3
   2  -6   2 22032.5 1531.03  19
  -2   6  -2 21550.2 1317.52  20
   2   6   2 24669.9 1641.13  20
  -2  -6  -2 22607.5 1447.98  19
  -2   6  -2 21713.4 1671.65  21
   2   6   2 23024.7 1166.32   6
  -2  -6  -2 22593.8 1495.61  13
   2  -6   2 22884.9 1375.73  13
   2   6   2 21857.7 1673.34  12
  -2   6  -2 21712.4 1626.31  12
  -2   6  -2 19878.7 1215.23  11
   2  -6   2 21438.2 1375.74   5
   2  -6   3 9337.06 1103.36   3
  -2  -6  -3 10278.5 992.929   3
  -2   6  -3 11198.5 1064.58   1
  -2  -6  -3 10174.9 971.938  19
   2   6   3 9966.45 1068.68  20
   2  -6   3 9511.41 982.537  19
  -2   6  -3 9538.54 876.209  20
  -2   6  -3 8276.39 1058.22  21
  -2  -6  -3 10116.5 981.109  18
   2  -6   3 9126.43 916.631   5
   2   6   3 10453.3 828.085   6
   2  -6   3 9651.10 826.889  13
  -2  -6  -3 9417.30 1017.46  13
   2   6   3 11661.9 1211.17  12
  -2   6  -3 8899.49 889.037  11
   2  -6   3 10658.1 1043.64  10
  -2   6  -3 9077.57 1035.33  12
  -2  -6  -3 9128.63 683.599   9
   2  -6   4 98288.7 3987.80   3
  -2  -6  -4 98628.3 3605.99   3
   2   6   4 102182. 4069.04  20
  -2   6  -4 97371.8 3481.01  20
   2  -6   4 99701.7 3780.40  19
  -2  -6  -4 92920.9 3602.52  19
  -2  -6  -4 95591.1 3839.82  18
   2  -6   4 97058.0 3734.10   5
   2   6   4 104803. 3523.31   6
   2  -6   4 88868.9 3160.50  13
  -2  -6  -4 88380.2 3828.30  13
  -2   6  -4 91013.3 3744.54  11
   2   6   4 105990. 4155.66  12
  -2  -6  -4 101659. 3196.30   9
   2  -6   4 102300. 3815.54  10
   2  -6   5 90430.6 3817.66   3
  -2   6  -5 94602.9 3559.91  20
   2   6   5 104902. 4224.56  20
   2  -6   5 97755.1 3789.94  19
  -2  -6  -5 97297.9 3690.66  19
  -2  -6  -5 101396. 4108.51  18
   2  -6   5 94138.4 3822.91   5
   2   6   5 109695. 3741.18   6
  -2  -6  -5 99445.9 4108.61  13
   2  -6   5 95199.5 3186.07  13
   2   6   5 108620. 4218.22  12
  -2   6  -5 92251.0 4023.76  11
   2  -6   5 102224. 3859.26  10
  -2  -6  -5 101037. 3409.02   9
   2  -6   6 1531.28 496.815   5
   2  -6   6 1140.34 364.269   3
  -2  -6  -6 2445.48 506.875  19
   2  -6   6 1509.34 428.967  19
  -2  -6  -6 1374.09 492.788  18
   2   6   6 2027.54 472.007   6
  -2  -6  -6 2710.14 673.591  13
  -2   6  -6 429.481 340.552  11
   2   6   6 545.723 343.918  12
  -2   6  -6 1636.37 540.258   9
   2  -6   6 1484.06 440.827  10
  -2  -6  -6 1069.98 341.280   9
   2  -6   7 19121.8 1463.75   3
   2  -6   7 20186.3 1498.33  19
  -2  -6  -7 20123.9 1830.96  18
   2  -6   7 19139.8 1598.28   5
   2   6   7 20078.6 1498.13   6
  -2  -6  -7 21264.1 1757.61  13
  -2   6  -7 23308.0 2121.65  15
   2   6   7 22136.2 1804.45  12
  -2   6  -7 22342.7 1988.22  11
   2  -6   7 20100.3 1582.47  10
  -2   6  -7 18581.4 1836.68   9
  -2  -6  -7 21487.5 1543.60   9
   2  -6   8 22733.8 1613.77   3
   2  -6   8 23110.8 1638.43  19
  -2  -6  -8 28468.8 2282.31  18
   2   6   8 25537.4 1778.74   6
  -2   6  -8 26370.2 2427.80  15
  -2  -6  -8 26395.1 2042.71  13
   2   6   8 25420.1 2004.33  12
  -2   6  -8 26189.8 2302.52  11
  -2   6  -8 25419.4 2298.26   9
   2  -6   8 28262.0 1951.74  10
  -2  -6  -8 25256.9 1850.39   9
   2  -6   9 16507.7 1359.57   3
   2  -6   9 16068.7 1377.81  19
  -2  -6  -9 18673.7 1924.74  18
   2   6   9 19122.2 1566.51   6
  -2  -6  -9 15780.1 1635.15  13
  -2   6  -9 15321.0 1973.14  15
  -2   6  -9 18455.7 2079.84  11
   2   6   9 19326.6 1783.21  12
  -2   6  -9 14841.0 1847.91   9
  -2  -6  -9 17742.3 1631.34   9
   2  -6   9 18134.3 1635.13  10
  -2  -6 -10 446.515 569.454  18
   2   6  10 1423.20 534.865   6
  -2  -6 -10 992.709 522.353  13
  -2   6 -10 1101.83 698.951  15
  -2   6 -10 371.381 591.124  11
   2   6  10 1373.28 626.191  12
   2  -6  10 450.111 434.397  10
  -2   6 -10 688.418 532.411   9
  -2  -6 -10 861.278 483.019   9
  -2  -6 -11 7463.08 1355.97  18
   2   6  11 3889.00 846.673   6
  -2   6 -11 8043.21 1532.86  15
  -2  -6 -11 3932.17 882.938  13
   2   6  11 6594.40 1113.30  16
  -2   6 -11 6487.14 1447.67  11
   2   6  11 6502.89 1191.05  12
  -2  -6 -11 7081.45 1178.20   9
   2   6  11 5559.09 1032.78  10
  -2   6 -11 5631.34 1229.71   9
   2  -6  11 6344.02 1061.74  10
  -2  -6 -12 15306.0 1956.80  18
   2   6  12 14223.4 1563.91   6
   2   6  12 16566.8 1746.52  16
   2   6  12 15595.5 1792.68  12
  -2   6 -12 15938.0 2180.62  11
  -2   6 -12 16393.2 2113.66   9
   2   6  12 15797.2 1752.26  10
   2  -6  12 17915.3 1820.25  10
   2   8 -10 11981.8 1595.22  20
   2  -8 -10 9578.82 1466.04  13
  -2  -8  10 7452.01 1043.81   3
   2   8 -10 10450.0 1664.64  11
  -2   8  10 11912.5 1700.28  12
  -2  -8  10 11862.9 1517.98  10
   2   8  -9 1386.67 604.394  20
  -2  -8   9 1249.41 485.741   3
   2  -8  -9 1880.56 739.985  13
  -2   8   9 2589.12 865.214  12
   2   8  -9 639.632 604.034  11
  -2  -8   9 1028.09 541.806  10
  -2  -8   8 5115.95 809.548  19
   2   8  -8 6274.74 1078.41  20
  -2   8   8 5970.20 1158.39   8
   2  -8  -8 5647.87 1094.63  13
  -2  -8   8 6153.76 1075.76  10
   2   8  -8 7160.15 1237.57  11
  -2   8   8 8218.80 1314.00  12
  -2  -8   8 4546.78 826.510   3
  -2  -8   7 20574.0 1705.36   3
   2   8  -7 24555.6 2021.44  20
  -2  -8   7 19971.4 1644.36  19
   2  -8  -7 23183.8 2082.15  13
  -2   8   7 26760.0 2295.75  12
   2   8  -7 23653.8 2072.96  11
  -2  -8   7 25691.1 2037.48  10
  -2  -8   6 9842.94 1129.46   3
   2   8  -6 9043.71 1197.84  20
   2   8  -6 12034.6 1556.26  21
  -2  -8   6 8247.24 1048.17  19
   2  -8  -6 10523.9 1383.81  13
  -2   8   6 11596.6 1488.31  12
   2   8  -6 10084.9 1244.79  11
  -2  -8   6 11433.3 1339.74  10
  -2  -8   5 285.965 361.077   3
  -2  -8   5-802.979 477.399  19
   2  -8  -5-112.759 287.585  19
   2   8  -5 1206.27 506.277  20
   2   8  -5-648.965 548.636  21
   2  -8  -5 225.500 385.292  13
  -2   8   5 23.6455 450.544  12
   2   8  -5-278.545 377.125  12
  -2  -8   5-647.249 435.759  10
   2  -8  -4 12238.9 1317.62  19
  -2  -8   4 12642.4 1271.72  19
   2   8  -4 12305.1 1521.76  21
   2   8  -4 13561.4 1354.14  20
   2  -8  -4 11614.3 1303.88  13
  -2  -8   4 10973.1 1219.30   3
  -2   8   4 13031.7 1562.73  12
   2   8  -4 15219.9 1618.62  12
   2  -8  -4 14214.0 1324.99   3
   2   8  -3 59805.4 2981.27  20
   2   8  -3 60478.3 3409.73  21
   2  -8  -3 51538.5 2856.36  19
  -2  -8   3 55003.7 2794.96  19
  -2  -8   3 51019.7 2387.97  13
   2  -8  -3 51151.9 2852.73  13
  -2  -8   3 53140.0 2864.06   3
   2   8  -3 60141.8 3398.47  12
  -2   8   3 61861.0 3351.04  12
   2  -8  -3 54615.1 2901.89   3
   2  -8  -2 23539.1 1788.11  19
  -2  -8   2 19711.1 1567.64  19
   2   8  -2 22097.8 1986.75  21
   2   8  -2 22284.5 1721.12  20
  -2  -8   2 20633.8 1463.76  13
   2  -8  -2 21264.7 1660.70  13
  -2  -8   2 20912.0 1673.13   3
  -2   8   2 23635.2 1977.27  12
   2   8  -2 25569.5 2048.07  12
   2  -8  -2 24618.1 1862.30   3
   2  -8  -1 1169.69 443.524  13
  -2  -8   1 1699.96 486.645  13
   2  -8  -1 1325.07 516.080   3
  -2  -8   1 490.241 389.340   3
  -2   8   1 1341.56 639.503  12
   2   8  -1 1196.25 602.807  12
   2   8  -1 1383.87 557.269  21
  -2  -8   1 1277.96 451.152  19
   2  -8  -1 1033.04 387.756  19
   2   8  -1 2127.27 573.268  20
   2  -8   0 26233.6 1779.32  13
  -2  -8   0 25650.7 1707.23  13
  -2  -8   0 26437.8 1928.12   3
   2  -8   0 25853.4 1976.25   3
   2   8   0 28469.2 2171.50  12
  -2   8   0 28152.7 2105.88  12
   2  -8   0 27877.9 1918.61  19
   2   8   0 27046.7 1884.70  20
  -2  -8   0 27037.5 1815.99  19
   2  -8   1 34065.2 2015.00  13
  -2  -8  -1 33896.8 2044.03  13
  -2  -8  -1 38382.6 2273.44   3
   2  -8   1 32893.3 2295.53   3
   2   8   1 36592.0 2472.71  12
  -2   8  -1 37524.1 2471.51  12
   2  -8   1 35393.3 2190.44  19
  -2   8  -1 39437.7 2586.93  21
   2   8   1 39496.3 2305.74  20
  -2  -8  -1 32615.2 2055.72  19
   2  -8   2 8815.94 944.061  13
  -2  -8  -2 8104.69 994.515  13
  -2  -8  -2 8896.77 1052.33   3
   2  -8   2 6239.15 977.111   3
  -2   8  -2 7057.88 1061.74  12
   2   8   2 7576.97 1149.67  12
   2   8   2 7216.22 1014.61  20
  -2   8  -2 6925.90 1111.72  21
   2  -8   2 8311.32 1042.02  19
  -2  -8  -2 7691.63 961.693  19
   2   8   3 1306.10 519.081  20
  -2  -8  -3 1842.14 515.592  19
   2  -8   3 3583.21 715.735  19
  -2   8  -3 3025.00 777.606  21
  -2  -8  -3 2380.12 585.676   3
   2  -8   3 3661.17 769.633   3
   2  -8   3 1763.19 458.671  13
  -2  -8  -3 2202.75 596.952  13
  -2   8  -3 1765.70 622.735  12
   2   8   3 3334.05 833.664  12
   2  -8   3 1960.05 477.554   5
   2  -8   4 37740.2 2185.01   5
   2  -8   4 40178.0 2541.23   3
  -2  -8  -4 38110.9 2401.18  13
   2   8   4 42872.7 2873.92  12
  -2   8  -4 44808.5 2824.79  12
  -2  -8  -4 38453.8 2271.81  19
   2  -8   4 39131.5 2332.73  19
   2   8   4 43033.9 2667.25  20
  -2   8  -4 38350.5 2713.51  21
   2  -8   5 35169.7 2154.37   5
  -2  -8  -5 36662.8 2403.89  13
  -2   8  -5 39443.5 2784.81  21
   2  -8   5 32838.9 2172.40  19
   2   8   5 40627.0 2650.57  20
  -2  -8  -5 36122.1 2191.70  19
   2  -8   5 37480.2 2411.14  10
  -2   8  -5 41665.3 2767.22  12
   2   8   5 38192.7 2660.57  12
   2  -8   5 33069.5 2234.12   3
   2  -8   6 726.445 410.437   5
   2  -8   6 450.548 367.108  19
  -2  -8  -6 1722.81 492.650  19
  -2   8  -6 679.409 489.323  21
  -2  -8  -6 858.850 566.638  13
   2  -8   6 335.911 387.022   3
   2   8   6 1200.40 692.020  12
  -2   8  -6 1910.34 671.141  12
   2  -8   6 810.734 415.980  10
   2  -8   7 6496.95 1014.54  19
  -2  -8  -7 7281.65 1143.32  13
  -2   8  -7 5528.95 1142.45  15
   2  -8   7 6799.62 961.505   3
  -2   8  -7 6525.70 1091.55  11
   2   8   7 9678.51 1401.37  12
   2  -8   7 6144.46 985.891  10
   2  -8   8 11931.8 1290.79  19
  -2  -8  -8 10729.2 1385.86  13
  -2   8  -8 13018.7 1797.58  15
   2  -8   8 9534.42 1160.34   3
   2   8   8 15477.6 1798.59  12
  -2   8  -8 13217.7 1622.85  11
   2  -8   8 15215.2 1605.10  10
   2  -8   9 5134.53 858.962  19
   2  -8   9 6108.50 913.236   3
  -2  -8  -9 5025.30 978.433  13
  -2   8  -9 4794.88 1200.27  15
   2  -8   9 6561.80 1056.82  10
   2   8   9 7687.82 1328.98  12
  -2   8  -9 5156.97 1092.86  11
  -2   8 -10-255.617 626.021  15
  -2  -8 -10 159.857 402.001  13
  -2   8 -10-511.662 523.354  11
   2   8  10-725.070 628.762  12
   2  -8  10 811.155 620.180  10
  -2  10   7 7541.19 1458.19   8
   2 -10  -7 7060.91 1244.62  13
  -2 -10   7 6719.38 1062.47   3
   2  10  -7 6256.11 1338.24  12
  -2  10   7 7735.00 1422.96  12
   2  10  -7 10534.0 1650.67  21
  -2 -10   7 5379.90 969.108  19
   2 -10  -6 3181.52 853.535  13
  -2 -10   6 4828.09 886.751   3
   2  10  -6 3615.31 964.828  12
  -2  10   6 4755.41 1110.35  12
  -2 -10   6 2416.61 666.242  19
   2  10  -6 5098.74 1178.11  21
   2 -10  -5-107.855 388.502  13
  -2 -10   5 3.37768 352.035   3
  -2  10   5 639.636 547.601  12
   2  10  -5 109.541 508.522  12
   2  10  -5-1055.18 737.521  21
  -2 -10   5 376.982 444.908  19
   2 -10  -4 4484.19 962.215  13
  -2 -10   4 5608.02 956.713   3
  -2  10   4 5515.21 1142.74  12
   2  10  -4 6265.20 1229.40  12
   2  10  -4 6613.81 1275.18  21
  -2 -10   4 5117.96 965.507  19
   2 -10  -4 6701.99 1062.20  19
   2 -10  -3 11770.7 1414.20  19
   2  10  -3 15413.3 1895.15  21
  -2 -10   3 16571.2 1631.43  19
   2 -10  -3 15262.0 1571.05  13
  -2 -10   3 12047.7 1413.99   3
   2  10  -3 14966.4 1818.39  12
  -2  10   3 17671.9 1950.80  12
   2 -10  -3 13660.9 1477.97   3
   2 -10  -2 7766.34 1105.46  13
  -2 -10   2 7276.59 1089.38   3
   2 -10  -2 7848.81 1165.56   3
   2  10  -2 9284.98 1438.95  12
  -2  10   2 10435.0 1461.56  12
  -2 -10   2 7604.08 1125.18  19
   2 -10  -2 6937.29 1097.43  19
   2 -10  -1-371.889 428.932  13
  -2 -10   1 728.640 441.642  13
  -2 -10   1 438.339 436.278   3
   2 -10  -1 655.220 522.946   3
   2  10  -1 1165.34 645.080  12
  -2  10   1 705.930 622.246  12
  -2 -10   1 651.468 514.780  19
   2 -10  -1 827.157 502.400  19
  -2 -10   0 8609.54 1101.59  13
   2 -10   0 8916.15 1157.59  13
  -2 -10   0 8320.24 1136.11   3
   2 -10   0 7865.67 1174.42   3
  -2  10   0 11893.8 1564.85  12
   2  10   0 10413.0 1506.79  12
  -2 -10   0 8824.58 1159.15  19
   2 -10   0 7989.01 1139.58  19
   2 -10   1 10615.1 1204.54  13
  -2 -10  -1 9437.19 1195.54  13
  -2 -10  -1 9237.91 1184.61   3
   2 -10   1 9319.91 1275.27   3
  -2  10  -1 12899.1 1605.09  12
   2  10   1 11339.3 1564.76  12
  -2 -10  -1 8758.72 1163.37  19
   2 -10   1 9978.38 1271.39  19
  -2 -10  -2 3011.53 701.357  13
   2 -10   2 3439.25 697.463  13
   2 -10   2 3383.20 824.132   3
  -2 -10  -2 3015.06 706.629   3
  -2  10  -2 4643.72 1054.47  12
   2  10   2 2820.50 886.945  12
   2 -10   2 3381.81 789.295  19
  -2 -10  -2 2716.41 689.705  19
  -2 -10  -3 1595.55 640.533  13
   2 -10   3 1280.33 575.471   3
   2  10   3 1242.14 710.853  12
  -2  10  -3 1159.03 637.065  12
  -2 -10  -3 1560.68 582.442  19
  -2  10  -3 500.652 555.607  21
   2 -10   3 573.543 429.356  19
   2 -10   4 10895.7 1321.09  19
  -2  10  -4 14500.3 1800.13  21
  -2 -10  -4 10073.2 1258.40  19
  -2 -10  -4 11912.3 1416.92  13
  -2  10  -4 14350.9 1744.59  12
   2  10   4 12842.1 1710.09  12
   2 -10   4 12482.0 1482.72   3
   2 -10   5 10830.5 1305.71   3
  -2  10  -5 10399.6 1496.72  12
   2  10   5 16049.7 1949.03  12
  -2 -10  -5 10984.5 1302.54  19
  -2  10  -5 12277.9 1729.68  21
   2 -10   5 12236.0 1419.23  19
  -2 -10  -5 12920.3 1520.33  13
   2 -10   6 693.132 499.712   3
   2  10   6 892.778 736.251  12
  -2  10  -6 720.412 576.889  12
   2 -10   6 366.068 386.065  19
  -2  10  -6 1859.88 861.679  21
  -2 -10  -6 457.583 510.063  13
   2 -10   7 3412.17 750.814   3
  -2  10  -7 3951.24 1066.16  12
   2 -10   7 4128.15 890.136  19
  -3   1  14 11277.2 1346.68  10
  -3  -1  14 11393.4 1326.24  10
   3  -1 -14 8051.36 1529.74   9
   3   1 -14 9000.49 1677.04   9
   3  -1 -14 7513.40 1439.68  11
   3   1 -14 7100.68 1514.37  11
  -3   1  14 7940.64 1109.16   4
   3  -1 -14 7917.23 1550.71  17
   3   1 -14 10075.7 1786.18  17
  -3  -1  13 8744.14 1135.23  10
  -3   1  13 9099.32 1182.15  10
   3  -1 -13 11287.3 1688.97   9
   3   1 -13 8550.35 1566.06   9
   3   1 -13 7648.38 1476.59  11
   3  -1 -13 7152.70 1365.41  11
  -3   1  13 10846.1 1273.88   4
   3  -1 -13 8811.84 1572.38  17
   3   1 -13 11000.3 1775.23  17
  -3  -1  12-103.946 431.830  10
   3   1 -12 496.148 565.112   9
  -3   1  12 168.198 354.829  10
   3  -1 -12 435.038 462.688   9
   3  -1 -12 80.5722 375.383  11
   3   1 -12 675.829 740.358  11
  -3   1  12-271.007 347.512   4
  -3  -1  12-2.42150 306.182   4
   3  -1 -12-196.791 488.959  17
   3  -1 -12 601.089 521.460  18
   3   1 -12-410.875 613.420  17
   3  -1 -11 38716.9 2903.13   9
  -3  -1  11 40109.1 2227.04  10
   3   1 -11 35937.7 2900.98   9
  -3   1  11 42242.6 2296.00  10
   3  -1 -11 32196.2 2524.42  18
   3   1 -11 34197.9 2880.49  17
   3  -1 -11 31648.8 2733.75  17
   3  -1 -11 32837.9 2675.97  11
   3   1 -11 35297.5 2939.70  11
  -3   1  11 40620.9 2367.52   4
  -3  -1  11 39932.2 2144.52   4
   3  -1 -10 73977.0 3991.00   9
  -3  -1  10 74871.0 3110.73  10
   3   1 -10 69519.9 3917.44   9
  -3   1  10 77216.7 3150.41  10
   3  -1 -10 67012.5 3605.18  18
  -3  -1  10 71356.6 2844.71  16
   3  -1 -10 66975.6 3885.61  17
   3   1 -10 67147.2 3939.86  17
  -3   1  10 65029.3 3244.67   6
  -3   1  10 71532.3 2774.53  16
   3  -1 -10 66400.0 3731.59  11
   3   1 -10 63522.3 3925.03  11
  -3  -1  10 75927.3 3050.98   4
  -3   1  10 77638.9 3330.26   4
  -3   1   9 18651.6 1324.61  10
   3  -1  -9 16408.5 1722.27   9
   3   1  -9 16950.8 1735.02   9
  -3  -1   9 17565.7 1290.56  10
   3  -1  -9 16299.1 1562.87  18
   3   1  -9 18333.7 1787.90  17
   3   1  -9 16781.3 1396.38  18
   3  -1  -9 16823.2 1735.43  17
  -3  -1   9 17949.7 1176.13  16
  -3   1   9 17576.7 1470.82   6
  -3   1   9 17443.1 1124.66  16
   3   1  -9 16362.4 1771.46  11
   3  -1  -9 15973.6 1604.61  11
  -3  -1   9 19992.3 1333.61   4
   3  -1  -8 24166.9 1294.71   1
  -3  -1   8 22913.0 1085.96   3
   3   1  -8 25507.0 1567.33   1
  -3  -1   8 23860.9 1418.33  10
   3   1  -8 22799.5 1868.09   9
   3  -1  -8 23802.6 1867.26   9
  -3   1   8 24056.7 1445.27  10
  -3  -1   8 21994.5 1239.90  16
   3   1  -8 23637.4 1558.72  18
   3  -1  -8 21162.0 1843.41  17
   3   1  -8 19713.1 1757.60  17
   3  -1  -8 22970.0 1772.39  18
  -3   1   8 21075.2 1541.16   6
  -3   1   8 23610.6 1244.89  16
   3  -1  -8 21494.4 1305.29  13
   3  -1  -8 20146.4 1725.28  11
   3   1  -8 20354.0 1871.48  11
  -3  -1   8 22632.2 1378.50   4
   3  -1  -7 115739. 3352.57   1
  -3  -1   7 103608. 3129.55   3
   3   1  -7 107490. 3701.33   1
   3  -1  -7 107541. 4270.72   9
  -3   1   7 112842. 3610.84  10
  -3  -1   7 111366. 3564.39  10
   3   1  -7 107411. 4317.59   9
   3  -1  -7 103304. 4100.53  18
   3   1  -7 98290.0 3665.55  18
   3  -1  -7 99084.1 4265.76  17
   3   1  -7 94626.2 4209.57  17
  -3  -1   7 108879. 3314.17  16
  -3   1   7 95431.9 3763.83   6
  -3   1   7 111928. 3047.76   8
   3   1  -7 95471.7 4345.64  14
   3  -1  -7 95263.0 4253.43  14
   3  -1  -7 104795. 3486.98  13
  -3   1   7 115418. 4183.51  14
  -3   1   7 109788. 3287.63  16
  -3  -1   7 103883. 3986.89  14
   3   1  -7 93471.8 4345.05  11
   3  -1  -7 100841. 4157.35  11
  -3  -1   7 107575. 3534.23   4
  -3  -1   6 167198. 4802.74   4
  -3  -1   6 160245. 4463.30   3
   3  -1  -6 174485. 4544.80   1
  -3   1   6 173130. 4112.05   3
   3   1  -6 169519. 4970.22   1
  -3  -1   6 161078. 4066.11  19
   3  -1  -6 170409. 5387.44  18
  -3  -1   6 163396. 4531.44  16
   3  -1  -6 163404. 5566.95  17
   3   1  -6 160315. 4851.84  18
   3   1  -6 149670. 5425.02  17
  -3   1   6 147624. 5048.53   6
  -3   1   6 168014. 4383.88   8
   3   1  -6 152929. 5608.41  14
  -3  -1   6 173027. 5410.31  14
  -3   1   6 164309. 4489.70  16
  -3   1   6 161770. 5327.65  14
   3  -1  -6 159582. 5572.87  14
   3  -1  -6 160973. 4793.69  13
   3  -1  -6 164991. 5430.70  11
   3   1  -6 153682. 5648.92  11
  -3   1   6 164779. 4855.53  12
  -3  -1   6 164754. 4793.27  10
   3   1  -6 159886. 5475.96   9
  -3   1   6 164356. 4805.05  10
  -3  -1   6 172565. 4277.78   8
   3  -1  -6 165844. 5420.53   9
  -3  -1   5 108159. 3291.58   4
   3  -1  -5 109545. 3064.78   1
  -3  -1   5 104773. 3137.22   3
   3   1  -5 104165. 3410.25   1
  -3  -1   5 111034. 2849.14  19
   3   1  -5 112608. 3346.97  18
   3  -1  -5 114764. 3951.84  17
   3   1  -5 104258. 3865.50  17
  -3  -1   5 106915. 3068.51  16
   3  -1  -5 111362. 3749.67  18
  -3   1   5 105633. 3661.82   6
  -3   1   5 107360. 3074.89   8
  -3   1   5 120019. 3922.98  14
   3   1  -5 108596. 4007.11  14
   3  -1  -5 105768. 3896.43  14
  -3  -1   5 118234. 3889.81  14
   3  -1  -5 109650. 3378.64  13
   3  -1  -5 110413. 3740.18  11
   3   1  -5 107321. 4004.93  11
  -3   1   5 107406. 3388.42  12
  -3  -1   5 108259. 3310.43  10
   3  -1  -5 103337. 3685.81   9
  -3   1   5 106543. 3326.89  10
   3   1  -5 106264. 3861.50   9
  -3  -1   5 109837. 2977.79   8
  -3  -1   4 135384. 3931.56   4
   3  -1  -4 137509. 3694.06   1
  -3  -1   4 141454. 3912.03   3
  -3  -1   4 148051. 3673.25  19
   3   1  -4 152483. 3896.02  18
   3   1  -4 148487. 4446.47  17
   3  -1  -4 152549. 4396.93  18
   3  -1  -4 152627. 4515.26  17
  -3  -1   4 141289. 3737.08  16
  -3   1   4 142606. 3889.13   8
  -3   1   4 135278. 4227.85   6
   3  -1  -4 143221. 4083.78  13
   3   1  -4 147933. 4560.15  14
   3  -1  -4 148751. 4479.01  14
  -3  -1   4 152335. 4426.98  14
  -3   1   4 159632. 4468.59  14
   3   1  -4 145745. 4559.43  11
   3  -1  -4 150070. 4271.10  11
  -3   1   4 138190. 4040.38  12
  -3  -1   4 142550. 3759.97   8
  -3  -1   4 141444. 3962.85  10
   3   1  -4 146000. 4460.69   9
   3  -1  -4 137179. 4255.22   9
  -3  -1   3 831186. 19233.0   4
  -3  -1   3 759788. 19174.2   3
  -3  -1   3 853931. 19024.3  19
   3  -1  -3 867955. 19632.5  18
   3   1  -3 850400. 19561.8  17
   3  -1  -3 844041. 19577.8  17
  -3  -1   3 830250. 19007.7  16
  -3   1   3 820754. 19256.6   8
   3  -1  -3 852566. 19578.1  14
  -3   1   3 852018. 19528.8  14
  -3  -1   3 877826. 19577.3  14
   3  -1  -3 817561. 19381.8  13
   3   1  -3 825258. 19653.1  14
  -3   1   3 778101. 19262.0  12
   3   1  -3 835197. 19707.4  11
   3  -1  -3 832626. 19363.3  11
  -3  -1   3 817862. 19119.3   8
  -3  -1   3 810291. 19182.9  10
   3  -1  -3 824796. 19502.5   9
   3   1  -3 768826. 19439.5   9
  -3  -1   2 353030. 8527.41   4
  -3  -1   2 344798. 8211.60   2
  -3  -1   2 341440. 8533.61   3
  -3  -1   2 358005. 8442.83  19
   3  -1  -2 345184. 8306.48  19
   3  -1  -2 359280. 8699.19  17
   3   1  -2 374193. 8682.86  17
  -3   1   2 347956. 8631.37   8
  -3   1   2 356455. 8411.34   7
   3  -1  -2 346552. 8650.54  13
  -3  -1   2 371891. 8713.39  14
  -3   1   2 383278. 8673.49  14
   3   1  -2 380180. 8828.04  14
   3  -1  -2 356298. 8632.09  14
  -3   1   2 346726. 8519.64  12
   3  -1  -2 357075. 8496.18  11
   3   1  -2 377173. 8864.84  11
  -3  -1   2 349644. 8508.87   8
   3   1  -2 357235. 8535.95   9
  -3  -1   2 346482. 8450.33  10
   3  -1  -2 361211. 8720.83   9
  -3  -1   1 12416.5 580.525   4
  -3  -1   1 12604.1 519.967   2
   3   1  -1 11901.4 648.848  20
   3  -1  -1 12492.7 548.904  19
   3  -1  -1 12176.0 590.619  17
   3   1  -1 12872.2 552.600  17
  -3   1   1 12146.8 592.489   7
  -3   1   1 13160.7 655.886   8
   3  -1  -1 12198.7 619.273  13
  -3   1   1 11238.9 531.980  14
   3  -1  -1 12253.2 549.919  14
   3   1  -1 11502.5 592.302  14
  -3  -1   1 12303.5 592.061  14
   3  -1  -1 12246.7 507.900  11
   3   1  -1 13480.2 651.053  11
  -3   1   1 12415.0 507.759  12
  -3  -1   1 11971.8 514.685  10
   3  -1  -1 11616.3 604.819   9
   3   1  -1 13628.1 479.514   9
  -3  -1   1 12706.5 598.262   8
   3  -1   0 292086. 7318.99   1
  -3   1   0 296978. 7323.19   1
  -3  -1   0 306985. 7507.42   2
   3   1   0 314514. 7673.93  20
   3  -1   0 316932. 7522.52  19
   3   1   0 319064. 7445.71  21
  -3   1   0 314819. 7393.50  21
  -3  -1   0 310305. 7408.55  18
   3  -1   0 315231. 7482.16  16
  -3   1   0 312413. 7553.16   8
  -3   1   0 314591. 7615.93   7
   3  -1   0 326155. 7518.92  13
   3  -1   0 318341. 7423.95  11
  -3   1   0 323439. 7280.25  12
   3   1   0 307075. 7490.79  11
   3  -1   0 301227. 7480.89   5
  -3   1   0 320170. 7290.95   4
  -3  -1   0 318814. 7554.63   4
  -3   1  -1 364756. 7868.04   4
  -3  -1  -1 368934. 8413.31   4
   3  -1   1 343480. 8249.44   3
   3  -1   1 321432. 8291.50   5
   3   1   1 346853. 7979.22   5
  -3  -1  -1 340866. 8321.53   2
  -3   1  -1 341361. 8204.16   1
   3  -1   1 331039. 8161.94   1
   3   1   1 356435. 8313.02  20
   3  -1   1 352795. 8244.43  19
   3  -1   1 352376. 8193.79  16
  -3  -1  -1 342554. 8291.70  18
   3   1   1 342671. 8336.87   6
   3  -1   1 342697. 8175.71   6
  -3   1  -1 358369. 8128.03   8
  -3   1  -1 346707. 8338.93   7
  -3  -1  -1 352119. 8036.54  15
   3  -1   1 358254. 8138.54  13
   3   1   1 357274. 8119.24  12
   3   1   1 345866. 8187.00  11
   3  -1   1 362705. 8029.24  10
   3   1   2 300258. 7180.62   5
   3  -1   2 302850. 7544.98   5
   3  -1   2 301867. 7426.79   3
  -3  -1  -2 285919. 7545.10   2
   3  -1   2 289595. 7419.70   1
  -3   1  -2 301255. 7509.42   1
  -3   1  -2 305531. 7335.57   2
   3   1   2 306925. 7495.43  20
   3  -1   2 300159. 7366.17  19
  -3  -1  -2 285618. 7595.53  18
   3   1   2 298106. 7562.06   6
   3  -1   2 304271. 7435.50   6
  -3   1  -2 315645. 7099.01   8
  -3   1  -2 305136. 7454.98   7
   3  -1   2 301041. 7390.18  16
  -3  -1  -2 289133. 7377.30  15
   3   1   2 308966. 7255.20  12
  -3  -1  -2 315898. 7579.39   9
   3  -1   2 305825. 7179.01  10
   3  -1   3 41977.1 1662.30   5
   3  -1   3 39747.6 1493.32   3
  -3   1  -3 39870.1 1650.64   1
  -3  -1  -3 39115.0 1659.80   2
   3  -1   3 36895.4 1553.74   1
  -3   1  -3 40092.8 1446.38   2
   3   1   3 38845.5 1445.31   1
   3   1   3 41685.1 1624.92  20
  -3  -1  -3 38523.9 1742.03  18
  -3   1  -3 43164.2 1620.86  18
   3  -1   3 39808.0 1612.96   6
   3   1   3 40354.9 1403.43   5
  -3   1  -3 40492.9 1123.09   8
   3   1   3 39724.4 1681.00   6
  -3   1  -3 40260.9 1478.61   7
  -3  -1  -3 42042.4 1651.98  15
   3  -1   3 38681.6 1510.63  16
   3   1   3 38692.1 1413.05  12
  -3  -1  -3 43150.0 1780.09   9
   3  -1   3 40494.7 1394.39  10
  -3   1  -4 326541. 8359.05   1
  -3   1  -4 322738. 7950.01   2
  -3  -1  -4 318350. 8372.52   2
   3  -1   4 313647. 8237.66   1
   3   1   4 298806. 7941.94   1
  -3  -1  -4 319112. 8595.91   9
   3  -1   4 311550. 7895.10  10
  -3   1  -4 317494. 8249.94  18
  -3  -1  -4 305720. 8559.19  18
   3  -1   4 310913. 8298.14   6
   3   1   4 314703. 7937.11   5
   3   1   4 316860. 8405.21   6
  -3   1  -4 322201. 7895.91   7
   3  -1   4 317433. 8085.61  16
   3   1   4 315193. 8040.13  16
  -3   1  -4 320692. 9214.65  14
  -3  -1  -4 328425. 8396.27  15
   3   1   4 318066. 7937.18  12
   3  -1   4 315376. 8231.79   5
   3  -1   4 322473. 7940.54   3
   3   1   5 416949. 10680.2   1
  -3  -1  -5 434068. 11164.9   2
  -3   1  -5 435343. 10667.0   2
  -3   1  -5 468115. 11131.6   1
   3  -1   5 428623. 10949.2   1
  -3   1  -5 415120. 11522.6   9
   3  -1   5 418583. 10568.0  10
   3   1   5 417173. 10574.5  10
  -3  -1  -5 456499. 11536.1   9
  -3   1  -5 431896. 11097.1  18
  -3  -1  -5 439451. 11512.0  18
   3  -1   5 404944. 10878.3   5
   3  -1   5 396074. 10995.4   6
   3   1   5 418150. 11145.9   6
  -3   1  -5 431779. 10425.8   7
   3   1   5 432957. 10620.1   5
   3   1   5 423643. 10696.9  16
  -3   1  -5 417454. 11372.1  15
  -3  -1  -5 442513. 11193.3  15
  -3  -1  -5 436312. 12053.2  14
   3  -1   5 427925. 10740.2  16
  -3   1  -5 362265. 11851.8  14
   3   1   5 421789. 10599.7  12
   3  -1   5 432719. 10431.0   3
  -3   1  -6 43634.5 2472.00   9
   3   1   6 42671.8 1851.35  10
   3  -1   6 44628.9 1881.35  10
  -3  -1  -6 49632.8 2518.58   9
  -3  -1  -6 48809.6 2514.17  18
  -3   1  -6 44585.2 2234.63  18
   3  -1   6 40930.4 2005.44   5
   3  -1   6 44472.2 2171.03   6
   3   1   6 44816.2 2257.95   6
  -3   1  -6 48590.1 1714.76   7
  -3   1  -6 43411.9 2424.94  15
  -3   1  -6 38935.5 2659.44  14
   3   1   6 44864.1 1943.12  16
  -3  -1  -6 39560.7 2624.03  14
   3  -1   6 46599.8 1984.76  16
   3   1   6 46806.5 1933.68  12
  -3   1  -6 51540.4 2255.80   1
  -3  -1  -6 45038.6 2238.90   2
  -3   1  -6 45972.5 1970.77   2
   3   1   6 45738.3 1990.24   1
   3  -1   6 45275.6 2113.53   1
  -3   1  -7 21395.2 1756.17   9
   3  -1   7 17717.9 1146.06  10
   3   1   7 17329.3 1140.80  10
  -3  -1  -7 20467.4 1668.99   9
  -3  -1  -7 16184.8 1619.96  17
  -3   1  -7 16692.7 1422.27  18
  -3  -1  -7 17449.5 1525.57  18
   3  -1   7 16283.0 1230.93   5
   3   1   7 17423.7 1379.62   6
   3  -1   7 20180.7 1449.42   6
   3   1   7 18336.8 1202.36  16
   3  -1   7 17688.0 1186.28  16
  -3  -1  -7 16954.9 1738.59  14
  -3   1  -7 17844.5 1562.06  15
   3   1   7 17469.9 1164.62  12
   3   1   7 21357.8 1340.21   1
  -3   1  -7 17856.5 1326.01   1
  -3   1  -7 16046.3 1162.64   2
  -3  -1  -7 18466.7 1409.80   2
   3  -1   7 16966.1 1283.33   1
  -3   1  -8 79375.1 4157.95  17
  -3   1  -8 83144.9 3781.67  18
  -3  -1  -8 83980.2 3912.69  18
  -3  -1  -8 81852.8 4133.71  17
   3   1   8 86295.2 3697.44   6
   3  -1   8 82242.2 3473.39   6
   3  -1   8 89454.1 3285.16  16
  -3   1  -8 86523.5 4087.88  15
   3   1   8 87336.1 3264.56  16
  -3  -1  -8 93650.9 4149.09   9
   3   1   8 84755.4 3164.99  10
   3  -1   8 88444.4 3204.69  10
  -3   1  -8 88474.2 4158.37   9
  -3  -1  -8 83912.0 3585.93   2
  -3   1  -8 83200.7 3255.15   2
  -3   1  -9 66600.0 3457.67  18
  -3  -1  -9 68735.0 3584.48  18
  -3  -1  -9 64810.8 3787.38  17
  -3   1  -9 62734.1 3757.58  17
   3   1   9 70292.5 3312.87   6
   3  -1   9 69237.8 3184.47   6
   3  -1   9 73609.0 3006.69  16
  -3   1  -9 72791.7 3815.65  15
   3   1   9 72423.5 2981.05  16
  -3   1  -9 64338.4 3669.90   9
   3   1   9 70176.3 2885.31  10
  -3  -1  -9 73395.8 3792.23   9
   3  -1   9 72632.4 2909.39  10
  -3  -1  -9 65925.3 3219.33   2
  -3   1 -10 10827.3 1373.61  18
  -3  -1 -10 11738.9 1591.65  17
  -3   1 -10 12052.4 1638.26  17
   3  -1  10 15632.3 1308.75  16
  -3  -1 -10 12847.0 1531.18  18
   3   1  10 13921.8 1409.25   6
   3  -1  10 13958.3 1353.90   6
   3   1  10 14485.9 1249.53  16
   3   1  10 14915.2 1232.49  10
  -3  -1 -10 13622.9 1635.55   9
  -3   1 -10 12339.3 1594.16   9
   3  -1  10 14106.5 1226.02  10
  -3  -1 -10 13100.0 1361.49   2
   3  -1  11 8420.28 1033.56  16
   3   1  11 7798.98 994.570  16
   3  -1  11 6673.24 996.016   6
   3   1  11 8342.17 1111.56   6
  -3   1 -11 7045.27 1306.93  17
  -3   1 -11 8162.63 1243.30  18
  -3  -1 -11 7172.19 1325.05  17
  -3  -1 -11 7384.42 1228.11  18
   3  -1  11 7131.62 919.520  10
   3   1  11 8122.12 1010.23  10
  -3  -1 -11 6787.69 1210.01   9
  -3   1 -11 7004.78 1339.39   9
   3   1  12 46189.6 2552.16  16
   3   1  12 38223.9 2596.08   6
   3  -1  12 38444.1 2517.16   6
  -3  -1 -12 31035.0 2666.59  18
  -3   1 -12 35769.8 2752.79  18
   3  -1  12 39865.1 2401.55  16
  -3   1 -12 34413.0 3083.27  17
  -3  -1 -12 32830.7 2943.94  17
  -3  -1 -12 40002.1 3134.76   9
  -3   1 -12 34851.8 3043.82   9
   3   1  12 40599.0 2373.47  10
   3  -1  12 42014.0 2408.11  10
   3   1  13 14477.6 1459.34  16
   3  -1  13 12966.7 1471.35   6
   3   1  13 12849.6 1529.43   6
  -3   1 -13 10617.3 1758.25  17
   3  -1  13 14761.1 1470.15  16
  -3  -1 -13 11931.2 1834.16  17
  -3  -1 -13 10577.1 1605.91  18
  -3  -1 -13 11624.5 1762.51   9
  -3   1 -13 11357.6 1871.72   9
   3  -1  13 14173.0 1404.50  10
   3   1  13 13317.2 1387.10  10
  -3  -1 -14-368.415 506.415  18
   3  -1  14-176.339 444.778   6
   3   1  14-118.977 362.729  16
  -3  -1 -14 25.1773 500.271  11
  -3   1 -14 430.269 637.826  11
   3   1  14 658.392 468.301  10
   3  -1  14-94.8741 413.907  10
   3   3 -14 9802.09 1738.69   9
  -3   3  14 10462.2 1436.80   4
   3   3 -14 8813.10 1697.66  17
   3  -3 -14 7287.64 1473.76  17
  -3  -3  13 7381.53 1076.42  10
   3  -3 -13 6634.23 1391.90   9
   3   3 -13 6048.22 1306.65   9
  -3   3  13 7496.43 1112.83  10
   3   3 -13 6908.90 1546.49  11
  -3   3  13 6958.47 1177.09   4
   3  -3 -13 5198.93 1198.93  17
   3   3 -13 5861.87 1310.90  17
   3  -3 -12 597.134 559.068  18
   3  -3 -12 536.128 536.223  17
   3   3 -12 929.104 648.821  17
   3   3 -12 235.668 525.323   9
  -3  -3  12 308.062 377.415  10
  -3   3  12 342.366 480.044  10
   3  -3 -12 120.331 585.505   9
   3   3 -12-111.583 518.983  11
   3  -3 -11 29259.1 2555.55  17
   3  -3 -11 27888.8 2453.87  18
   3   3 -11 29265.7 2640.94  17
   3   3 -11 28426.3 2821.54  11
  -3  -3  11 36468.1 2187.29  10
   3   3 -11 30782.8 2642.87   9
   3  -3 -11 28832.6 2466.66   9
  -3   3  11 33380.9 2181.97  10
   3   3 -10 48010.7 3342.23  17
   3  -3 -10 48291.4 3211.50  18
  -3  -3  10 54321.2 2620.26  16
   3  -3 -10 52206.4 3330.50  17
  -3   3  10 55822.9 2930.47   6
  -3   3  10 58877.3 2606.60  16
  -3   3  10 59709.3 2936.77  12
   3   3 -10 49075.2 3606.34  11
   3   3 -10 50180.6 3322.89   9
  -3  -3  10 60574.4 2861.24  10
   3  -3 -10 56533.5 3351.76   9
  -3   3  10 59694.7 2876.11  10
  -3  -3   9 11777.8 933.622   3
   3  -3  -9 11755.2 1388.50   9
  -3  -3   9 14631.7 1250.97  10
   3   3  -9 12807.2 1489.14   9
  -3   3   9 14293.0 1257.38  10
  -3  -3   9 11247.2 1051.37  16
   3  -3  -9 12687.6 1500.80  17
   3  -3  -9 12110.3 1458.81  18
   3   3  -9 10087.3 1398.99  17
  -3   3   9 13476.7 1313.60   6
   3  -3  -9 15971.9 1403.25  13
  -3   3   9 13169.8 1078.67  16
  -3   3   9 13401.6 1255.71  12
   3   3  -9 11529.0 1597.01  11
   3  -3  -9 12377.6 1253.38  11
  -3  -3   9 13442.0 1020.57   4
  -3  -3   8 12732.2 957.685   3
   3  -3  -8 13963.4 1393.56   9
  -3  -3   8 14457.8 1188.86  10
   3   3  -8 13850.7 1444.95   9
  -3  -3   8 12772.4 1056.19  16
   3  -3  -8 12833.5 1426.90  17
   3  -3  -8 11190.0 1357.28  18
   3   3  -8 10832.0 1304.39  17
  -3   3   8 14462.2 1003.22   8
  -3   3   8 12515.0 1192.84   6
   3  -3  -8 14819.1 1328.46  13
   3   3  -8 11812.0 1491.13  11
   3  -3  -8 14487.5 1245.44  11
  -3   3   8 12656.6 1160.42  12
  -3  -3   8 13056.5 953.623   4
  -3  -3   7 94316.2 3050.62   4
  -3  -3   7 83725.0 3085.23   3
  -3  -3   7 89000.7 2924.34  19
   3  -3  -7 89633.2 4044.16  18
   3   3  -7 85678.7 3866.07  17
   3  -3  -7 97763.6 3996.38  17
  -3  -3   7 93854.4 3293.29  16
  -3   3   7 100020. 3282.77   8
  -3   3   7 86931.8 3532.68   6
   3  -3  -7 86893.1 3784.53  14
   3  -3  -7 95842.6 3742.40  13
   3   3  -7 93941.4 4033.50  15
   3   3  -7 81112.8 4139.65  11
  -3   3   7 97428.1 3550.00  12
   3  -3  -7 96352.3 3509.12  11
  -3  -3   7 95001.2 3384.44  10
   3  -3  -7 99785.0 3875.23   9
   3   3  -7 88396.5 3889.90   9
  -3  -3   6 104157. 3227.87   4
  -3  -3   6 96027.8 3403.33   3
   3   3  -6 116005. 3924.26   1
   3  -3  -6 108842. 3124.81  19
  -3  -3   6 98015.5 3211.78  19
   3  -3  -6 113449. 4313.98  18
   3  -3  -6 110395. 3991.92  17
   3   3  -6 99190.5 3961.63  17
  -3  -3   6 104212. 3469.20  16
  -3   3   6 107137. 3586.66   8
  -3   3   6 96258.2 3690.66   6
   3  -3  -6 110023. 4001.42  13
   3   3  -6 102560. 4183.93  14
   3  -3  -6 104466. 3940.38  14
   3   3  -6 105135. 4136.83  15
  -3  -3   6 97938.4 3770.05  14
  -3   3   6 123044. 4148.27  14
   3   3  -6 100388. 4337.24  11
   3  -3  -6 105199. 3495.40  11
  -3   3   6 103736. 3649.02  12
  -3  -3   6 111995. 3588.52  10
   3   3  -6 100017. 3971.47   9
   3  -3  -6 108630. 3892.31   9
  -3  -3   5 74083.6 2411.53   4
  -3  -3   5 68149.2 2633.58   3
  -3   3   5 74284.8 2133.36   1
  -3  -3   5 70158.1 2478.83  19
   3  -3  -5 76721.8 2493.14  19
   3  -3  -5 75661.4 3141.36  18
   3  -3  -5 73728.6 2862.00  17
   3   3  -5 74304.3 1983.83  18
   3   3  -5 70073.4 2887.97  17
  -3   3   5 72417.9 2836.08   6
  -3   3   5 74734.3 2851.72   8
  -3  -3   5 77398.0 2971.16  14
   3   3  -5 72230.8 3057.55  14
   3  -3  -5 79878.6 2924.65  14
  -3   3   5 83542.5 3082.12  14
   3  -3  -5 72368.3 3011.40  13
   3   3  -5 76968.8 3132.68  15
   3  -3  -5 75916.5 2433.19  11
  -3   3   5 70394.7 2725.25  12
   3   3  -5 69292.9 3199.30  11
  -3  -3   5 76032.3 2667.66  10
   3   3  -5 70600.1 2927.91   9
   3  -3  -5 76618.6 2895.18   9
  -3  -3   4 74476.2 2419.33   4
  -3   3   4 79565.1 2063.88   1
  -3  -3   4 71656.1 2697.07   3
   3  -3  -4 74907.8 2632.74  19
  -3  -3   4 76559.9 2588.92  19
   3   3  -4 78739.6 2744.10  17
   3  -3  -4 79348.5 2773.78  17
  -3   3   4 80642.5 2799.43   6
   3   3  -4 73618.2 2861.16  14
   3  -3  -4 81492.3 2667.10  14
   3   3  -4 77285.6 2951.63  15
  -3  -3   4 81197.8 2070.20  13
  -3   3   4 81952.8 2896.48  14
   3  -3  -4 82182.8 3095.61  13
  -3  -3   4 79577.9 2831.08  14
  -3   3   4 74086.3 2732.21  12
   3  -3  -4 79613.9 2268.33  11
   3   3  -4 83671.5 3184.34  11
   3   3  -4 74134.1 2795.70   9
  -3  -3   4 76401.3 2630.85  10
   3  -3  -4 81866.2 2841.15   9
  -3  -3   3 570621. 13342.8   4
  -3  -3   3 564887. 13545.4  19
   3  -3  -3 581396. 13747.3  19
   3  -3  -3 588654. 13565.3  17
   3   3  -3 589229. 13422.1  17
  -3  -3   3 529718. 13695.8   3
  -3  -3   3 565672. 13095.7  13
   3   3  -3 570106. 13703.8  14
  -3  -3   3 580787. 13646.2  14
   3  -3  -3 584384. 14086.6  13
  -3   3   3 587285. 13650.4  14
   3  -3  -3 564992. 13289.0  14
   3   3  -3 541101. 13684.9  15
  -3   3   3 566682. 13704.3  12
   3   3  -3 561881. 13980.5  11
   3  -3  -3 580398. 12865.6  11
   3  -3  -3 597432. 13728.0   9
  -3  -3   3 559580. 13557.3  10
   3   3  -3 489551. 13459.7   9
   3  -3  -2 173632. 4662.72   5
  -3  -3   2 178548. 4787.56   4
   3  -3  -2 178473. 5056.97   3
  -3  -3   2 180654. 4963.08  19
   3  -3  -2 190119. 5202.42  19
   3   3  -2 181099. 5228.99  20
   3  -3  -2 180475. 4746.67  17
   3   3  -2 187222. 4557.71  17
  -3  -3   2 175815. 5111.22   3
   3  -3  -2 179892. 4465.05  14
   3   3  -2 184075. 4895.45  14
  -3  -3   2 181994. 4803.56  14
   3  -3  -2 180393. 5261.65  13
  -3   3   2 193396. 4675.19  14
  -3  -3   2 176612. 4683.90  13
   3   3  -2 177800. 4785.95  15
   3   3  -2 187678. 5132.04  11
  -3   3   2 178376. 5012.11  12
   3  -3  -2 179184. 4926.56   9
  -3  -3   2 178189. 4956.57  10
   3   3  -2 173802. 4594.88   9
   3  -3  -1 772.585 177.719   5
  -3  -3   1 589.545 177.717   4
   3  -3  -1 931.141 287.110   3
  -3   3   1 402.903 109.674   1
  -3  -3   1 173.917 124.199  19
   3   3  -1 668.364 213.050  21
  -3   3   1 106.495 65.9432  20
   3   3  -1 338.498 167.178  20
   3  -3  -1 175.421 168.806  19
   3  -3  -1 401.979 123.507  17
  -3  -3   1 587.751 115.584  18
  -3   3   1 423.567 87.1270  14
   3  -3  -1 200.770 153.633  13
  -3  -3   1 337.934 111.161  14
   3   3  -1 255.154 129.373  11
  -3   3   1 211.167 147.200  12
  -3  -3   1 496.674 176.105  10
  -3  -3   0 226052. 6105.81   2
   3  -3   0 236920. 6542.85   3
  -3   3   0 242233. 5927.43   1
  -3  -3   0 230143. 6177.40   3
   3   3   0 228675. 6282.36  21
   3   3   0 221332. 6248.85  20
   3  -3   0 242024. 6370.92  19
  -3  -3   0 227559. 6053.16  19
  -3   3   0 227400. 5595.10  20
  -3   3   0 224663. 6225.76  21
  -3  -3   0 231646. 5819.51  18
   3   3   0 225198. 5790.27   6
   3  -3   0 232729. 6149.73  13
  -3  -3   0 223414. 5635.89  14
   3   3   0 228241. 5774.20  11
   3   3   0 223260. 6309.28  12
  -3   3   0 224849. 6117.55  12
   3  -3   0 225046. 5954.06   5
  -3  -3   0 236758. 6153.30   4
   3  -3   1 230598. 6293.19   5
  -3  -3  -1 236303. 6522.26   4
   3  -3   1 237045. 6791.31   3
  -3  -3  -1 244484. 6344.72   3
  -3  -3  -1 241457. 6542.70   2
  -3   3  -1 257337. 6376.61   1
   3  -3   1 245956. 6579.07  19
  -3  -3  -1 230735. 6262.20  19
  -3   3  -1 232679. 5823.69  20
   3   3   1 231839. 6466.87  20
  -3  -3  -1 237358. 6248.24  18
   3  -3   1 254499. 5664.02   6
   3   3   1 233063. 6106.83   6
   3  -3   1 240180. 6251.22  13
  -3   3  -1 233504. 6359.23  12
   3   3   1 224946. 6433.36  12
   3   3   1 246523. 5968.56  11
  -3  -3  -1 244111. 5668.80   9
   3  -3   1 237484. 6337.00  10
   3  -3   2 175778. 5078.92   5
   3  -3   2 168493. 5408.03   3
  -3  -3  -2 191092. 4961.71   3
  -3  -3  -2 169477. 5296.69   2
  -3   3  -2 189941. 5179.74   1
   3   3   2 174283. 5147.51  20
  -3  -3  -2 179042. 4965.56  19
   3  -3   2 182866. 5217.85  19
  -3  -3  -2 179963. 5153.99  18
   3  -3   2 168676. 5047.31  16
   3  -3   2 180175. 4538.84   6
   3   3   2 174113. 4913.52   6
  -3   3  -2 180323. 5279.97  14
   3  -3   2 175132. 4795.94  13
   3   3   2 174130. 5055.35  12
   3  -3   2 175580. 4916.99  10
  -3  -3  -2 184950. 4619.03   9
   3  -3   3 29647.8 1525.07   5
  -3  -3  -3 29757.8 1694.32   2
  -3   3  -3 31519.1 1594.99   1
   3  -3   3 30865.9 1712.38   3
  -3  -3  -3 30284.7 1294.80   3
   3   3   3 29677.6 1550.90  20
   3  -3   3 30274.2 1515.97  19
  -3  -3  -3 30073.1 1395.65  19
   3  -3   3 29316.1 1464.46  16
   3  -3   3 28744.0 1236.98   6
   3   3   3 29340.2 1468.44   6
   3  -3   3 28148.7 1221.37  13
  -3   3  -3 27663.4 1701.60  14
   3   3   3 30352.4 1458.09  12
   3  -3   3 28634.9 1326.68  10
  -3  -3  -3 30194.9 1327.09   9
   3  -3   4 255150. 7244.33   5
   3  -3   4 280438. 7566.88   3
  -3  -3  -4 263860. 6560.59   3
  -3   3  -4 279526. 7446.02   1
  -3  -3  -4 252972. 7536.91   2
   3   3   4 237195. 6675.11   1
   3   3   4 259356. 7295.67  20
   3  -3   4 256964. 7061.94  19
  -3  -3  -4 269231. 7500.63  17
   3  -3   4 252726. 7076.12  16
  -3  -3  -4 240891. 7403.48  18
   3   3   4 254447. 7199.17   6
   3  -3   4 261652. 6835.10   6
  -3   3  -4 257791. 7887.67  14
   3   3   4 262752. 7029.85  12
   3  -3   4 255563. 6843.76  10
  -3  -3  -4 271431. 7079.08   9
   3  -3   5 274126. 6562.98   4
  -3  -3  -5 275699. 8213.11   2
  -3   3  -5 309933. 8150.15   1
  -3  -3  -5 287463. 6761.07   3
   3  -3   5 294714. 7871.68   3
   3   3   5 268058. 7291.92   1
  -3   3  -5 279618. 7248.53   2
   3  -3   5 280643. 7561.51  19
   3  -3   5 278945. 7691.50  16
  -3  -3  -5 255607. 8092.96  18
  -3  -3  -5 286023. 8237.11  17
  -3   3  -5 266251. 7518.97  18
   3  -3   5 267566. 7805.66   5
   3  -3   5 268182. 7405.99   6
   3   3   5 280767. 7896.44   6
  -3  -3  -5 268304. 8346.98  14
  -3   3  -5 273749. 8655.94  14
   3   3   5 276929. 7580.47  12
  -3  -3  -5 273060. 7725.29   9
   3  -3   5 279427. 7443.62  10
   3  -3   6 33647.5 1756.65   3
  -3  -3  -6 32027.8 2058.66   2
  -3   3  -6 31340.7 1464.32   2
   3   3   6 32897.7 1610.77   1
  -3   3  -6 36004.4 2043.76   1
   3  -3   6 32835.5 1661.48  19
   3  -3   6 36303.6 1864.99  16
  -3   3  -6 35013.4 1824.88  18
  -3  -3  -6 33634.4 2125.59  18
  -3  -3  -6 35523.9 2163.63  17
   3  -3   6 32658.7 1898.20   5
   3   3   6 33713.6 1931.30   6
   3  -3   6 33484.4 1666.11   6
  -3  -3  -6 27536.0 2083.66  14
  -3   3  -6 32549.3 2297.53  14
  -3   3  -6 32971.5 2173.04  15
   3   3   6 32057.2 1718.88  12
   3  -3   6 35083.4 1721.12  10
  -3   3  -6 35839.4 2296.21   9
  -3  -3  -6 35108.7 1933.88   9
   3  -3   7 9652.17 872.990   3
  -3  -3  -7 9416.12 1145.59   2
  -3   3  -7 11510.1 847.675   2
   3   3   7 10187.3 908.721   1
  -3  -3  -7 12002.5 893.632  19
  -3  -3  -7 10885.3 1271.20  18
   3  -3   7 10372.7 1038.57  16
  -3  -3  -7 10419.8 1208.11  17
  -3   3  -7 11901.8 1120.11  18
   3  -3   7 9976.89 1034.94   5
   3  -3   7 9882.08 905.270   6
   3   3   7 9856.39 1087.28   6
  -3   3  -7 11704.2 1010.54   7
  -3  -3  -7 9193.04 1224.23  14
  -3   3  -7 10828.8 1300.47  15
   3   3   7 9259.78 920.425  12
  -3   3  -7 10490.1 1331.82   9
  -3  -3  -7 10948.3 1111.10   9
   3  -3   7 12531.6 1013.25  10
  -3  -3  -8 69683.3 3507.75   2
   3  -3   8 73981.1 3018.76  10
  -3   3  -8 65783.2 3763.10   9
   3   3   8 71584.7 3021.55  10
  -3  -3  -8 77893.7 3502.92   9
   3  -3   8 74797.9 3196.20  16
  -3   3  -8 66197.2 3248.40  18
  -3  -3  -8 74359.4 3698.98  18
  -3  -3  -8 73736.3 3677.03  17
  -3   3  -8 67456.6 3789.97  17
   3  -3   8 68658.5 3156.64   5
  -3   3  -8 76370.5 2958.21   7
   3  -3   8 70939.5 2944.46   6
   3   3   8 76173.7 3434.22   6
   3   3   8 74627.3 3100.35  16
  -3   3  -8 66764.6 3757.44  15
  -3  -3  -8 70289.2 3281.81  13
   3   3   8 74275.2 3096.68  12
   3  -3   8 69126.4 2729.51   3
  -3  -3  -9 46619.3 3029.58  18
   3  -3   9 51019.4 2612.31  16
  -3   3  -9 39936.7 2958.04  17
  -3   3  -9 50676.7 2819.22  18
  -3  -3  -9 50809.3 3121.66  17
   3   3   9 50059.9 2729.92   6
   3  -3   9 45180.6 2369.04   6
   3   3   9 50524.5 2528.12  16
  -3   3  -9 46896.5 3224.31  15
  -3  -3  -9 42967.3 2511.27  13
   3   3   9 50544.3 2566.48  12
  -3   3  -9 50486.6 3340.58   9
  -3  -3  -9 53219.6 2978.02   9
   3   3   9 50906.8 2512.20  10
   3  -3   9 47754.5 2437.28  10
  -3   3 -10 8950.32 1412.59  17
   3  -3  10 12771.9 1292.62  16
  -3  -3 -10 12032.6 1567.45  17
  -3  -3 -10 11484.6 1508.48  18
   3  -3  10 11004.2 1146.84   6
   3   3  10 11684.1 1319.80   6
   3   3  10 12161.0 1232.44  16
  -3  -3 -10 11054.5 1212.45  13
  -3   3 -10 12547.8 1715.80  15
   3   3  10 13294.1 1275.44  12
  -3   3 -10 11324.0 1630.36   9
   3   3  10 12783.7 1253.14  10
  -3  -3 -10 14026.4 1603.51   9
   3  -3  10 13304.0 1279.19  10
   3   3  11 7017.29 985.476  16
   3  -3  11 7855.36 1042.95  16
  -3   3 -11 6383.28 1326.16  15
   3  -3  11 5859.35 892.805   6
   3   3  11 7091.06 1085.03   6
  -3   3 -11 5953.18 1252.44  17
  -3  -3 -11 5702.73 1126.41  18
  -3  -3 -11 6425.25 1138.86  17
   3  -3  11 6454.67 908.553  10
  -3  -3 -11 7974.67 1249.02   9
   3   3  11 6888.71 988.415  10
  -3   3 -11 6027.97 1267.70   9
   3   3  12 34605.7 2297.47  16
   3  -3  12 30902.3 2104.60   6
   3   3  12 30460.1 2326.68   6
   3  -3  12 31588.7 2254.08  16
  -3  -3 -12 31310.8 2706.24  17
  -3  -3 -12 27639.3 2577.90  18
  -3   3 -12 29405.1 2824.20  17
   3  -3  12 30345.8 2119.51  10
  -3  -3 -12 32154.7 2709.38   9
  -3   3 -12 27067.6 2775.65   9
   3   3  12 33702.4 2256.93  10
  -3  -3 -13 8849.47 1523.57  18
  -3   3 -13 10669.0 1753.59  17
  -3  -3 -13 11317.4 1689.88  17
   3   3  13 7539.66 1185.58   6
   3  -3  13 9108.97 1212.24  16
   3   3  13 10435.8 1284.17  16
   3   3  13 9041.41 1222.47  10
  -3   3 -13 13858.3 2026.93   9
  -3  -3 -13 9206.83 1554.15   9
   3  -3  13 8902.08 1171.44  10
  -3   3 -13 8004.33 1591.86  11
   3  -5 -13 3793.04 1066.98   9
   3  -5 -13 5942.93 1222.87  17
   3  -5 -12 508.353 654.957  17
   3  -5 -12-898.183 653.299   9
  -3   5  12 336.179 457.451  10
  -3  -5  12 231.337 447.178  10
   3   5 -12 395.792 779.052  11
   3  -5 -11 16049.8 1770.50  17
   3   5 -11 13693.2 1799.32  17
  -3   5  11 16497.2 1721.66  12
   3   5 -11 15466.0 2146.28  11
   3   5 -11 14394.4 1849.61   9
   3  -5 -11 14853.8 1718.38   9
  -3   5  11 19447.0 1781.93  10
  -3  -5  11 16038.3 1586.17  10
   3  -5 -10 39649.0 2696.70  13
   3   5 -10 33223.9 2695.60  17
   3  -5 -10 37085.5 2580.40  17
  -3   5  10 41654.2 2677.05  12
   3   5 -10 34326.0 3132.97  11
  -3  -5  10 37388.1 2358.01  10
   3   5 -10 32403.0 2648.44   9
   3  -5 -10 39997.4 2748.69   9
   3  -5  -9 10080.2 1272.52   9
   3   5  -9 9802.10 1336.88   9
  -3  -5   9 10467.1 1185.33  10
   3  -5  -9 10212.0 1241.90  17
   3   5  -9 6914.04 1124.92  17
   3  -5  -9 11181.5 1334.43  13
   3   5  -9 7526.28 1403.67  11
  -3   5   9 10770.9 1275.54  12
  -3  -5   9 7196.29 856.035   3
  -3  -5   8 10582.9 992.325   3
  -3  -5   8 8864.60 841.197  19
   3  -5  -8 10298.5 1159.27  17
   3   5  -8 10006.9 1217.02  17
  -3   5   8 10975.9 1134.07   6
  -3   5   8 12893.2 1240.62   8
   3  -5  -8 10913.2 1305.38  13
   3   5  -8 10083.5 1359.60  15
  -3   5   8 10730.6 1220.62  12
   3   5  -8 8821.24 1428.31  11
   3  -5  -8 12613.7 1315.85   9
   3   5  -8 11137.2 1331.19   9
  -3  -5   8 9764.93 1039.60  10
  -3  -5   7 36718.3 2010.42   3
  -3  -5   7 39790.5 1945.33  19
   3   5  -7 38090.5 2273.41  17
   3  -5  -7 43503.2 2262.57  17
  -3   5   7 46694.1 2519.16   8
  -3   5   7 35936.3 2092.93   6
   3  -5  -7 48021.9 2724.14  13
   3   5  -7 39314.5 2573.42  15
  -3   5   7 47283.9 2520.81  12
   3   5  -7 41563.7 2830.49  11
  -3  -5   7 45699.2 2304.39  10
   3   5  -7 41708.8 2479.72   9
   3  -5  -7 44870.9 2401.42   9
  -3  -5   6 71787.3 2486.80   4
  -3  -5   6 65995.6 2830.07   3
   3  -5  -6 79483.3 2994.14  19
  -3  -5   6 65657.1 2710.43  19
   3   5  -6 67078.1 2907.79  17
   3  -5  -6 73417.5 2898.70  17
  -3   5   6 72704.0 2974.16   6
  -3  -5   6 59908.1 2761.26  14
   3   5  -6 70356.1 3372.53  15
   3   5  -6 62207.9 2955.26  14
   3  -5  -6 73898.3 3444.80  13
  -3   5   6 77905.3 3259.16  12
   3   5  -6 66838.1 3494.55  11
   3  -5  -6 73692.7 3064.93   9
  -3  -5   6 74973.5 2997.52  10
   3   5  -6 72216.7 3193.10   9
   3  -5  -5 31047.1 1364.45   5
  -3  -5   5 30468.5 1414.35   4
  -3  -5   5 29552.1 1632.78  19
   3  -5  -5 33191.5 1808.19  19
   3   5  -5 30025.7 1552.93  17
   3  -5  -5 31907.6 1596.86  17
  -3  -5   5 27927.0 1663.31   3
  -3  -5   5 24084.3 1511.38  14
   3   5  -5 29957.7 1887.40  15
   3   5  -5 29023.2 1661.63  14
   3  -5  -5 32193.0 2057.68  13
   3   5  -5 29000.3 1992.60  11
  -3   5   5 31957.9 1890.27  12
   3  -5  -5 30152.1 1701.11   9
  -3  -5   5 31550.9 1732.37  10
   3   5  -5 30094.2 1747.39   9
   3  -5  -4 37515.6 1800.30   3
  -3  -5   4 37568.9 1628.62   4
   3  -5  -4 38277.5 1544.79   5
  -3  -5   4 40792.4 1932.00  19
   3   5  -4 37024.0 2033.01  20
   3  -5  -4 40197.9 2060.66  19
   3   5  -4 37066.5 1511.99  17
   3  -5  -4 40272.9 1692.03  17
  -3   5   4 38357.4 1208.40   1
  -3  -5   4 36873.3 1951.06   3
  -3  -5   4 37330.3 1471.85  13
   3  -5  -4 38587.1 2205.51  13
   3   5  -4 37758.0 1783.91  14
  -3  -5   4 35954.5 1771.75  14
   3   5  -4 36640.3 1963.41  15
   3  -5  -4 39771.8 1382.09  14
   3   5  -4 40272.2 2168.50  11
  -3   5   4 37306.4 2058.69  12
   3  -5  -4 42910.9 1937.34   9
  -3  -5   4 39522.2 1967.29  10
   3   5  -4 38602.8 1824.76   9
  -3  -5   3 227000. 6106.44   4
   3  -5  -3 236424. 5926.77   5
   3  -5  -3 227002. 6595.08   3
  -3  -5   3 224326. 6445.10  19
  -3   5   3 226687. 6320.73  20
   3  -5  -3 232576. 6749.52  19
   3   5  -3 239970. 6832.26  20
   3  -5  -3 228159. 5941.66  17
   3   5  -3 212017. 5486.94  17
  -3  -5   3 214567. 6605.20   3
   3   5  -3 219065. 6061.57  14
   3  -5  -3 231952. 6875.49  13
  -3  -5   3 220002. 6094.15  14
  -3  -5   3 222170. 5966.21  13
   3   5  -3 230286. 6619.87  11
  -3   5   3 239734. 6828.97  12
   3   5  -3 208965. 5990.38   9
   3  -5  -3 232676. 6348.06   9
  -3  -5   3 226457. 6591.66  10
  -3  -5   2 128471. 3975.16   4
   3  -5  -2 131982. 3777.48   5
   3  -5  -2 136087. 4538.14   3
  -3  -5   2 127468. 4425.25   3
  -3  -5   2 127369. 4185.02  19
   3  -5  -2 135515. 4497.91  19
  -3   5   2 126566. 3910.63  20
   3   5  -2 135330. 4502.59  20
   3   5  -2 134549. 4770.45  21
   3  -5  -2 134837. 3646.62  17
   3  -5  -2 133331. 4470.98  13
  -3  -5   2 125262. 3676.04  14
  -3  -5   2 123020. 3862.07  13
  -3   5   2 133112. 4471.45  12
   3   5  -2 137141. 4162.92  11
  -3  -5   2 132428. 4351.92  10
   3   5  -2 119872. 3505.26   9
  -3   5   1 2266.46 338.797   1
  -3  -5   1 3215.26 538.854   3
   3  -5  -1 2292.11 509.046   3
   3   5  -1 2304.69 282.378   6
   3  -5  -1 2111.53 446.362  19
   3   5  -1 2810.90 511.535  20
   3   5  -1 1913.95 482.225  21
  -3   5   1 2268.97 347.550  20
  -3  -5   1 1968.59 397.643  19
   3  -5  -1 1501.86 422.447  13
  -3  -5   1 1715.52 333.353  13
  -3  -5   1 2011.04 251.809  14
  -3   5   1 2429.04 482.726  12
   3   5  -1 1869.74 342.610  11
   3   5  -1 2150.64 526.029  12
  -3  -5   1 2110.76 388.536   4
   3  -5  -1 1904.67 319.948   5
  -3   5   0 90231.0 2908.29   1
  -3  -5   0 81970.3 3197.07   3
   3  -5   0 87359.6 3536.80   3
   3   5   0 87596.7 3444.27  21
  -3  -5   0 82404.8 3029.40  19
   3   5   0 81355.0 3188.03  20
  -3   5   0 85369.8 2733.46  20
   3  -5   0 86490.0 3288.11  19
  -3   5   0 85721.1 3382.42  21
   3   5   0 84795.2 2527.18   6
   3  -5   0 86735.9 3168.02  13
  -3  -5   0 85035.9 2369.56  14
  -3  -5   0 78479.9 2944.42  13
  -3   5   0 81597.5 2403.51  11
  -3   5   0 82897.8 3270.69  12
   3   5   0 85205.8 2630.85  11
   3   5   0 81851.3 3364.76  12
   3  -5   0 84255.6 2882.56   5
  -3  -5   0 78278.8 3037.04   4
   3  -5   1 135833. 4812.03   3
  -3   5  -1 141919. 4234.67   1
  -3  -5  -1 135118. 4394.71   3
   3  -5   1 138818. 4512.41  19
  -3  -5  -1 124717. 4189.25  19
  -3   5  -1 128616. 4562.79  21
  -3   5  -1 131226. 3872.45  20
   3   5   1 129116. 4441.64  20
  -3  -5  -1 135294. 4074.67  18
   3   5   1 134232. 3762.06   6
  -3   5  -1 130576. 3241.58  14
   3  -5   1 131254. 4203.19  13
  -3  -5  -1 130232. 3422.93  14
  -3  -5  -1 125685. 4247.07  13
  -3   5  -1 128421. 4460.69  12
   3   5   1 133815. 3661.97  11
   3   5   1 130669. 4590.20  12
   3  -5   1 128701. 4132.40   5
   3  -5   2 109226. 3644.20   5
   3  -5   2 100814. 4002.68   3
  -3  -5  -2 103797. 3603.80   3
  -3   5  -2 114852. 3711.39   1
   3   5   2 98899.6 3761.98  20
  -3  -5  -2 102515. 3585.78  19
   3  -5   2 102096. 3729.90  19
  -3   5  -2 99149.5 3892.66  21
  -3   5  -2 103402. 3251.58  20
  -3  -5  -2 102909. 3532.62  18
  -3  -5  -2 105477. 2745.11  17
   3   5   2 104394. 3261.57   6
   3  -5   2 102845. 3421.73  13
  -3   5  -2 99620.8 2974.03  14
  -3  -5  -2 98678.3 3714.64  13
   3   5   2 107580. 3936.28  12
   3  -5   2 98486.5 3645.29  10
  -3   5  -2 101833. 3793.56  12
  -3  -5  -2 99055.5 2858.46   9
   3  -5   3 2596.97 489.642   5
  -3   5  -3 2782.75 528.783   1
   3  -5   3 3436.50 658.719   3
  -3  -5  -3 2113.62 428.019   3
   3  -5   3 3847.01 600.782  19
   3   5   3 2086.62 484.811  20
  -3   5  -3 1895.42 340.418  20
  -3  -5  -3 2132.08 424.781  19
  -3  -5  -3 2292.46 304.440  17
  -3  -5  -3 2642.40 502.149  18
   3   5   3 2032.66 386.875   6
  -3   5  -3 1808.94 333.074  14
   3  -5   3 2159.86 375.986  13
   3   5   3 1475.38 434.246  12
  -3  -5  -3 2631.38 556.923  13
  -3  -5  -3 3189.17 355.913   9
   3  -5   3 1981.27 437.030  10
   3  -5   4 110681. 3998.07   5
  -3  -5  -4 116604. 3711.92   3
   3  -5   4 109891. 4244.51   3
  -3   5  -4 120788. 4166.23   1
   3   5   4 115233. 4227.28  20
  -3  -5  -4 111235. 3850.67  19
   3  -5   4 111243. 3944.55  19
  -3  -5  -4 111469. 4134.78  18
  -3  -5  -4 110142. 3523.51  17
   3   5   4 108625. 3768.76   6
  -3  -5  -4 99623.8 3722.56  14
   3  -5   4 106970. 3421.26  13
  -3   5  -4 100139. 3696.19  14
  -3  -5  -4 109300. 4154.24  13
   3   5   4 110408. 4085.07  12
  -3  -5  -4 108220. 3398.41   9
   3  -5   4 109944. 3840.27  10
   3  -5   5 161874. 5397.95   3
   3   5   5 159076. 4800.81   1
  -3  -5  -5 168271. 5169.84  19
   3  -5   5 160381. 5212.43  19
   3   5   5 167274. 5655.86  20
  -3  -5  -5 157413. 5604.41  18
  -3  -5  -5 159065. 4994.01  17
   3  -5   5 159540. 5354.98   5
   3   5   5 161598. 5197.92   6
  -3  -5  -5 143233. 5169.52  14
  -3   5  -5 145806. 5191.48  14
  -3  -5  -5 163424. 5551.10  13
   3  -5   5 163097. 4600.10  13
   3   5   5 173390. 5463.34  12
  -3  -5  -5 163991. 4916.49   9
   3  -5   5 169638. 5192.60  10
   3   5   6 18311.1 1194.00   1
   3  -5   6 16812.0 1334.63   3
   3  -5   6 19252.2 1391.29  19
  -3  -5  -6 16717.0 1256.53  19
  -3   5  -6 19068.1 1689.81  17
  -3  -5  -6 18312.5 1355.28  17
  -3  -5  -6 18972.7 1641.81  18
   3  -5   6 16099.3 1378.10  16
  -3   5  -6 19716.7 1341.69  18
   3   5   6 18649.2 1417.48   6
   3  -5   6 16169.8 1406.53   5
  -3   5  -6 16456.4 1426.68  14
  -3  -5  -6 18537.8 1544.64  13
   3   5   6 18398.9 1451.97  12
   3  -5   6 17250.8 1318.12  10
  -3  -5  -6 17248.6 1283.32   9
   3  -5   7 7659.66 884.444   3
   3  -5   7 7582.68 965.636   5
  -3  -5  -7 7984.32 850.574  19
   3  -5   7 8288.41 927.309  19
  -3  -5  -7 8922.63 1021.76  17
  -3  -5  -7 8289.31 1107.74  18
   3  -5   7 9986.45 1111.60  16
  -3   5  -7 7375.14 1125.94  17
   3   5   7 8644.04 1007.38   6
  -3   5  -7 9578.82 1333.18  15
  -3  -5  -7 8411.47 1086.40  13
   3   5   7 9171.01 1060.96  12
  -3   5  -7 5932.71 1046.76   9
   3  -5   7 9661.61 1006.65  10
  -3  -5  -7 8209.62 959.955   9
   3  -5   8 34110.7 1934.74   3
   3  -5   8 34285.7 1974.72  19
   3  -5   8 34054.6 2224.64  16
  -3  -5  -8 31842.2 2150.93  17
  -3  -5  -8 35136.0 2523.86  18
  -3   5  -8 35216.2 2583.49  17
   3  -5   8 30999.5 2113.83   5
   3   5   8 34019.3 2132.54   6
  -3   5  -8 34622.7 2767.28  15
  -3  -5  -8 34871.6 2320.78  13
   3   5   8 36734.9 2262.44  12
  -3   5  -8 33791.0 2638.54   9
   3  -5   8 34155.1 2078.17  10
  -3  -5  -8 35429.2 2222.81   9
   3  -5   9 38340.3 2295.31  10
  -3   5  -9 32801.9 2776.01   9
  -3  -5  -9 40643.1 2545.04   9
   3  -5   9 37847.4 2473.11  16
  -3  -5  -9 34421.2 2655.60  18
  -3  -5  -9 38175.7 2469.56  17
  -3   5  -9 39412.6 2883.77  17
   3   5   9 38024.5 2331.21   6
  -3  -5  -9 34359.5 2380.03  13
  -3   5  -9 35638.3 2984.46  15
   3   5   9 41165.0 2482.05  12
   3  -5   9 32642.1 1903.01   3
  -3   5 -10 7165.30 1289.44  17
  -3  -5 -10 6114.71 1022.00  17
  -3  -5 -10 4601.24 1053.15  18
   3   5  10 5531.83 917.058   6
  -3  -5 -10 5298.28 926.698  13
   3  -5  10 5531.26 966.633  16
   3   5  10 7081.17 1085.54  16
  -3   5 -10 8000.93 1462.96  15
   3   5  10 5558.03 981.866  12
   3  -5  10 5990.73 943.687  10
   3   5  10 7393.67 1069.58  10
  -3  -5 -10 5124.14 966.878   9
  -3   5 -10 6521.44 1314.03   9
  -3  -5 -11 4923.48 1013.53  17
  -3  -5 -11 2808.16 875.418  18
  -3   5 -11 4925.28 1094.93  17
   3   5  11 3495.62 762.075   6
   3   5  11 4656.57 873.145  16
   3  -5  11 5042.89 922.648  16
  -3   5 -11 4509.75 1244.09  15
  -3  -5 -11 5118.81 956.914  13
  -3   5 -11 4333.80 1133.67  11
   3   5  11 2952.69 759.732  12
   3   5  11 4026.79 885.523  10
  -3   5 -11 3973.39 1046.39   9
   3  -5  11 4498.30 859.185  10
  -3  -5 -11 4104.01 940.127   9
  -3   5 -12 20104.3 2272.79  17
   3  -5  12 18769.9 1816.66  16
  -3  -5 -12 17849.5 2096.78  18
  -3  -5 -12 17136.7 1881.37  17
   3   5  12 20570.8 1870.66   6
   3   5  12 18938.2 1849.70  16
  -3   5 -12 19129.0 2470.10  15
   3   5  12 16957.5 1754.78  12
  -3   5 -12 18605.2 2346.15  11
  -3   5 -12 15025.4 2086.04   9
   3  -5  12 17043.3 1705.98  10
  -3  -5 -12 18607.2 2010.42   9
   3   5  12 20128.9 1864.70  10
   3  -5  13 6556.22 1103.71  16
  -3  -5 -13 6518.05 1250.09  17
   3  -7 -12 566.788 489.967   9
   3   7 -11 11149.5 1572.62  20
   3  -7 -11 8023.68 1303.60  13
  -3   7  11 9588.11 1488.53  12
   3   7 -11 11408.1 1884.20  11
   3  -7 -11 10912.2 1539.58   9
  -3  -7  11 10965.7 1449.26  10
   3   7 -10 16957.7 1848.81  20
   3  -7 -10 16756.1 1866.59  13
  -3  -7  10 14503.8 1383.33   3
  -3   7  10 17712.8 1947.73  12
   3   7 -10 17186.0 2145.87  11
   3  -7 -10 16950.7 1768.86   9
  -3  -7  10 19184.0 1841.36  10
   3   7  -9 3816.52 894.442  20
  -3  -7   9 3182.70 662.699   3
   3  -7  -9 4829.65 1023.99  13
   3   7  -9 6005.40 1223.35  11
  -3   7   9 4979.05 1030.40  12
   3  -7  -9 4492.82 879.354   9
  -3  -7   9 5197.57 987.924  10
  -3  -7   8 3161.00 610.589  19
   3   7  -8 2790.71 740.409  20
  -3   7   8 4456.05 915.587   8
  -3  -7   8 3499.12 700.782   3
   3  -7  -8 5023.64 1022.55  13
   3   7  -8 3690.83 956.108  11
  -3   7   8 3427.17 812.828  12
   3  -7  -8 3411.03 710.866   9
  -3  -7   8 3499.58 788.246  10
   3   7  -7 25198.1 2011.82  20
  -3  -7   7 24634.1 1700.88  19
  -3   7   7 29359.9 2344.82   8
   3  -7  -7 24940.3 2109.61  13
   3  -7  -7 26334.2 1844.65   9
  -3  -7   7 26248.7 1941.94  10
   3   7  -7 23397.6 2083.40  11
  -3   7   7 27247.9 2160.50  12
  -3  -7   7 20999.0 1644.01   3
  -3  -7   6 21371.5 1632.28   3
  -3  -7   6 23765.0 1662.80  19
   3   7  -6 24076.3 1885.98  20
   3  -7  -6 22820.6 1976.51  13
  -3   7   6 29451.4 2185.08  12
   3   7  -6 24157.7 1982.91  11
   3  -7  -6 24539.4 1690.42   9
  -3  -7   6 28322.0 1973.63  10
  -3  -7   5 12922.9 1252.20   3
   3   7  -5 15128.0 1440.22  20
   3  -7  -5 15038.1 1387.30  19
  -3  -7   5 14781.2 1305.57  19
   3  -7  -5 13549.1 1453.01  13
   3   7  -5 13856.9 1345.44  11
  -3   7   5 16469.5 1604.96  12
   3  -7  -5 15642.6 1286.37   9
  -3  -7   5 13420.1 1296.67  10
  -3  -7   4 12419.2 1206.01   3
   3  -7  -4 12422.8 1327.80  13
   3   7  -4 14881.0 1375.56  20
   3   7  -4 12724.1 1501.45  21
   3  -7  -4 12764.2 1265.15  19
  -3  -7   4 12222.7 1182.35  19
  -3  -7   4 14404.8 1341.10  10
   3   7  -4 13023.1 1209.68  11
  -3   7   4 15784.2 1556.75  12
   3  -7  -4 13131.3 1211.85   3
  -3  -7   3 103621. 4048.56   3
  -3  -7   3 92478.9 3399.65  13
   3  -7  -3 100342. 4103.37  13
   3   7  -3 99889.6 4108.91  20
  -3   7   3 115422. 3873.87  20
   3   7  -3 100567. 4507.77  21
   3  -7  -3 102016. 4115.12  19
  -3  -7   3 95846.2 3814.36  19
   3   7  -3 98526.6 3700.43  11
  -3   7   3 102390. 4341.59  12
   3   7  -3 106820. 4520.35  12
  -3  -7   3 91171.3 3395.37   4
   3  -7  -3 104489. 4080.98   3
  -3  -7   2 41970.7 2377.18   3
   3  -7  -2 43585.4 2396.58  13
  -3  -7   2 43130.5 2067.46  13
  -3  -7   2 40009.8 2202.24  19
  -3   7   2 53283.3 2273.28  20
   3   7  -2 47858.7 2562.61  20
   3  -7  -2 45797.3 2502.42  19
   3   7  -2 49376.3 2864.25  21
   3   7  -2 45100.7 2081.24  11
   3   7  -2 45769.1 2712.21  12
  -3   7   2 50901.1 2760.16  12
  -3  -7   2 40529.9 2037.04   4
   3  -7  -2 47167.6 2590.43   3
   3  -7  -1 45.2395 329.647  13
  -3  -7   1 29.5448 230.258  13
   3   7  -1-44.8948 283.034  20
  -3  -7   1 227.859 288.062  19
   3   7  -1 629.553 461.170  21
   3  -7  -1-219.640 325.266  19
   3   7  -1 7.77861 328.153  12
  -3   7   1 111.443 378.450  12
   3  -7  -1 108.310 306.213   3
  -3   7   0 43279.8 2052.48   1
   3  -7   0 38437.3 2425.52   3
  -3  -7   0 34700.0 2131.30   3
   3  -7   0 38580.5 2111.58  13
  -3  -7   0 36419.2 1969.45  13
   3  -7   0 40999.4 2312.35  19
   3   7   0 40412.0 2261.02  20
  -3  -7   0 36824.1 2066.97  19
  -3   7   0 39542.4 2384.99  12
   3   7   0 39958.9 2465.45  12
   3  -7   0 47257.7 2045.45   5
  -3   7  -1 64905.3 2753.17   1
  -3  -7  -1 62823.5 2880.41   3
   3  -7   1 68032.0 3264.46   3
  -3  -7  -1 55984.7 2660.71  13
   3  -7   1 59552.6 2674.41  13
  -3  -7  -1 58619.9 2697.38  19
  -3   7  -1 60247.7 3141.93  21
   3  -7   1 58369.5 2852.12  19
   3   7   1 64262.0 2998.10  20
  -3   7  -1 60018.3 3054.23  12
   3   7   1 59684.0 3171.52  12
   3  -7   1 59831.5 2585.29   5
  -3  -7  -2 34280.3 2018.30   3
   3  -7   2 34959.1 2302.44   3
  -3  -7  -2 31227.0 1935.78  13
   3  -7   2 35505.9 1897.70  13
  -3   7  -2 35089.6 2355.24  21
  -3  -7  -2 34552.4 1989.73  19
   3  -7   2 34979.8 2118.65  19
   3   7   2 36900.8 2230.98  20
   3   7   2 39062.0 2441.95  12
  -3   7  -2 37294.8 2314.34  12
   3  -7   2 35924.1 1956.39   5
   3  -7   3 2241.30 609.659   3
  -3  -7  -3 1446.14 458.429   3
   3   7   3 886.018 414.211  20
  -3  -7  -3 1670.37 448.433  19
   3  -7   3 1348.83 448.182  19
  -3   7  -3 1262.43 549.127  21
  -3  -7  -3 1605.23 483.058  13
   3  -7   3 1214.15 363.949  13
  -3   7  -3 1005.46 447.368  12
   3   7   3 1283.63 564.830  12
   3  -7   3 1195.21 423.000   5
  -3   7  -4 56552.4 3164.68  21
   3  -7   4 56430.7 2826.52  19
  -3  -7  -4 55619.2 2699.50  19
   3   7   4 58704.4 3100.85  20
  -3  -7  -4 57062.5 2862.13  18
   3  -7   4 57823.9 2794.06   5
  -3  -7  -4 57792.5 2923.80  13
   3  -7   4 56338.6 2401.85  13
   3   7   4 65298.7 3315.44  12
  -3   7  -4 63479.0 3260.59  12
   3  -7   4 62993.3 2983.44  10
  -3   7  -4 57804.8 2717.22  11
  -3  -7  -4 57696.3 2687.35   3
   3  -7   4 58437.1 3004.96   3
   3  -7   5 62202.2 3063.92   3
   3   7   5 66506.7 3432.77  20
   3  -7   5 60888.4 2975.09  19
  -3  -7  -5 61268.1 2847.47  19
  -3  -7  -5 62090.2 3158.79  18
   3  -7   5 61316.5 2974.05   5
  -3  -7  -5 61236.9 3128.27  13
   3   7   5 69579.4 3477.49  12
  -3   7  -5 61031.2 3062.85  11
   3  -7   5 62924.9 3062.59  10
   3  -7   6 7430.69 984.360   5
  -3  -7  -6 7938.22 947.041  19
   3  -7   6 6696.58 910.057  19
  -3  -7  -6 8345.15 1146.77  18
   3  -7   6 6093.23 855.333   3
  -3  -7  -6 5725.70 937.230  13
  -3   7  -6 6322.52 978.048  11
   3   7   6 7120.03 1093.33  12
  -3   7  -6 7586.01 1161.22   9
   3  -7   6 7220.60 1007.90  10
   3  -7   7 2028.83 567.938   5
   3  -7   7 1413.33 500.338  19
  -3  -7  -7 1546.40 590.709  18
   3  -7   7 2272.73 579.523   3
  -3   7  -7 2795.86 846.679  15
  -3  -7  -7 2337.66 647.398  13
  -3   7  -7 2007.57 625.678  11
   3   7   7 3086.19 801.183  12
  -3   7  -7 2722.30 794.496   9
   3  -7   7 2138.62 640.116  10
   3  -7   8 15767.0 1437.79   3
   3  -7   8 19316.0 1582.98  19
  -3  -7  -8 22148.4 2071.06  18
  -3  -7  -8 19445.7 1797.07  13
  -3   7  -8 19966.0 2184.86  15
   3   7   8 22222.7 1990.42  12
  -3   7  -8 19043.0 1935.92  11
  -3   7  -8 18311.4 2001.97   9
   3  -7   8 21703.5 1829.80  10
   3  -7   9 12751.9 1261.67   3
   3  -7   9 13184.8 1327.01  19
  -3  -7  -9 13914.2 1706.45  18
   3   7   9 13632.3 1344.58   6
  -3  -7  -9 13234.9 1551.43  13
  -3   7  -9 14994.0 2009.68  15
   3   7   9 16031.5 1758.73  12
  -3   7  -9 17899.5 1976.46  11
   3  -7   9 16688.2 1662.35  10
  -3  -7 -10 3682.67 845.315  13
  -3   7 -10 1787.89 855.481  15
  -3  -7 -10 2924.01 890.184  18
   3   7  10 4138.47 995.176  12
  -3   7 -10 3796.52 983.925  11
   3  -7  10 4151.93 918.688  10
  -3  -7 -11 2034.96 757.778  13
   3   7  11 3123.16 876.829  16
  -3   7 -11 1759.74 825.994  15
  -3  -7 -11 851.713 524.335  18
  -3   7 -11 3552.08 1080.01  11
   3   7  11 4040.78 973.867  12
   3   7  11 3103.70 850.327  10
   3  -7  11 1591.95 659.391  10
   3  -9  -9 2465.61 815.173  13
  -3  -9   9 2643.69 649.309   3
   3   9  -8 2638.58 947.266  21
  -3  -9   8 1212.03 513.784  19
  -3   9   8 1026.04 651.260   8
  -3  -9   8 1327.13 462.016   3
   3  -9  -8 668.336 510.242  13
   3   9  -8 397.501 526.382  12
  -3   9   8 1298.38 737.413  12
  -3  -9   8 1249.67 629.495  10
   3   9  -7 10527.1 1634.72  21
   3   9  -7 8575.53 1326.24  20
  -3  -9   7 7503.70 1064.91  19
  -3   9   7 12143.1 1694.24   8
   3  -9  -7 5999.27 1136.57  13
  -3  -9   7 9451.91 1338.89  10
   3   9  -7 7738.63 1383.97  12
  -3   9   7 9073.88 1463.53  12
  -3  -9   7 7833.96 1074.81   3
   3  -9  -6 11346.5 1471.49  13
  -3  -9   6 8322.11 1114.71   3
   3   9  -6 10636.6 1610.22  12
  -3   9   6 12544.0 1645.79  12
   3   9  -6 12578.6 1470.11  20
  -3  -9   6 12284.5 1325.77  19
   3   9  -6 12529.3 1727.65  21
   3  -9  -5 3895.62 869.010  13
  -3  -9   5 2844.94 638.013   3
   3   9  -5 5182.22 1076.32  12
  -3   9   5 4559.72 1046.97  12
   3   9  -5 4964.20 941.829  20
   3   9  -5 5923.09 1206.61  21
   3  -9  -5 2931.09 738.490  19
  -3  -9   5 3883.52 781.751  19
   3  -9  -4 3424.66 763.457  13
  -3  -9   4 4515.69 830.249   3
  -3   9   4 5836.89 1093.68  12
   3   9  -4 3480.85 875.676  12
   3   9  -4 4895.12 1080.49  21
   3   9  -4 4319.20 876.777  20
   3  -9  -4 4124.53 791.355  19
  -3  -9   4 3168.79 757.861  19
   3  -9  -3 31314.2 2254.49  19
   3   9  -3 32690.3 2583.27  21
   3   9  -3 33647.6 2290.47  20
  -3  -9   3 31001.0 2147.46  19
   3  -9  -3 31244.3 2242.58  13
  -3  -9   3 28093.3 2092.40   3
   3   9  -3 34611.7 2610.05  12
  -3   9   3 31243.1 2519.23  12
   3  -9  -3 32404.4 2273.27   3
   3   9  -2 20931.1 2114.73  21
   3   9  -2 22225.0 1832.47  20
   3  -9  -2 19555.5 1747.71  19
  -3  -9   2 18789.7 1649.36  19
   3  -9  -2 15124.0 1516.95  13
  -3  -9   2 20999.2 1526.18  13
  -3  -9   2 17750.1 1641.60   3
   3   9  -2 23246.1 2136.34  12
  -3   9   2 19453.5 1878.08  12
   3  -9  -2 19989.2 1778.09   3
   3  -9  -1-12.3183 322.740  13
  -3  -9   1 638.467 371.033  13
   3  -9  -1 508.563 481.678   3
  -3  -9   1 526.668 395.617   3
   3   9  -1-571.015 554.318  12
  -3   9   1-729.145 494.775  12
   3   9  -1 570.492 436.906  20
  -3  -9   1-29.4634 385.579  19
   3  -9  -1 318.948 374.776  19
  -3  -9   0 11377.5 1181.29  13
   3  -9   0 13364.2 1321.19  13
  -3  -9   0 12361.0 1324.33   3
   3  -9   0 12192.8 1414.66   3
  -3   9   0 13196.0 1539.06  12
   3   9   0 13155.6 1565.05  12
  -3  -9   0 13520.2 1335.89  19
   3  -9   0 11900.9 1337.12  19
   3   9   0 12768.6 1373.85  20
   3  -9   1 19761.1 1693.35  19
  -3  -9  -1 19265.0 1662.20  19
   3   9   1 20944.5 1792.15  20
   3  -9   1 21490.6 1660.72  13
  -3  -9  -1 19461.6 1606.67  13
  -3  -9  -1 18791.8 1631.65   3
   3   9   1 24884.2 2126.95  12
  -3   9  -1 21369.9 1986.17  12
   3  -9   1 18611.6 1755.40   3
  -3  -9  -2 13300.5 1354.61  19
  -3   9  -2 15372.3 1737.60  21
   3  -9   2 11785.6 1330.74  19
   3   9   2 17132.2 1619.15  20
  -3  -9  -2 12814.7 1326.24  13
   3  -9   2 13793.9 1274.72  13
  -3  -9  -2 13877.7 1380.55   3
   3   9   2 14218.8 1657.67  12
  -3   9  -2 14079.6 1614.52  12
   3  -9   2 14676.5 1562.82   3
  -3  -9  -3 12.9328 360.767  13
   3  -9   3 158.742 318.676  13
  -3  -9  -3-105.060 286.460   3
   3  -9   3-114.728 350.287   3
  -3   9  -3 283.858 398.004  12
   3   9   3 782.791 659.068  12
  -3   9  -3-287.736 564.286  21
   3   9   3-264.900 429.130  20
  -3  -9  -3 128.031 349.907  19
   3  -9   3 195.182 446.659  19
   3  -9   4 15674.1 1579.97  19
   3   9   4 20014.0 1867.56  20
  -3   9  -4 18027.9 1936.36  21
  -3  -9  -4 19352.1 1635.46  19
  -3  -9  -4 15328.8 1528.39  13
  -3   9  -4 22961.5 2089.80  12
   3   9   4 19785.9 2029.96  12
   3  -9   4 17862.0 1723.19   3
  -3   9  -5 27383.8 2409.08  21
   3  -9   5 22530.6 1872.05  19
   3   9   5 27090.7 2236.64  20
  -3  -9  -5 18789.4 1647.37  19
   3  -9   5 20897.9 1666.70   5
  -3  -9  -5 19242.6 1779.23  13
  -3   9  -5 29122.3 2402.04  12
   3   9   5 23913.2 2262.14  12
   3  -9   5 19016.4 1775.98   3
   3  -9   6 4564.08 855.122   3
  -3  -9  -6 2232.45 617.094  19
   3  -9   6 1858.85 557.383  19
  -3   9  -6 3065.76 892.197  21
  -3  -9  -6 3034.76 843.767  13
  -3   9  -6 3409.13 948.447  12
   3   9   6 3227.04 948.917  12
   3  -9   6 3474.38 708.369   5
  -3   9  -7 651.357 506.915  21
   3  -9   7 725.683 455.365  19
  -3  -9  -7 1688.10 699.007  13
   3  -9   7 1685.97 594.505   3
   3   9   7 1185.35 762.345  12
  -3   9  -7 2608.83 835.585  12
   3  -9   7 1373.29 622.509  10
   3  -9   8 4879.03 892.789  19
  -3   9  -8 6328.33 1326.05  21
  -3  -9  -8 5358.44 998.943  13
  -3   9  -8 7190.26 1362.53  12
   3   9   8 9071.89 1523.93  12
   3  -9   8 5828.96 969.608   3
   3  -9   8 6783.13 1203.56  10
   3  -9   9 5191.66 886.110   3
   3  -9   9 5198.12 906.626  19
  -3 -11   4 1257.07 608.532   3
   3  11  -4 2001.91 832.852  12
  -3  11   4 836.034 705.104  12
  -3 -11   4 906.727 595.074  19
   3 -11  -4 2079.44 660.220  19
   3  11  -4 2105.06 837.017  21
   3 -11  -4 1191.39 633.466  13
  -3 -11   3 6478.82 1076.54   3
   3  11  -3 10117.6 1566.58  12
  -3  11   3 10996.9 1635.99  12
  -3 -11   3 8108.44 1196.57  19
   3 -11  -3 7583.68 1210.26  19
   3 -11  -3 7666.44 1204.14  13
   3 -11  -2 5678.10 1000.01   3
  -3 -11   2 4910.31 936.249   3
  -3  11   2 6339.17 1223.73  12
   3  11  -2 5449.38 1143.66  12
  -3 -11   2 5241.53 982.529  19
   3 -11  -2 5711.15 1042.22  19
   3 -11  -2 5645.08 1005.37  13
  -3 -11   1-415.770 470.756   3
   3 -11  -1-699.724 541.220   3
  -3  11   1 605.578 593.215  12
   3  11  -1 283.848 578.837  12
  -3 -11   1 778.668 521.449  19
   3 -11  -1-69.2965 391.934  19
   3 -11  -1-156.524 418.266  13
   3 -11   0 3811.46 866.433   3
  -3 -11   0 2894.05 735.026   3
   3  11   0 4138.73 1103.95  12
  -3  11   0 5058.76 1105.86  12
   3 -11   0 2719.93 726.085  19
  -3 -11   0 2188.73 670.416  19
  -3 -11   0 2344.04 663.542  13
   3 -11   0 5342.34 955.019  13
   3 -11   1 5487.99 1013.21   3
  -3 -11  -1 6329.91 1072.97   3
   3  11   1 6848.81 1345.45  12
  -3  11  -1 5987.53 1181.00  12
  -3 -11  -1 6107.22 1018.38  19
   3 -11   1 7434.80 1137.02  19
  -3 -11  -1 8604.52 1148.81  13
   3 -11   1 4889.95 900.307  13
   3 -11   2 3436.62 855.416   3
   3  11   2 3322.20 978.424  12
  -3  11  -2 3668.41 962.523  12
  -3 -11  -2 4582.15 923.844  19
   3 -11   2 3555.42 860.873  19
  -3 -11  -2 3136.84 760.944  13
   3 -11   3 1475.00 680.212   3
  -3 -11  -3-754.928 526.528  13
   3  11   3 818.455 678.620  12
  -3  11  -3 420.651 505.415  12
   3 -11   3-70.5841 457.521  19
  -3 -11  -3-171.272 413.795  19
  -3  11  -4 7566.48 1360.43  12
  -3 -11  -4 5812.63 1024.50  19
   4   0 -14 5640.54 1359.92  17
   4   0 -14 8811.76 1621.07  11
  -4   0  14 9805.69 1188.13   4
  -4   0  14 11316.1 1332.44  10
   4   0 -14 8859.29 1668.17   9
   4   0 -13 15629.8 2138.29  17
   4   0 -13 16479.5 2133.36  11
  -4   0  13 20024.9 1656.98   4
   4   0 -13 19662.5 2304.75   9
  -4   0  13 22660.3 1803.79  10
   4   0 -12 1168.02 645.088  17
   4   0 -12 3012.58 939.376  11
  -4   0  12 1473.07 538.374   4
  -4   0  12 2013.06 566.045  10
   4   0 -12 1167.49 532.932   9
   4   0 -11 18906.5 2064.76  17
   4   0 -11 20611.4 2140.65  11
  -4   0  11 24433.6 1719.78   4
   4   0 -11 24872.0 2342.33   9
  -4   0  11 25280.0 1711.67  10
   4   0 -10 92663.9 4175.27  18
   4   0 -10 90517.4 4680.45  17
  -4   0  10 107404. 3846.17  10
   4   0 -10 99901.3 4800.98   9
   4   0 -10 87421.5 4556.11  11
  -4   0  10 103541. 3909.23   4
   4   0  -9 33622.3 1790.18   1
   4   0  -9 32458.0 2437.87  17
   4   0  -9 30705.5 2053.69  18
  -4   0   9 32648.1 1790.27  10
   4   0  -9 31233.3 2378.87   9
  -4   0   9 33859.4 1587.48  16
   4   0  -9 30452.0 2345.62  11
  -4   0   9 32755.4 1886.65   4
   4   0  -8 2255.54 406.678   1
   4   0  -8 3459.73 737.262   9
  -4   0   8 1884.23 431.602  10
   4   0  -8 1491.63 423.410  18
   4   0  -8 2030.28 605.541  17
  -4   0   8 2496.08 364.869  16
   4   0  -8 2251.03 632.013  11
  -4   0   8 1867.82 429.839   4
  -4   0   7 30842.6 1231.37   3
   4   0  -7 32595.1 1557.07   1
   4   0  -7 30168.9 2046.96   9
  -4   0   7 33820.8 1607.86  10
   4   0  -7 30704.1 1793.59  18
   4   0  -7 30020.9 2031.67  17
  -4   0   7 31498.5 1212.37   8
   4   0  -7 29092.1 2095.99  14
  -4   0   7 31894.9 1339.23  16
  -4   0   7 32102.2 1933.83  14
   4   0  -7 30851.6 1137.60  13
   4   0  -7 28194.1 1985.73  11
  -4   0   7 32023.8 1713.58   4
  -4   0   6 230438. 5634.97   3
   4   0  -6 217014. 5959.80   1
  -4   0   6 217526. 6001.22  10
   4   0  -6 220132. 6781.96   9
   4   0  -6 213872. 6321.74  18
   4   0  -6 210550. 6745.58  17
  -4   0   6 225320. 5593.62   8
   4   0  -6 212711. 6928.94  14
  -4   0   6 215539. 5616.00  16
  -4   0   6 239832. 6783.17  14
   4   0  -6 216526. 5459.66  13
   4   0  -6 210066. 6722.66  11
  -4   0   6 212547. 6180.56   4
  -4   0   5 159338. 4178.62   3
   4   0  -5 156913. 4437.11   1
   4   0  -5 163242. 5012.40   9
  -4   0   5 161166. 4492.87  10
   4   0  -5 163149. 5097.40  17
   4   0  -5 166259. 4717.11  18
  -4   0   5 156431. 4205.96   8
  -4   0   5 176281. 5072.14  14
   4   0  -5 162750. 5173.07  14
   4   0  -5 156983. 4067.05  13
  -4   0   5 159241. 4112.16  16
   4   0  -5 155899. 4996.87  11
  -4   0   5 160780. 4705.97   4
   4   0  -4 4362.01 395.819   1
  -4   0   4 2962.64 340.435  10
   4   0  -4 3211.52 437.914   9
   4   0  -4 2969.34 452.147  17
  -4   0   4 2803.97 295.664   8
   4   0  -4 3194.47 470.671  14
  -4   0   4 4103.32 487.148  14
  -4   0   4 3025.55 240.824  16
   4   0  -4 3108.90 255.279  13
   4   0  -4 3687.16 480.621  11
  -4   0   4 2621.39 359.367   4
   4   0  -3 383228. 9672.78   9
  -4   0   3 378376. 9384.88  10
   4   0  -3 397136. 9803.74  17
  -4   0   3 385576. 9392.87   8
   4   0  -3 423267. 9922.90  14
  -4   0   3 410366. 9735.14  14
   4   0  -3 373087. 9178.94  13
  -4   0   3 386396. 9010.88  16
   4   0  -3 399803. 9787.98  11
  -4   0   3 375488. 9546.69   4
   4   0  -2 777998. 18218.8   9
  -4   0   2 761559. 17965.6  10
   4   0  -2 795445. 18285.4  17
  -4   0   2 769751. 18121.3   8
   4   0  -2 778654. 18309.4  14
  -4   0   2 796998. 18265.1  14
   4   0  -2 778168. 18271.9  11
  -4   0   2 794067. 18179.0   4
   4   0  -1 27546.6 1022.12   9
  -4   0   1 28936.5 815.449  10
   4   0  -1 28976.3 776.231  16
   4   0  -1 28924.8 1082.90  17
  -4   0   1 28010.7 1029.13   8
  -4   0   1 29030.7 1086.03  14
   4   0  -1 27770.8 1064.38  11
  -4   0   1 28848.5 1022.81   4
   4   0   0 32127.1 1063.18  20
  -4   0   0 30987.0 1066.56   8
  -4   0   0 31796.9 1104.30   2
   4   0   0 30170.8 968.394  16
   4   0   0 30242.9 1097.17  11
   4   0   0 30036.5 1046.27   5
  -4   0   0 31098.5 1037.94   4
  -4   0  -1 363884. 8699.41   4
   4   0   1 351331. 8726.21   5
  -4   0  -1 366641. 8770.22   2
   4   0   1 327294. 8614.18   1
   4   0   1 358502. 8638.14  20
   4   0   1 342634. 8861.33   6
  -4   0  -1 363107. 8572.01   8
   4   0   1 355278. 8659.52  16
   4   0   1 374126. 8334.95  12
   4   0   1 374679. 8358.84  10
  -4   0  -2 450365. 10839.9   4
   4   0   2 449722. 10880.0   5
  -4   0  -2 441854. 10848.6   2
   4   0   2 416499. 10730.1   1
   4   0   2 443262. 10775.6  20
  -4   0  -2 458011. 10970.8  18
   4   0   2 446910. 11017.9   6
   4   0   2 451772. 10825.4  16
   4   0   2 458380. 10499.2  12
  -4   0  -2 461528. 10523.4   8
   4   0   2 458558. 10540.1  10
   4   0   3 1545.15 249.012   1
  -4   0  -3 1896.66 294.603   1
  -4   0  -3 1484.55 264.173   2
   4   0   3 2056.09 246.658  10
  -4   0  -3 1803.40 332.060  18
   4   0   3 2061.57 347.780   6
   4   0   3 1753.86 275.152  16
   4   0   3 1601.51 212.557  12
   4   0   3 1942.33 293.880   5
  -4   0  -4 175795. 4919.03   1
   4   0   4 162843. 4759.60   1
  -4   0  -4 170366. 4861.93   2
   4   0   4 168536. 4571.60  10
  -4   0  -4 177049. 5184.24  18
   4   0   4 171291. 5083.44   6
   4   0   4 172073. 4792.93  16
  -4   0  -4 172950. 5189.75  15
   4   0   4 174414. 4552.09  12
   4   0   4 172394. 4816.17   5
  -4   0  -5 294784. 8259.21  18
   4   0   5 279933. 7701.37   5
   4   0   5 283902. 8052.16   6
  -4   0  -5 287836. 8905.44  14
   4   0   5 294757. 7688.69  16
  -4   0  -5 303959. 8330.94  15
  -4   0  -5 285321. 7835.09   2
   4   0   5 283316. 7713.03   1
  -4   0  -5 305000. 7917.34   1
  -4   0  -5 299927. 8451.40   9
   4   0   5 289919. 7455.56  10
  -4   0  -6 119750. 4424.80  18
   4   0   6 116269. 3887.15   5
   4   0   6 121769. 4262.04   6
   4   0   6 123342. 3878.36  16
  -4   0  -6 111014. 4943.53  14
  -4   0  -6 131262. 4608.14  15
   4   0   6 117255. 3954.05   1
  -4   0  -6 119724. 4107.85   2
  -4   0  -6 132328. 4173.87   1
  -4   0  -6 114429. 4514.64   9
   4   0   6 119306. 3697.45  10
   4   0   7 422.190 214.831  10
  -4   0  -7 297.322 297.383   9
  -4   0  -7 248.933 260.429  18
   4   0   7 502.395 323.772   6
   4   0   7 923.833 315.878  16
  -4   0  -7 269.040 320.110  15
  -4   0  -7 389.126 232.669   2
   4   0   7 603.775 226.511   1
  -4   0  -7 705.773 302.329   1
  -4   0  -8 47231.6 3075.81  17
  -4   0  -8 40111.5 2565.10  18
   4   0   8 46880.4 2549.44   6
   4   0   8 50135.8 2267.48  16
  -4   0  -8 50362.7 2899.08  15
  -4   0  -8 48438.6 2913.37   9
   4   0   8 45020.1 2079.22  10
  -4   0  -8 46348.1 2407.02   2
  -4   0  -9 103858. 4679.04  18
  -4   0  -9 100449. 5034.71  17
   4   0   9 113072. 4467.82   6
   4   0   9 113896. 4072.72  16
   4   0   9 112061. 3884.65  10
  -4   0  -9 108139. 4920.10   9
  -4   0  -9 106061. 4218.24   2
   4   0  10 35387.5 2043.56  16
   4   0  10 33167.4 2228.98   6
  -4   0 -10 29432.5 2569.14  17
  -4   0 -10 28042.8 2319.41  18
  -4   0 -10 31687.9 2544.89   9
   4   0  10 31363.2 1846.53  10
   4   0  11 5509.10 832.889  16
   4   0  11 4354.27 833.547   6
   4   0  11 5672.49 807.487  10
  -4   0 -11 4608.68 1038.57   9
  -4   0 -11 5024.95 1073.63  17
  -4   0 -11 4602.89 948.457  18
   4   0  12 24369.6 2024.34   6
  -4   0 -12 25169.9 2515.40   9
   4   0  12 27342.0 1891.55  10
  -4   0 -12 24427.9 2340.80  18
   4   0  12 25591.0 1923.39  16
  -4   0 -12 21406.1 2411.57  17
   4   0  13 10697.4 1400.45   6
   4   0  13 12986.8 1402.99  16
  -4   0 -13 11363.3 1684.36  18
  -4   0 -13 12227.3 1896.67  17
  -4   0 -13 15254.9 2078.95   9
   4   0  13 14052.2 1390.50  10
   4   0  14 1928.10 645.428  16
   4   0  14 2594.40 671.483  10
  -4  -2  14 8306.79 1166.12  10
  -4   2  14 9349.27 1240.25  10
   4   2 -14 9374.55 1725.51   9
   4  -2 -14 8511.34 1616.06   9
   4   2 -14 8788.87 1764.90  11
  -4   2  14 8315.24 1220.15   4
   4  -2 -14 7442.09 1531.97  17
   4   2 -14 7358.50 1543.93  17
  -4  -2  13 20392.2 1745.98  10
  -4   2  13 19668.1 1742.40  10
   4  -2 -13 17200.6 2147.67   9
   4   2 -13 15678.9 2132.87   9
   4   2 -13 17018.7 2271.92  11
  -4   2  13 17370.4 1718.34   4
   4   2 -13 14530.4 2054.77  17
   4  -2 -13 13143.7 1879.16  17
  -4  -2  12 2145.61 613.046  10
  -4   2  12 1722.83 541.992  10
   4  -2 -12 2149.38 832.999   9
   4   2 -12 2537.30 891.221   9
   4   2 -12 1566.05 760.457  11
   4  -2 -12 2583.91 815.114  11
  -4   2  12 1720.98 618.913   4
   4  -2 -12 2181.18 822.456  17
   4   2 -12 1731.64 741.480  17
   4  -2 -11 27436.2 2468.68   9
   4   2 -11 22274.9 2260.45   9
  -4  -2  11 25439.1 1772.53  10
  -4   2  11 26319.6 1855.23  10
   4  -2 -11 23316.8 2161.03  18
   4   2 -11 25737.4 2474.02  17
   4  -2 -11 26602.9 2406.40  17
   4  -2 -11 24320.6 2130.37  11
   4   2 -11 24992.5 2542.30  11
  -4   2  11 25130.8 1943.74   4
  -4  -2  11 25558.3 1652.63   4
   4   2 -10 66885.7 3875.44   9
  -4  -2  10 78421.9 3212.67  10
   4  -2 -10 73254.3 3955.91   9
  -4   2  10 81613.0 3320.41  10
  -4   2  10 74558.0 2837.15  16
   4  -2 -10 64569.4 3670.45  18
   4  -2 -10 67995.2 3874.24  17
   4   2 -10 64538.9 3891.21  17
   4  -2 -10 66183.5 3547.20  11
   4   2 -10 66656.9 4136.10  11
  -4  -2  10 73313.2 2994.57   4
   4   2  -9 32096.0 2409.23   9
  -4  -2   9 34692.8 1904.40  10
   4  -2  -9 32177.9 2343.67   9
  -4   2   9 36609.2 1968.41  10
   4   2  -9 29772.6 2375.30  17
  -4  -2   9 31720.7 1692.29  16
   4  -2  -9 34638.3 2486.20  17
   4  -2  -9 33676.5 2352.75  18
  -4   2   9 35026.4 1683.80  16
   4  -2  -9 30336.8 2142.07  11
   4   2  -9 27786.8 2420.94  11
  -4  -2   9 31685.8 1746.37   4
  -4  -2   8 1778.48 343.562   3
  -4  -2   8 2399.74 475.699  10
   4   2  -8 2800.79 710.125   9
  -4   2   8 2618.45 502.984  10
   4  -2  -8 2469.35 690.784   9
   4  -2  -8 2084.96 656.457  17
   4   2  -8 1148.21 498.132  17
   4  -2  -8 1469.87 492.726  18
  -4   2   8 1608.24 302.866   8
  -4   2   8 3009.60 446.369  16
  -4  -2   8 2106.27 406.632  16
   4  -2  -8 2302.78 509.585  13
  -4   2   8 2417.62 497.108  12
   4   2  -8 1285.46 570.990  11
   4  -2  -8 1561.55 485.335  11
  -4  -2   8 2001.60 394.977   4
  -4  -2   7 37381.0 1715.10   4
   4  -2  -7 38168.8 1433.90   1
  -4  -2   7 32038.4 1551.66   3
   4   2  -7 36985.8 1947.18   1
  -4  -2   7 33608.2 1293.05  19
   4  -2  -7 37923.0 2248.98  18
   4  -2  -7 36410.9 2264.10  17
   4   2  -7 35400.8 1600.56  18
   4   2  -7 33255.3 2169.46  17
  -4  -2   7 37643.6 1661.62  16
  -4   2   7 32824.5 1928.20   6
  -4   2   7 37181.5 1576.97   8
   4   2  -7 30029.3 2183.90  14
   4  -2  -7 35310.1 2209.85  14
   4  -2  -7 37076.2 1934.97  13
  -4  -2   7 35058.5 2043.16  14
  -4   2   7 33166.4 2017.11  14
  -4   2   7 35807.0 1850.59  12
   4  -2  -7 35601.3 1997.93  11
   4   2  -7 31225.9 2267.70  11
   4  -2  -7 36773.5 2158.39   9
  -4   2   7 34846.5 1781.18  10
   4   2  -7 34365.1 2144.12   9
  -4  -2   7 39405.1 1839.07  10
  -4  -2   6 147189. 4345.93   4
   4   2  -6 152743. 4733.63   1
   4  -2  -6 156429. 3932.86   1
  -4  -2   6 138631. 4307.25   3
  -4  -2   6 148971. 4005.06  19
   4   2  -6 143168. 5030.53  17
   4   2  -6 144991. 4109.25  18
   4  -2  -6 159621. 5206.24  17
  -4  -2   6 144328. 4244.35  16
   4  -2  -6 146093. 5054.89  18
  -4   2   6 144729. 4834.47   6
  -4   2   6 149953. 4332.40   8
   4   2  -6 140016. 5161.69  14
   4  -2  -6 152230. 5082.82  14
   4  -2  -6 144641. 4750.05  13
  -4   2   6 150187. 4999.42  14
  -4  -2   6 151646. 4955.75  14
   4  -2  -6 153239. 4783.44  11
   4   2  -6 139779. 5278.96  11
  -4   2   6 150015. 4585.52  12
  -4  -2   6 148712. 4460.00  10
   4  -2  -6 156472. 4993.30   9
   4   2  -6 136527. 4933.46   9
  -4  -2   5 183360. 5024.29   4
  -4  -2   5 180245. 5113.55   3
   4  -2  -5 190630. 4542.37   1
  -4  -2   5 179134. 4801.34  19
   4  -2  -5 178833. 4371.72  19
   4   2  -5 181955. 5544.33  17
   4  -2  -5 185537. 5594.79  17
  -4  -2   5 178130. 4924.43  16
  -4   2   5 191652. 5192.19   8
  -4  -2   5 194639. 5572.36  14
   4  -2  -5 186804. 5546.55  14
   4  -2  -5 185913. 5517.67  13
  -4   2   5 200587. 5735.40  14
   4   2  -5 177469. 5700.54  14
   4  -2  -5 189363. 5227.66  11
  -4   2   5 181462. 5231.86  12
   4   2  -5 175725. 5815.45  11
  -4  -2   5 180111. 5113.29  10
   4   2  -5 177108. 5546.12   9
   4  -2  -5 189797. 5556.81   9
  -4  -2   4 13807.3 803.368   4
  -4  -2   4 15018.2 901.897   3
   4  -2  -4 14121.8 649.059  19
  -4  -2   4 14088.7 742.444  19
   4   2  -4 14463.5 958.280  17
   4  -2  -4 15593.1 1029.71  17
  -4   2   4 13186.0 651.882   7
  -4   2   4 13697.2 901.361   8
   4  -2  -4 15265.2 1037.41  13
  -4  -2   4 13618.3 936.158  14
  -4   2   4 16152.6 1019.89  14
   4   2  -4 12871.2 986.570  14
   4  -2  -4 14067.9 932.605  14
  -4   2   4 12572.2 839.495  12
   4  -2  -4 13269.2 781.392  11
   4   2  -4 12468.4 1029.09  11
  -4  -2   4 14509.0 837.197  10
   4  -2  -4 13535.5 959.634   9
   4   2  -4 14104.3 955.242   9
  -4  -2   3 311023. 7912.58   4
  -4  -2   3 311929. 8089.04   3
   4  -2  -3 318309. 7828.11  19
  -4  -2   3 324651. 7925.93  19
   4   2  -3 323886. 8065.57  17
   4  -2  -3 319875. 8152.40  17
  -4   2   3 318400. 8260.36   8
  -4   2   3 313355. 7892.26   7
   4   2  -3 318868. 8266.58  14
   4  -2  -3 317897. 8323.46  13
   4  -2  -3 316864. 8000.90  14
  -4  -2   3 326898. 8157.42  14
  -4   2   3 341758. 8113.99  14
  -4   2   3 302909. 7968.88  12
   4  -2  -3 321629. 7771.26  11
   4   2  -3 329107. 8469.91  11
  -4  -2   3 317962. 7929.16  10
   4   2  -3 315386. 7981.80   9
   4  -2  -3 325309. 8242.61   9
  -4  -2   2 472309. 11384.7   4
  -4  -2   2 454815. 11508.2   3
  -4  -2   2 489120. 11178.7   2
  -4  -2   2 470432. 11413.3  19
   4  -2  -2 454572. 11452.9  19
   4  -2  -2 471065. 11470.2  17
   4   2  -2 485297. 11320.4  17
  -4   2   2 466245. 11755.1   8
   4   2  -2 480099. 11574.1  14
   4  -2  -2 465513. 11269.3  14
   4  -2  -2 470821. 11719.3  13
  -4   2   2 530213. 11407.1  14
  -4  -2   2 479436. 11487.2  14
   4   2  -2 483994. 11707.5  11
  -4   2   2 459340. 11359.0  12
   4  -2  -2 472405. 11096.6  11
   4  -2  -2 472277. 11568.4   9
   4   2  -2 490034. 11137.5   9
  -4  -2   2 475592. 11358.6  10
  -4  -2   1 105929. 3026.70   4
   4  -2  -1 102362. 2932.46   5
   4  -2  -1 100470. 2598.83   1
  -4  -2   1 110589. 2993.62   2
  -4   2   1 100110. 2588.58   1
  -4  -2   1 107595. 3067.14   3
  -4  -2   1 103513. 3008.70  19
   4  -2  -1 106836. 3131.49  19
   4   2  -1 106925. 3269.11  20
  -4  -2   1 112820. 2756.53  18
   4   2  -1 106202. 2823.36  17
   4  -2  -1 104660. 2977.89  17
  -4   2   1 104867. 3285.86   8
   4  -2  -1 105403. 3175.37  13
  -4   2   1 107450. 2806.38  14
  -4  -2   1 101026. 2927.20  14
  -4   2   1 104646. 2893.75  12
   4  -2  -1 106265. 2722.83  11
   4   2  -1 102585. 3034.56  11
  -4  -2   1 104224. 2954.99  10
  -4   2   0 111100. 3008.78   1
   4  -2   0 108716. 2970.82   1
  -4  -2   0 113928. 3287.79   2
  -4  -2   0 112863. 3171.51   3
  -4   2   0 112142. 3201.34  21
   4   2   0 114070. 3257.36  21
   4   2   0 112288. 3441.38  20
   4  -2   0 115367. 3360.38  19
  -4  -2   0 110155. 3111.65  18
  -4   2   0 109386. 3400.13   8
   4  -2   0 115022. 3270.06  13
   4   2   0 110872. 3142.35  11
  -4   2   0 114034. 3058.70  12
   4   2   0 109397. 3338.21  12
   4  -2   0 111254. 3181.33   5
  -4   2   0 110109. 2869.82   4
   4  -2   0 113906. 3380.78   3
  -4  -2   0 113447. 3301.04   4
  -4  -2  -1 210969. 5653.25   4
   4  -2   1 203630. 5525.81   5
   4   2   1 208034. 4897.56   5
  -4   2  -1 215247. 4801.12   4
   4  -2   1 206290. 5696.28   3
   4  -2   1 200079. 5307.86   1
  -4   2  -1 204203. 5417.80   1
  -4  -2  -1 204960. 5602.45   2
  -4  -2  -1 210574. 5283.74   3
   4  -2   1 209562. 5558.63  19
   4   2   1 200080. 5570.45  20
  -4  -2  -1 202440. 5487.73  18
   4  -2   1 207662. 5448.26  16
   4  -2   1 209203. 5184.44   6
  -4   2  -1 208701. 5537.43   8
   4   2   1 198416. 5457.19   6
   4  -2   1 208882. 5375.43  13
   4   2   1 198435. 5301.99  11
   4   2   1 205931. 5421.44  12
  -4  -2  -1 206096. 5103.07   9
   4  -2   1 210428. 5310.83  10
   4  -2   2 355224. 9271.66   3
  -4  -2  -2 368876. 9356.53   4
   4  -2   2 354642. 9148.28   5
   4   2   2 370336. 8410.10   5
  -4  -2  -2 343148. 9236.34   2
  -4  -2  -2 363221. 8686.77   3
  -4   2  -2 363182. 9149.45   1
   4  -2   2 352958. 8983.04   1
   4  -2   2 367454. 9114.13  19
   4   2   2 362063. 9142.94  20
  -4  -2  -2 344255. 9207.30  18
   4  -2   2 364219. 9016.86  16
   4   2   2 364388. 9130.93   6
  -4   2  -2 368849. 8907.72   8
   4  -2   2 370541. 8836.82   6
   4  -2   2 381945. 8847.61  13
   4   2   2 356017. 8884.31  12
  -4  -2  -2 353502. 8876.20   9
   4  -2   2 372677. 8788.89  10
   4  -2   3 15524.0 1007.32   5
   4  -2   3 11384.1 892.362   3
  -4   2  -3 12173.4 782.968   2
  -4   2  -3 13170.4 953.957   1
  -4  -2  -3 12407.2 963.346   2
   4  -2   3 13089.3 885.048   1
  -4  -2  -3 14093.6 654.502   3
   4   2   3 12746.7 911.599  20
   4  -2   3 13570.8 877.569  19
   4  -2   3 13313.0 856.834  16
  -4  -2  -3 13036.9 1003.07  18
  -4   2  -3 12607.4 687.326   8
   4  -2   3 13198.6 827.245   6
   4   2   3 14396.1 651.246   5
  -4   2  -3 12994.6 930.957   7
   4   2   3 11776.7 886.123   6
   4   2   3 13203.6 795.039  12
  -4  -2  -3 14104.0 910.065   9
   4  -2   3 13526.9 753.849  10
   4  -2   4 208685. 5978.16   5
   4  -2   4 214081. 5964.58   3
  -4  -2  -4 209439. 5132.36   3
   4  -2   4 198721. 5853.20   1
  -4  -2  -4 205058. 6147.14   2
  -4   2  -4 225432. 6200.04   1
   4   2   4 193274. 5538.08   1
  -4   2  -4 212338. 5628.29   2
   4   2   4 208397. 5970.60  20
   4  -2   4 209012. 5722.37  19
  -4   2  -4 199297. 5777.77  18
  -4  -2  -4 201088. 6232.66  18
   4  -2   4 208868. 5786.89  16
  -4   2  -4 208089. 5147.31   8
   4   2   4 219643. 5351.02   5
   4  -2   4 202262. 5777.00   6
   4   2   4 207445. 6034.17   6
  -4   2  -4 203638. 5812.70   7
  -4   2  -4 206928. 6720.78  14
   4   2   4 208415. 5627.66  12
   4  -2   4 200102. 5506.26  10
  -4  -2  -4 209974. 5987.49   9
   4   2   5 201614. 5766.52   1
   4  -2   5 206014. 6111.64   1
  -4  -2  -5 209638. 6426.29   2
  -4   2  -5 227993. 6425.76   1
  -4  -2  -5 218849. 5107.77   3
  -4   2  -5 209189. 5771.42   2
   4  -2   5 205511. 5731.17  10
  -4  -2  -5 213098. 6326.30   9
  -4  -2  -5 214344. 6575.63  18
   4  -2   5 209860. 6006.70  16
  -4   2  -5 206179. 6078.85  18
  -4   2  -5 210235. 5019.76   8
  -4   2  -5 202372. 5886.92   7
   4   2   5 212651. 6301.67   6
   4  -2   5 196850. 6007.64   6
  -4   2  -5 208291. 7137.21  14
   4   2   5 200684. 5784.91  12
   4  -2   5 213860. 5982.77   3
   4  -2   5 206391. 6164.82   5
   4   2   6 115884. 3855.12   1
   4  -2   6 121984. 4147.92   1
  -4  -2  -6 122050. 4481.61   2
  -4   2  -6 135964. 4477.00   1
  -4   2  -6 117550. 3794.34   2
  -4   2  -6 122392. 4816.69   9
   4  -2   6 118290. 3807.33  10
  -4  -2  -6 132803. 4504.31   9
   4  -2   6 121210. 4042.17  16
  -4  -2  -6 127945. 4696.78  18
  -4   2  -6 114769. 4182.04  18
   4  -2   6 116431. 4145.58   5
  -4   2  -6 118812. 3821.35   7
   4  -2   6 122379. 4142.50   6
   4   2   6 115794. 4286.20   6
  -4  -2  -6 116144. 4919.83  14
  -4   2  -6 118734. 5161.13  14
   4   2   6 115583. 3929.11  16
  -4   2  -6 115808. 4598.59  15
   4   2   6 118568. 3860.38  12
   4  -2   6 123031. 3819.72   3
  -4  -2  -7 419.502 301.718   2
   4   2   7 815.618 292.090   1
  -4   2  -7 902.562 292.186   2
   4  -2   7 513.824 268.859  10
   4   2   7 455.774 243.083  10
  -4   2  -7 911.463 500.802   9
  -4  -2  -7 1972.79 520.100   9
  -4  -2  -7 143.688 358.915  18
  -4   2  -7 759.907 351.713  18
  -4  -2  -7 237.654 355.652  17
   4   2   7 1058.09 419.098   6
   4  -2   7 3063.41 536.211   6
  -4   2  -7 704.244 261.414   7
   4  -2   7 942.544 351.095  16
   4   2   7 1902.46 451.535  16
  -4   2  -7 566.092 352.784  15
   4   2   7 2842.01 507.388  12
   4  -2   7 983.570 205.247   4
   4  -2   7 966.910 402.939   5
  -4   2  -8 43756.6 2971.93   9
  -4  -2  -8 50600.3 2821.35   9
   4  -2   8 46743.6 2236.10  10
   4   2   8 49691.4 2267.93  10
  -4  -2  -8 45027.4 2797.98  18
  -4   2  -8 48621.0 2745.73  18
   4  -2   8 50713.6 2415.71  16
  -4  -2  -8 47222.1 2971.29  17
   4  -2   8 43210.8 2367.19   5
   4   2   8 48814.2 2670.32   6
   4  -2   8 48339.9 2431.24   6
   4   2   8 48115.3 2323.67  16
  -4   2  -8 43669.8 2866.50  15
   4   2   8 50405.1 2337.18  12
  -4  -2  -8 46555.4 2652.58   2
  -4   2  -8 45479.9 2211.05   2
  -4   2  -9 84506.2 4442.70   9
   4  -2   9 81163.0 3280.23  10
   4   2   9 82271.2 3289.56  10
  -4  -2  -9 82662.7 4029.04   9
  -4   2  -9 77301.4 3852.29  18
   4  -2   9 87864.9 3504.32  16
  -4  -2  -9 80197.5 4065.26  18
  -4  -2  -9 75048.3 4112.66  17
  -4   2  -9 76289.1 4291.40  17
   4  -2   9 78042.9 3409.97   6
   4   2   9 83310.8 3802.45   6
   4   2   9 82656.0 3391.56  16
  -4   2  -9 82918.4 4319.78  15
   4   2   9 85282.3 3408.97  12
  -4  -2  -9 77962.2 3757.23   2
  -4  -2 -10 30608.2 2452.22  18
   4  -2  10 32835.2 2082.41  16
  -4   2 -10 30906.8 2362.61  18
  -4  -2 -10 29828.0 2542.11  17
  -4   2 -10 29910.2 2629.06  17
   4   2  10 33637.9 2292.55   6
   4  -2  10 33301.3 2115.14   6
   4   2  10 34577.9 2088.35  16
  -4   2 -10 36285.0 2807.82  15
   4  -2  10 34164.9 2011.91  10
   4   2  10 34298.6 2006.60  10
  -4  -2 -10 34407.0 2575.04   9
  -4   2 -10 33144.9 2749.14   9
  -4  -2 -10 29949.0 2252.37   2
   4  -2  11 6608.79 936.387  16
   4   2  11 5560.15 882.944  16
   4   2  11 4842.92 906.534   6
   4  -2  11 5758.58 905.898   6
  -4   2 -11 5918.24 1088.03  18
  -4  -2 -11 5483.15 1206.95  17
  -4   2 -11 4492.10 1135.81  17
  -4  -2 -11 3471.08 890.244  18
   4  -2  11 6159.74 884.525  10
  -4   2 -11 6751.31 1257.65   9
   4   2  11 6327.03 901.296  10
  -4  -2 -11 4174.28 1009.30   9
   4   2  12 24428.0 1909.94  16
   4  -2  12 21491.0 1815.43   6
   4   2  12 22594.0 1998.41   6
  -4  -2 -12 19939.9 2147.15  18
  -4  -2 -12 20956.7 2315.69  17
   4  -2  12 25629.1 1986.98  16
  -4   2 -12 25631.1 2612.66  17
   4  -2  12 24357.6 1823.41  10
   4   2  12 25418.1 1871.00  10
  -4   2 -12 24338.8 2629.18   9
  -4  -2 -12 26659.9 2539.55   9
   4   2  13 11141.3 1341.43  16
   4  -2  13 10728.5 1330.55   6
   4   2  13 9703.24 1346.11   6
  -4  -2 -13 11444.9 1724.20   9
  -4   2 -13 10927.0 1868.01   9
   4  -2  13 12647.9 1353.81  10
   4   2  13 11668.8 1330.31  10
  -4  -2 -13 7913.41 1505.62  17
  -4   2 -13 10790.3 1779.17  17
   4  -2  13 12733.0 1435.40  16
  -4  -2 -13 10038.4 1598.62  18
   4  -2  14 1416.96 575.652  16
   4  -4 -13 10754.1 1663.41  17
   4   4 -13 11156.5 1869.50  17
   4   4 -13 12292.4 2125.81  11
  -4   4  13 13946.0 1701.01   4
   4  -4 -13 11098.9 1691.67   9
  -4   4  13 15053.1 1604.00  10
   4   4 -13 10435.9 1687.90   9
  -4  -4  13 11081.2 1342.61  10
   4   4 -12 1016.72 552.348  17
   4  -4 -12 1876.21 654.876  17
   4   4 -12 1712.10 685.983   9
  -4   4  12 1956.46 639.152  10
   4  -4 -12 753.958 645.399   9
  -4  -4  12 1235.23 527.041  10
   4   4 -12 881.271 762.276  11
   4   4 -11 13290.5 1779.71  17
   4  -4 -11 14775.3 1755.95  17
   4   4 -11 11226.0 1880.70  11
   4   4 -11 13488.4 1751.67   9
   4  -4 -11 14482.3 1728.05   9
  -4   4  11 14215.2 1475.10  10
  -4  -4  11 14313.8 1410.52  10
  -4   4  10 55783.8 2611.63  16
   4  -4 -10 51244.4 3259.21  17
   4   4 -10 48052.6 3307.97  17
   4   4 -10 48470.0 3720.97  11
  -4   4  10 55575.6 3005.43  12
  -4  -4  10 57519.7 2872.73  10
   4   4 -10 48124.4 3248.75   9
  -4   4  10 56780.5 2947.10  10
   4  -4 -10 51147.1 3173.76   9
   4   4  -9 17289.9 1743.68   9
   4  -4  -9 20673.5 1840.24   9
  -4  -4   9 20409.1 1544.48  10
   4   4  -9 18055.3 1804.81  17
   4  -4  -9 19157.6 1759.29  17
   4  -4  -9 20126.6 1750.68  13
   4   4  -9 16433.3 1947.43  11
  -4   4   9 20841.7 1665.85  12
  -4  -4   9 16108.3 1210.29   3
  -4  -4   8 372.609 266.834   3
   4  -4  -8 422.187 333.379   9
  -4  -4   8 1480.67 458.177  10
   4  -4  -8 488.621 383.282  17
   4   4  -8 276.450 326.052  17
  -4   4   8 1114.09 392.406   8
   4  -4  -8 977.260 389.005  13
  -4   4   8 619.407 376.078  12
   4   4  -8 771.468 424.062  11
  -4  -4   8 490.186 215.799   4
  -4  -4   7 22299.4 1240.96   4
  -4  -4   7 20781.4 1360.86   3
  -4  -4   7 19817.7 1188.75  19
   4   4  -7 19163.2 1594.59  17
   4  -4  -7 24404.3 1668.98  17
  -4   4   7 22401.7 1521.72   8
   4  -4  -7 21050.4 1515.91  14
   4  -4  -7 22494.3 1759.35  13
   4   4  -7 22307.0 1953.93  11
  -4   4   7 22251.7 1579.89  12
   4  -4  -7 23741.8 1692.66   9
   4   4  -7 23132.4 1716.17   9
  -4  -4   7 22749.3 1480.99  10
  -4  -4   6 112356. 3442.38   4
  -4  -4   6 100260. 3695.15   3
   4  -4  -6 117836. 3596.39  19
  -4  -4   6 103429. 3493.23  19
   4   4  -6 107964. 3972.56  17
   4  -4  -6 116209. 3983.54  17
  -4   4   6 114436. 4101.06   8
   4   4  -6 99057.7 4070.28  14
   4  -4  -6 111285. 4327.65  13
  -4  -4   6 105643. 3953.23  14
   4  -4  -6 102428. 3664.92  14
   4   4  -6 109351. 4282.88  15
   4   4  -6 103940. 4494.99  11
  -4   4   6 113471. 4017.17  12
  -4  -4   6 114494. 3802.56  10
   4   4  -6 101610. 3974.47   9
   4  -4  -6 113575. 4065.09   9
  -4  -4   5 87231.9 2840.04   4
  -4  -4   5 79658.2 3080.92   3
  -4  -4   5 85975.3 2980.77  19
   4  -4  -5 91230.3 3131.32  19
   4  -4  -5 85858.9 3136.83  17
   4   4  -5 86662.1 3101.45  17
  -4   4   5 87036.6 3539.32   8
   4   4  -5 81389.5 3286.93  14
   4  -4  -5 94320.2 3685.88  13
   4  -4  -5 82041.5 2867.64  14
  -4   4   5 92551.0 3248.80  14
   4   4  -5 89018.2 3460.30  15
  -4  -4   5 87074.0 3259.64  14
   4   4  -5 87122.7 3688.62  11
  -4   4   5 90184.3 3316.43  12
   4   4  -5 77409.9 3103.97   9
   4  -4  -5 88116.9 3282.69   9
  -4  -4   5 89223.2 3122.16  10
  -4  -4   4 5562.01 539.878   4
  -4  -4   4 5588.62 606.464  19
   4  -4  -4 6368.82 694.476  19
   4   4  -4 5622.54 538.022  17
   4  -4  -4 6331.89 641.092  17
  -4  -4   4 5076.33 623.090   3
   4   4  -4 5862.70 656.634  14
  -4  -4   4 6983.66 457.021  13
  -4  -4   4 5569.71 614.425  14
  -4   4   4 6344.25 626.284  14
   4  -4  -4 6517.29 810.315  13
   4   4  -4 8408.65 818.145  15
   4  -4  -4 5541.25 493.766  14
   4   4  -4 7078.21 834.820  11
  -4   4   4 6861.75 725.785  12
   4  -4  -4 5850.99 658.699   9
   4   4  -4 4737.98 532.508   9
  -4  -4   4 5560.63 607.429  10
   4  -4  -3 202072. 5321.29   5
  -4  -4   3 197197. 5400.97   4
  -4  -4   3 192815. 5574.93  19
   4  -4  -3 205804. 5944.61  19
   4   4  -3 205112. 6057.86  20
   4  -4  -3 206400. 5454.76  17
   4   4  -3 199210. 5119.30  17
  -4  -4   3 190684. 5745.35   3
   4   4  -3 199801. 5582.94  14
   4  -4  -3 205245. 6102.36  13
  -4  -4   3 199278. 5484.02  14
  -4   4   3 191028. 5290.03  14
  -4  -4   3 190534. 5177.78  13
   4   4  -3 187370. 5508.11  15
   4  -4  -3 202626. 5029.92  14
  -4   4   3 204938. 5822.85  12
   4   4  -3 205784. 5923.03  11
   4  -4  -3 204202. 5710.73   9
   4   4  -3 190615. 5162.59   9
  -4  -4   3 196442. 5666.51  10
  -4  -4   2 288646. 7477.87   4
   4  -4  -2 274705. 7824.32   3
   4  -4  -2 280396. 7264.34   5
  -4  -4   2 277983. 7580.42  19
   4   4  -2 298460. 8081.48  20
   4  -4  -2 298490. 8020.15  19
   4   4  -2 284711. 6855.64  17
   4  -4  -2 287864. 7265.94  17
  -4   4   2 302947. 6959.36   1
  -4  -4   2 276739. 7755.61   3
   4  -4  -2 283295. 7920.26  13
  -4  -4   2 288585. 7296.90  14
  -4  -4   2 282030. 7305.19  13
  -4   4   2 297796. 6983.50  14
   4   4  -2 278456. 7199.73  15
   4   4  -2 296101. 7726.28  11
  -4   4   2 287127. 7747.06  12
  -4  -4   2 287129. 7685.20  10
   4  -4  -2 288471. 7609.43   9
   4   4  -2 279495. 6702.52   9
  -4   4   1 30906.5 1256.72   1
  -4  -4   1 29740.6 1555.89   3
   4   4  -1 28639.2 1649.54  21
  -4  -4   1 28399.3 1457.32  19
  -4   4   1 27770.6 1111.07  20
   4  -4  -1 31311.6 1702.53  19
   4   4  -1 28051.6 1600.92  20
  -4  -4   1 30072.8 1132.92  18
  -4  -4   1 28032.1 1363.29  13
  -4  -4   1 28559.8 1193.41  14
  -4   4   1 31475.9 909.493  14
   4  -4  -1 30677.6 1582.86  13
  -4  -4   1 26246.7 1440.52  10
   4   4  -1 28684.0 1343.35  11
  -4   4   1 28273.4 1506.40  12
   4   4  -1 25643.8 1587.85  12
  -4  -4   1 28238.7 1415.93   4
   4  -4  -1 27529.6 1294.52   5
   4  -4  -1 29732.2 1695.98   3
  -4  -4   0 31972.7 1621.32   3
  -4   4   0 37039.9 1536.87   1
  -4  -4   0 34638.8 1631.23   2
  -4   4   0 31882.0 1159.04  20
  -4   4   0 32033.0 1689.09  21
   4   4   0 31817.9 1714.90  21
  -4  -4   0 33350.2 1579.84  19
   4  -4   0 33351.2 1781.29  19
   4   4   0 32915.8 1744.06  20
  -4  -4   0 34776.8 1380.82  18
   4  -4   0 32329.5 919.544   6
   4   4   0 32570.5 1358.13   6
   4  -4   0 33324.0 1634.19  13
  -4  -4   0 32305.3 1221.82  14
  -4   4   0 32233.3 1004.85  14
  -4   4   0 31138.3 1599.58  12
   4   4   0 32474.4 1367.43  11
   4   4   0 32084.7 1755.76  12
   4  -4   0 32394.4 1847.69   3
  -4  -4   0 31485.5 1599.88   4
   4  -4   0 32096.2 1497.75   5
   4  -4   1 164846. 4890.66   5
  -4  -4  -1 159116. 5100.38   4
   4  -4   1 172458. 5484.51   3
  -4   4  -1 186631. 5037.88   1
  -4  -4  -1 162707. 4901.43   3
  -4  -4  -1 161084. 5073.69   2
  -4  -4  -1 169464. 4919.68  19
  -4   4  -1 158331. 5093.51  21
   4   4   1 164568. 5169.56  20
   4  -4   1 171997. 5217.64  19
  -4   4  -1 166830. 4359.53  20
  -4  -4  -1 166924. 4766.34  18
   4   4   1 162435. 4625.58   6
   4  -4   1 169623. 3969.47   6
   4  -4   1 170159. 4890.26  13
  -4   4  -1 176272. 4666.78  14
   4   4   1 170667. 4551.73  11
  -4   4  -1 159344. 4992.45  12
   4   4   1 164979. 5173.68  12
  -4  -4  -1 161074. 4007.64   9
   4  -4   2 219034. 6379.48   5
  -4   4  -2 251801. 6574.41   1
  -4  -4  -2 230300. 6243.69   3
  -4  -4  -2 227568. 6683.83   2
   4  -4   2 224629. 6854.96   3
  -4   4  -2 219341. 5745.93  20
   4  -4   2 229790. 6598.51  19
  -4  -4  -2 229823. 6317.43  19
   4   4   2 220937. 6560.97  20
  -4  -4  -2 224488. 6352.09  18
   4  -4   2 225226. 5485.41   6
   4   4   2 220172. 6117.87   6
  -4   4  -2 221668. 6330.70  14
   4  -4   2 222501. 6126.59  13
   4   4   2 217918. 6466.43  12
   4   4   2 222314. 5915.15  11
  -4  -4  -2 219766. 5584.92   9
   4  -4   2 229112. 6341.29  10
   4  -4   3 4568.96 611.517   5
  -4  -4  -3 4859.21 710.445   2
  -4   4  -3 6699.28 751.967   1
  -4  -4  -3 6485.86 613.730   3
   4  -4   3 4697.14 714.205   3
   4   4   3 6479.30 769.602  20
   4  -4   3 5130.74 674.276  19
  -4  -4  -3 5930.80 640.662  19
  -4  -4  -3 4945.38 573.477  17
  -4  -4  -3 5754.55 701.525  18
   4   4   3 5638.91 636.745   6
   4  -4   3 5292.33 428.904   6
  -4   4  -3 5446.99 699.885  14
   4  -4   3 5421.06 667.789  16
   4  -4   3 5585.37 555.931  13
   4   4   3 4493.91 604.051  12
   4  -4   3 5268.20 598.196  10
  -4  -4  -3 5242.00 481.852   9
   4  -4   4 95960.3 3650.98   5
   4  -4   4 106972. 3968.69   3
  -4  -4  -4 92980.1 3866.49   2
  -4  -4  -4 107019. 3228.16   3
  -4   4  -4 115528. 3950.22   1
   4  -4   4 96209.9 3577.18  19
  -4  -4  -4 97551.1 3458.77  19
   4   4   4 101620. 3814.16  20
   4  -4   4 94500.5 3582.88  16
  -4  -4  -4 100427. 3814.14  18
  -4  -4  -4 109986. 3673.49  17
   4  -4   4 100142. 3025.81   6
   4   4   4 94098.7 3486.54   6
   4  -4   4 96513.2 3137.14  13
  -4   4  -4 101107. 3954.49  14
   4   4   4 99373.0 3540.79  12
   4  -4   4 95238.8 3351.17  10
  -4  -4  -4 103554. 3280.81   9
   4  -4   5 164959. 5369.63   3
   4  -4   5 163175. 5343.12   5
  -4   4  -5 160702. 4798.21   2
  -4  -4  -5 158304. 5624.74   2
  -4  -4  -5 166180. 4503.26   3
   4   4   5 153785. 4742.96   1
   4   4   5 159908. 5453.02  20
   4  -4   5 160111. 5124.18  19
  -4  -4  -5 161427. 4986.80  19
  -4  -4  -5 157439. 5525.94  18
   4  -4   5 160031. 5235.66  16
  -4  -4  -5 171782. 5390.04  17
   4  -4   5 160237. 4604.35   6
  -4   4  -5 156305. 4748.74   8
   4   4   5 158264. 5206.26   6
  -4   4  -5 164030. 5737.77  14
  -4  -4  -5 153709. 5527.21  14
   4   4   5 164202. 5119.78  12
   4  -4   5 157557. 4889.97  10
  -4  -4  -5 166807. 5021.86   9
   4  -4   6 73027.9 3002.02   3
  -4   4  -6 67897.9 2575.62   2
  -4  -4  -6 66291.7 3300.51   2
   4   4   6 66970.9 2648.39   1
   4  -4   6 69352.2 2872.62  19
  -4  -4  -6 69162.5 2747.88  19
  -4  -4  -6 72164.4 3199.81  17
  -4  -4  -6 69624.4 3311.34  18
  -4   4  -6 70268.6 2946.01  18
   4  -4   6 65756.6 2958.10  16
   4  -4   6 68645.6 2552.51   6
   4  -4   6 66743.6 3041.85   5
   4   4   6 64149.6 2970.98   6
  -4   4  -6 70162.4 3450.40  14
  -4  -4  -6 61190.8 3232.28  14
   4   4   6 73266.5 2973.05  12
   4  -4   6 68143.1 2765.39  10
  -4  -4  -6 72126.5 2972.03   9
   4  -4   7 330.204 304.136   5
   4   4   7 706.726 266.421   1
   4  -4   7 856.331 324.121   3
  -4  -4  -7-292.433 449.761   2
   4  -4   7 857.730 344.899  19
  -4   4  -7 377.910 261.919  18
  -4  -4  -7 105.250 275.750  17
  -4  -4  -7 712.394 273.758  19
  -4  -4  -7 1199.12 521.625  18
   4  -4   7 308.924 208.325   6
  -4   4  -7 345.414 326.126   7
   4   4   7 155.120 303.545   6
  -4   4  -7-206.965 395.234  15
   4  -4   7 384.437 383.108  16
   4   4   7 258.599 278.162  12
  -4  -4  -7 794.550 474.642  13
  -4  -4  -7 834.914 445.896   9
   4  -4   7 624.651 313.033  10
  -4   4  -7 991.958 523.317   9
  -4   4  -8 22775.5 2177.42   9
   4  -4   8 29322.9 1806.89  10
  -4  -4  -8 29104.9 1983.68   9
  -4   4  -8 28457.6 2382.03  17
  -4  -4  -8 24311.7 2058.79  18
  -4   4  -8 27928.7 1969.74  18
  -4  -4  -8 26196.6 2024.43  17
   4  -4   8 28818.5 1966.85  16
   4  -4   8 26001.7 1566.99   6
  -4   4  -8 26716.1 1814.55   7
   4   4   8 28295.4 1975.97   6
   4  -4   8 24241.3 1827.19   5
  -4  -4  -8 25603.4 1917.14  13
  -4   4  -8 27167.9 2377.29  15
   4   4   8 28751.9 1856.46  12
   4  -4   8 23327.2 1523.07   3
   4  -4   9 64127.7 3209.01  16
  -4  -4  -9 63009.1 3429.32  17
  -4   4  -9 59224.4 3695.76  17
  -4  -4  -9 61665.1 3580.16  18
   4   4   9 63180.9 3221.69   6
   4  -4   9 58965.3 2680.98   6
   4  -4   9 61355.3 3137.94   5
   4   4   9 69351.1 3225.83  16
  -4   4  -9 65019.7 4018.59  15
  -4  -4  -9 58307.9 3140.84  13
   4   4   9 66069.0 3124.87  12
  -4  -4  -9 62361.3 3308.73   9
   4  -4   9 63368.2 2986.30  10
   4   4   9 61033.3 2995.74  10
  -4   4  -9 60622.4 3899.16   9
  -4  -4 -10 17923.4 1943.76  18
  -4  -4 -10 19099.0 1869.93  17
   4  -4  10 21559.2 1806.37  16
  -4   4 -10 17366.1 2014.30  17
   4  -4  10 17144.4 1384.88   6
   4   4  10 21140.1 1801.04   6
   4   4  10 17434.8 1601.30  16
  -4  -4 -10 18510.8 1666.77  13
  -4   4 -10 20337.5 2338.04  15
   4   4  10 19383.9 1676.46  12
  -4   4 -10 19474.3 2206.13   9
   4  -4  10 20257.1 1649.55  10
  -4  -4 -10 16969.4 1736.31   9
   4   4  10 19363.6 1633.58  10
  -4   4 -11 3031.24 904.262  17
  -4  -4 -11 4027.07 1052.71  18
  -4  -4 -11 4578.67 1018.29  17
   4   4  11 3131.50 787.698   6
   4  -4  11 3142.46 791.393  16
   4   4  11 3979.05 838.760  16
  -4   4 -11 2766.48 968.700  15
   4   4  11 4445.35 868.401  12
   4   4  11 3529.32 765.831  10
  -4  -4 -11 3502.22 892.239   9
  -4   4 -11 3926.59 1089.77   9
   4  -4  11 3932.15 792.126  10
   4   4  12 15022.2 1589.32  16
  -4   4 -12 17808.2 2335.76  15
   4   4  12 14334.5 1585.06   6
  -4   4 -12 14655.8 1991.38  17
   4  -4  12 15389.1 1619.78  16
  -4  -4 -12 13006.2 1715.10  17
  -4  -4 -12 14053.3 1854.52  18
  -4   4 -12 17323.6 2303.58   9
   4  -4  12 14253.0 1471.46  10
  -4  -4 -12 17353.6 1926.58   9
   4   4  12 15604.4 1579.00  10
   4   4  13 8357.00 1230.59  16
   4  -4  13 7647.22 1165.77  16
   4   4  13 7307.56 1146.55  10
  -4   4 -13 9392.28 1786.57   9
   4  -4  13 8999.49 1220.78  10
  -4  -4 -13 9095.49 1458.16   9
  -4  -4 -13 6784.15 1303.31  17
  -4  -4 -13 6855.89 1316.48  18
  -4   4 -13 7944.27 1526.29  17
   4  -6 -12 864.326 590.106   9
  -4   6  12 555.542 560.358  10
  -4  -6  12 1424.70 654.662  10
   4   6 -12-378.098 900.683  11
  -4   6  12 1030.29 664.105  12
   4  -6 -11 8324.00 1217.88  17
   4   6 -11 7790.33 1611.26  11
  -4   6  11 9959.05 1429.28  12
  -4   6  11 9061.15 1351.36  10
  -4  -6  11 6482.40 1066.68  10
   4  -6 -11 5226.03 1066.89   9
  -4  -6  10 29148.4 2169.26  10
   4  -6 -10 28461.7 2337.82   9
   4  -6 -10 25370.4 2055.53  17
   4  -6 -10 29663.0 2439.39  13
  -4   6  10 29209.0 2369.84  12
   4   6 -10 26803.4 2765.46  11
  -4  -6  10 22398.6 1681.63   3
   4  -6  -9 12772.6 1441.74   9
  -4  -6   9 11078.8 1280.35  10
   4  -6  -9 11782.1 1278.55  17
  -4   6   9 14512.1 1445.57   8
   4  -6  -9 10294.7 1414.06  13
   4   6  -9 11345.1 1762.72  11
  -4   6   9 12331.0 1439.31  12
  -4  -6   9 10066.3 1083.69   3
  -4  -6   8 633.850 387.206   3
  -4  -6   8 147.673 254.292  19
   4  -6  -8 826.947 414.019  17
  -4   6   8 1278.23 557.580   8
   4  -6  -8 632.829 473.168  13
   4   6  -8 166.075 483.846  11
  -4   6   8 244.571 395.947  12
   4  -6  -8 520.718 392.734   9
  -4  -6   8 152.217 333.946  10
  -4  -6   7 11002.7 1082.80   3
   4   6  -7 11861.1 1324.46  20
  -4  -6   7 10458.8 1002.60  19
   4  -6  -7 10677.1 1055.35  17
  -4   6   7 12228.4 1364.35   8
   4  -6  -7 12902.0 1470.01  13
   4   6  -7 11987.9 1362.75  15
   4   6  -7 10181.4 1373.95  11
  -4   6   7 12086.3 1338.92  12
  -4  -6   7 13602.6 1291.56  10
   4  -6  -7 11362.3 1194.34   9
  -4  -6   6 53965.5 2600.77   3
   4   6  -6 51687.7 2847.06  20
  -4  -6   6 52837.2 2516.06  19
   4  -6  -6 57002.8 2465.38  17
  -4   6   6 64229.4 3325.95   8
   4  -6  -6 54689.4 3086.34  13
   4   6  -6 53691.3 2908.58  15
  -4   6   6 58645.2 2986.59  12
   4   6  -6 56190.9 3131.31  11
   4  -6  -6 56099.0 2693.33   9
  -4  -6   6 57364.3 2752.20  10
  -4  -6   5 43108.3 1905.25   4
   4  -6  -5 45111.6 2387.71  19
  -4  -6   5 43301.3 2183.54  19
   4   6  -5 41560.2 2433.15  20
   4  -6  -5 40890.5 1907.79  17
  -4  -6   5 40555.6 2174.22   3
   4  -6  -5 40226.9 2532.25  13
   4   6  -5 39728.7 2270.67  15
  -4   6   5 44981.3 2491.24  12
   4   6  -5 40543.2 2448.67  11
   4  -6  -5 44021.5 2223.72   9
  -4  -6   5 45207.0 2325.70  10
  -4  -6   4 5434.36 609.893   4
   4  -6  -4 5253.94 546.593   5
  -4  -6   4 5049.01 706.890  19
   4   6  -4 5081.83 800.114  20
   4  -6  -4 5572.25 787.119  19
   4  -6  -4 5022.17 550.247  17
  -4  -6   4 3804.92 654.222   3
  -4  -6   4 4393.25 499.419  13
   4  -6  -4 3673.77 735.056  13
   4   6  -4 4263.28 647.139  15
   4   6  -4 4077.32 537.281  14
   4   6  -4 5141.38 747.260  11
  -4   6   4 5003.01 796.050  12
   4  -6  -4 5740.30 744.539   9
  -4  -6   4 4337.51 690.679  10
  -4  -6   3 102044. 3835.57   3
   4  -6  -3 99531.8 3125.43  17
   4  -6  -3 103984. 4027.32  13
  -4  -6   3 92886.5 3220.57  13
   4   6  -3 97330.5 4207.27  21
  -4  -6   3 97279.3 3636.20  19
   4  -6  -3 103440. 3997.29  19
   4   6  -3 100709. 4046.11  20
   4   6  -3 99999.0 3711.13  11
  -4  -6   3 104129. 3879.44  10
  -4   6   3 99379.6 3981.89  12
   4  -6  -3 98292.4 3225.26   5
   4  -6  -3 104055. 3892.49   3
  -4  -6   3 94613.0 3345.48   4
  -4  -6   2 118369. 4352.17   3
   4  -6  -2 126096. 4493.88  13
  -4  -6   2 113296. 3849.91  13
  -4  -6   2 118531. 4156.46  19
  -4   6   2 127783. 3902.52  20
   4   6  -2 119507. 4754.34  21
   4  -6  -2 132356. 4638.28  19
   4   6  -2 124776. 4580.34  20
   4   6  -2 124607. 4103.61  11
  -4   6   2 123957. 4574.55  12
   4   6  -2 120219. 4720.99  12
   4  -6  -2 125969. 4618.72   3
   4  -6  -2 125272. 3861.67   5
  -4  -6   2 119869. 4022.52   4
  -4   6   1 14449.2 962.206   1
  -4  -6   1 12886.4 1156.61   3
  -4   6   1 11825.0 836.397  20
  -4  -6   1 13711.8 1084.68  19
   4   6  -1 15032.7 1281.03  20
   4   6  -1 14278.3 1338.86  21
   4  -6  -1 12465.7 1169.90  19
   4  -6  -1 14596.8 1187.95  13
  -4  -6   1 11571.9 947.644  13
  -4   6   1 12566.2 1207.55  12
   4   6  -1 14426.6 1365.41  12
   4   6  -1 12422.3 908.201  11
   4  -6  -1 12117.4 923.271   5
  -4  -6   1 12175.4 1026.98   4
   4  -6  -1 13524.3 1322.35   3
  -4  -6   0 15465.5 1252.24   3
  -4   6   0 18469.8 1186.09   1
  -4  -6   0 16907.4 1243.14  19
  -4   6   0 13476.1 1309.00  21
   4   6   0 15314.4 1300.47  20
  -4   6   0 15130.7 933.037  20
   4   6   0 17176.4 1436.19  21
   4  -6   0 14395.4 1276.58  19
   4   6   0 15504.7 853.466   6
   4  -6   0 15202.0 1206.85  13
  -4  -6   0 13307.7 1066.21  13
   4   6   0 15100.1 945.210  11
   4   6   0 16603.1 1433.10  12
  -4   6   0 15805.0 1339.38  12
  -4  -6   0 14745.0 1195.41   4
   4  -6   0 17525.1 1155.73   5
   4  -6   0 18340.6 1553.42   3
  -4  -6  -1 78757.1 3230.66   3
   4  -6   1 86808.9 3745.94   3
  -4   6  -1 85053.5 3597.58  21
  -4  -6  -1 82665.4 3219.67  19
   4  -6   1 80380.9 3395.17  19
   4   6   1 80502.7 3430.37  20
  -4   6  -1 84121.2 2769.62  20
  -4  -6  -1 81645.8 2959.49  18
   4   6   1 82733.5 2700.31   6
   4  -6   1 82657.2 3181.27  13
  -4  -6  -1 76783.5 3157.19  13
   4   6   1 76643.3 2607.25  11
   4   6   1 80707.1 3563.71  12
  -4   6  -1 83881.8 3490.61  12
   4  -6   1 84329.2 3157.25   5
   4  -6   2 103745. 4301.15   3
  -4   6  -2 122770. 4087.03   1
  -4  -6  -2 108911. 3887.06   3
  -4  -6  -2 103998. 3855.95  19
   4   6   2 106428. 4181.55  20
   4  -6   2 106161. 4070.16  19
  -4   6  -2 107144. 3427.90  20
  -4   6  -2 107256. 4302.75  21
  -4  -6  -2 107255. 3780.45  18
   4   6   2 105579. 3461.61   6
  -4  -6  -2 105834. 3971.13  13
   4  -6   2 104700. 3708.83  13
  -4   6  -2 106390. 4139.86  12
   4   6   2 114135. 4399.26  12
   4  -6   2 111693. 3911.92   5
   4  -6   3 4624.28 671.889   5
  -4  -6  -3 4278.36 618.519   3
   4  -6   3 4034.40 761.955   3
   4   6   3 3836.57 720.821  20
  -4   6  -3 4977.57 835.171  21
  -4   6  -3 4888.52 561.614  20
   4  -6   3 4856.94 751.017  19
  -4  -6  -3 4736.02 706.098  19
  -4  -6  -3 4968.46 693.850  18
   4   6   3 5209.17 620.805   6
   4  -6   3 6416.51 683.528  13
  -4  -6  -3 5159.83 760.956  13
  -4   6  -3 5008.19 797.929  12
   4   6   3 5196.16 824.195  12
   4  -6   3 4706.27 715.675  10
   4  -6   4 49232.1 2509.90   5
   4  -6   4 50228.1 2755.67   3
  -4  -6  -4 55883.7 2392.46   3
   4   6   4 51002.3 2791.84  20
  -4  -6  -4 50445.9 2445.28  19
   4  -6   4 52018.9 2567.67  19
  -4   6  -4 47991.3 2108.70  20
  -4  -6  -4 53276.5 2663.11  18
   4   6   4 52566.1 2339.36   6
   4  -6   4 50343.2 2153.92  13
  -4  -6  -4 47870.1 2594.11  13
   4   6   4 51261.8 2720.35  12
   4  -6   4 53493.2 2581.38  10
   4  -6   5 78060.0 3540.58   3
  -4   6  -5 78071.4 3007.72  20
   4   6   5 89344.4 3917.95  20
  -4  -6  -5 79472.2 3315.47  19
   4  -6   5 82033.4 3462.27  19
  -4  -6  -5 80899.2 3670.50  18
   4  -6   5 84482.9 3566.23   5
   4   6   5 77961.3 3235.11   6
   4  -6   5 82422.6 2932.08  13
  -4  -6  -5 80281.8 3619.92  13
   4   6   5 91241.2 3774.72  12
   4  -6   5 81732.5 3402.09  10
   4  -6   6 33426.8 2059.19   3
   4   6   6 35990.6 2430.25  20
   4  -6   6 31136.6 1993.95  19
  -4  -6  -6 33730.6 1948.03  19
  -4  -6  -6 31812.3 2264.96  18
   4   6   6 35128.3 2045.76   6
   4  -6   6 31971.3 2127.23   5
  -4  -6  -6 33777.4 2230.73  13
   4   6   6 37425.0 2284.38  12
   4  -6   6 33513.5 2043.19  10
   4  -6   7 762.684 460.696   5
   4  -6   7 636.263 334.298   3
   4  -6   7 1037.91 426.683  19
  -4  -6  -7 143.357 215.767  19
  -4  -6  -7 1195.56 573.848  18
   4   6   7 1578.76 516.983   6
  -4   6  -7 320.425 513.590  15
  -4  -6  -7 518.207 417.037  13
   4   6   7 383.586 387.255  12
  -4   6  -7 903.273 530.203   9
   4  -6   7 802.057 440.775  10
   4  -6   8 13664.2 1245.87   3
   4  -6   8 13932.1 1321.57  19
  -4  -6  -8 15584.5 1670.13  18
  -4   6  -8 13152.8 1479.76   7
   4  -6   8 14611.1 1485.79   5
   4   6   8 17035.6 1479.90   6
  -4  -6  -8 14062.4 1508.53  13
  -4   6  -8 13211.2 1781.27  15
   4   6   8 17812.8 1644.87  12
  -4   6  -8 16051.5 1864.03   9
   4  -6   8 16469.5 1484.17  10
   4  -6   9 35072.4 2334.35  10
  -4   6  -9 32370.7 2814.89   9
  -4  -6  -9 31428.9 2532.70  18
   4   6   9 30123.4 2091.34   6
   4  -6   9 30552.4 2194.98   5
  -4  -6  -9 31435.8 2304.26  13
  -4   6  -9 28174.8 2817.27  15
   4   6   9 34174.4 2414.54  12
   4  -6   9 27466.0 1824.87   3
  -4  -6 -10 9395.10 1457.71  18
   4   6  10 8224.69 1124.28   6
  -4  -6 -10 9859.32 1326.75  13
   4   6  10 10771.5 1393.20  16
  -4   6 -10 11559.8 1798.82  15
   4   6  10 10322.1 1371.34  12
  -4   6 -10 8653.59 1493.51   9
   4  -6  10 9942.24 1234.33  10
  -4  -6 -11 942.699 607.845  18
   4   6  11 1769.42 556.514   6
  -4  -6 -11 983.946 523.649  13
   4   6  11 1182.85 621.356  16
  -4   6 -11 1970.24 933.531  15
  -4   6 -11 340.136 550.504  11
   4   6  11 1201.06 574.454  12
   4   6  11 849.921 505.485  10
  -4   6 -11 2596.81 941.183   9
   4  -6  11 1672.27 624.402  10
  -4   6 -12 10608.3 1792.68   9
   4   8 -10 12204.4 1653.83  20
  -4  -8  10 9471.70 1166.58   3
   4  -8 -10 11303.7 1588.40  13
   4   8 -10 11232.9 1756.90  11
  -4   8  10 12186.9 1707.63  12
  -4  -8  10 10056.2 1426.53  10
   4   8  -9 3630.57 892.704  20
  -4   8   9 6231.98 1164.97   8
  -4  -8   9 4969.12 856.531   3
   4  -8  -9 4607.00 1068.54  13
  -4   8   9 5054.03 1098.40  12
   4   8  -9 5876.47 1180.86  11
  -4  -8   9 5571.77 1039.08  10
   4   8  -8 415.691 488.374  20
  -4  -8   8-19.6562 288.292  19
  -4   8   8 241.640 510.323   8
  -4  -8   8-169.700 332.222   3
   4  -8  -8 36.3860 585.928  13
  -4   8   8 332.942 522.324  12
   4   8  -8-272.849 438.572  11
  -4  -8   8 105.538 395.693  10
   4   8  -7 8060.03 1219.93  20
  -4  -8   7 6218.99 925.161  19
  -4   8   7 7134.44 1275.55   8
  -4  -8   7 5217.17 878.285   3
   4  -8  -7 5585.48 1076.47  13
   4   8  -7 6497.18 1119.10  11
  -4   8   7 5819.14 1103.05  12
  -4  -8   7 6377.96 1033.87  10
  -4   8   6 24486.7 2323.36   8
   4  -8  -6 20746.2 1956.76  13
   4   8  -6 18433.0 1990.00  21
  -4  -8   6 16784.0 1510.54  19
   4   8  -6 21100.4 1884.58  20
  -4   8   6 23766.6 2124.26  12
  -4  -8   6 19133.9 1740.32  10
   4   8  -6 22132.6 1873.34  11
  -4  -8   6 18596.1 1596.73   3
   4  -8  -5 18067.9 1772.88  13
   4   8  -5 17506.8 1875.65  21
   4  -8  -5 14797.6 1477.67  19
   4   8  -5 17754.8 1712.83  20
  -4  -8   5 17152.8 1516.14  19
  -4  -8   5 18517.8 1645.33  10
  -4   8   5 19518.8 1844.95  12
   4   8  -5 15412.9 1748.35  12
   4   8  -5 14897.7 1420.87  11
  -4  -8   5 15324.6 1428.95   3
   4  -8  -4 2478.35 714.402  13
  -4  -8   4 2837.16 655.245  19
   4   8  -4 1966.22 709.755  21
   4  -8  -4 2101.83 663.204  19
   4   8  -4 2676.91 705.646  20
  -4   8   4 2828.81 747.901  12
   4   8  -4 2991.28 840.733  12
  -4  -8   4 1393.36 510.064   3
   4  -8  -4 2329.42 583.182   3
  -4  -8   3 39243.0 2425.74   3
  -4  -8   3 39474.3 2024.30  13
   4  -8  -3 42334.5 2551.06  13
  -4  -8   3 43009.3 2393.45  19
   4  -8  -3 40720.6 2538.78  19
   4   8  -3 46763.3 2981.86  21
   4   8  -3 44848.3 2665.78  20
   4   8  -3 46473.7 2923.40  12
  -4   8   3 42978.3 2788.43  12
   4  -8  -3 42398.2 2516.92   3
  -4  -8   2 41124.7 2436.49   3
   4  -8  -2 37228.0 2335.66  13
  -4  -8   2 40899.8 2112.64  13
   4   8  -2 44738.3 2647.91  20
  -4  -8   2 40936.4 2343.68  19
   4  -8  -2 43229.7 2589.54  19
   4   8  -2 48195.4 3029.38  21
  -4   8   2 44131.9 2758.50  12
   4   8  -2 47319.3 2931.43  12
   4  -8  -2 45265.9 2685.86   3
   4  -8  -1 5764.26 886.902  13
  -4  -8   1 5565.38 746.642  13
   4  -8  -1 5544.65 920.524  19
   4   8  -1 5433.19 965.770  21
   4   8  -1 5746.41 906.452  20
  -4  -8   1 6218.51 884.334  19
  -4   8   1 7983.62 1113.06  12
   4   8  -1 7594.55 1152.92  12
  -4  -8   1 7072.87 973.031   3
   4  -8  -1 5599.60 982.152   3
  -4  -8   0 9580.05 1008.86  13
   4  -8   0 7287.68 943.338  13
   4   8   0 7487.75 1055.84  20
  -4  -8   0 5500.40 820.682  19
   4  -8   0 7039.10 994.560  19
  -4   8   0 7288.72 1084.69  12
   4   8   0 8527.65 1191.35  12
   4  -8   0 6809.04 1044.83   3
  -4  -8   0 5571.55 873.453   3
  -4  -8  -1 30901.1 2012.86   3
   4  -8   1 34818.2 2047.58  13
  -4  -8  -1 29258.7 1897.87  13
  -4  -8  -1 30802.0 1966.13  19
  -4   8  -1 31876.6 2354.29  21
   4   8   1 33945.0 2252.72  20
   4  -8   1 33917.6 2196.59  19
  -4   8  -1 36867.8 2387.71  12
   4   8   1 37752.4 2535.16  12
   4  -8   1 32546.8 1879.60   5
   4  -8   1 31334.4 2310.45   3
  -4  -8  -2 40926.0 2323.85   3
  -4  -8  -2 42131.9 2377.69  13
   4  -8   2 43322.7 2285.27  13
  -4  -8  -2 41419.7 2342.97  19
   4   8   2 46428.6 2695.66  20
  -4   8  -2 46838.9 2897.37  21
   4  -8   2 40129.8 2445.27  19
  -4   8  -2 46709.9 2776.46  12
   4   8   2 44648.0 2863.84  12
   4  -8   2 46716.0 2357.70   5
   4  -8   2 40317.0 2624.33   3
  -4  -8  -3 1706.55 472.539   3
   4  -8   3 2225.15 684.531   3
   4   8   3 1704.56 603.658  20
   4  -8   3 3233.90 739.554  19
  -4   8  -3 2245.93 667.768  21
  -4  -8  -3 3274.63 659.400  19
   4  -8   3 3131.53 570.865  13
  -4  -8  -3 4138.80 755.989  13
  -4   8  -3 2351.31 675.722  12
   4   8   3 2040.85 718.531  12
   4  -8   3 2751.81 609.621   5
  -4   8  -4 22336.0 2044.79  21
  -4  -8  -4 20161.6 1611.84  19
   4  -8   4 21981.7 1754.14  19
   4   8   4 22573.6 1955.48  20
  -4  -8  -4 18870.6 1644.18  13
   4  -8   4 19220.1 1397.15  13
   4  -8   4 19597.9 1564.77   5
  -4   8  -4 23530.2 2015.08  12
   4   8   4 23687.8 2060.61  12
   4  -8   4 21098.3 1810.35   3
  -4  -8  -5 29809.2 1988.49  19
  -4   8  -5 34883.6 2631.97  21
   4   8   5 34577.9 2514.32  20
   4  -8   5 29323.7 2074.98  19
   4  -8   5 31731.2 2105.17   5
  -4  -8  -5 29445.6 2152.42  13
   4  -8   5 31357.4 2205.79  10
  -4   8  -5 36198.5 2553.21  12
   4   8   5 36835.7 2631.09  12
   4  -8   5 25025.4 1991.78   3
  -4   8  -6 18521.8 1934.34  21
   4  -8   6 13064.8 1377.86  19
   4   8   6 19773.4 1950.36  20
  -4  -8  -6 15870.0 1393.21  19
  -4  -8  -6 16094.6 1677.58  18
   4  -8   6 14505.9 1436.92   5
  -4  -8  -6 13956.8 1522.43  13
   4  -8   6 15138.2 1523.91  10
   4   8   6 16408.6 1799.49  12
  -4   8  -6 16590.7 1739.66  12
   4  -8   6 15702.9 1517.90   3
   4  -8   7 62.2157 327.177   5
   4  -8   7 399.736 393.817  19
  -4  -8  -7-157.958 449.052  18
   4  -8   7 328.387 355.091   3
  -4   8  -7-238.552 558.953  15
  -4  -8  -7-58.5208 394.376  13
  -4   8  -7 230.700 421.172  12
   4   8   7 1032.76 715.857  12
   4  -8   7 613.534 457.001  10
   4  -8   8 5341.62 871.864  19
  -4  -8  -8 6457.64 1157.08  18
   4  -8   8 5657.88 895.916   3
  -4  -8  -8 6093.18 1026.10  13
  -4   8  -8 7136.12 1401.25  15
  -4   8  -8 6025.01 1075.59  11
   4   8   8 9318.57 1386.36  12
   4  -8   8 8622.89 1222.59  10
   4  -8   9 11516.5 1253.28   3
   4  -8   9 11574.8 1326.90  19
  -4  -8  -9 11470.8 1587.98  18
  -4  -8  -9 9783.84 1332.48  13
  -4   8  -9 13551.6 1960.25  15
   4  -8   9 15507.9 1686.55  10
   4   8   9 16607.7 1872.98  12
  -4   8  -9 12780.4 1653.49  11
  -4   8 -10 3140.24 831.021  11
  -4   8 -10 5826.42 1379.44  15
  -4  10   7 2364.56 889.296   8
  -4 -10   7 2505.41 744.004  19
   4  10  -7 1532.39 777.002  21
   4 -10  -7 1457.62 714.605  13
   4  10  -7 3308.98 1056.76  12
  -4  10   7 1886.80 817.184  12
  -4 -10   7 1174.79 580.186   3
  -4  10   6 9370.88 1637.56   8
   4  10  -6 10826.1 1696.90  21
  -4 -10   6 6931.85 1094.42  19
   4 -10  -6 7349.49 1241.36  13
   4  10  -6 8623.84 1470.71  12
  -4  10   6 8643.12 1437.36  12
  -4 -10   6 8709.90 1230.36   3
  -4  10   5 5679.65 1342.61   8
   4 -10  -5 5147.07 1030.26  13
  -4 -10   5 4093.84 898.698   3
  -4  10   5 5735.74 1241.46  12
   4  10  -5 5223.13 1147.43  12
   4  10  -5 6176.94 1314.02  21
  -4 -10   5 3997.29 815.919  19
   4 -10  -4 62.0133 410.880  13
  -4 -10   4 635.940 496.953   3
  -4  10   4 452.662 621.881  12
   4  10  -4 858.028 641.668  12
   4  10  -4-183.750 534.609  21
  -4 -10   4 347.910 378.835  19
   4 -10  -4 311.444 374.271  19
   4  10  -3 12025.8 1643.72  21
   4 -10  -3 12719.8 1475.85  19
  -4 -10   3 13498.9 1465.89  19
   4 -10  -3 12741.6 1447.81  13
  -4 -10   3 12871.9 1471.73   3
  -4  10   3 13654.5 1750.13  12
   4  10  -3 13713.5 1753.98  12
   4 -10  -3 12566.9 1449.03   3
   4  10  -2 14789.4 1594.59  20
   4 -10  -2 14592.4 1560.61  19
  -4 -10   2 14222.3 1495.16  19
   4 -10  -2 12950.3 1445.64  13
  -4 -10   2 14188.6 1504.80   3
  -4  10   2 15587.9 1803.11  12
   4  10  -2 17458.0 1927.18  12
   4 -10  -2 15453.2 1647.40   3
  -4 -10   1 1543.47 533.528  13
   4 -10  -1 1041.62 481.285  13
  -4 -10   1 1797.55 636.606   3
   4 -10  -1 1973.79 728.251   3
  -4  10   1 2145.49 785.976  12
   4  10  -1 907.058 571.327  12
  -4 -10   1 1264.32 525.834  19
   4  10  -1 1313.01 540.518  20
   4 -10  -1 1553.52 613.970  19
  -4 -10   0 900.870 459.700  13
   4 -10   0 5.45106 337.996  13
   4 -10   0 1067.17 568.826   3
  -4 -10   0 1890.40 611.521   3
  -4  10   0 2742.35 827.580  12
   4  10   0 2266.99 833.220  12
   4  10   0 2090.98 643.048  20
  -4 -10   0 958.189 530.647  19
   4 -10   0 2269.44 674.124  19
   4 -10   1 10461.4 1234.78  13
  -4 -10  -1 10659.1 1235.18  13
  -4 -10  -1 10260.3 1267.11   3
   4 -10   1 9142.75 1334.74   3
   4  10   1 12054.6 1673.55  12
  -4  10  -1 12437.6 1582.08  12
   4  10   1 10979.2 1369.35  20
  -4 -10  -1 10546.8 1281.13  19
   4 -10   1 11817.2 1388.94  19
   4 -10   2 15659.0 1447.21  13
  -4 -10  -2 14533.7 1486.07  13
  -4 -10  -2 11382.5 1284.21   3
   4 -10   2 11647.5 1459.95   3
   4  10   2 14978.7 1814.34  12
  -4  10  -2 15658.2 1749.21  12
  -4 -10  -2 11870.1 1375.30  19
   4  10   2 14917.2 1617.11  20
   4 -10   2 11644.3 1380.88  19
  -4 -10  -3 1075.56 543.517  13
   4 -10   3 1523.71 653.915   3
   4  10   3 120.971 522.796  12
  -4  10  -3 1191.79 640.057  12
   4  10   3 448.884 422.768  20
  -4 -10  -3 490.236 460.709  19
   4 -10   3 494.044 459.183  19
  -4  10  -3 1142.93 645.573  21
  -4 -10  -4 3928.09 798.587  13
   4 -10   4 6698.89 1121.95   3
   4  10   4 4045.71 1055.42  12
  -4  10  -4 6340.71 1173.54  12
   4  10   4 7833.81 1214.30  20
  -4 -10  -4 4858.52 882.562  19
   4 -10   4 6020.22 1016.10  19
  -4  10  -4 7775.73 1350.51  21
  -4  10  -5 12435.0 1729.55  21
   4  10   5 12190.7 1585.58  20
   4 -10   5 10860.3 1394.65  19
  -4 -10  -5 10922.7 1273.88  19
  -4 -10  -5 10013.8 1355.88  13
   4  10   5 13587.9 1773.29  12
  -4  10  -5 13031.6 1637.64  12
   4 -10   5 12929.7 1503.71   3
   4 -10   6 3779.48 836.647   3
  -4 -10  -6 4275.87 909.396  13
   4  10   6 6445.26 1298.95  12
  -4  10  -6 5005.19 1099.11  12
   4 -10   6 5067.32 989.187  19
  -4  10  -6 5046.43 1158.08  21
  -5  -1  14 10374.0 1250.07  10
   5   1 -14 8722.98 1591.74   9
  -5   1  14 8760.25 1189.58  10
   5  -1 -14 7192.02 1455.47   9
   5   1 -14 6806.11 1559.46  11
  -5   1  14 7314.51 1091.38   4
   5  -1 -14 7974.80 1553.49  17
   5   1 -14 5558.30 1342.69  17
  -5  -1  13 25490.8 1931.84  10
   5  -1 -13 23541.6 2535.26   9
  -5   1  13 24282.0 1900.48  10
   5   1 -13 19964.8 2349.00   9
   5  -1 -13 19534.5 2206.79  11
   5   1 -13 20450.9 2483.24  11
  -5  -1  13 23643.8 1782.15   4
  -5   1  13 24373.3 1962.10   4
   5   1 -13 22301.9 2511.42  17
   5  -1 -13 22772.1 2540.58  17
  -5  -1  12 12271.9 1262.36  10
  -5   1  12 11781.6 1238.95  10
   5  -1 -12 12288.0 1757.59   9
   5   1 -12 9052.56 1485.11   9
   5  -1 -12 8996.07 1455.91  11
   5   1 -12 9496.84 1609.29  11
  -5  -1  12 11248.4 1173.02   4
  -5   1  12 11617.7 1312.78   4
   5  -1 -12 10055.5 1622.72  17
   5   1 -12 10200.8 1653.80  17
  -5  -1  11 7201.55 902.362  10
  -5   1  11 6735.72 891.122  10
   5  -1 -11 6432.26 1255.58   9
   5   1 -11 4626.93 1054.00   9
   5  -1 -11 4542.72 954.588  11
   5   1 -11 6597.12 1301.02  11
  -5  -1  11 5792.64 816.540   4
  -5   1  11 6097.67 946.626   4
   5  -1 -11 5327.22 1131.20  17
   5   1 -11 5030.77 1130.64  17
  -5  -1  10 62929.6 2756.67  10
   5  -1 -10 54709.9 3449.32   9
  -5   1  10 60062.0 2712.32  10
   5   1 -10 50621.2 3270.53   9
   5   1 -10 49488.8 3330.83  17
   5  -1 -10 52665.2 3373.10  17
   5  -1 -10 48405.8 3090.01  11
   5   1 -10 50421.9 3398.68  11
  -5  -1  10 61160.3 2733.32   4
  -5   1  10 58524.6 2895.53   4
   5  -1  -9 41305.4 2755.47   9
  -5  -1   9 44954.7 2177.28  10
   5   1  -9 37042.9 2632.17   9
  -5   1   9 43671.2 2148.97  10
   5  -1  -9 36217.4 2637.96  17
   5  -1  -9 37160.6 2420.72  18
   5   1  -9 40229.2 2740.93  17
  -5   1   9 45925.6 1831.76  16
   5  -1  -9 37510.2 2503.42  11
   5   1  -9 31889.6 2515.12  11
  -5   1   9 44395.8 2373.94   4
  -5  -1   9 43904.9 2175.11   4
   5  -1  -8 13570.0 902.997   1
  -5  -1   8 11890.1 809.150   3
   5   1  -8 13695.3 1107.40   1
  -5  -1   8 13686.1 1059.40  10
   5   1  -8 11190.7 1273.84   9
   5  -1  -8 13888.5 1446.13   9
  -5   1   8 12108.4 1009.61  10
   5  -1  -8 12942.4 1412.90  17
   5   1  -8 12603.0 1386.02  17
  -5  -1   8 13077.8 870.289  16
   5  -1  -8 9968.06 1132.50  18
  -5   1   8 12681.8 798.093   8
  -5   1   8 12070.0 802.402  16
   5  -1  -8 12295.6 1291.08  11
   5   1  -8 10972.4 1349.99  11
  -5  -1   8 12682.8 1050.43   4
  -5   1   8 14263.1 1213.91   4
   5  -1  -7 27745.2 1263.89   1
  -5   1   7 25790.8 1064.25   3
   5   1  -7 28495.0 1564.80   1
  -5  -1   7 27655.3 1296.54   3
  -5  -1   7 26941.9 1461.38  10
   5   1  -7 24351.2 1802.95   9
  -5   1   7 28439.3 1497.53  10
  -5  -1   7 27508.7 1188.82   8
   5  -1  -7 24731.2 1777.19   9
   5   1  -7 25434.3 1838.29  17
   5  -1  -7 26134.6 1888.65  17
  -5  -1   7 27163.1 1234.16  16
  -5   1   7 26685.3 1227.65   8
   5  -1  -7 27177.9 1381.93  13
   5   1  -7 25881.3 1931.34  14
   5  -1  -7 25188.1 1846.06  14
  -5  -1   7 27936.8 1805.04  14
  -5   1   7 30503.3 1868.74  14
  -5   1   7 27993.0 1197.74  16
   5  -1  -7 23907.0 1697.01  11
   5   1  -7 25515.1 1924.12  11
  -5  -1   7 27537.1 1537.44   4
  -5   1   7 27421.7 1662.91   4
  -5  -1   6 264824. 7164.45   4
  -5   1   6 260152. 7449.15   4
   5   1  -6 265958. 7208.08   1
  -5  -1   6 267056. 6893.99   3
   5  -1  -6 268509. 6713.42   1
  -5  -1   6 256079. 6291.54  19
   5  -1  -6 278064. 7894.01  17
  -5  -1   6 271296. 6666.63  16
   5   1  -6 261093. 7761.79  17
  -5   1   6 271945. 6849.39   8
   5  -1  -6 257364. 7000.16  13
   5   1  -6 248682. 7830.81  14
   5  -1  -6 255197. 7756.92  14
  -5   1   6 286046. 7773.45  14
  -5  -1   6 272695. 7641.38  14
  -5   1   6 262523. 6611.91  16
   5  -1  -6 266852. 7600.10  11
   5   1  -6 249993. 7824.59  11
  -5  -1   6 265102. 6716.32   8
   5  -1  -6 260065. 7657.46   9
  -5  -1   6 267976. 7110.07  10
   5   1  -6 267675. 7825.16   9
  -5   1   6 258164. 7092.74  10
  -5  -1   5 180678. 5126.46   4
  -5   1   5 184727. 5435.22   4
  -5  -1   5 184835. 4952.36   3
   5  -1  -5 178191. 4715.52   1
  -5  -1   5 175146. 4292.88   2
  -5  -1   5 182315. 4541.97  19
   5  -1  -5 192808. 5688.86  17
  -5  -1   5 186650. 4664.61  16
   5   1  -5 182736. 5546.16  17
  -5   1   5 181886. 4969.07   8
   5  -1  -5 176329. 5073.83  13
   5   1  -5 172191. 5586.60  14
   5  -1  -5 184207. 5572.78  14
  -5  -1   5 193073. 5505.42  14
  -5   1   5 200559. 5574.03  14
   5  -1  -5 188655. 5427.34  11
   5   1  -5 175368. 5643.86  11
  -5   1   5 180757. 5167.80  12
   5  -1  -5 181539. 5482.14   9
   5   1  -5 189098. 5573.42   9
  -5  -1   5 180157. 5039.01  10
  -5   1   5 182261. 5087.73  10
  -5  -1   5 183584. 4863.63   8
  -5  -1   4 122.423 134.601   4
  -5  -1   4 473.419 155.271   3
   5  -1  -4 235.715 89.0285   1
  -5  -1   4 854.553 103.465   2
  -5  -1   4 378.906 114.117  19
   5  -1  -4 88.8039 169.316  17
   5   1  -4 1060.01 292.598  17
  -5   1   4 490.897 170.885   8
  -5  -1   4 633.304 177.232   8
  -5  -1   4 388.318 213.799  14
  -5  -1   4 192.434 71.1354  16
   5  -1  -4 153.663 172.599  14
   5   1  -4 125.467 134.115  14
  -5   1   4 397.028 180.467  14
   5  -1  -4 353.522 149.995  13
   5  -1  -4 199.962 145.537  11
   5   1  -4 226.256 189.696  11
  -5   1   4 694.707 199.417  12
  -5  -1   4 1024.28 206.717  10
   5  -1  -4 129.655 177.274   9
   5   1  -4 1663.73 321.671   9
  -5  -1   3 399585. 10003.0   4
  -5   1   3 402575. 10172.8   4
  -5  -1   3 410237. 9556.46   2
  -5  -1   3 399987. 9736.07  19
   5  -1  -3 420383. 10263.3  17
   5   1  -3 428127. 10259.5  17
  -5   1   3 411757. 10061.7   8
   5   1  -3 435001. 10437.9  14
  -5  -1   3 421854. 10221.5  14
  -5   1   3 430586. 10175.9  14
   5  -1  -3 409723. 10186.4  14
   5  -1  -3 404646. 10005.6  13
   5  -1  -3 404120. 10036.4  11
   5   1  -3 421608. 10410.4  11
  -5   1   3 396124. 9952.73  12
   5   1  -3 412403. 10038.6   9
  -5  -1   3 392221. 9801.14  10
   5  -1  -3 405577. 10241.2   9
  -5  -1   3 402997. 9944.50   8
  -5  -1   2 558954. 12964.9   2
  -5  -1   2 561241. 13234.4   8
   5  -1  -2 545703. 13365.6   9
  -5  -1   2 554670. 12975.7  10
   5   1  -2 565113. 13107.0   9
   5   1  -2 553927. 13276.2  17
   5  -1  -2 546073. 13351.6  17
  -5   1   2 558387. 13131.1   7
  -5   1   2 542973. 13313.8   8
   5  -1  -2 543053. 13278.2  14
   5   1  -2 554834. 13408.9  14
  -5  -1   2 570608. 13360.3  14
  -5   1   2 566411. 13271.2  14
   5  -1  -2 559891. 13250.7  13
  -5   1   2 546857. 13073.4  12
   5  -1  -2 565564. 13193.3  11
   5   1  -2 540974. 13424.8  11
  -5  -1   2 574727. 13263.3   4
  -5   1   2 548696. 13263.4   4
  -5  -1   1 96498.8 2769.52   4
  -5   1   1 93515.1 2665.79   4
  -5  -1   1 95227.7 2660.34   2
   5   1  -1 96351.1 2920.87  20
   5   1  -1 103384. 2817.71  17
   5  -1  -1 93093.8 2835.22  17
   5  -1  -1 97995.9 2623.00  16
  -5   1   1 94616.7 2825.49   8
  -5   1   1 94502.8 2767.86   7
  -5   1   1 98010.8 2780.15  14
  -5  -1   1 95943.3 2817.85  14
   5  -1  -1 94056.1 2753.48  13
  -5   1   1 97612.5 2482.25  12
   5  -1  -1 93620.3 2666.51  11
   5   1  -1 92200.5 2823.55  11
  -5  -1   1 96108.8 2491.70  10
  -5  -1   1 95737.8 2769.16   8
   5  -1   0 6079.07 464.138   5
  -5   1   0 6498.38 392.032   4
  -5  -1   0 5572.78 464.457   4
   5  -1   0 5731.47 374.596   1
  -5  -1   0 5953.62 460.015   2
   5   1   0 6220.50 522.069  20
  -5   1   0 7280.83 336.284  21
   5  -1   0 6124.57 296.722  20
   5  -1   0 5930.69 413.703  16
  -5  -1   0 7234.09 461.643  18
  -5   1   0 8101.06 528.655   8
  -5   1   0 6626.54 510.304   7
   5  -1   0 6045.57 452.623  13
   5   1   0 6170.60 479.829  11
   5  -1   0 5732.68 426.976  11
   5   1   0 6641.39 449.713  12
  -5  -1   0 6197.70 463.144   8
  -5  -1  -1 600516. 14198.9   4
  -5   1  -1 594451. 13704.1   4
   5   1   1 588027. 13827.3   5
   5  -1   1 558851. 14094.8   5
   5  -1   1 564336. 13880.3   1
  -5  -1  -1 594397. 14132.3   2
  -5   1  -1 574278. 13942.0   1
   5  -1   1 612932. 13665.9  20
   5   1   1 584851. 14099.1  20
  -5  -1  -1 581500. 14050.5  18
   5  -1   1 589018. 13951.0  16
   5  -1   1 549080. 14039.8   6
   5   1   1 556458. 14209.3   6
  -5   1  -1 612559. 13918.0   8
  -5   1  -1 601095. 14160.8   7
   5   1   1 612212. 13776.7  12
   5   1   1 588321. 14062.1  11
   5  -1   1 602655. 13658.5  10
  -5  -1  -1 589516. 13941.0   8
  -5  -1  -2 644797. 15585.1   4
  -5   1  -2 659030. 15009.3   4
   5  -1   2 614361. 15497.2   5
   5   1   2 637277. 15152.8   5
  -5   1  -2 657145. 15385.7   2
  -5  -1  -2 622892. 15489.0   2
   5  -1   2 615474. 15272.2   1
  -5   1  -2 662353. 15431.3   1
   5   1   2 641677. 15414.5  20
  -5  -1  -2 624566. 15499.2  18
  -5   1  -2 648728. 15435.0   7
  -5   1  -2 651185. 15038.3   8
   5  -1   2 638917. 15443.0   6
   5   1   2 623743. 15595.5   6
   5  -1   2 663959. 15345.5  16
   5   1   2 656979. 15040.1  12
   5  -1   2 648116. 14957.0  10
   5   1   3 66745.3 2100.93   5
   5  -1   3 64413.5 2358.86   5
  -5   1  -3 67359.2 2388.06   1
   5   1   3 58509.0 2123.54   1
  -5   1  -3 67351.9 2258.58   2
   5  -1   3 59753.1 2199.53   1
  -5  -1  -3 65906.3 2408.88   2
   5   1   3 62812.9 2284.65  20
  -5  -1  -3 64889.0 2466.47  18
  -5   1  -3 64379.3 2345.53  18
  -5   1  -3 62673.6 1834.00   8
   5  -1   3 66329.7 2367.45   6
   5   1   3 65456.5 2457.96   6
  -5   1  -3 66907.9 2250.08   7
   5  -1   3 64934.7 2258.23  16
  -5  -1  -3 66023.4 2296.86  15
   5   1   3 63366.1 2219.88  16
   5   1   3 63696.3 1997.76  12
   5  -1   3 62013.7 1959.17  10
  -5   1  -4 45704.0 1863.24   2
  -5  -1  -4 46624.8 2064.13   2
  -5   1  -4 47882.0 2055.34   1
   5  -1   4 44860.2 1903.59   1
   5   1   4 43006.1 1786.90   1
  -5  -1  -4 49393.9 2231.80   9
   5  -1   4 46409.4 1674.45  10
   5   1   4 44842.6 1671.41  10
  -5  -1  -4 46073.8 2163.97  18
  -5   1  -4 46071.2 2017.66  18
  -5   1  -4 46731.4 1812.51   7
   5   1   4 47276.3 2115.95   6
   5  -1   4 44449.0 2002.13   6
  -5   1  -4 48148.0 1365.60   8
   5  -1   4 45546.6 1898.55  16
  -5  -1  -4 49401.1 2074.55  15
   5   1   4 44674.5 1860.74  16
   5   1   4 46569.4 1690.89  12
   5   1   4 45639.1 1742.00   5
   5  -1   4 48571.7 2027.99   5
  -5   1  -5 262212. 7062.49   2
  -5   1  -5 273912. 7415.14   1
  -5  -1  -5 256619. 7385.38   2
   5   1   5 247083. 6933.82   1
   5  -1   5 255348. 7128.45   1
  -5  -1  -5 270767. 7742.13   9
   5   1   5 258440. 6755.27  10
   5  -1   5 255123. 6766.75  10
  -5  -1  -5 257008. 7638.23  18
  -5   1  -5 259437. 7376.75  18
   5   1   5 248416. 6797.84   5
   5  -1   5 265036. 7346.79   6
  -5   1  -5 255868. 6811.79   7
   5   1   5 267565. 7485.23   6
   5  -1   5 252017. 7041.75  16
  -5   1  -5 253846. 7606.21  15
  -5  -1  -5 261973. 7405.70  15
   5   1   5 259112. 7025.31  16
   5   1   5 256512. 6765.05  12
   5  -1   5 260158. 7204.34   5
  -5  -1  -6 168409. 5710.92   9
  -5   1  -6 163625. 5787.14   9
   5   1   6 161364. 4697.53  10
   5  -1   6 158912. 4713.93  10
  -5  -1  -6 169293. 5719.59  18
  -5   1  -6 155112. 5324.73  18
   5  -1   6 159643. 5056.43   5
   5  -1   6 162693. 5281.15   6
   5   1   6 162526. 5383.59   6
   5   1   6 154722. 4734.74   5
  -5   1  -6 154459. 5538.40  15
   5  -1   6 162445. 4962.44  16
  -5   1  -6 151654. 6123.34  14
  -5  -1  -6 163466. 6184.91  14
  -5  -1  -6 166614. 5414.85  15
   5   1   6 160475. 4930.30  16
   5   1   6 161867. 4733.15  12
   5   1   6 156894. 4909.86   1
  -5   1  -6 177996. 5423.97   1
  -5  -1  -6 160043. 5334.59   2
  -5   1  -6 164703. 5045.73   2
   5  -1   6 161239. 5100.67   1
  -5   1  -7 28239.8 2103.52   9
   5  -1   7 26886.5 1459.52  10
   5   1   7 25805.8 1417.12  10
  -5  -1  -7 27070.7 1996.26   9
  -5   1  -7 26314.7 1866.41  18
  -5  -1  -7 27296.3 1994.30  18
   5   1   7 25925.2 1796.84   6
   5  -1   7 23580.8 1547.91   5
   5   1   7 24500.5 1397.60   5
   5  -1   7 24536.6 1678.03   6
   5   1   7 27135.8 1563.83  16
   5  -1   7 26078.2 1549.59  16
  -5  -1  -7 28013.1 1854.88  15
  -5   1  -7 25892.6 1977.25  15
   5   1   7 22921.5 1364.09  12
  -5  -1  -7 24622.8 1739.67   2
  -5   1  -7 25441.8 1595.42   2
  -5  -1  -8 17385.9 1793.82  17
  -5  -1  -8 19422.7 1757.44  18
  -5   1  -8 18613.6 1672.56  18
   5   1   8 17906.2 1565.28   6
   5  -1   8 19317.1 1540.93   6
   5  -1   8 17240.1 1348.62   5
   5  -1   8 20066.5 1397.37  16
  -5   1  -8 17047.9 1683.48  15
   5   1   8 18854.7 1345.37  16
  -5  -1  -8 16877.7 1478.50   2
  -5   1  -8 19120.9 1439.07   2
   5  -1   8 17656.4 1224.26  10
   5   1   8 18370.2 1252.07  10
  -5  -1  -8 21722.2 1863.97   9
  -5   1  -8 15205.7 1696.95   9
  -5   1  -9 98406.1 4653.93  18
  -5   1  -9 100130. 5189.97  17
  -5  -1  -9 105565. 4827.09  18
  -5  -1  -9 104329. 5112.56  17
   5   1   9 117437. 4678.46   6
   5  -1   9 114797. 4473.05   6
   5  -1   9 114681. 4160.37  16
   5   1   9 113957. 4159.77  16
  -5   1  -9 117655. 5139.82  15
  -5   1  -9 108013. 4222.03   2
  -5  -1  -9 95568.7 4290.48   2
  -5  -1  -9 115155. 5002.44   9
   5  -1   9 103477. 3848.13  10
  -5   1  -9 117164. 5271.66   9
   5   1   9 107701. 3870.99  10
  -5  -1 -10 36826.2 2702.31  18
  -5   1 -10 30987.0 2456.65  18
  -5  -1 -10 31623.2 2685.55  17
  -5   1 -10 30706.2 2736.30  17
   5  -1  10 36589.7 2153.47  16
   5  -1  10 34327.2 2251.03   6
   5   1  10 34697.2 2372.13   6
   5   1  10 37663.0 2178.23  16
  -5   1 -10 39945.2 2879.43  15
  -5  -1 -10 29842.7 2181.39   2
   5  -1  10 34423.5 1977.72  10
   5   1  10 32385.2 1927.56  10
  -5  -1 -10 33370.5 2631.31   9
  -5   1 -10 35552.8 2839.85   9
   5  -1  11 1627.31 577.471  16
   5   1  11 1127.27 425.910  16
   5   1  11 408.097 463.819   6
   5  -1  11 756.261 486.334   6
   5  -1  11 888.997 425.148  10
  -5  -1 -11 1166.44 702.763   9
  -5   1 -11 1390.66 691.518   9
   5   1  11 934.611 458.460  10
  -5   1 -11 457.200 454.904  18
  -5  -1 -11 661.677 512.444  17
  -5   1 -11 585.682 522.186  17
  -5  -1 -11 754.342 565.539  18
   5   1  12 12937.1 1359.80  16
   5  -1  12 11180.5 1376.13   6
   5   1  12 11908.0 1444.29   6
  -5   1 -12 12003.0 1784.64   9
  -5  -1 -12 13754.0 1802.31   9
   5   1  12 11089.4 1212.61  10
   5  -1  12 11854.7 1237.95  10
  -5  -1 -12 10545.3 1701.37  17
  -5   1 -12 10677.4 1729.87  17
   5  -1  12 12379.9 1354.24  16
  -5  -1 -12 9594.14 1518.84  18
  -5   1 -12 10647.8 1522.57  18
   5   1  13 13062.7 1427.82  16
  -5  -1 -13 11501.4 1775.42   9
  -5   1 -13 11198.0 1841.62   9
   5   1  13 14024.4 1414.26  10
   5  -1  13 12261.9 1342.12  10
   5   1  13 12805.4 1601.23   6
   5  -1  13 14131.1 1575.44   6
   5  -1  13 13283.7 1484.07  16
  -5  -1 -13 10884.8 1768.81  17
  -5   1 -13 11820.8 1903.08  17
  -5  -1 -13 9134.51 1500.21  18
   5   3 -14 5107.08 1299.28  17
  -5   3  14 5831.50 1130.37   4
   5   3 -14 5803.81 1445.45   9
   5  -3 -13 17353.0 2157.07  17
   5   3 -13 17477.9 2263.80  17
   5   3 -13 15954.5 2353.33  11
  -5   3  13 21640.1 2033.21   4
  -5  -3  13 21594.8 1819.97  10
  -5   3  13 19848.6 1804.67  10
   5  -3 -13 17217.7 2191.40   9
   5   3 -13 15923.0 2115.63   9
   5  -3 -12 6600.70 1277.28  17
   5   3 -12 9676.39 1628.98  17
   5   3 -12 6725.54 1477.53  11
  -5   3  12 8822.52 1268.65   4
  -5  -3  12 9047.11 1151.47  10
  -5   3  12 8358.63 1118.24  10
   5  -3 -12 10702.3 1649.32   9
   5   3 -12 9411.90 1498.51   9
   5  -3 -11 3492.27 906.180  17
   5   3 -11 4658.31 1092.52  17
   5   3 -11 5489.43 1291.74  11
  -5   3  11 5584.94 989.787   4
   5   3 -11 6080.76 1187.78   9
  -5  -3  11 5543.11 880.617  10
  -5   3  11 7594.27 1022.33  10
   5  -3 -11 7093.95 1266.13   9
   5   3 -10 35067.3 2755.27  17
   5  -3 -10 33438.7 2640.86  17
   5  -3 -10 41977.6 2855.44   9
  -5  -3  10 40341.4 2273.08  10
   5   3 -10 40147.3 2865.85   9
  -5   3  10 38450.2 2259.37  10
   5   3 -10 34219.4 2963.76  11
  -5  -3  10 41015.1 2072.38   4
  -5  -3   9 34669.1 1782.94   3
   5  -3  -9 41124.4 2641.91   9
  -5  -3   9 38196.6 2114.73  10
   5   3  -9 35124.3 2502.16   9
  -5   3   9 37485.2 2158.19  10
   5  -3  -9 35452.0 2576.91  17
   5   3  -9 32227.6 2474.17  17
   5  -3  -9 43597.8 2444.14  13
  -5   3   9 38354.6 1870.70  16
   5  -3  -9 36771.4 2210.81  11
   5   3  -9 32919.3 2726.94  11
  -5   3   9 41209.9 2279.72  12
  -5  -3   9 40820.4 1985.31   4
  -5  -3   8 7677.15 780.061   3
  -5  -3   8 8001.37 846.494  10
   5   3  -8 7126.39 1005.58   9
   5  -3  -8 8578.12 1110.59   9
   5  -3  -8 8311.03 1155.62  17
   5   3  -8 7010.75 1037.40  17
  -5   3   8 8415.21 794.644   8
   5  -3  -8 8578.56 1010.43  13
  -5   3   8 8633.06 960.664  12
   5  -3  -8 7816.41 862.318  11
   5   3  -8 6630.77 1116.81  11
  -5  -3   8 7470.11 761.209   4
  -5  -3   7 22970.3 1285.71   4
  -5  -3   7 19677.3 1264.21   3
  -5  -3   7 20533.6 1080.22  19
   5   3  -7 20593.8 1626.25  17
   5  -3  -7 22085.1 1645.82  17
  -5   3   7 22449.3 1370.67   8
   5  -3  -7 21561.6 1570.32  14
   5  -3  -7 21222.5 1588.08  13
  -5   3   7 23029.0 1615.51  14
   5   3  -7 19850.1 1800.32  11
   5  -3  -7 21395.9 1314.46  11
  -5   3   7 21193.1 1455.53  12
   5  -3  -7 23737.3 1679.08   9
  -5  -3   7 22757.4 1414.48  10
   5   3  -7 18094.2 1505.55   9
  -5  -3   6 188068. 5210.24   4
  -5  -3   6 173176. 5308.66   3
  -5  -3   6 175406. 4988.42  19
   5   3  -6 177826. 5743.15  17
   5  -3  -6 183574. 5768.05  17
  -5   3   6 186128. 5525.32   8
   5   3  -6 168754. 5894.09  14
   5  -3  -6 183524. 5664.75  14
   5  -3  -6 179499. 5898.25  13
  -5  -3   6 191679. 5806.00  14
  -5   3   6 187072. 5780.04  14
   5  -3  -6 184347. 5143.54  11
   5   3  -6 186783. 6293.27  11
  -5   3   6 188303. 5575.40  12
   5  -3  -6 190079. 5837.82   9
  -5  -3   6 189797. 5417.34  10
   5   3  -6 157620. 5578.41   9
  -5  -3   5 164103. 4683.34   4
  -5  -3   5 151183. 4833.04   3
  -5  -3   5 156993. 4579.80  19
   5  -3  -5 168649. 4497.93  19
   5  -3  -5 162389. 5069.81  17
   5   3  -5 162496. 4998.81  17
  -5   3   5 172816. 4515.08   7
  -5   3   5 165699. 5118.02   8
  -5  -3   5 169615. 5133.52  14
   5   3  -5 155021. 5217.70  14
   5  -3  -5 162417. 4892.73  14
   5  -3  -5 167986. 5419.04  13
  -5   3   5 180705. 5256.55  14
   5  -3  -5 170959. 4523.80  11
   5   3  -5 156442. 5438.57  11
  -5   3   5 162674. 4958.07  12
   5   3  -5 157968. 4976.08   9
   5  -3  -5 161108. 5155.23   9
  -5  -3   5 168450. 4839.83  10
  -5  -3   4 1901.62 324.011   4
  -5  -3   4 988.085 245.954  19
   5  -3  -4 1440.67 284.051  19
   5   3  -4 1216.83 269.680  17
   5  -3  -4 1500.21 317.827  17
  -5   3   4 832.056 266.644   8
  -5   3   4 1622.31 303.190   7
  -5  -3   4 1204.60 158.748  13
  -5  -3   4 1268.49 297.646  14
   5  -3  -4 1251.58 348.168  13
   5  -3  -4 1386.64 273.296  14
  -5   3   4 1415.69 305.543  14
   5   3  -4 1298.06 319.187  14
  -5   3   4 2890.23 423.648  12
   5  -3  -4 1209.08 200.072  11
   5   3  -4 914.939 327.987  11
   5   3  -4 1593.30 291.721   9
   5  -3  -4 1379.55 354.367   9
  -5  -3   4 1561.95 308.167  10
  -5  -3   3 228424. 6333.80   4
  -5  -3   3 237863. 6622.84   3
   5   3  -3 235854. 6869.19  20
  -5  -3   3 243642. 6440.13  19
   5  -3  -3 236055. 6549.50  19
   5  -3  -3 241301. 6510.36  17
   5   3  -3 244861. 6299.59  17
  -5   3   3 236780. 6943.87   8
   5  -3  -3 241079. 6218.72  14
   5   3  -3 241585. 6648.73  14
   5  -3  -3 244934. 6916.90  13
  -5  -3   3 248524. 6519.53  14
  -5   3   3 256406. 6350.60  14
   5   3  -3 247950. 6887.63  11
   5  -3  -3 246930. 5916.13  11
  -5   3   3 234634. 6474.66  12
   5   3  -3 250529. 6122.42   9
   5  -3  -3 241145. 6660.98   9
  -5  -3   3 237662. 6407.16  10
  -5  -3   2 354761. 8869.94   4
   5  -3  -2 348359. 8777.68   5
  -5  -3   2 357009. 8664.57   2
  -5  -3   2 352878. 9075.31   3
   5   3  -2 360241. 9435.61  20
  -5  -3   2 354685. 8920.56  19
   5  -3  -2 348548. 9175.55  19
  -5  -3   2 377542. 8153.25  18
   5   3  -2 346122. 8572.87  17
   5  -3  -2 350159. 8853.59  17
  -5   3   2 331606. 9439.43   8
   5  -3  -2 354608. 9294.02  13
  -5  -3   2 355978. 8831.08  14
  -5   3   2 377879. 8624.60  14
   5   3  -2 352197. 8958.88  14
   5   3  -2 348065. 9072.38  11
   5  -3  -2 369001. 8342.42  11
  -5   3   2 344154. 8852.69  12
   5  -3  -2 349813. 9072.18   9
  -5  -3   2 349133. 8894.96  10
   5   3  -2 358729. 8211.13   9
  -5  -3   1 94186.5 2888.46   2
  -5   3   1 88508.6 2444.62   1
  -5  -3   1 93441.7 3016.65   3
   5   3  -1 86997.9 3080.70  21
  -5  -3   1 87473.8 2891.21  19
   5  -3  -1 90327.6 3170.14  19
   5   3  -1 86609.7 3172.54  20
  -5  -3   1 93940.3 2540.27  18
  -5   3   1 86262.3 3295.10   8
   5  -3  -1 94187.7 3116.88  13
  -5   3   1 91423.7 2517.25  14
  -5  -3   1 88654.6 2720.27  14
  -5   3   1 90773.8 2832.24  12
  -5  -3   1 88205.3 2870.58  10
   5   3  -1 88703.8 2854.22  11
  -5  -3   1 88497.2 2911.79   4
   5  -3  -1 87599.9 2785.99   5
  -5   3   0 10828.1 672.421   1
  -5  -3   0 9272.66 765.224   2
  -5  -3   0 10231.8 757.244   3
   5   3   0 10871.6 821.388  21
  -5   3   0 9100.28 740.492  21
   5  -3   0 8955.91 821.009  19
   5   3   0 8926.01 821.458  20
  -5  -3   0 10879.1 782.282  19
  -5  -3   0 9902.26 662.704  18
  -5   3   0 9701.05 906.113   8
  -5  -3   0 12020.9 699.648  14
   5  -3   0 11935.4 843.771  13
   5   3   0 9422.22 674.509  11
  -5   3   0 9703.57 689.253  12
   5   3   0 9518.29 812.758  12
   5  -3   0 10784.7 753.371   5
   5  -3   0 10640.0 888.485   3
  -5  -3   0 9462.12 761.097   4
  -5   3  -1 317859. 7225.35   4
   5  -3   1 308931. 8108.79   5
   5  -3   1 319132. 8573.47   3
  -5  -3  -1 313750. 8317.59   4
   5   3   1 306530. 7186.89   5
  -5  -3  -1 316613. 7974.45   3
  -5   3  -1 318361. 8080.48   1
   5  -3   1 300337. 7772.27   1
  -5  -3  -1 313548. 8312.11   2
  -5   3  -1 303500. 8098.49  21
  -5   3  -1 312655. 7254.63  20
   5   3   1 304132. 8330.94  20
   5  -3   1 317634. 8355.94  19
  -5  -3  -1 307216. 8076.56  18
   5  -3   1 299968. 8117.37  16
  -5   3  -1 300987. 8384.73   8
   5  -3   1 322158. 7557.03   6
   5   3   1 307677. 8005.84   6
   5  -3   1 314761. 8032.20  13
   5   3   1 306738. 7852.82  11
   5   3   1 303729. 8160.36  12
  -5   3  -1 305852. 7929.57  12
   5  -3   1 319032. 8047.53  10
  -5  -3  -1 326816. 7353.38   9
  -5  -3  -2 474349. 12332.7   4
   5  -3   2 484873. 12473.2   3
   5  -3   2 486768. 12102.3   5
   5  -3   2 462513. 11792.6   1
  -5   3  -2 509309. 12194.6   1
  -5  -3  -2 462063. 12246.8   2
  -5  -3  -2 476239. 11662.7   3
   5  -3   2 505773. 12207.4  19
   5   3   2 469030. 12177.2  20
  -5  -3  -2 448946. 12041.6  18
   5  -3   2 471092. 11969.0  16
   5   3   2 471550. 11933.3   6
   5  -3   2 497460. 11473.7   6
  -5   3  -2 461589. 12036.1   8
   5  -3   2 488958. 11783.6  13
   5   3   2 480339. 11741.3  11
   5   3   2 474084. 11904.1  12
   5  -3   2 482467. 11761.6  10
  -5  -3  -2 501808. 11474.5   9
   5  -3   3 44692.8 2058.55   5
   5  -3   3 44063.9 2184.41   3
  -5   3  -3 48481.4 2216.60   1
   5  -3   3 44314.2 1904.96   1
  -5  -3  -3 45672.8 2194.63   2
  -5  -3  -3 44238.4 1687.56   3
   5  -3   3 47299.1 2060.13  19
   5   3   3 40731.6 2007.65  20
   5  -3   3 43904.4 1962.78  16
  -5  -3  -3 45460.2 2156.46  18
  -5   3  -3 41966.5 1814.22   8
   5   3   3 42939.1 1969.24   6
   5  -3   3 43353.6 1707.02   6
   5  -3   3 43023.9 1727.46  13
   5   3   3 40725.1 1813.63  12
   5  -3   3 44440.4 1780.18  10
  -5  -3  -3 46419.2 1790.01   9
   5  -3   4 44105.2 2137.84   5
   5  -3   4 44912.7 2213.07   3
  -5  -3  -4 42728.7 1588.33   3
  -5   3  -4 43245.2 1875.24   2
   5  -3   4 39494.9 1907.21   1
  -5   3  -4 47541.7 2275.59   1
  -5  -3  -4 40337.0 2176.23   2
   5   3   4 41383.0 2083.50  20
   5  -3   4 42806.0 1985.11  19
   5  -3   4 40940.1 1963.61  16
  -5  -3  -4 44578.8 2224.48  18
   5   3   4 41351.0 2029.46   6
   5  -3   4 43416.8 1816.68   6
  -5   3  -4 38076.5 2059.97   7
  -5   3  -4 41816.7 1652.42   8
  -5   3  -4 45020.9 2445.17  14
   5   3   4 40266.7 1821.45  12
   5  -3   4 38487.3 1700.58  10
  -5  -3  -4 43628.5 1904.84   9
   5  -3   5 175630. 5417.50   3
   5  -3   5 177173. 5471.04   5
  -5  -3  -5 168404. 4429.21   3
   5  -3   5 157065. 5160.16   1
  -5  -3  -5 168023. 5649.51   2
   5   3   5 159879. 4886.78   1
  -5   3  -5 194987. 5804.70   1
  -5   3  -5 175368. 5034.80   2
   5   3   5 165624. 5411.34  20
   5  -3   5 165724. 5131.56  19
   5  -3   5 169253. 5244.73  16
  -5  -3  -5 173055. 5709.21  18
  -5   3  -5 167011. 5222.60  18
  -5   3  -5 160238. 5308.19   7
  -5   3  -5 163313. 4456.59   8
   5  -3   5 163053. 4980.48   6
   5   3   5 174015. 5452.92   6
  -5   3  -5 166842. 6076.41  14
   5   3   5 160553. 4979.63  12
   5  -3   5 159108. 4846.98  10
  -5  -3  -5 165905. 5227.12   9
  -5  -3  -6 130176. 4911.68   2
   5   3   6 132607. 4249.86   1
  -5   3  -6 129841. 4184.58   2
   5  -3   6 128024. 4193.33  10
  -5  -3  -6 135263. 4658.53   9
  -5  -3  -6 133563. 5012.60  18
   5  -3   6 132146. 4534.12  16
  -5   3  -6 128898. 4568.90  18
  -5   3  -6 134880. 4547.94   7
   5  -3   6 135437. 4372.60   6
   5  -3   6 133142. 4674.11   5
   5   3   6 124199. 4639.99   6
  -5   3  -6 131021. 5422.57  14
  -5  -3  -6 127788. 5231.99  14
   5   3   6 132211. 4318.56  12
   5  -3   6 136547. 4478.15   3
  -5  -3  -7 17430.1 1532.69   2
  -5   3  -7 14217.6 1089.31   2
  -5   3  -7 12805.5 1533.40   9
   5  -3   7 15622.2 1182.60  10
  -5  -3  -7 15235.0 1332.02   9
  -5  -3  -7 14093.3 1432.89  17
  -5  -3  -7 15587.4 1534.07  18
  -5   3  -7 13622.8 1287.12  18
   5  -3   7 16055.0 1328.16  16
   5   3   7 15692.7 1400.05   6
   5  -3   7 16144.2 1236.03   6
   5  -3   7 14841.0 1322.67   5
  -5   3  -7 15307.8 1232.71   7
   5   3   7 12965.5 1158.91  16
  -5   3  -7 16697.6 1722.74  15
   5   3   7 12286.2 1087.26  12
   5  -3   7 14292.8 1108.17   3
   5  -3   8 13422.4 1166.03  10
  -5  -3  -8 13360.7 1369.38   9
   5   3   8 12681.6 1115.15  10
  -5   3  -8 13016.7 1623.75   9
  -5  -3  -8 12875.3 1462.17  18
   5  -3   8 14036.5 1296.14  16
  -5   3  -8 12826.7 1369.10  18
  -5  -3  -8 14442.9 1560.98  17
  -5   3  -8 14085.1 1170.91   7
   5  -3   8 13361.2 1162.55   6
   5   3   8 13831.8 1379.13   6
   5  -3   8 11626.7 1193.38   5
   5   3   8 13922.5 1250.07  16
  -5   3  -8 13042.4 1580.91  15
   5   3   8 13093.2 1160.86  12
  -5  -3  -8 11587.1 1333.70   2
  -5   3  -9 75218.5 4384.99   9
   5  -3   9 79097.5 3336.64  10
  -5  -3  -9 80535.9 3860.35   9
   5   3   9 80427.0 3352.52  10
  -5  -3  -9 77313.2 4082.22  18
  -5   3  -9 72150.4 4269.67  17
   5  -3   9 83960.8 3647.82  16
  -5   3  -9 79779.5 3959.74  18
  -5  -3  -9 78695.6 4069.27  17
   5   3   9 84878.9 3895.16   6
   5  -3   9 75992.1 3557.72   5
   5  -3   9 78211.0 3313.38   6
   5   3   9 81341.9 3512.12  16
  -5   3  -9 82871.4 4488.89  15
   5   3   9 74988.0 3338.44  12
  -5  -3  -9 72073.8 3778.60   2
  -5   3 -10 27766.6 2268.01  18
  -5  -3 -10 28146.5 2455.91  18
   5  -3  10 32597.0 2177.30  16
  -5  -3 -10 27803.9 2392.60  17
  -5   3 -10 27663.9 2584.04  17
   5  -3  10 25900.2 1805.91   6
   5   3  10 32599.5 2311.00   6
   5   3  10 29494.6 2021.15  16
  -5   3 -10 26990.7 2598.66  15
  -5  -3 -10 23326.7 1887.75  13
   5   3  10 30581.3 2012.36  12
  -5   3 -10 24695.5 2498.06   9
   5  -3  10 28131.9 1911.67  10
  -5  -3 -10 29406.8 2351.89   9
   5   3  10 29684.4 1939.54  10
   5  -3  11 887.627 469.112  16
   5   3  11 979.341 454.440  16
  -5   3 -11 536.209 704.740  15
   5  -3  11 933.495 441.745   6
   5   3  11 828.899 582.139   6
  -5   3 -11 1830.21 872.798  17
  -5  -3 -11 160.021 482.574  18
  -5  -3 -11 627.628 480.626  17
  -5  -3 -11 1313.33 644.941   9
   5   3  11 968.462 463.599  10
  -5   3 -11 1154.73 738.191   9
   5  -3  11 1273.49 497.810  10
   5   3  12 8178.60 1154.55  16
   5  -3  12 9032.34 1226.28  16
   5  -3  12 6568.46 969.115   6
   5   3  12 9163.49 1317.72   6
  -5   3 -12 7940.90 1515.59  17
  -5  -3 -12 7920.21 1380.32  17
  -5  -3 -12 6605.91 1274.17  18
  -5  -3 -12 7992.95 1352.39   9
   5   3  12 7755.32 1079.28  10
  -5   3 -12 6021.90 1415.89   9
   5  -3  12 8540.61 1130.33  10
   5   3  13 11718.7 1385.05  16
   5  -3  13 12040.8 1457.81  16
  -5   3 -13 6911.06 1485.93  17
  -5  -3 -13 12166.3 1782.68  17
  -5  -3 -13 9034.93 1561.91  18
   5   3  13 10991.0 1322.23  10
  -5   3 -13 12051.2 1994.74   9
  -5  -3 -13 10847.2 1673.76   9
   5  -3  13 11863.7 1347.26  10
   5   3  13 9781.78 1402.78   6
   5  -3  13 10076.4 1255.05   6
   5  -5 -13 11453.2 1730.20   9
   5  -5 -13 9651.03 1563.60  17
   5  -5 -12 4270.91 1060.08  17
  -5   5  12 4211.96 911.525  10
   5  -5 -12 6892.93 1305.43   9
  -5  -5  12 6650.09 1066.45  10
   5   5 -12 4370.19 1351.96  11
   5  -5 -11 3789.01 951.213  17
   5   5 -11 2407.83 854.537  11
  -5   5  11 2576.90 757.881  12
  -5   5  11 3666.09 842.201  10
   5  -5 -11 2823.52 846.536   9
  -5  -5  11 2145.33 665.893  10
   5  -5 -10 28842.6 2332.72   9
  -5  -5  10 29784.6 2063.13  10
   5  -5 -10 28397.4 2238.73  17
   5   5 -10 25695.6 2264.86  17
   5  -5 -10 27163.7 2245.64  13
   5   5 -10 25534.9 2751.73  11
  -5   5  10 25927.8 2140.18  12
  -5  -5  10 23436.7 1618.81   3
   5  -5  -9 19245.8 1800.20   9
  -5  -5   9 21479.4 1659.26  10
   5  -5  -9 17204.1 1624.11  17
   5   5  -9 15797.5 1614.13  17
  -5   5   9 18560.4 1517.99   8
   5  -5  -9 18920.3 1818.60  13
   5   5  -9 16766.5 2050.69  11
  -5   5   9 19836.0 1737.14  12
  -5  -5   9 16487.1 1338.42   3
   5   5  -8 6922.47 1012.09   9
   5  -5  -8 6174.90 969.365   9
  -5  -5   8 7445.46 945.326  10
   5  -5  -8 5677.94 886.156  17
   5   5  -8 4649.85 806.029  17
  -5   5   8 8436.30 1020.71   8
   5  -5  -8 5635.64 975.465  13
   5   5  -8 7434.73 1270.48  11
  -5   5   8 6281.84 976.582  12
  -5  -5   8 5475.84 759.774   3
  -5  -5   7 12931.4 979.784   4
  -5  -5   7 13249.5 1159.18   3
  -5  -5   7 12692.4 1012.74  19
   5  -5  -7 12044.4 1163.82  17
   5   5  -7 13126.6 1197.39  17
  -5   5   7 13808.2 1340.58   8
   5  -5  -7 12495.0 1417.32  13
   5   5  -7 12449.3 1512.53  11
  -5   5   7 12607.1 1255.78  12
   5  -5  -7 15063.0 1355.03   9
  -5  -5   7 12537.5 1144.42  10
   5   5  -7 11715.1 1188.13   9
  -5  -5   6 124138. 3863.47   4
  -5  -5   6 115343. 4158.26   3
  -5  -5   6 114460. 3970.47  19
   5   5  -6 112029. 3980.87  17
   5  -5  -6 124344. 4205.58  17
  -5   5   6 121560. 4704.60   8
   5  -5  -6 119736. 4807.13  13
  -5  -5   6 111224. 4216.89  14
   5   5  -6 117739. 4884.31  11
  -5   5   6 127241. 4573.58  12
   5  -5  -6 129196. 4476.18   9
  -5  -5   6 130385. 4311.23  10
   5   5  -6 106493. 4040.96   9
  -5  -5   5 76175.8 2758.23   4
   5  -5  -5 82952.0 2791.11   5
  -5  -5   5 71056.4 3024.46   3
   5   5  -5 74833.9 3357.09  20
  -5  -5   5 76057.1 2940.81  19
   5  -5  -5 89536.9 3308.36  19
   5   5  -5 74319.0 2672.86  17
   5  -5  -5 79915.5 2967.42  17
  -5   5   5 84013.3 3684.79   8
   5   5  -5 67447.4 2970.66  14
   5  -5  -5 81773.0 3633.73  13
  -5  -5   5 69700.6 2941.98  14
   5   5  -5 77995.2 3201.83  15
  -5   5   5 81031.1 3319.93  12
   5   5  -5 75089.2 3472.70  11
   5  -5  -5 81074.3 3195.66   9
  -5  -5   5 78451.0 3084.23  10
  -5  -5   4 197.504 200.078   4
   5  -5  -4 367.585 200.414   5
  -5  -5   4 358.219 265.745   3
   5  -5  -4 360.473 305.391  19
  -5  -5   4 36.7259 198.252  19
   5   5  -4-145.169 286.200  20
   5  -5  -4 280.557 188.110  17
   5   5  -4 244.368 139.329  17
  -5   5   4 489.280 381.876   8
  -5  -5   4 6.42869 125.552  13
   5  -5  -4 405.488 351.997  13
  -5  -5   4 276.937 201.794  14
   5   5  -4 413.947 238.898  14
   5   5  -4 118.774 202.986  15
  -5   5   4-351.766 374.990  12
   5   5  -4 581.109 325.879  11
  -5  -5   4 181.860 223.816  10
   5  -5  -4 185.661 235.155   9
   5  -5  -3 138369. 4065.72   5
  -5  -5   3 133561. 4177.88   4
  -5  -5   3 130075. 4291.41  19
   5  -5  -3 138142. 4737.07  19
   5   5  -3 136297. 4853.17  20
   5  -5  -3 139158. 4087.36  17
   5  -5  -3 135779. 4813.72  13
  -5  -5   3 130692. 4052.98  14
  -5  -5   3 132212. 3943.51  13
   5   5  -3 131297. 4037.16  15
  -5  -5   3 134650. 4481.51  10
   5  -5  -3 141757. 4484.43   9
   5   5  -3 138966. 4578.63  11
  -5   5   3 142367. 4646.68  12
  -5  -5   3 127631. 4464.19   3
  -5  -5   2 166988. 5310.10   3
  -5   5   2 192999. 4500.45   1
   5  -5  -2 170318. 5474.72  13
  -5  -5   2 169951. 4701.52  14
  -5   5   2 155123. 4078.22  14
  -5  -5   2 162855. 4815.13  13
   5   5  -2 157455. 4462.77  15
  -5  -5   2 166641. 5107.13  19
   5  -5  -2 178113. 5641.54  19
   5   5  -2 174169. 5680.82  20
   5   5  -2 169315. 5712.42  21
  -5   5   2 168479. 5338.80  12
  -5  -5   2 167979. 5270.99  10
   5   5  -2 180048. 5236.18  11
  -5  -5   2 172641. 5054.57   4
   5  -5  -2 171480. 5508.62   3
   5  -5  -2 177577. 4895.37   5
  -5  -5   1 40564.6 2073.35   3
  -5   5   1 48568.2 1800.00   1
   5   5  -1 41325.3 2245.43  21
  -5  -5   1 40110.7 1953.63  19
   5  -5  -1 45809.0 2323.08  19
  -5   5   1 43462.8 1532.40  20
   5   5  -1 43677.1 2252.42  20
   5  -5  -1 42828.7 2156.82  13
  -5  -5   1 43112.6 1623.40  14
  -5  -5   1 37278.4 1801.34  13
  -5   5   1 39805.8 2060.60  12
   5   5  -1 41306.3 2261.79  12
   5   5  -1 42791.7 1843.75  11
  -5  -5   1 39434.7 1925.85   4
   5  -5  -1 50583.7 2459.99   3
   5  -5  -1 39070.5 1803.02   5
   5  -5   0 733.136 364.699   3
  -5   5   0 145.072 138.024   1
  -5  -5   0 428.451 312.514   3
   5  -5   0 226.609 262.303  19
   5   5   0 302.269 243.170  20
   5   5   0 491.911 318.312  21
  -5   5   0 333.529 127.452  20
  -5   5   0 232.389 205.827  21
  -5  -5   0 334.376 242.846  19
  -5  -5   0 493.346 185.658  18
   5   5   0 676.828 186.879   6
  -5   5   0 244.261 76.8555  14
  -5  -5   0 278.587 140.696  14
  -5   5   0 440.331 108.613  14
   5  -5   0 187.016 242.449  13
  -5   5   0 1067.15 353.939  12
   5   5   0 141.749 326.400  12
  -5  -5   0 166.529 185.315  13
   5   5   0 2.76234 185.476  11
  -5  -5   0 715.411 308.981   4
   5  -5   0 505.598 267.149   5
  -5  -5  -1 175966. 5502.32   3
  -5   5  -1 180351. 5827.92  21
  -5   5  -1 180881. 4780.34  20
  -5  -5  -1 186363. 5557.19  19
   5  -5   1 191254. 5903.57  19
   5   5   1 182660. 5870.04  20
  -5  -5  -1 186781. 5308.64  18
   5   5   1 178520. 5162.89   6
  -5  -5  -1 184427. 4876.37  14
  -5  -5  -1 175969. 5570.60  13
  -5   5  -1 176273. 4909.66  14
   5  -5   1 188067. 5533.82  13
   5   5   1 182073. 5117.32  11
  -5   5  -1 184030. 5683.20  12
   5   5   1 187183. 5926.34  12
   5  -5   1 186265. 6216.68   3
   5  -5   1 184254. 5503.23   5
  -5  -5  -1 171449. 5690.33   4
  -5  -5  -2 211156. 6295.27   3
  -5  -5  -2 209701. 6688.69   2
   5   5   2 214931. 6774.21  20
   5  -5   2 224407. 6746.04  19
  -5   5  -2 217685. 5726.24  20
  -5  -5  -2 223717. 6445.33  19
  -5   5  -2 220799. 6763.38  21
  -5  -5  -2 218395. 6364.25  18
  -5  -5  -2 211273. 5656.32  17
   5   5   2 220078. 6135.63   6
  -5   5  -2 219034. 6106.04  14
   5  -5   2 220748. 6261.29  13
   5   5   2 219407. 5946.03  11
   5   5   2 219793. 6770.19  12
  -5   5  -2 216678. 6566.45  12
   5  -5   2 214347. 6492.29  10
   5  -5   2 215198. 6457.99   5
   5  -5   2 213876. 7023.99   3
   5  -5   3 29253.5 1762.07   5
   5  -5   3 30297.8 2007.76   3
  -5  -5  -3 27431.6 1854.77   2
  -5  -5  -3 29090.6 1571.04   3
  -5   5  -3 35697.9 1960.40   1
  -5   5  -3 28527.6 1296.36  20
   5  -5   3 30896.4 1824.05  19
   5   5   3 33345.3 2003.72  20
  -5  -5  -3 31025.8 1725.42  19
  -5  -5  -3 29754.1 1772.25  18
  -5  -5  -3 27583.7 1377.67  17
   5   5   3 30779.1 1632.86   6
  -5   5  -3 30116.1 1663.81  14
   5  -5   3 30360.3 1560.57  13
   5   5   3 31821.1 1886.03  12
  -5   5  -3 30623.8 1805.16  12
   5  -5   3 28506.2 1683.05  10
  -5  -5  -3 28287.6 1203.33   9
   5  -5   4 21798.9 1667.70   3
   5  -5   4 22232.0 1555.70   5
  -5  -5  -4 20366.1 1234.12   3
  -5  -5  -4 18654.4 1584.21   2
   5   5   4 21306.3 1636.38  20
  -5  -5  -4 23283.2 1493.84  19
   5  -5   4 22009.3 1541.23  19
  -5  -5  -4 21932.3 1599.57  18
  -5  -5  -4 22168.2 1303.33  17
   5   5   4 20942.6 1391.47   6
  -5   5  -4 21220.5 1493.38  14
   5  -5   4 20362.1 1226.82  13
   5   5   4 21672.0 1527.12  12
   5  -5   4 20720.5 1387.71  10
  -5  -5  -4 20656.7 1120.25   9
   5  -5   5 112694. 4294.05   3
   5  -5   5 111161. 4226.67   5
  -5  -5  -5 108510. 4455.66   2
   5  -5   5 107878. 4058.80  19
   5   5   5 112442. 4452.65  20
  -5  -5  -5 110460. 3957.07  19
   5  -5   5 106304. 4113.26  16
  -5  -5  -5 108255. 4347.82  18
  -5  -5  -5 110089. 3853.39  17
  -5   5  -5 109621. 3848.26   8
   5   5   5 102888. 3943.99   6
  -5  -5  -5 108284. 4272.21  13
  -5   5  -5 105930. 4188.13  14
  -5  -5  -5 93149.3 3996.90  14
   5   5   5 110089. 4081.40  12
  -5  -5  -5 110111. 3644.54   9
   5  -5   5 109278. 3893.67  10
   5  -5   6 54272.3 2717.49   3
  -5   5  -6 54375.8 2437.01   2
   5   5   6 64105.6 3206.59  20
   5  -5   6 54398.3 2676.40  19
  -5  -5  -6 56934.8 2586.71  19
  -5  -5  -6 58821.0 3085.95  18
   5  -5   6 53990.2 2778.10  16
  -5   5  -6 58557.7 2770.86  18
  -5  -5  -6 55512.8 2648.66  17
   5  -5   6 58652.7 2910.57   5
   5   5   6 53792.1 2699.26   6
  -5  -5  -6 53253.7 2868.82  13
   5   5   6 56716.7 2751.75  12
   5  -5   6 58559.9 2635.01  10
  -5  -5  -6 61702.4 2634.45   9
   5  -5   7 10083.4 1057.15   3
   5  -5   7 11388.6 1132.25  19
  -5  -5  -7 9697.04 981.312  19
   5  -5   7 11095.8 1225.98  16
  -5   5  -7 10923.7 1161.63  18
  -5  -5  -7 11802.0 1201.11  17
  -5  -5  -7 10683.1 1326.27  18
   5   5   7 10906.1 1177.21   6
   5  -5   7 12617.9 1272.33   5
  -5   5  -7 10322.7 1241.01   7
  -5  -5  -7 9544.02 1142.60  13
   5   5   7 11772.1 1203.32  12
   5  -5   7 10430.9 1063.85  10
  -5  -5  -7 10720.2 1083.01   9
  -5  -5  -8 10262.9 1177.20   9
  -5   5  -8 8033.38 1397.61   9
   5  -5   8 8328.69 1021.15  10
  -5   5  -8 10643.2 1453.15  17
  -5  -5  -8 11648.8 1270.38  17
  -5  -5  -8 7913.20 1210.22  18
   5   5   8 9197.47 1136.05   6
  -5   5  -8 9396.19 1187.31   7
   5  -5   8 8148.52 1110.39  16
  -5   5  -8 9641.79 1479.22  15
  -5  -5  -8 8697.31 1140.17  13
   5   5   8 9335.81 1112.98  12
   5  -5   8 8448.95 1088.28   5
   5  -5   8 9009.77 973.095   3
  -5  -5  -9 50343.1 3208.39  18
   5  -5   9 48923.2 2946.68  16
  -5  -5  -9 51524.0 2937.58  17
  -5   5  -9 52755.8 3470.49  17
   5   5   9 47975.3 2784.97   6
   5  -5   9 48092.0 2859.23   5
   5   5   9 51880.9 2934.54  16
  -5  -5  -9 45888.2 2825.21  13
  -5   5  -9 44686.4 3499.03  15
   5   5   9 50224.2 2843.95  12
  -5   5  -9 46700.5 3507.77   9
   5  -5   9 49747.5 2696.12  10
  -5  -5  -9 47367.9 2848.73   9
  -5   5 -10 15508.5 1873.81  17
  -5  -5 -10 15335.9 1622.40  17
  -5  -5 -10 12940.1 1696.46  18
   5  -5  10 14147.0 1553.60  16
   5   5  10 13338.7 1456.44   6
   5   5  10 14399.9 1547.10  16
  -5  -5 -10 14518.8 1549.87  13
  -5   5 -10 15295.2 2108.17  15
   5   5  10 14358.4 1511.62  12
   5  -5  10 13220.6 1380.11  10
  -5  -5 -10 13234.8 1515.30   9
  -5   5 -10 12785.6 1904.14   9
   5   5  10 12647.7 1409.94  10
  -5   5 -11-494.835 503.140  17
  -5  -5 -11-108.732 388.334  17
  -5  -5 -11 131.620 539.481  18
   5   5  11 119.148 438.690   6
  -5  -5 -11-147.250 433.523  13
   5  -5  11 2.90103 378.025  16
   5   5  11 732.650 501.064  16
  -5   5 -11 429.704 698.610  15
   5   5  11-316.340 483.124  12
   5   5  11 1386.63 576.125  10
  -5   5 -11-250.305 652.584   9
  -5  -5 -11 26.6463 451.089   9
   5  -5  11-121.770 369.229  10
  -5   5 -12 8260.65 1444.42  17
  -5  -5 -12 7063.96 1232.31  17
  -5  -5 -12 5272.18 1166.07  18
   5  -5  12 6301.66 1083.78  16
   5   5  12 6086.80 1067.62  16
  -5   5 -12 7033.86 1592.93  15
   5   5  12 6012.30 1072.51  12
   5   5  12 7337.86 1134.54  10
  -5   5 -12 5227.34 1300.82   9
  -5  -5 -12 5278.91 1092.03   9
   5  -5  12 5686.28 1005.13  10
   5   5  12 6026.15 1067.80   6
   5   7 -11 1796.60 747.407  20
   5   7 -11 2769.75 1101.35  11
  -5   7  11 1337.88 754.992  12
   5  -7 -11 1016.32 613.781   9
  -5  -7  11 2161.76 735.026  10
   5   7 -10 10610.2 1523.05  20
  -5  -7  10 8865.01 1101.15   3
   5  -7 -10 11840.0 1606.93  13
   5   7 -10 9943.39 1777.95  11
  -5   7  10 12668.8 1662.38  12
   5  -7 -10 12355.8 1559.09   9
  -5  -7  10 10972.7 1416.03  10
   5   7  -9 10785.9 1486.66  20
  -5   7   9 15041.7 1641.82   8
  -5  -7   9 11677.7 1238.13   3
   5  -7  -9 11626.0 1612.66  13
   5   7  -9 9351.49 1559.85  11
  -5   7   9 14402.8 1701.32  12
   5  -7  -9 12627.2 1495.96   9
  -5  -7   9 12954.3 1474.16  10
  -5  -7   8 1847.73 465.994  19
   5   7  -8 2004.18 700.661  20
  -5   7   8 2770.24 739.192   8
  -5  -7   8 1931.40 536.387   3
   5  -7  -8 2163.92 762.477  13
   5   7  -8 1605.88 706.924  11
  -5   7   8 1870.08 696.443  12
   5  -7  -8 1940.25 544.784   9
  -5  -7   8 3090.27 739.911  10
   5   7  -7 6497.63 1116.42  20
  -5  -7   7 5838.92 810.904  19
  -5   7   7 5805.50 1062.21   8
  -5  -7   7 6497.63 909.285   3
   5  -7  -7 5690.96 1067.96  13
  -5   7   7 5486.37 1004.54  12
   5   7  -7 6696.70 1115.96  11
   5  -7  -7 5708.50 903.710   9
  -5  -7   7 7106.84 1066.37  10
  -5  -7   6 49915.9 2606.08  19
   5   7  -6 56012.8 3165.13  20
  -5  -7   6 49719.9 2656.14   3
   5  -7  -6 54527.5 3208.06  13
   5   7  -6 50427.8 3022.36  11
  -5   7   6 54989.0 3139.48  12
   5  -7  -6 58105.2 2879.14   9
  -5  -7   6 55956.5 2910.64  10
   5   7  -5 47677.7 2990.97  21
   5  -7  -5 50332.7 2721.24  19
   5   7  -5 46712.3 2803.24  20
  -5  -7   5 45038.5 2404.42  19
  -5   7   5 55681.5 3390.47   8
   5  -7  -5 44862.1 2792.25  13
  -5  -7   5 45046.0 2536.56  10
   5   7  -5 43736.2 2607.43  11
  -5   7   5 48699.5 2821.39  12
  -5  -7   5 40114.0 2354.78   3
  -5  -7   4 252.635 214.155   4
  -5  -7   4 1363.68 452.322   3
   5   7  -4 1739.00 551.720  20
  -5  -7   4 876.286 375.683  19
   5  -7  -4 1153.00 475.785  19
   5   7  -4 326.790 412.311  21
   5  -7  -4 210.949 384.469  13
  -5   7   4 662.507 467.093  12
   5   7  -4 482.702 311.417  11
  -5  -7   4 610.877 375.827  10
  -5  -7   3 47380.5 2523.43   3
   5  -7  -3 47152.5 2680.27  13
  -5  -7   3 44710.1 2065.03  13
  -5  -7   3 51942.1 2509.17  19
   5   7  -3 53844.0 3082.23  21
   5  -7  -3 55801.9 2861.10  19
   5   7  -3 50417.6 2813.33  20
  -5   7   3 47564.5 2720.35  12
   5   7  -3 47440.0 2406.26  11
   5   7  -3 52079.4 3005.42  12
  -5  -7   3 44962.1 2188.90   4
   5  -7  -3 48494.6 2656.48   3
  -5  -7   2 69487.4 3177.95   3
   5  -7  -2 67222.0 3248.19  13
  -5  -7   2 65101.3 2725.27  13
   5   7  -2 75076.8 3722.96  21
  -5  -7   2 71684.1 3076.90  19
   5  -7  -2 75124.1 3451.45  19
   5   7  -2 71953.0 3442.33  20
   5   7  -2 73964.0 2956.97  11
  -5   7   2 73118.8 3459.52  12
   5   7  -2 81849.0 3795.27  12
   5  -7  -2 72768.5 3446.77   3
  -5  -7   2 66817.5 2898.46   4
   5  -7  -2 74935.3 2801.78   5
  -5  -7   1 24875.9 1709.21   3
   5  -7  -1 24344.8 1715.43  13
  -5  -7   1 21753.8 1431.80  13
  -5  -7   1 24595.6 1627.51  19
   5  -7  -1 24548.5 1823.85  19
   5   7  -1 25119.5 1995.45  21
   5   7  -1 26153.8 1898.81  20
  -5   7   1 25370.1 1836.76  12
   5   7  -1 25120.1 1947.30  12
   5  -7  -1 24199.5 1912.01   3
   5  -7  -1 26624.8 1510.74   5
  -5  -7   1 23235.1 1565.38   4
  -5  -7   0 1309.62 463.382   3
   5  -7   0 1213.41 541.739   3
  -5  -7   0 450.552 244.871  13
   5  -7   0 2349.47 564.992  13
  -5  -7   0-3.86186 299.249  19
   5  -7   0 1072.93 462.963  19
   5   7   0 809.670 403.485  20
  -5   7   0 1392.05 494.823  12
   5   7   0 381.083 374.520  12
   5  -7   0 570.927 282.926   5
  -5  -7  -1 55070.9 2658.92   3
  -5   7  -1 57693.3 3056.99  21
   5  -7   1 54436.4 2872.66  19
  -5  -7  -1 55163.8 2646.36  19
   5   7   1 60522.9 3003.39  20
  -5  -7  -1 55891.0 2640.55  13
   5  -7   1 58130.5 2682.68  13
  -5   7  -1 60117.8 3024.37  12
   5   7   1 61214.5 3172.61  12
   5  -7   1 59459.4 3180.92   3
   5  -7   1 59995.9 2641.03   5
  -5  -7  -2 104491. 3969.58   3
  -5  -7  -2 104229. 3810.50  18
  -5  -7  -2 93800.6 3908.46  19
   5   7   2 109850. 4452.28  20
   5  -7   2 104862. 4220.64  19
  -5   7  -2 112743. 4583.57  21
  -5  -7  -2 102089. 4041.87  13
   5  -7   2 107023. 3913.09  13
   5   7   2 113735. 4613.38  12
  -5   7  -2 108633. 4355.65  12
   5  -7   2 110741. 4035.58   5
   5  -7   2 105066. 4510.77   3
  -5  -7  -3 14399.4 1204.99   3
   5   7   3 14100.1 1454.71  20
  -5  -7  -3 11701.4 1174.89  19
  -5   7  -3 13729.0 1479.25  21
   5  -7   3 12947.7 1304.68  19
  -5  -7  -3 13319.1 1306.67  13
   5  -7   3 12140.5 1065.46  13
  -5  -7  -3 12577.6 1191.16  18
  -5   7  -3 12785.8 1335.10  12
   5   7   3 16112.9 1572.17  12
   5  -7   3 16154.2 1342.29   5
   5  -7   3 13617.4 1425.53   3
  -5   7  -4 12246.1 1410.45  21
   5   7   4 13463.0 1454.48  20
   5  -7   4 11570.4 1260.01  19
  -5  -7  -4 13710.9 1250.40  19
  -5  -7  -4 11021.6 1186.19  18
  -5  -7  -4 12008.4 1270.45  13
   5  -7   4 13268.7 1084.83  13
   5  -7   4 10677.9 1184.70  10
   5   7   4 11963.8 1395.15  12
  -5   7  -4 13256.8 1397.42  12
   5  -7   4 13195.3 1402.12   3
   5  -7   4 11913.6 1221.05   5
  -5  -7  -5 39320.2 2255.68  19
   5  -7   5 38793.3 2351.49  19
   5   7   5 38796.6 2633.38  20
  -5  -7  -5 39969.0 2488.69  18
   5  -7   5 42807.9 2466.01   5
  -5  -7  -5 40475.5 2463.12  13
   5   7   5 44459.2 2715.86  12
   5  -7   5 40018.1 2380.77  10
  -5   7  -5 41838.4 2628.12  12
   5  -7   5 40992.7 2485.68   3
   5  -7   6 29152.0 2022.95   3
  -5  -7  -6 31404.0 1987.99  19
   5   7   6 30151.8 2378.26  20
   5  -7   6 29205.6 2028.46  19
  -5  -7  -6 28657.7 2208.47  18
   5  -7   6 27583.5 2045.08   5
   5   7   6 31931.7 1951.99   6
  -5  -7  -6 29586.9 2159.80  13
   5   7   6 33531.5 2347.37  12
   5  -7   6 28213.2 2017.18  10
   5  -7   7 3533.49 814.987   5
   5  -7   7 3077.78 699.158   3
  -5  -7  -7 2884.34 616.235  19
   5  -7   7 2608.16 652.199  19
  -5  -7  -7 3161.48 789.225  18
   5   7   7 2859.81 632.673   6
  -5  -7  -7 2206.55 554.078  13
   5   7   7 2986.82 793.334  12
  -5   7  -7 2692.07 710.969   9
   5  -7   7 3364.65 733.309  10
   5  -7   8 3235.51 718.097   5
   5  -7   8 4980.45 818.308   3
   5  -7   8 4757.58 831.750  19
  -5  -7  -8 4738.31 1011.10  18
  -5   7  -8 5328.22 1025.66   7
   5   7   8 4701.72 770.276   6
  -5   7  -8 5105.57 1198.79  15
  -5  -7  -8 3752.74 822.981  13
   5   7   8 6401.19 1087.73  12
   5  -7   8 4465.26 868.595  10
  -5   7  -8 4454.17 1098.44   9
  -5   7  -9 20650.4 2346.84   9
   5  -7   9 20413.6 1848.12  10
  -5  -7  -9 20312.5 2103.21  18
   5  -7   9 19123.3 1772.57   5
   5   7   9 18458.9 1622.98   6
  -5  -7  -9 17600.3 1773.42  13
  -5   7  -9 21503.5 2475.38  15
  -5   7  -9 18127.8 1970.73  11
   5   7   9 20935.6 1973.65  12
   5  -7   9 17243.9 1495.36   3
  -5  -7 -10 7293.46 1339.36  18
   5   7  10 8997.73 1141.18   6
  -5  -7 -10 6776.56 1139.64  13
  -5   7 -10 8543.78 1675.67  15
  -5   7 -10 7400.87 1482.54   9
   5  -7  10 10309.4 1362.80  10
  -5   7 -10 10216.4 1624.67  11
   5   7  10 7477.53 1241.43  12
  -5  -7 -11 36.7263 430.661  13
   5  -9  -9 3672.87 971.410  13
  -5  -9   9 3916.57 814.621   3
  -5   9   9 3168.38 934.367   8
   5   9  -9 3964.43 1015.97  20
   5   9  -8 2082.54 793.930  20
   5   9  -8 531.561 688.364  21
  -5  -9   8 1073.71 491.772  19
  -5   9   8 1582.44 806.479   8
  -5  -9   8 1468.33 595.574   3
   5  -9  -8 1394.51 652.087  13
   5   9  -8 1981.45 880.845  12
  -5   9   8 542.865 566.415  12
  -5  -9   8 1658.61 741.312  10
   5   9  -7 4336.12 1057.14  20
   5   9  -7 2345.36 843.042  21
  -5  -9   7 2230.21 633.821  19
  -5   9   7 3410.89 1019.05   8
  -5  -9   7 2860.43 679.911   3
   5  -9  -7 2420.31 728.445  13
   5   9  -7 3668.03 1045.02  12
  -5   9   7 3205.54 901.771  12
  -5  -9   7 3116.20 801.225  10
  -5   9   6 23103.4 2418.52   8
  -5  -9   6 18029.7 1686.83   3
   5  -9  -6 19318.6 1982.98  13
  -5   9   6 21821.0 2168.92  12
   5   9  -6 24080.6 2320.64  12
   5   9  -6 24408.2 2418.32  21
   5   9  -6 19812.3 1978.35  20
  -5  -9   6 18977.0 1667.26  19
  -5   9   5 15800.9 2066.77   8
   5  -9  -5 12553.1 1546.87  13
  -5  -9   5 12331.8 1374.13   3
   5   9  -5 12248.9 1664.77  12
  -5   9   5 17537.4 1897.75  12
   5   9  -5 15623.4 1897.12  21
   5   9  -5 14804.7 1650.20  20
  -5  -9   5 15004.6 1461.87  19
   5  -9  -4 600.989 514.603  13
  -5  -9   4 50.4443 377.892   3
   5   9  -4 77.0499 508.099  12
  -5   9   4-710.320 611.321  12
  -5  -9   4 542.595 373.151  19
   5   9  -4-50.0474 364.185  20
   5   9  -4-120.042 451.000  21
   5  -9  -4-152.716 416.177  19
  -5  -9   3 18901.2 1635.25  19
   5   9  -3 19906.6 2070.03  21
   5  -9  -3 19372.1 1791.36  19
   5   9  -3 20090.9 1836.60  20
   5  -9  -3 16887.6 1664.55  13
  -5  -9   3 19576.0 1726.45   3
  -5   9   3 20976.4 1998.78  12
   5   9  -3 20249.6 2034.76  12
   5  -9  -3 20030.8 1799.21   3
   5   9  -2 30943.0 2537.67  21
  -5  -9   2 21266.3 1720.70  19
   5  -9  -2 23883.0 2001.64  19
   5   9  -2 27172.6 2169.73  20
   5  -9  -2 21826.8 1831.61  13
  -5  -9   2 21155.7 1529.80  13
  -5  -9   2 20570.3 1765.79   3
  -5   9   2 26209.7 2206.25  12
   5   9  -2 28923.8 2402.12  12
   5  -9  -2 22243.9 1950.07   3
  -5  -9   1 6554.06 892.799  13
   5  -9  -1 8001.94 1100.49  13
  -5  -9   1 8396.17 1102.10   3
   5  -9  -1 9944.10 1323.58   3
  -5   9   1 10025.9 1346.08  12
   5   9  -1 9590.27 1406.52  12
  -5  -9   1 8675.41 1088.73  19
   5   9  -1 10651.8 1308.61  20
   5  -9  -1 8614.13 1181.23  19
  -5  -9   0-27.1172 331.460  13
   5  -9   0 339.924 390.301  13
   5  -9   0-26.5453 389.171   3
  -5  -9   0 101.275 356.193   3
   5   9   0-294.964 505.222  12
  -5   9   0 255.229 451.197  12
  -5  -9   0 392.808 350.327  19
   5  -9   0-243.450 370.033  19
   5   9   0 628.660 505.770  20
  -5  -9  -1 20867.3 1722.63  19
   5   9   1 25404.6 2042.77  20
   5  -9   1 20049.9 1785.34  19
  -5  -9  -1 21252.5 1667.94  13
   5  -9   1 22050.4 1707.70  13
  -5  -9  -1 25051.8 1838.20   3
  -5   9  -1 23013.0 2022.51  12
   5   9   1 26436.4 2295.27  12
   5  -9   1 24304.3 2142.63   3
  -5  -9  -2 31827.9 2158.55  19
  -5   9  -2 39744.4 2815.35  21
   5   9   2 36120.3 2524.34  20
   5  -9   2 34885.9 2366.10  19
  -5  -9  -2 32918.2 2201.45  13
   5  -9   2 36300.3 2189.10  13
  -5  -9  -2 35055.3 2197.19   3
  -5   9  -2 36371.8 2582.21  12
   5   9   2 37416.0 2748.87  12
   5  -9   2 31660.7 2406.90   3
   5  -9   3 5541.79 814.940  13
  -5  -9  -3 4142.97 843.772  13
   5  -9   3 4958.41 1016.93   3
   5   9   3 5911.78 1142.24  12
  -5   9  -3 6219.25 1072.68  12
   5   9   3 5159.69 987.967  20
   5  -9   3 4881.27 889.369  19
  -5   9  -3 4976.11 1081.37  21
  -5  -9  -3 4873.66 837.249  19
   5   9   4 4707.22 979.843  20
  -5   9  -4 4546.41 1003.75  21
  -5  -9  -4 3435.40 725.118  19
   5  -9   4 2883.20 696.151  19
   5  -9   4 4090.52 881.285   3
  -5  -9  -4 3364.99 752.253  13
   5   9   4 3404.02 901.590  12
  -5   9  -4 3904.62 919.042  12
   5  -9   4 2461.86 613.237   5
  -5  -9  -5 13873.2 1431.03  19
  -5   9  -5 16941.4 1940.43  21
   5   9   5 22232.7 2127.84  20
   5  -9   5 15541.0 1571.47  19
   5  -9   5 16430.2 1534.75   5
  -5  -9  -5 12560.6 1461.14  13
  -5   9  -5 20199.7 1973.05  12
   5   9   5 17597.6 1946.01  12
   5  -9   5 16297.2 1661.11   3
   5  -9   6 11088.2 1261.40   5
  -5  -9  -6 8432.05 1218.27  13
   5  -9   6 7796.26 1140.03   3
   5   9   6 9907.77 1500.88  12
  -5   9  -6 11482.5 1531.57  12
   5   9   6 11118.5 1562.88  20
   5  -9   6 7204.25 1118.78  19
  -5   9  -6 10231.2 1524.31  21
  -5  -9  -6 8592.02 1117.04  19
  -5   9  -7 1487.80 761.414  21
   5  -9   7 1227.67 580.179  19
   5  -9   7 628.441 503.243   3
  -5   9  -7 395.815 428.706  15
  -5  -9  -7 695.553 480.351  13
   5   9   7 1747.76 777.568  12
   5  -9   7 788.342 448.311   5
   5  -9   8 706.863 455.263   3
  -5   9  -8 1799.07 799.586   7
  -5   9  -8 2069.94 793.605  21
   5  -9   8 1659.56 649.929  19
  -5  -9  -8 1045.47 557.749  13
  -5   9  -8 1763.04 803.293  15
   5   9   8 2542.63 908.358  12
   5  -9   8 1773.24 662.397  10
  -5  11   4 336.000 595.783  12
   5 -11  -3 4422.56 959.505  19
  -5 -11   3 4395.29 886.599  19
   5 -11  -3 4279.53 931.802  13
  -5  11   3 4718.01 1287.38   8
  -5  11   3 5851.94 1172.15  12
   5  11  -3 2163.64 843.872  12
  -5 -11   3 3560.17 831.617   3
  -5 -11   2 6406.42 1061.98  19
   5 -11  -2 8252.96 1262.65  19
   5 -11  -2 6799.33 1093.84  13
  -5  11   2 8435.71 1692.24   8
  -5  11   2 8540.07 1403.39  12
   5  11  -2 7477.24 1403.58  12
  -5 -11   2 7263.07 1120.33   3
   5 -11  -1 1912.04 640.595  19
  -5 -11   1 2254.11 699.702  19
   5 -11  -1 2100.08 663.327  13
  -5  11   1 4566.95 1387.82   8
  -5  11   1 4457.03 1062.94  12
   5  11  -1 2250.71 840.710  12
   5 -11  -1 1845.40 688.287   3
  -5 -11   1 1877.02 595.204   3
  -5 -11   0-326.906 485.846  19
   5 -11   0-29.5830 392.229  19
  -5  11   0 1358.04 692.793  12
   5  11   0-375.632 544.119  12
  -5 -11   0-24.2363 347.626   3
   5 -11   0-534.047 506.033   3
  -5 -11   0-41.9528 357.815  13
   5 -11   0-141.846 350.168  13
  -5 -11  -1 5774.55 968.026  19
   5 -11   1 4772.82 927.565  19
   5 -11   1 5990.30 1013.10  13
  -5 -11  -1 6569.53 1015.11  13
   5  11   1 6146.08 1236.36  12
  -5  11  -1 7346.28 1301.89  12
   5 -11   1 6700.17 1142.18   3
  -5 -11  -1 5981.96 966.666   3
  -5 -11  -2 10539.9 1363.27  19
   5 -11   2 9847.34 1321.29  19
  -5 -11  -2 7950.18 1152.18  13
  -5  11  -2 14035.1 2003.06   8
   5  11   2 9260.00 1531.84  12
  -5  11  -2 9768.14 1497.64  12
   5 -11   2 9408.35 1370.70   3
  -5 -11  -3 2409.25 703.878  13
  -5  11  -3 1660.85 825.970   8
  -5 -11  -3 1435.46 610.096  19
  -6   0  14 7559.48 1078.40  10
   6   0 -14 5272.20 1325.39   9
   6   0 -14 4244.27 1143.00  11
  -6   0  14 5893.17 993.196   4
   6   0 -14 5505.71 1310.49  17
   6   0 -13 19998.2 2342.71   9
  -6   0  13 23566.6 1843.85  10
   6   0 -13 20520.2 2365.27  11
  -6   0  13 21199.7 1778.63   4
   6   0 -13 17397.9 2262.61  17
  -6   0  12 18278.6 1529.38  10
   6   0 -12 13299.4 1846.51   9
   6   0 -12 11685.6 1728.29  11
  -6   0  12 16769.4 1521.65   4
   6   0 -12 9671.51 1577.10  17
  -6   0  11 1699.07 462.073  10
   6   0 -11 2266.47 837.670   9
   6   0 -11 2207.64 786.946  11
  -6   0  11 2405.57 603.958   4
   6   0 -11 2625.99 800.176  17
   6   0 -10 33132.1 2596.83   9
  -6   0  10 35448.6 1977.09  10
   6   0 -10 26875.3 2334.87  11
  -6   0  10 36344.0 2127.05   4
   6   0 -10 33240.7 2600.36  17
   6   0  -9 65101.9 3547.22   9
  -6   0   9 73880.0 2883.99  10
   6   0  -9 56718.0 3329.61  11
  -6   0   9 71228.2 3045.19   4
   6   0  -9 52866.9 3289.81  17
   6   0  -8 40291.7 1878.03   1
  -6   0   8 39036.8 1565.28   8
   6   0  -8 39132.2 2515.20   9
  -6   0   8 39079.7 1905.45  10
   6   0  -8 36460.1 2415.89  17
   6   0  -8 34852.4 2356.21  11
  -6   0   8 40861.3 2121.21   4
  -6   0   7 72012.7 2348.96   3
   6   0  -7 71144.9 2604.77   1
   6   0  -7 74763.2 3357.11   9
  -6   0   7 73512.3 2691.11  10
   6   0  -7 69692.9 3252.38  17
  -6   0   7 68981.3 2185.48  16
  -6   0   7 70680.7 2354.25   8
  -6   0   7 73960.0 3143.88  14
   6   0  -7 64567.5 3205.10  14
   6   0  -7 66322.0 3162.52  11
  -6   0   7 67910.3 2838.92   4
   6   0  -6 326759. 8250.42   1
  -6   0   6 303001. 7954.43   3
  -6   0   6 324580. 8305.47  10
   6   0  -6 328561. 8981.18   9
   6   0  -6 314751. 9015.07  17
  -6   0   6 316123. 7677.18  16
  -6   0   6 324133. 8056.31   8
   6   0  -6 306095. 9026.05  14
  -6   0   6 344043. 8917.98  14
   6   0  -6 305513. 7681.08  13
   6   0  -6 321875. 9020.73  11
  -6   0   6 340207. 8710.14   4
  -6   0   5 248608. 6737.59   4
  -6   0   5 246694. 5712.52  19
   6   0  -5 254991. 7122.33  17
  -6   0   5 243691. 5835.29  16
  -6   0   5 244913. 6345.34   8
   6   0  -5 244524. 7078.14  14
  -6   0   5 254776. 6882.39  14
   6   0  -5 235439. 6033.39  13
   6   0  -5 252772. 7084.18  11
   6   0  -5 245676. 6897.85   9
  -6   0   5 239754. 6411.69  10
   6   0  -4 13653.5 938.103   9
  -6   0   4 13386.5 758.180  10
   6   0  -4 12917.7 955.053  17
  -6   0   4 15154.9 839.253   8
   6   0  -4 13945.4 1030.30  14
  -6   0   4 13654.5 926.704  14
   6   0  -4 12244.1 637.650  13
   6   0  -4 13753.0 964.500  11
  -6   0   4 12254.8 851.602   4
   6   0  -3 120506. 3582.32   9
  -6   0   3 119058. 3250.87  10
   6   0  -3 120101. 3675.24  17
  -6   0   3 118545. 3440.44   8
   6   0  -3 124224. 3731.69  14
  -6   0   3 119939. 3602.23  14
   6   0  -3 120435. 3645.98  11
  -6   0   3 119576. 3514.22   4
   6   0  -2 112824. 3282.69   9
  -6   0   2 112964. 2904.37  10
   6   0  -2 110434. 3344.06  17
  -6   0   2 112341. 3261.64   8
   6   0  -2 113383. 3387.58  14
  -6   0   2 118834. 3385.45  14
   6   0  -2 112003. 3339.68  11
  -6   0   2 114058. 3255.76   4
  -6   0   1 529084. 12625.4   2
   6   0  -1 522268. 12637.0  20
   6   0  -1 526937. 12829.8  17
  -6   0   1 527090. 12669.0   8
  -6   0   1 517855. 12774.2  14
   6   0  -1 542126. 12243.3  16
   6   0  -1 520248. 12719.5  11
  -6   0   1 531930. 12636.3   4
   6   0   0 143757. 3803.52  20
  -6   0   0 141928. 3831.84   8
  -6   0   0 143750. 3913.40   2
   6   0   0 142977. 3664.55  16
   6   0   0 141337. 3917.29  11
   6   0   0 147171. 3428.95  12
  -6   0   0 141346. 3796.37   4
   6   0   0 137317. 3814.43   5
   6   0   1 481357. 12239.7   5
  -6   0  -1 497059. 12237.0   4
  -6   0  -1 514799. 12369.1   2
   6   0   1 508497. 12148.1  20
  -6   0  -1 515633. 12154.3   8
   6   0   1 514179. 12188.2  16
   6   0   1 507376. 12369.6  11
   6   0   1 518340. 11670.4  10
  -6   0  -2 597828. 14355.9   4
   6   0   2 572825. 14375.0   5
   6   0   2 555067. 14215.7   1
  -6   0  -2 599823. 14447.5   2
   6   0   2 606219. 14225.7  20
  -6   0  -2 596045. 14485.1  18
   6   0   2 571508. 14579.8   6
   6   0   2 589547. 14303.0  16
   6   0   2 613370. 13787.9  12
  -6   0  -2 602523. 14062.1   8
   6   0   2 611423. 13836.2  10
   6   0   3 204640. 5596.47   5
  -6   0  -3 198447. 5617.35   2
   6   0   3 193827. 5438.37   1
   6   0   3 204861. 5467.94  20
  -6   0  -3 205415. 5771.00  18
   6   0   3 202801. 5799.67   6
   6   0   3 209049. 5556.06  16
   6   0   3 204267. 5073.11  12
  -6   0  -3 201975. 5121.05   8
   6   0   3 204586. 5131.25  10
   6   0   4 14277.8 791.009  10
  -6   0  -4 14615.2 1098.10  18
   6   0   4 13351.7 1048.83   6
   6   0   4 14006.2 951.304  16
   6   0   4 14272.0 940.585   1
  -6   0  -4 15730.3 1048.28   2
   6   0   4 15888.7 1011.22   5
   6   0   5 79586.4 2571.00  10
  -6   0  -5 79240.9 3230.49  18
   6   0   5 80378.3 3155.49   6
  -6   0  -5 79685.1 3224.33  15
   6   0   5 74090.5 2790.29  16
   6   0   5 71299.1 2763.99   1
  -6   0  -5 81466.6 3013.83   2
   6   0   5 76575.6 2820.76   5
  -6   0  -6 44713.9 2462.59  18
   6   0   6 43316.8 2035.76   5
   6   0   6 48868.6 2426.21   6
   6   0   6 45280.1 2084.15  16
  -6   0  -6 43601.1 2449.17  15
  -6   0  -6 47446.3 2306.59   2
   6   0   6 44658.1 2094.48   1
  -6   0  -6 46341.1 2579.30   9
   6   0   6 47765.9 1897.48  10
  -6   0  -7 55149.2 2994.47  18
   6   0   7 60572.3 2910.20   6
   6   0   7 59511.7 2556.76   5
   6   0   7 58026.5 2538.37  16
  -6   0  -7 65433.4 3222.09  15
  -6   0  -7 57636.1 2773.84   2
  -6   0  -7 60956.4 3217.05   9
   6   0   7 59320.5 2348.47  10
   6   0   8 5201.01 636.060  10
  -6   0  -8 4629.94 890.373   9
  -6   0  -8 5334.56 962.180  18
   6   0   8 5731.05 880.807   6
   6   0   8 5080.88 727.210  16
  -6   0  -8 5153.11 942.970  15
  -6   0  -8 5285.46 805.479   2
   6   0   8 5252.28 685.642   5
  -6   0  -9 69641.9 4142.10  17
  -6   0  -9 69636.6 3786.87  18
   6   0   9 79097.9 3683.93   6
   6   0   9 72781.4 3194.29  16
  -6   0  -9 80668.6 4059.40  15
   6   0   9 72745.0 2974.95  10
  -6   0  -9 78872.9 4118.72   9
  -6   0  -9 68766.0 3392.28   2
   6   0  10 47300.9 2533.14  16
   6   0  10 47537.3 2827.40   6
  -6   0 -10 45680.7 3057.87  18
  -6   0 -10 38751.6 3164.49  17
   6   0  10 44450.8 2288.97  10
  -6   0 -10 48861.1 3292.15   9
   6   0  11 6807.70 981.223  16
   6   0  11 5730.78 985.163   6
  -6   0 -11 6634.19 1234.78  18
  -6   0 -11 5353.47 1305.97  17
   6   0  11 5777.69 819.967  10
  -6   0 -11 5119.67 1123.25   9
   6   0  12 5289.82 924.905  16
   6   0  12 6801.27 1098.78   6
  -6   0 -12 6351.37 1329.65  17
  -6   0 -12 4950.93 1110.29  18
   6   0  12 6185.13 901.427  10
  -6   0 -12 5163.74 1142.28   9
   6   0  13 12633.1 1457.73  16
   6   0  13 11471.4 1490.22   6
  -6   0 -13 13758.7 1953.45   9
   6   0  13 11273.4 1280.97  10
  -6   0 -13 10322.5 1810.06  17
  -6   0 -13 10874.9 1676.68  18
  -6  -2  14 4484.93 895.424  10
  -6   2  14 4337.04 885.706  10
   6  -2 -14 4161.88 1103.46   9
   6   2 -14 3399.64 1121.52   9
   6   2 -14 5029.10 1433.74  11
  -6   2  14 4035.31 928.214   4
   6   2 -14 6029.70 1439.81  17
   6  -2 -14 4892.54 1246.76  17
   6   2 -13 22185.4 2447.61   9
   6  -2 -13 27584.1 2780.68   9
  -6  -2  13 23875.4 1886.79  10
  -6   2  13 28131.2 2062.96  10
   6   2 -13 18808.0 2459.11  11
  -6   2  13 21739.5 1964.69   4
   6   2 -13 18631.9 2369.23  17
   6  -2 -13 21918.3 2460.12  17
  -6  -2  12 10236.8 1182.59  10
  -6   2  12 13062.8 1344.86  10
   6  -2 -12 13303.4 1872.24   9
   6   2 -12 10309.4 1611.82   9
   6   2 -12 7455.89 1444.87  11
  -6   2  12 11412.1 1370.29   4
  -6  -2  12 11656.3 1174.62   4
   6  -2 -12 8890.80 1493.18  17
   6   2 -12 7710.90 1486.48  17
  -6  -2  11 2467.43 594.033  10
  -6   2  11 2223.06 619.048  10
   6  -2 -11 3185.99 911.246   9
   6   2 -11 2321.61 803.291   9
   6  -2 -11 827.461 511.045  11
   6   2 -11 1950.99 773.879  11
  -6   2  11 1416.75 549.824   4
  -6  -2  11 1280.81 444.167   4
   6  -2 -11 1452.77 742.819  17
   6   2 -11 1617.51 760.316  17
  -6  -2  10 28871.4 1826.70  10
   6   2 -10 24274.7 2216.82   9
   6  -2 -10 27379.1 2324.90   9
  -6   2  10 29395.6 1853.73  10
   6  -2 -10 27064.2 2121.14  11
   6   2 -10 24327.4 2381.89  11
  -6   2  10 28762.8 2081.89   4
  -6  -2  10 31209.8 1843.60   4
   6   2 -10 24722.0 2263.61  17
   6  -2 -10 26752.5 2316.37  17
   6  -2  -9 69839.9 3641.69   9
  -6  -2   9 72404.3 2988.01  10
   6   2  -9 62425.2 3475.76   9
  -6   2   9 71568.5 2976.83  10
   6  -2  -9 67056.8 3640.08  17
   6   2  -9 54893.4 3380.89  17
   6  -2  -9 62990.3 3277.39  11
   6   2  -9 57939.4 3630.50  11
  -6   2   9 73759.9 3378.45   4
  -6  -2   9 72017.3 2939.41   4
  -6  -2   8 21934.2 1288.31   3
   6  -2  -8 20688.8 1747.39   9
  -6  -2   8 24329.4 1493.03  10
   6   2  -8 17931.4 1631.77   9
  -6   2   8 20528.4 1423.27  10
   6  -2  -8 21921.3 1838.86  17
   6   2  -8 22052.6 1817.37  17
  -6   2   8 24757.7 1312.15   8
   6  -2  -8 23043.6 1536.27  13
  -6   2   8 23625.1 1193.96  16
   6  -2  -8 22822.6 1705.59  11
   6   2  -8 21558.7 1960.94  11
  -6   2   8 22966.8 1707.20   4
  -6  -2   8 22763.0 1434.65   4
   6   2  -7 46287.6 2227.11   1
  -6  -2   7 42396.9 1888.72   3
   6  -2  -7 43550.2 2395.95   9
  -6  -2   7 45748.2 2056.53  10
   6   2  -7 38583.9 2271.62   9
  -6   2   7 43915.2 2042.41  10
   6   2  -7 42348.9 2407.18  17
   6  -2  -7 45684.0 2515.48  17
  -6   2   7 44899.9 1908.48   8
   6  -2  -7 51522.2 2327.71  13
   6  -2  -7 41120.9 2348.49  14
  -6   2   7 47950.1 2464.50  14
   6  -2  -7 42750.5 2177.32  11
   6   2  -7 41576.7 2576.97  11
  -6   2   7 40749.1 2072.36  12
  -6  -2   7 44978.2 2015.64   4
  -6  -2   6 289117. 7695.33   4
   6  -2  -6 299542. 6941.88   1
  -6  -2   6 284285. 7664.81   3
  -6  -2   6 277297. 7132.31  19
   6  -2  -6 287874. 8305.02  17
   6   2  -6 277382. 8190.92  17
  -6   2   6 289804. 7686.49   8
   6  -2  -6 272597. 8003.24  13
   6   2  -6 264564. 8325.58  14
   6  -2  -6 296062. 8267.27  14
  -6  -2   6 304618. 8214.19  14
  -6   2   6 310785. 8312.11  14
   6  -2  -6 279027. 7807.33  11
   6   2  -6 265936. 8470.05  11
  -6   2   6 280865. 7833.67  12
  -6  -2   6 287313. 7673.95  10
   6  -2  -6 296862. 8281.35   9
   6   2  -6 285711. 8190.40   9
  -6  -2   5 226600. 6125.88   4
   6  -2  -5 231330. 5345.21   1
  -6  -2   5 217884. 6135.98   3
  -6  -2   5 223553. 5761.16  19
   6  -2  -5 222093. 6543.05  17
   6   2  -5 211683. 6402.08  17
  -6   2   5 229819. 6271.97   8
   6  -2  -5 230824. 6537.70  13
   6  -2  -5 223841. 6455.75  14
  -6  -2   5 228023. 6445.73  14
  -6   2   5 241632. 6522.10  14
   6   2  -5 208791. 6586.30  14
   6   2  -5 222732. 6805.62  11
  -6   2   5 218915. 6219.48  12
   6  -2  -5 226214. 6121.79  11
   6   2  -5 221558. 6371.19   9
   6  -2  -5 236968. 6612.66   9
  -6  -2   5 223587. 6065.05  10
  -6  -2   4 3975.30 443.413   4
  -6  -2   4 2649.87 382.395   3
  -6  -2   4 2968.88 209.481   2
  -6  -2   4 2394.86 314.746  19
   6  -2  -4 2441.84 408.489  17
   6   2  -4 3077.63 449.697  17
  -6   2   4 2359.43 381.925   8
  -6   2   4 2654.72 309.847   7
  -6  -2   4 2797.83 385.534   8
   6  -2  -4 2719.10 410.961  14
   6   2  -4 2622.18 452.350  14
  -6  -2   4 2695.04 418.702  14
   6  -2  -4 3092.37 459.148  13
   6   2  -4 1833.96 426.735  11
  -6   2   4 2779.08 390.842  12
   6  -2  -4 2648.53 360.403  11
  -6  -2   4 2571.78 343.441  10
   6  -2  -4 2262.57 434.254   9
   6   2  -4 2469.42 367.926   9
  -6   2   3 48059.5 2013.20   4
  -6  -2   3 48721.9 1849.99   4
  -6  -2   3 50048.7 1556.71   2
  -6  -2   3 46466.0 1848.33   3
  -6  -2   3 48870.6 1762.51  19
   6   2  -3 50858.0 1930.64  17
   6  -2  -3 50360.5 2012.77  17
  -6   2   3 50678.2 2051.52   8
  -6   2   3 48737.6 1787.13   7
   6  -2  -3 49809.0 1873.70  14
   6   2  -3 53354.1 2129.34  14
  -6  -2   3 49037.0 1953.59  14
  -6   2   3 53549.3 1923.24  14
   6  -2  -3 48629.3 2039.48  13
   6   2  -3 49102.7 2116.20  11
  -6   2   3 50226.0 1811.54  12
   6  -2  -3 47541.8 1708.52  11
   6   2  -3 52457.1 1744.72   9
  -6  -2   3 49954.1 1899.42   8
   6  -2  -3 50583.9 2053.20   9
  -6  -2   3 48995.6 1741.04  10
  -6   2   2 151420. 4427.26   4
  -6  -2   2 160922. 4447.21   4
  -6  -2   2 165297. 4265.73   2
  -6  -2   2 157462. 4454.87   3
   6  -2  -2 158386. 3837.75   1
   6  -2  -2 153818. 4355.06  19
   6   2  -2 160584. 4816.15  20
   6   2  -2 159162. 4383.19  17
   6  -2  -2 161041. 4553.28  17
  -6  -2   2 160683. 3958.59  18
  -6   2   2 162860. 4714.68   8
  -6   2   2 161769. 4532.88   7
  -6  -2   2 161008. 4496.68  14
  -6   2   2 165623. 4375.73  14
   6  -2  -2 162398. 4651.77  13
  -6   2   2 158717. 4236.52  12
   6  -2  -2 158612. 4210.50  11
   6   2  -2 155461. 4615.96  11
   6  -2  -2 161366. 4646.28   9
   6   2  -2 159353. 4071.07   9
  -6  -2   2 164361. 4270.43  10
  -6  -2   1 409212. 9686.54   4
  -6   2   1 382703. 9378.19   4
   6  -2  -1 381691. 9564.76   5
  -6  -2   1 382518. 9538.06   2
   6  -2  -1 383093. 9127.59   1
   6  -2  -1 378046. 9632.40  19
   6   2  -1 377983. 9597.92  21
   6   2  -1 388338. 9977.38  20
  -6  -2   1 392444. 9268.07  18
  -6   2   1 390749. 9816.39   7
  -6   2   1 378925. 9831.02   8
  -6   2   1 400504. 9481.74  14
  -6  -2   1 389696. 9586.91  14
   6  -2  -1 400373. 9764.02  13
  -6   2   1 394700. 9235.87  12
   6  -2  -1 394291. 9359.32  11
   6   2  -1 380656. 9674.79  11
  -6  -2   1 397627. 9390.14  10
  -6  -2   0 64160.5 2291.66   2
   6  -2   0 63627.5 2012.03   1
  -6   2   0 67333.5 2079.17  21
   6   2   0 68533.0 2160.60  21
   6   2   0 67196.6 2492.26  20
   6  -2   0 65842.2 2334.86  19
   6  -2   0 66065.3 2235.35  16
  -6  -2   0 65400.1 2141.51  18
  -6   2   0 67644.1 2385.33   8
  -6   2   0 67222.3 2474.59   7
   6  -2   0 67653.2 2308.88  13
  -6   2   0 66336.9 1883.16  12
   6   2   0 65138.4 2270.55  11
   6   2   0 67969.5 2326.43  12
  -6  -2   0 64295.2 2322.60   4
  -6   2   0 66484.9 1927.82   4
   6  -2   0 65352.9 2254.43   5
   6  -2   1 267522. 7190.22   5
  -6  -2  -1 279700. 7367.31   4
   6   2   1 277814. 6678.09   5
  -6   2  -1 274070. 6514.72   4
  -6   2  -1 276975. 7036.03   1
   6  -2   1 266904. 6920.24   1
  -6  -2  -1 277157. 7301.59   2
   6  -2   1 281202. 7259.63  19
   6   2   1 268031. 7304.00  20
   6  -2   1 278047. 7097.68  16
  -6  -2  -1 277484. 7169.09  18
  -6   2  -1 266717. 7403.09   7
   6  -2   1 269780. 6967.99   6
  -6   2  -1 278073. 7134.09   8
   6   2   1 266776. 7274.71   6
   6  -2   1 283780. 7125.79  13
  -6  -2  -1 273941. 6573.11  15
   6   2   1 266730. 7073.26  11
   6   2   1 274414. 6996.15  12
  -6   2  -1 270945. 6669.70  12
   6  -2   1 276798. 6907.08  10
  -6   2  -2 607456. 13965.6   4
   6  -2   2 603925. 14942.0   5
  -6  -2  -2 615250. 15146.6   4
   6   2   2 617121. 14232.2   5
  -6   2  -2 637021. 14886.4   1
  -6  -2  -2 598595. 15004.1   2
   6  -2   2 578715. 14632.1   1
   6   2   2 606575. 14910.1  20
  -6  -2  -2 594517. 14929.3  18
   6  -2   2 614754. 14737.4  16
  -6   2  -2 612856. 15059.2   7
   6  -2   2 595480. 14613.6   6
   6   2   2 600914. 14968.5   6
  -6   2  -2 604378. 14545.2   8
  -6  -2  -2 625403. 14401.1  15
   6   2   2 615890. 14761.9  11
   6   2   2 615361. 14512.1  12
   6  -2   2 625324. 14404.0  10
   6   2   3 129686. 3536.21   5
   6  -2   3 131056. 4206.66   5
  -6   2  -3 133096. 4037.62   2
  -6   2  -3 134781. 4218.06   1
  -6  -2  -3 136313. 4328.06   2
   6  -2   3 125875. 3972.91   1
   6   2   3 126709. 4109.24  20
   6  -2   3 127435. 4004.42  16
  -6  -2  -3 131134. 4319.07  18
   6  -2   3 134445. 3990.03   6
   6   2   3 130765. 4247.09   6
  -6   2  -3 131213. 3642.13   8
  -6   2  -3 132831. 4198.92   7
  -6  -2  -3 139051. 3897.58  15
   6   2   3 129410. 3756.65  12
  -6  -2  -3 134821. 4061.03   9
   6  -2   3 127097. 3663.34  10
   6  -2   4 10931.1 963.787   5
   6  -2   4 12613.7 960.251   1
  -6  -2  -4 11507.9 1033.06   2
   6   2   4 11162.6 843.228   1
  -6   2  -4 13998.5 1115.10   1
  -6   2  -4 12220.0 906.734   2
   6   2   4 12293.7 996.750  20
  -6  -2  -4 11631.6 1062.86  18
   6  -2   4 12245.5 953.673  16
  -6   2  -4 12099.3 968.901  18
   6   2   4 10986.9 981.516   6
  -6   2  -4 12910.3 665.507   8
  -6   2  -4 12509.9 970.619   7
   6  -2   4 13062.8 959.450   6
   6   2   4 12183.9 708.023   5
  -6  -2  -4 12226.1 912.889  15
   6   2   4 11180.2 778.778  12
  -6  -2  -4 11527.5 969.706   9
   6  -2   4 12273.1 779.863  10
   6  -2   5 50958.2 2379.38   5
  -6  -2  -5 52923.2 1676.69   3
  -6  -2  -5 53077.4 2539.86   2
   6  -2   5 55548.9 2372.01   1
  -6   2  -5 51715.8 2216.70   2
   6   2   5 50328.9 2127.86   1
  -6   2  -5 57794.4 2624.31   1
   6   2   5 52239.2 2386.11  20
   6  -2   5 50871.3 2272.76  16
  -6  -2  -5 52188.3 2629.18  18
  -6   2  -5 51291.4 2367.92  18
   6   2   5 51927.4 1913.00   5
   6   2   5 51395.8 2478.82   6
  -6   2  -5 52229.8 1585.85   8
  -6   2  -5 50030.4 2220.54   7
   6  -2   5 54213.0 2346.78   6
   6   2   5 51244.3 2241.71  16
   6   2   5 50071.1 2028.43  12
  -6  -2  -5 52235.2 2481.17   9
   6  -2   5 48360.6 1969.89  10
  -6  -2  -6 60690.3 2910.39   2
   6   2   6 58611.9 2459.41   1
  -6   2  -6 61132.5 2535.59   2
   6   2   6 55344.5 2276.60  10
   6  -2   6 60183.5 2334.19  10
  -6  -2  -6 64022.1 2923.76   9
   6  -2   6 57169.3 2566.26  16
  -6  -2  -6 63454.8 3108.22  18
  -6   2  -6 56592.3 2738.56  18
  -6   2  -6 58594.4 2454.06   7
   6  -2   6 59807.1 2639.36   6
   6   2   6 60600.0 2866.66   6
   6   2   6 60160.9 2201.17   5
   6   2   6 56012.9 2484.42  16
  -6   2  -6 60017.7 3387.91  14
  -6   2  -6 57619.0 2996.57  15
   6   2   6 58134.2 2345.21  12
   6  -2   6 59831.6 2731.52   5
  -6   2  -7 37197.7 2585.63   9
   6   2   7 38700.3 1862.33  10
   6  -2   7 35196.9 1805.42  10
  -6  -2  -7 41427.7 2393.38   9
   6  -2   7 37531.6 2053.48  16
  -6  -2  -7 36813.0 2451.24  18
  -6   2  -7 36634.4 2252.99  18
   6   2   7 37954.7 2282.34   6
   6  -2   7 38411.7 2132.17   6
   6  -2   7 35417.9 2088.12   5
  -6   2  -7 38573.8 1893.12   7
   6   2   7 39016.1 2050.45  16
  -6   2  -7 35639.7 2450.53  15
   6   2   7 35617.6 1841.76  12
  -6   2  -7 37721.5 1986.84   2
  -6  -2  -7 39704.1 2380.84   2
  -6  -2  -8 2257.60 638.138   2
  -6   2  -8 2944.00 572.453   2
   6  -2   8 3488.87 584.860  10
   6   2   8 2481.64 500.753  10
  -6  -2  -8 3195.73 709.685   9
  -6   2  -8 2371.74 749.081   9
  -6  -2  -8 1515.21 495.419  18
  -6   2  -8 3102.92 690.009  18
  -6  -2  -8 3862.74 929.521  17
   6  -2   8 3188.91 637.998   6
   6   2   8 3032.53 727.311   6
   6  -2   8 2854.81 606.398  16
   6   2   8 3046.80 591.792  16
  -6   2  -8 3415.17 816.201  15
   6   2   8 2891.06 510.148  12
   6  -2   8 3005.61 622.505   5
  -6  -2  -9 60715.3 3611.28  18
  -6   2  -9 65741.0 3622.84  18
   6  -2   9 65534.5 3098.43  16
  -6  -2  -9 66203.6 3876.85  17
   6  -2   9 68566.0 3224.37   6
   6   2   9 73670.3 3613.94   6
   6  -2   9 63282.9 3126.35   5
   6   2   9 68059.8 3102.42  16
  -6   2  -9 67977.5 3932.76  15
  -6   2  -9 65694.4 3978.74   9
   6  -2   9 67546.7 2935.02  10
   6   2   9 68693.2 2904.53  10
  -6  -2  -9 71479.3 3696.06   9
  -6  -2  -9 60404.7 3362.07   2
  -6   2 -10 39913.9 3220.28  17
  -6  -2 -10 42479.1 3001.87  18
   6  -2  10 47187.7 2611.49  16
  -6   2 -10 45094.2 3057.08  18
  -6  -2 -10 41292.0 3059.52  17
   6  -2  10 47442.2 2642.11   6
   6   2  10 45082.7 2903.42   6
   6   2  10 43815.8 2513.22  16
  -6   2 -10 49324.6 3410.24  15
  -6   2 -10 45033.4 3386.66   9
   6   2  10 43853.9 2338.85  10
   6  -2  10 42883.6 2350.46  10
  -6  -2 -10 43438.6 2968.27   9
  -6  -2 -10 40771.2 2762.96   2
  -6   2 -11 2865.68 836.482  18
  -6  -2 -11 4518.04 1138.68  17
  -6   2 -11 1818.15 795.652  17
  -6  -2 -11 4587.95 1080.23  18
   6  -2  11 3217.57 705.453   6
   6   2  11 2412.46 759.881   6
   6  -2  11 4318.35 828.899  16
   6   2  11 4861.24 850.834  16
  -6   2 -11 4115.40 1141.34  15
   6  -2  11 2558.16 581.851  10
   6   2  11 3227.91 680.573  10
  -6  -2 -11 4530.59 1037.15   9
  -6   2 -11 2037.60 747.942   9
  -6  -2 -11 2676.45 801.049   2
   6   2  12 3618.92 772.142  16
   6  -2  12 3512.23 817.631  16
   6  -2  12 1899.88 667.326   6
   6   2  12 3448.62 914.648   6
  -6  -2 -12 3342.09 1026.27  17
  -6   2 -12 3382.11 1051.74  17
  -6  -2 -12 3521.72 1029.19  18
   6  -2  12 4606.58 813.908  10
   6   2  12 2970.32 673.670  10
  -6  -2 -12 3591.09 1092.42   9
  -6   2 -12 3746.07 1115.60   9
   6   2  13 10520.3 1375.73  16
   6   2  13 12539.9 1594.34   6
   6  -2  13 11379.1 1388.49   6
   6   2  13 11163.0 1276.24  10
  -6  -2 -13 12416.2 1818.69   9
  -6   2 -13 10306.7 1819.12   9
   6  -2  13 11523.8 1324.16  10
  -6   2 -13 13653.6 2053.82  17
  -6  -2 -13 12486.8 1815.47  17
   6  -2  13 12834.7 1491.21  16
  -6  -2 -13 9687.91 1553.42  18
  -6  -4  13 14615.0 1538.43  10
   6  -4 -13 16671.6 2121.63   9
  -6   4  13 16164.5 1682.39  10
   6   4 -13 12545.6 2152.43  11
  -6   4  13 14136.7 1744.61   4
   6   4 -13 13406.4 1988.08  17
   6  -4 -13 14929.2 1962.29  17
  -6   4  12 11804.8 1380.34  10
   6  -4 -12 9995.08 1566.25   9
   6   4 -12 8581.76 1489.67   9
  -6  -4  12 8602.00 1159.32  10
   6   4 -12 10785.8 1956.51  11
  -6   4  12 12283.6 1553.06   4
   6  -4 -12 9221.95 1490.22  17
   6   4 -12 7499.19 1463.70  17
  -6   4  11 1064.42 501.170  10
   6  -4 -11 846.956 548.886   9
   6   4 -11 1713.62 714.631   9
  -6  -4  11 1877.29 592.190  10
   6   4 -11 923.699 595.686  11
  -6   4  11 1494.42 663.021   4
   6   4 -11 2587.12 817.958  17
   6  -4 -11 1209.46 670.931  17
   6  -4 -10 18844.6 1894.65   9
  -6  -4  10 21729.9 1690.78  10
   6   4 -10 17344.7 1832.87   9
  -6   4  10 19774.3 1697.70  10
   6  -4 -10 20004.1 1960.74  17
   6   4 -10 17644.4 1903.51  17
   6   4 -10 19033.4 2266.22  11
  -6   4  10 20053.3 1788.16  12
  -6  -4  10 19447.5 1390.69   4
  -6  -4   9 38759.2 2066.99   3
  -6  -4   9 44903.1 2385.27  10
   6   4  -9 36378.7 2573.46   9
   6  -4  -9 41853.1 2708.37   9
   6   4  -9 38754.4 2666.45  17
   6  -4  -9 41990.6 2677.22  17
  -6   4   9 45792.2 2278.77   8
   6  -4  -9 47263.8 2792.90  13
   6   4  -9 35905.6 2987.71  11
  -6   4   9 46044.5 2622.98  12
  -6  -4   9 43137.8 2101.87   4
  -6  -4   8 17747.9 1314.10   3
   6  -4  -8 19962.8 1696.10   9
  -6  -4   8 22212.4 1524.17  10
   6   4  -8 17980.2 1606.13   9
   6  -4  -8 19064.0 1603.27  17
   6   4  -8 21153.8 1750.80  17
  -6   4   8 19834.8 1460.53   8
   6  -4  -8 19712.3 1737.23  13
   6   4  -8 19679.9 2003.18  11
  -6   4   8 20304.0 1570.42  12
  -6  -4   8 20802.4 1318.28   4
  -6  -4   7 31042.3 1601.67   4
  -6  -4   7 27936.6 1666.31   3
  -6  -4   7 27966.9 1465.35  19
   6   4  -7 28475.1 1854.05  17
   6  -4  -7 28881.1 1858.70  17
  -6   4   7 32396.7 1928.69   8
   6  -4  -7 27482.7 1691.10  14
   6  -4  -7 29301.0 2071.42  13
  -6   4   7 31310.0 1878.58  14
  -6   4   7 31752.0 1917.82  12
   6   4  -7 27323.8 2205.66  11
   6  -4  -7 32467.8 2031.50   9
   6   4  -7 26761.0 1816.51   9
  -6  -4   7 32680.6 1794.94  10
  -6  -4   6 169706. 4965.22   4
  -6  -4   6 157929. 5156.29   3
  -6  -4   6 161254. 4854.01  19
   6  -4  -6 166822. 5364.93  17
   6   4  -6 163250. 5246.61  17
  -6   4   6 173462. 5609.72   8
   6  -4  -6 155144. 5004.41  14
   6  -4  -6 167472. 5861.46  13
  -6  -4   6 167556. 5413.43  14
  -6   4   6 161504. 5256.82  14
   6   4  -6 168477. 6014.31  11
  -6   4   6 175584. 5446.63  12
   6  -4  -6 176402. 5611.39   9
  -6  -4   6 172282. 5185.91  10
   6   4  -6 160302. 5189.08   9
  -6  -4   5 137406. 4195.97   4
  -6  -4   5 131544. 4417.42   3
  -6  -4   5 129230. 4148.40  19
   6  -4  -5 148407. 4368.16  19
   6  -4  -5 143646. 4531.45  17
   6   4  -5 133404. 4264.90  17
  -6   4   5 146425. 4344.75   7
  -6   4   5 136068. 4865.06   8
   6  -4  -5 131230. 4112.67  14
   6   4  -5 129634. 4603.21  14
   6  -4  -5 146138. 5098.95  13
  -6  -4   5 137235. 4493.13  14
  -6   4   5 137595. 4403.22  14
  -6   4   5 134930. 4531.07  12
   6   4  -5 136355. 4946.59  11
   6   4  -5 129770. 4138.98   9
   6  -4  -5 148598. 4746.69   9
  -6  -4   5 133174. 4334.66  10
  -6  -4   4 5181.75 574.767   4
   6  -4  -4 4687.85 535.648   5
  -6  -4   4 5403.39 655.834   3
  -6  -4   4 5058.66 590.363  19
   6   4  -4 6332.75 840.825  20
   6  -4  -4 5086.45 646.515  19
   6  -4  -4 8239.82 768.157  17
   6   4  -4 5573.67 557.693  17
  -6   4   4 5185.80 776.853   8
   6  -4  -4 4912.62 492.721  14
   6  -4  -4 6935.19 870.941  13
   6   4  -4 4360.71 620.922  14
  -6  -4   4 4089.38 546.306  14
  -6  -4   4 5495.74 439.873  13
  -6   4   4 4942.69 537.338  14
   6  -4  -4 5306.15 354.723  11
   6   4  -4 5481.63 755.001  11
  -6   4   4 5693.58 658.655  12
   6   4  -4 7212.47 541.536   9
   6  -4  -4 6144.60 724.696   9
  -6  -4   4 4126.54 547.533  10
   6  -4  -3 47765.8 1901.02   5
  -6  -4   3 42841.4 1867.26   4
  -6  -4   3 46904.8 2101.37   3
  -6  -4   3 42853.6 1921.77  19
   6  -4  -3 47755.9 2211.84  19
   6   4  -3 48114.8 2394.02  20
   6   4  -3 45490.4 1708.17  17
   6  -4  -3 43850.6 1908.29  17
  -6   4   3 43646.9 2395.35   8
  -6  -4   3 43795.3 1690.18  13
   6   4  -3 47317.0 2067.32  14
   6  -4  -3 49093.5 2337.86  13
  -6  -4   3 46266.0 1914.64  14
  -6   4   3 43438.1 1676.90  14
   6   4  -3 46853.9 2230.71  11
  -6   4   3 46028.6 2027.64  12
   6  -4  -3 47649.1 2149.25   9
   6   4  -3 45743.2 1408.44   9
  -6  -4   3 45277.9 1992.50  10
  -6  -4   2 88910.7 3091.32   4
   6  -4  -2 96817.4 3045.35   5
  -6  -4   2 89152.1 2904.72   2
  -6  -4   2 90401.9 3244.72   3
   6   4  -2 92887.4 3528.61  21
   6  -4  -2 89522.6 3447.72  19
  -6  -4   2 89108.3 3108.40  19
   6   4  -2 91246.5 3579.60  20
   6  -4  -2 91739.0 3030.26  17
  -6   4   2 88929.5 3731.70   8
   6  -4  -2 95467.3 3460.16  13
  -6  -4   2 89504.3 2930.47  14
  -6   4   2 93210.4 2667.53  14
   6   4  -2 92879.9 3232.10  11
  -6   4   2 84584.5 3082.81  12
  -6  -4   2 89406.3 3145.41  10
  -6  -4   1 216064. 6015.87   2
  -6  -4   1 226083. 6280.56   3
  -6   4   1 215518. 5523.10   1
  -6  -4   1 217595. 6091.92  19
   6   4  -1 209034. 6361.79  21
   6  -4  -1 232761. 6657.92  19
   6   4  -1 212231. 6509.96  20
  -6  -4   1 219663. 5520.04  18
  -6   4   1 211573. 6811.95   8
   6  -4  -1 229693. 6403.32  13
  -6   4   1 216955. 5439.81  14
  -6  -4   1 214902. 5763.46  14
   6   4  -1 208256. 5972.23  11
  -6   4   1 207851. 6027.34  12
   6   4  -1 209902. 6469.09  12
  -6  -4   1 214348. 6120.15   4
   6  -4  -1 214105. 5965.82   5
  -6  -4   0 36346.9 1796.27   2
  -6   4   0 37435.3 1603.84   1
  -6  -4   0 38379.9 1809.52   3
  -6   4   0 37122.3 1827.51  21
   6   4   0 38121.3 1889.41  21
   6  -4   0 38104.4 2022.34  19
  -6  -4   0 39154.2 1780.17  19
   6   4   0 38003.9 1992.07  20
  -6  -4   0 36017.5 1533.33  18
  -6   4   0 33372.4 2048.21   8
   6   4   0 37870.9 1664.22   6
  -6  -4   0 36000.7 1490.47  14
   6  -4   0 38174.3 1842.55  13
   6   4   0 37327.4 1647.98  11
  -6   4   0 41151.7 1780.17  12
   6   4   0 36134.2 1923.81  12
   6  -4   0 35630.8 2016.48   3
  -6  -4   0 34714.7 1779.06   4
   6  -4   0 37230.1 1725.65   5
  -6   4   0 37444.3 1367.34   4
  -6  -4  -1 182684. 5608.89   4
   6  -4   1 180511. 5363.65   5
  -6   4  -1 183750. 4411.41   4
   6  -4   1 186921. 5942.36   3
  -6   4  -1 204524. 5451.11   1
  -6  -4  -1 183756. 5609.25   2
  -6  -4  -1 182278. 5299.92   3
  -6   4  -1 180220. 5479.52  21
   6  -4   1 192932. 5800.14  19
  -6   4  -1 176570. 4302.25  20
   6   4   1 178993. 5675.43  20
  -6  -4  -1 182271. 5358.97  19
  -6  -4  -1 190704. 5287.95  18
   6   4   1 177761. 5198.96   6
   6  -4   1 183495. 4625.95   6
  -6   4  -1 181501. 5882.40   8
   6  -4   1 183580. 5369.05  13
   6   4   1 188044. 5161.67  11
   6   4   1 181034. 5575.37  12
  -6   4  -1 175604. 5250.72  12
  -6  -4  -1 174642. 4236.73   9
   6  -4   2 318200. 9098.85   3
   6  -4   2 309841. 8545.53   5
  -6  -4  -2 307975. 8824.11   4
  -6  -4  -2 294324. 8733.96   2
  -6  -4  -2 310135. 8224.93   3
   6   4   2 310538. 8790.78  20
   6  -4   2 323395. 8837.98  19
  -6  -4  -2 315752. 8452.05  19
  -6   4  -2 300242. 7517.18  20
   6  -4   2 300561. 8508.43  16
  -6  -4  -2 313116. 8544.18  18
   6   4   2 301504. 8325.06   6
  -6   4  -2 309562. 8783.38   8
   6  -4   2 327035. 7746.94   6
   6  -4   2 302207. 8288.58  13
  -6   4  -2 318947. 8387.24  12
   6  -4   2 300762. 8353.01  10
   6   4   2 312890. 8565.18  12
   6   4   2 310313. 8177.39  11
  -6  -4  -2 314708. 7579.53   9
   6  -4   3 85197.3 3622.46   3
   6  -4   3 88706.8 3394.06   5
  -6   4  -3 103652. 3695.41   1
  -6  -4  -3 85279.3 3558.19   2
  -6  -4  -3 88500.3 2992.87   3
  -6  -4  -3 90410.5 3258.93  19
   6  -4   3 91179.3 3508.63  19
   6   4   3 84669.6 3462.25  20
  -6  -4  -3 87513.4 3441.69  18
   6  -4   3 82435.7 3291.32  16
   6   4   3 85494.0 3233.82   6
  -6   4  -3 92227.7 3362.72   8
   6  -4   3 90888.1 2785.63   6
  -6   4  -3 99289.9 3604.27  14
   6  -4   3 87144.3 3056.62  13
   6   4   3 85147.4 3243.81  12
   6  -4   3 81840.6 3086.94  10
  -6  -4  -3 95014.8 2829.26   9
   6  -4   4 6755.21 841.047   5
  -6  -4  -4 5683.53 578.826   3
  -6  -4  -4 4629.63 780.204   2
  -6   4  -4 6914.16 899.391   1
   6  -4   4 6531.01 901.958   3
   6  -4   4 6207.82 797.933  19
   6   4   4 5613.72 790.951  20
  -6  -4  -4 6103.36 820.466  18
   6   4   4 6102.92 743.730   6
  -6   4  -4 5064.86 613.638   8
   6  -4   4 5871.28 584.779   6
   6  -4   4 6708.98 791.732  16
  -6   4  -4 5445.23 811.904  14
   6   4   4 5774.74 711.395  12
   6  -4   4 6612.65 697.660  10
  -6  -4  -4 6396.03 643.889   9
   6  -4   5 39873.4 2230.22   5
   6  -4   5 41124.9 2273.24   3
  -6   4  -5 40724.4 1999.26   2
   6   4   5 37658.1 1876.96   1
  -6  -4  -5 41056.6 2417.86   2
   6   4   5 42519.3 2346.90  20
   6  -4   5 40171.5 2135.58  19
   6  -4   5 39949.8 2160.66  16
  -6  -4  -5 42577.0 2390.98  18
   6   4   5 41596.7 2197.94   6
  -6   4  -5 34988.8 2223.54   7
  -6   4  -5 40786.8 1768.17   8
   6  -4   5 41288.3 1817.97   6
  -6   4  -5 41234.2 2512.91  14
   6   4   5 39289.1 2006.54  12
   6  -4   5 38267.0 1873.00  10
  -6  -4  -5 37674.4 1921.78   9
   6  -4   6 37060.7 2096.85   3
   6  -4   6 36953.5 2194.91   5
   6   4   6 36218.9 2255.50  20
  -6  -4  -6 38593.5 1981.46  19
  -6  -4  -6 34883.2 2207.21  17
  -6  -4  -6 35421.0 2300.17  18
  -6   4  -6 34734.1 2095.75  18
   6  -4   6 35376.3 2097.34  16
  -6  -4  -6 33859.2 2300.23   2
  -6   4  -6 36627.8 1896.14   2
  -6   4  -6 31923.5 2112.51   7
   6  -4   6 38477.9 1843.02   6
   6   4   6 35767.8 2147.58   6
   6   4   6 34138.9 1916.67  12
   6  -4   6 33825.8 1823.11  10
  -6  -4  -6 35865.0 1985.07   9
   6  -4   7 29154.4 1820.78   3
  -6   4  -7 33323.0 1821.56   2
  -6  -4  -7 28187.1 2165.47   2
  -6  -4  -7 30984.4 1799.39  19
   6  -4   7 29852.8 2032.00  16
  -6  -4  -7 31934.0 2264.64  18
  -6   4  -7 29243.6 2025.97  18
  -6  -4  -7 31169.6 2153.88  17
   6  -4   7 31697.3 1710.69   6
   6   4   7 30995.3 2076.07   6
   6  -4   7 33466.7 2124.63   5
  -6   4  -7 30359.7 2012.53   7
   6   4   7 30080.4 1864.98  12
   6  -4   7 30751.0 1793.44  10
  -6  -4  -7 30955.2 1975.26   9
  -6  -4  -8 1602.07 606.719   2
  -6   4  -8 2763.06 858.182   9
  -6  -4  -8 3395.93 712.009   9
   6  -4   8 2360.23 542.244  10
  -6   4  -8 2890.66 717.306  18
  -6  -4  -8 3336.00 572.394  19
  -6  -4  -8 1929.65 581.793  17
  -6  -4  -8 3276.02 796.782  18
   6  -4   8 2930.49 513.865   6
   6   4   8 3323.37 726.961   6
  -6   4  -8 3061.47 663.397   7
   6  -4   8 2899.68 697.251  16
   6   4   8 1652.92 507.120  16
  -6   4  -8 2660.94 828.382  15
   6   4   8 2082.80 581.193  12
   6  -4   8 2520.83 660.382   5
  -6   4  -9 46808.9 3482.17   9
   6  -4   9 48169.9 2543.26  10
  -6  -4  -9 48852.5 2857.83   9
   6   4   9 45932.2 2539.85  10
   6  -4   9 51160.8 2882.26  16
  -6  -4  -9 46281.5 3092.36  18
  -6   4  -9 51332.8 3515.16  17
  -6   4  -9 50064.8 3075.64  18
  -6  -4  -9 45128.9 2916.80  17
   6  -4   9 42162.8 2252.41   6
   6   4   9 48647.2 2902.08   6
   6  -4   9 43933.6 2701.51   5
  -6  -4  -9 46657.6 2786.59  13
   6   4   9 49708.1 2789.11  16
  -6   4  -9 48065.1 3497.95  15
   6   4   9 45899.2 2572.45  12
  -6  -4  -9 47801.1 3059.27   2
  -6  -4 -10 24654.7 2308.69  18
  -6  -4 -10 25038.6 2207.55  17
   6  -4  10 31847.2 2259.50  16
  -6   4 -10 28552.6 2666.81  17
   6   4  10 28748.9 2218.37   6
   6  -4  10 25724.4 2078.19   5
   6   4  10 27980.7 2106.29  16
  -6   4 -10 31134.5 2952.47  15
  -6  -4 -10 26163.7 2064.26  13
   6   4  10 25340.8 1945.14  12
  -6   4 -10 25647.0 2659.09   9
   6  -4  10 27886.0 1975.98  10
  -6  -4 -10 25296.3 2138.08   9
   6   4  10 26083.0 1895.82  10
  -6   4 -11 3513.89 1041.44  17
  -6  -4 -11 2673.59 881.540  18
  -6  -4 -11 4246.89 968.585  17
   6   4  11 3785.47 820.629   6
   6  -4  11 2955.85 786.524  16
   6   4  11 4211.73 895.564  16
  -6   4 -11 3756.86 1134.60  15
   6   4  11 3079.44 728.564  12
  -6  -4 -11 2541.88 815.661   9
   6   4  11 2433.98 662.874  10
  -6   4 -11 3253.19 1089.27   9
   6  -4  11 2810.06 667.754  10
   6  -4  12 2600.76 756.051  16
   6   4  12 2395.62 749.418  16
  -6   4 -12 3552.87 1156.02  15
  -6   4 -12 4297.01 1192.68  17
  -6  -4 -12 3066.96 975.917  18
  -6  -4 -12 3451.53 942.847  17
   6   4  12 3683.66 821.243  10
  -6   4 -12 2370.58 917.695   9
  -6  -4 -12 3108.97 880.020   9
   6  -4  12 3533.14 783.330  10
   6   4  12 2013.87 703.855   6
   6  -6 -12 3112.10 896.328  17
  -6   6  12 6968.95 1193.00  10
   6  -6 -12 4661.43 1144.68   9
  -6  -6  12 5312.87 1011.42  10
   6   6 -12 5871.57 1467.71  11
  -6   6  12 2729.02 833.458  12
   6  -6 -11 523.682 495.936  17
   6   6 -11 490.399 678.325  11
  -6   6  11 443.026 564.403  12
  -6   6  11 616.456 462.824  10
   6  -6 -11 174.301 448.662   9
  -6  -6  11 316.855 435.078  10
  -6  -6  10 13226.3 1465.23  10
   6  -6 -10 11824.6 1569.13   9
   6  -6 -10 11315.1 1393.94  17
   6  -6 -10 12368.9 1606.88  13
   6   6 -10 8332.73 1611.66  11
  -6   6  10 11742.9 1495.32  12
  -6  -6  10 10882.3 1173.90   3
   6  -6  -9 20996.2 1928.44   9
  -6  -6   9 23972.8 1885.22  10
   6  -6  -9 25110.2 1919.40  17
  -6   6   9 22609.8 1927.34   8
   6  -6  -9 23327.1 2148.41  13
   6   6  -9 18963.2 2235.59  11
  -6   6   9 23735.7 2071.79  12
  -6  -6   9 21433.8 1632.24   3
  -6  -6   8 9006.68 1037.43   3
   6   6  -8 10705.8 1378.77  20
   6  -6  -8 9446.70 1122.97  17
  -6   6   8 10728.2 1324.31   8
   6  -6  -8 11152.2 1447.48  13
   6   6  -8 10425.0 1527.81  11
  -6   6   8 11702.3 1394.29  12
   6  -6  -8 8929.86 1172.93   9
  -6  -6   8 9175.20 1119.11  10
  -6  -6   7 9883.95 1087.12   3
   6   6  -7 12138.9 1412.21  20
  -6  -6   7 9677.90 975.870  19
   6  -6  -7 12272.8 1155.42  17
  -6   6   7 10021.0 1293.51   8
   6  -6  -7 12181.9 1469.49  13
   6   6  -7 10405.4 1432.30  11
  -6   6   7 14826.0 1468.78  12
   6  -6  -7 12568.1 1298.74   9
  -6  -6   7 13087.6 1276.96  10
  -6  -6   6 87962.0 3270.44   4
  -6  -6   6 83639.8 3544.35   3
  -6  -6   6 85496.7 3421.67  19
   6   6  -6 89104.1 4095.50  20
   6  -6  -6 88121.3 3444.95  17
  -6   6   6 90984.0 4232.07   8
   6  -6  -6 92542.0 4242.21  13
   6   6  -6 81487.9 4024.75  11
  -6   6   6 96830.2 4044.67  12
   6  -6  -6 96314.3 3856.04   9
  -6  -6   6 90096.6 3712.48  10
  -6  -6   5 69281.7 2785.11   4
   6  -6  -5 70575.3 2702.27   5
  -6  -6   5 66044.0 3026.87   3
  -6  -6   5 70405.7 2966.40  19
   6  -6  -5 76104.3 3291.01  19
   6   6  -5 72257.1 3505.66  20
   6  -6  -5 69108.2 2799.46  17
  -6   6   5 76997.9 3819.43   8
   6  -6  -5 70680.6 3549.72  13
   6   6  -5 61296.9 3217.69  11
  -6   6   5 71126.2 3334.50  12
   6  -6  -5 75341.2 3223.75   9
  -6  -6   5 71886.8 3129.73  10
   6  -6  -4 3358.35 512.347   5
  -6  -6   4 3687.57 549.992   4
  -6  -6   4 2926.84 599.929   3
   6   6  -4 3343.83 710.694  20
  -6  -6   4 2567.85 523.893  19
   6  -6  -4 2772.39 592.877  19
   6  -6  -4 2852.95 469.558  17
  -6   6   4 3887.97 854.012   8
   6  -6  -4 2250.28 632.549  13
  -6   6   4 3571.70 673.213  12
   6   6  -4 2859.29 624.322  11
  -6  -6   4 3539.77 632.853  10
  -6  -6   3 19114.8 1472.08   3
  -6   6   3 23769.9 2020.60   8
   6  -6  -3 19175.3 1553.93  13
  -6  -6   3 17840.2 1118.59  13
   6   6  -3 22684.0 1821.38  21
  -6  -6   3 19015.1 1367.60  19
   6  -6  -3 20304.6 1633.09  19
   6   6  -3 23049.1 1795.03  20
  -6   6   3 19150.3 1516.08  12
  -6  -6   3 20565.1 1517.49  10
   6   6  -3 20346.6 1489.47  11
  -6  -6   3 17682.9 1244.17   4
   6  -6  -3 20272.0 1247.85   5
  -6  -6   2 46297.4 2422.49   3
  -6  -6   2 49876.0 2338.75  19
   6   6  -2 53591.5 2850.86  21
   6  -6  -2 53563.9 2755.45  19
   6   6  -2 52222.5 2777.32  20
   6  -6  -2 49601.8 2561.44  13
  -6  -6   2 46901.5 2094.10  13
  -6   6   2 50007.8 2543.23  12
   6   6  -2 53573.0 2887.95  12
   6   6  -2 50959.4 2361.56  11
  -6  -6   2 48514.0 2281.04   4
   6  -6  -2 50722.6 2178.24   5
   6  -6  -2 48812.5 2617.91   3
  -6  -6   1 86876.4 3503.48   3
  -6  -6   1 86556.5 3381.92  19
   6   6  -1 90538.7 3863.75  21
   6  -6  -1 91315.7 3845.02  19
   6   6  -1 91911.7 3815.03  20
   6   6  -1 89985.2 2960.09   6
   6  -6  -1 86219.3 3571.39  13
  -6  -6   1 82433.2 3168.67  13
   6   6  -1 88090.1 3207.46  11
  -6   6   1 89294.3 3616.29  12
   6   6  -1 91736.6 3888.25  12
   6  -6  -1 96672.4 3976.62   3
  -6  -6   1 87850.6 3405.61   4
   6  -6  -1 93368.3 3300.64   5
  -6   6   0 15052.7 1082.87   1
  -6  -6   0 12956.7 1137.29   3
  -6  -6   0 11698.1 1071.07  19
   6  -6   0 11340.2 1191.37  19
   6   6   0 11915.7 1225.95  20
  -6  -6   0 11931.9 857.698  18
   6   6   0 12311.3 868.181   6
   6  -6   0 10951.8 1068.75  13
  -6  -6   0 10778.3 1009.47  13
   6   6   0 11796.3 910.773  11
  -6   6   0 11677.7 1123.79  12
   6   6   0 10832.3 1202.67  12
   6  -6   0 11779.6 1005.76   5
   6  -6   0 14206.8 1387.35   3
  -6  -6   0 10331.5 1023.89   4
  -6   6  -1 92346.3 3342.07   1
  -6  -6  -1 75918.4 3132.58   3
  -6   6  -1 81117.3 3520.90  21
  -6  -6  -1 77313.3 3171.32  19
   6  -6   1 80674.4 3488.67  19
   6   6   1 78436.7 3509.45  20
  -6  -6  -1 82211.4 2927.57  18
   6   6   1 77325.4 2796.15   6
   6  -6   1 76965.7 3153.74  13
  -6  -6  -1 77378.0 3203.98  13
   6   6   1 75663.6 2772.99  11
   6   6   1 77083.7 3497.86  12
  -6   6  -1 79914.0 3337.74  12
   6  -6   1 77222.3 3126.55   5
  -6  -6  -1 77149.5 3334.71   4
   6  -6   1 77663.5 3668.96   3
  -6  -6  -2 143790. 4847.36   3
   6  -6   2 146987. 5259.57  19
  -6  -6  -2 151893. 5051.31  19
   6   6   2 145463. 5364.63  20
  -6   6  -2 147741. 5368.65  21
  -6  -6  -2 145281. 4817.27  18
   6   6   2 150977. 4654.48   6
   6  -6   2 147014. 4851.50  13
  -6  -6  -2 139625. 5070.13  13
  -6   6  -2 151168. 5182.23  12
   6   6   2 148046. 5379.09  12
   6  -6   2 157631. 5082.02   5
   6  -6   2 145308. 5586.96   3
  -6  -6  -3 40012.4 2032.84   3
   6   6   3 40499.7 2453.62  20
  -6   6  -3 42968.3 2506.19  21
  -6  -6  -3 41970.0 2225.52  19
   6  -6   3 42288.1 2351.35  19
  -6  -6  -3 40115.9 2184.38  18
   6   6   3 39324.4 1983.53   6
   6  -6   3 43791.6 2073.49  13
  -6  -6  -3 39927.2 2320.93  13
   6  -6   3 37630.5 2172.70  10
   6   6   3 40361.4 2389.68  12
  -6   6  -3 46169.9 2404.75  12
   6  -6   3 38464.1 2192.10   5
   6  -6   3 42056.9 2552.39   3
   6  -6   4 3846.34 671.765   5
  -6  -6  -4 2456.24 479.088   3
   6  -6   4 2422.05 607.462   3
   6  -6   4 3015.85 651.021  19
  -6  -6  -4 3894.35 686.297  19
   6   6   4 3051.34 737.404  20
  -6  -6  -4 2982.14 617.423  18
   6   6   4 3119.87 563.100   6
  -6   6  -4 2895.18 621.547   8
   6  -6   4 3539.99 567.937  13
   6   6   4 2936.59 614.336  12
  -6   6  -4 2707.38 564.047  12
  -6  -6  -4 2978.08 672.503  13
   6  -6   4 2780.78 587.751  10
   6  -6   5 18074.4 1595.78   3
   6  -6   5 18740.3 1582.66   5
   6   6   5 19430.9 1753.98  20
  -6  -6  -5 19140.3 1475.12  19
   6  -6   5 20730.3 1599.85  19
  -6  -6  -5 20149.0 1702.15  18
  -6   6  -5 17732.9 1419.44   8
   6   6   5 17275.8 1391.02   6
  -6  -6  -5 17470.0 1557.83  13
   6   6   5 20027.5 1642.07  12
   6  -6   5 19300.7 1485.53  10
   6  -6   6 20550.9 1659.50   3
  -6  -6  -6 22862.4 1648.97  19
   6   6   6 27075.0 2152.36  20
   6  -6   6 22253.6 1705.60  19
  -6  -6  -6 20191.0 1818.82  18
  -6   6  -6 25141.8 1813.11  18
   6  -6   6 23741.8 1834.61   5
   6   6   6 23978.8 1713.36   6
  -6  -6  -6 19643.4 1744.68  13
   6   6   6 26059.3 1919.73  12
   6  -6   6 24828.1 1739.45  10
   6  -6   7 12418.0 1290.04   3
  -6  -6  -7 17032.9 1392.45  19
   6  -6   7 14086.6 1368.83  19
  -6  -6  -7 14624.8 1593.00  18
  -6   6  -7 13222.7 1537.17   7
   6   6   7 14719.8 1402.24   6
   6  -6   7 17805.7 1617.43   5
  -6  -6  -7 14416.9 1504.81  13
   6   6   7 15886.6 1506.20  12
   6  -6   7 15323.2 1421.55  10
   6  -6   8 728.429 358.926   3
  -6   6  -8 2712.05 784.085   9
   6  -6   8 2690.09 674.967  10
  -6  -6  -8 2052.06 641.659  18
  -6   6  -8 2314.52 632.989   7
   6   6   8 2177.82 602.585   6
  -6   6  -8 2589.96 910.397  15
  -6  -6  -8 1874.51 629.791  13
   6   6   8 2542.69 710.271  12
   6  -6   8 1820.26 654.113   5
  -6  -6  -9 23376.7 2194.28  18
   6   6   9 22790.4 1873.83   6
   6  -6   9 21302.0 1916.02   5
  -6  -6  -9 22247.4 1964.43  13
  -6   6  -9 27580.1 2814.14  15
   6   6   9 25982.6 2100.54  12
  -6   6  -9 24025.2 2573.42   9
   6  -6   9 25171.3 1961.73  10
  -6  -6 -10 16068.3 1880.80  18
   6   6  10 17037.0 1673.57   6
   6   6  10 16080.9 1752.79  16
  -6  -6 -10 15488.1 1666.54  13
  -6   6 -10 16378.9 2239.93  15
   6   6  10 17418.2 1741.19  12
   6   6  10 16444.7 1692.80  10
   6  -6  10 16306.5 1633.17  10
  -6   6 -10 16697.1 2151.53   9
  -6  -6 -11 854.462 715.794  18
   6   6  11 1937.70 650.310   6
  -6  -6 -11 1774.29 637.501  13
   6   6  11 1867.42 736.899  16
  -6   6 -11 2451.22 1061.62  15
   6   6  11 1654.04 636.207  12
   6   6  11 1663.07 670.143  10
  -6   6 -11 2534.64 1003.55   9
   6  -6  11 1711.81 660.940  10
   6   8 -10 3725.75 1023.91  20
  -6  -8  10 3174.81 711.512   3
   6  -8 -10 2729.79 897.589  13
   6   8 -10 5121.68 1246.79  11
  -6   8  10 5824.86 1210.47  12
   6  -8 -10 2866.62 812.197   9
  -6  -8  10 4483.72 960.600  10
   6   8  -9 11933.8 1691.48  20
  -6   8   9 10318.3 1483.66   8
  -6  -8   9 9384.65 1196.19   3
   6  -8  -9 12003.4 1663.35  13
   6   8  -9 10033.6 1582.62  11
  -6   8   9 13063.7 1738.08  12
   6  -8  -9 10394.9 1420.50   9
  -6  -8   9 11049.1 1453.29  10
  -6  -8   8 2934.43 645.866  19
   6   8  -8 4284.17 1007.73  20
  -6   8   8 2477.09 806.389   8
  -6  -8   8 3157.28 788.521   3
   6  -8  -8 2135.53 737.409  13
   6   8  -8 2807.17 924.067  11
  -6   8   8 5351.27 1111.41  12
   6  -8  -8 3391.37 821.930   9
  -6  -8   8 4258.93 897.439  10
   6   8  -7 3984.93 970.276  20
   6   8  -7 4752.20 1102.26  21
  -6  -8   7 4731.09 807.099  19
  -6   8   7 5022.50 1099.39   8
  -6  -8   7 4217.37 798.763   3
   6  -8  -7 3788.56 943.852  13
   6   8  -7 4867.63 1008.02  11
  -6   8   7 5361.71 1099.63  12
  -6  -8   7 4459.30 897.827  10
   6   8  -6 35068.1 2793.70  21
   6   8  -6 32864.6 2542.30  20
  -6  -8   6 29750.2 2044.21  19
   6  -8  -6 35448.1 2622.26  13
  -6   8   6 35086.1 2592.04  12
  -6  -8   6 33919.0 2368.18  10
   6   8  -6 30847.1 2333.57  11
  -6  -8   6 29425.7 2096.76   3
  -6   8   5 36907.0 2965.79   8
   6   8  -5 31908.5 2620.50  21
   6  -8  -5 32927.3 2290.09  19
   6   8  -5 30702.3 2393.12  20
  -6  -8   5 29912.4 2033.67  19
   6  -8  -5 27077.0 2202.66  13
   6   8  -5 28958.8 2109.70  11
  -6  -8   5 29548.5 2157.00  10
  -6   8   5 35159.1 2503.17  12
   6   8  -5 32921.2 2578.95  12
  -6  -8   5 26186.5 1966.75   3
  -6   8   4 1210.95 814.611   8
   6   8  -4 548.481 371.796  20
  -6  -8   4 743.920 426.792  19
   6  -8  -4 1435.38 601.064  19
   6   8  -4 654.470 575.778  21
   6  -8  -4 1652.64 619.085  13
  -6   8   4 647.524 473.339  12
   6   8  -4 1399.70 661.316  12
  -6  -8   4 780.796 446.548   3
  -6  -8   3 5539.41 871.586   3
  -6   8   3 7069.59 1362.47   8
   6  -8  -3 7286.76 1095.62  13
   6  -8  -3 6740.83 1047.28  19
   6   8  -3 6966.36 1104.76  20
   6   8  -3 7484.03 1235.44  21
  -6  -8   3 5854.02 841.337  19
  -6   8   3 7171.43 1079.47  12
   6   8  -3 5890.89 1068.50  12
  -6  -8   3 6626.04 820.094   4
  -6  -8   2 22844.4 1761.49   3
   6  -8  -2 23219.8 1833.00  13
  -6  -8   2 21777.1 1469.07  13
  -6  -8   2 20481.1 1610.67  19
   6   8  -2 25085.4 2192.60  21
   6  -8  -2 20418.9 1809.56  19
   6   8  -2 25264.1 2029.58  20
  -6   8   2 23866.2 1964.24  12
   6   8  -2 26976.6 2230.39  12
  -6  -8   2 20374.3 1506.57   4
   6  -8  -2 22302.2 1896.25   3
  -6  -8   1 32685.8 2091.45   3
   6  -8  -1 33347.6 2146.85  13
  -6  -8   1 27195.7 1730.64  13
   6  -8  -1 35177.2 2352.80  19
  -6  -8   1 30286.6 1955.32  19
   6   8  -1 33836.6 2323.38  20
  -6   8   1 34874.2 2362.92  12
   6   8  -1 33909.0 2470.79  12
   6  -8  -1 31846.5 2342.54   3
  -6  -8   0 4322.54 761.406   3
   6  -8   0 1825.99 627.758   3
  -6  -8   0 3167.24 616.370  13
   6  -8   0 2978.76 621.821  13
  -6  -8   0 2857.83 624.992  19
   6   8   0 2692.80 706.210  20
   6  -8   0 3422.44 743.284  19
  -6   8   0 3087.25 749.648  12
   6   8   0 3086.59 783.466  12
   6  -8   0 2578.96 524.293   5
  -6  -8  -1 25340.3 1782.99   3
  -6  -8  -1 26200.0 1803.34  13
   6  -8   1 25308.7 1782.72  13
  -6  -8  -1 27989.1 1884.89  19
   6   8   1 27250.1 2089.44  20
   6  -8   1 24525.3 1904.00  19
   6   8   1 28259.1 2228.04  12
  -6   8  -1 30828.3 2177.03  12
   6  -8   1 26665.8 2146.92   3
   6  -8   1 28352.4 1805.41   5
  -6  -8  -2 57405.5 2807.66   3
  -6  -8  -2 55416.8 2894.56  13
   6  -8   2 61053.0 2851.12  13
  -6   8  -2 62149.9 3406.72  21
  -6  -8  -2 57873.8 2897.53  19
   6   8   2 59811.5 3288.36  20
   6  -8   2 64037.4 3226.27  19
   6   8   2 63641.0 3476.92  12
  -6   8  -2 61744.8 3257.61  12
   6  -8   2 63284.7 2942.76   5
   6  -8   2 55250.4 3246.43   3
  -6  -8  -3 14163.2 1254.28   3
   6   8   3 12377.2 1469.39  20
  -6  -8  -3 15021.2 1404.53  19
  -6   8  -3 16900.8 1745.33  21
   6  -8   3 13206.1 1395.94  19
  -6  -8  -3 12655.4 1325.55  13
   6  -8   3 12949.0 1191.73  13
   6   8   3 12855.6 1549.42  12
  -6   8  -3 14201.8 1495.28  12
   6  -8   3 13411.4 1287.46   5
   6  -8   3 13094.7 1464.09   3
   6  -8   4 422.679 463.614   3
   6   8   4 876.498 532.501  20
   6  -8   4 883.087 521.247  19
  -6   8  -4 344.668 529.847  21
  -6  -8  -4 447.015 379.811  19
  -6  -8  -4 927.312 424.217  18
  -6   8  -4 1230.94 581.825   8
   6  -8   4 619.061 304.369  13
  -6  -8  -4 1242.98 537.609  13
   6   8   4 21.8566 412.986  12
  -6   8  -4 139.839 427.391  12
   6  -8   4 326.170 311.950   5
   6  -8   5 8174.23 1129.88   3
   6   8   5 7726.36 1234.81  20
   6  -8   5 6763.02 1029.63  19
  -6  -8  -5 7381.81 998.637  19
  -6   8  -5 10419.8 1410.14  21
  -6  -8  -5 8136.11 1145.27  18
  -6  -8  -5 7799.04 1088.53  13
   6   8   5 7830.18 1246.93  12
  -6   8  -5 8649.42 1233.93  12
   6  -8   5 8952.38 1125.23   5
   6  -8   6 10792.3 1288.21   3
   6   8   6 11617.9 1526.88  20
   6  -8   6 10893.6 1329.62  19
  -6  -8  -6 10432.1 1167.42  19
  -6   8  -6 10426.1 1482.65  21
  -6  -8  -6 10618.1 1364.44  18
   6  -8   6 10792.8 1297.50   5
  -6  -8  -6 11196.6 1344.92  13
   6   8   6 11241.9 1487.98  12
   6  -8   6 10791.7 1311.61  10
   6  -8   7 4827.90 919.580   5
   6  -8   7 3785.71 776.666   3
  -6   8  -7 4290.63 1041.76  21
   6  -8   7 5419.14 936.026  19
  -6  -8  -7 4784.14 1037.27  18
  -6   8  -7 5849.46 1212.73   7
  -6  -8  -7 5637.88 997.754  13
   6   8   7 6013.37 1067.38  12
   6  -8   7 6098.67 1040.58  10
   6  -8   8-30.8572 393.474   5
   6  -8   8 275.084 326.661   3
   6  -8   8 787.693 468.392  19
  -6  -8  -8 1442.45 719.824  18
  -6   8  -8-177.716 466.293   7
   6   8   8 1337.09 648.735  12
   6  -8   8 393.146 451.435  10
  -6   8  -8 1427.46 785.751  15
  -6  -8  -8-230.411 482.127  13
  -6  -8  -9 10364.2 1510.91  18
  -6  -8  -9 10588.8 1397.51  13
  -6   8  -9 12876.0 1996.14  15
   6   8   9 11780.3 1642.19  12
   6  -8   9 12160.7 1509.65  10
   6  10  -7 2328.52 855.589  20
  -6 -10   7 1800.91 651.074  19
  -6  10   7 2910.07 955.838   8
  -6  10   6 14117.7 1997.93   8
   6  10  -6 12990.1 1642.63  20
   6  10  -6 12370.0 1812.86  21
  -6 -10   6 9831.98 1263.27  19
   6 -10  -6 9011.10 1407.20  13
   6  10  -6 12902.1 1804.27  12
  -6  10   6 13499.2 1791.97  12
  -6 -10   6 11411.6 1397.59   3
  -6  10   5 11338.2 1831.58   8
   6  10  -5 12561.5 1806.97  21
   6  10  -5 8635.92 1324.30  20
  -6 -10   5 9174.93 1252.35  19
   6 -10  -5 10128.4 1446.61  13
  -6  10   5 9298.45 1429.88  12
   6  10  -5 9466.79 1512.06  12
  -6 -10   5 9879.72 1331.18   3
  -6  10   4 831.404 608.284   8
  -6 -10   4 950.024 539.868  19
   6  10  -4 894.066 555.324  20
   6 -10  -4 13.5874 488.550  19
   6  10  -4 838.440 659.272  21
   6 -10  -4 442.105 458.397  13
   6  10  -4 827.839 651.191  12
  -6  10   4 86.4390 460.745  12
  -6 -10   4 864.827 432.994   3
  -6  10   3 3511.67 1162.54   8
  -6 -10   3 2840.34 689.550  19
   6  10  -3 3676.59 879.925  20
   6 -10  -3 1826.84 678.849  19
   6  10  -3 3717.07 962.040  21
   6 -10  -3 2433.85 722.227  13
   6  10  -3 3274.82 996.372  12
  -6  10   3 3432.04 947.985  12
  -6 -10   3 2457.94 712.988   3
  -6  10   2 8645.00 1638.26   8
   6  10  -2 5968.56 1117.78  20
   6 -10  -2 7722.27 1178.95  19
  -6 -10   2 5325.50 928.931  19
   6 -10  -2 6831.01 1094.27  13
  -6  10   2 7843.36 1282.29  12
   6  10  -2 9241.80 1456.22  12
  -6 -10   2 4985.91 937.741   3
  -6  10   1 11085.5 1876.27   8
  -6 -10   1 9856.21 1273.24  19
   6  10  -1 8505.37 1313.57  20
   6 -10  -1 9255.51 1291.96  19
  -6 -10   1 9395.83 1091.28  13
   6 -10  -1 7648.90 1140.12  13
  -6  10   1 11144.6 1546.63  12
   6  10  -1 11538.1 1619.71  12
   6 -10  -1 9746.47 1342.99   3
  -6 -10   1 9240.77 1228.45   3
  -6  10   0 375.881 603.952   8
   6  10   0 898.885 589.479  20
   6 -10   0 1162.57 590.939  19
  -6 -10   0 411.633 405.983  19
  -6 -10   0 1467.99 507.348  13
   6 -10   0 696.501 525.360  13
  -6  10   0 1895.37 716.214  12
   6  10   0 3373.44 1000.69  12
   6 -10   0 1685.30 663.074   3
  -6 -10   0 1040.35 543.361   3
  -6  10  -1 12332.1 1943.73   8
   6  10   1 9900.48 1359.20  20
   6 -10   1 9467.01 1290.38  19
  -6 -10  -1 10623.2 1295.22  19
  -6 -10  -1 8873.56 1142.78  13
   6 -10   1 9295.12 1179.55  13
  -6  10  -1 12165.9 1549.57  12
   6  10   1 9113.65 1494.86  12
   6 -10   1 7325.20 1266.19   3
  -6 -10  -1 10118.1 1212.73   3
  -6 -10  -2 14671.3 1439.73   3
  -6  10  -2 21087.8 2387.48   8
  -6 -10  -2 15839.0 1622.61  19
   6  10   2 16815.5 1809.23  20
   6 -10   2 16091.7 1663.44  19
  -6 -10  -2 13907.0 1491.43  13
   6 -10   2 17475.2 1580.18  13
   6  10   2 15926.7 1895.52  12
  -6  10  -2 16339.6 1803.70  12
   6 -10   2 17239.6 1824.34   3
   6  10   3 5516.02 1060.43  20
   6 -10   3 5421.43 986.895  19
  -6  10  -3 6660.62 1265.61  21
  -6 -10  -3 5838.68 971.193  19
  -6 -10  -3 5821.37 1013.68  13
  -6  10  -3 4727.89 1151.31   8
   6  10   3 5372.00 1178.02  12
   6 -10   3 4856.40 951.255   3
   6 -10   4 56.9126 514.481   3
   6  10   4 252.804 582.212  12
   6  10   4 627.932 547.703  20
   6 -10   4 1103.10 566.559  19
  -6  10  -4 278.473 562.842  21
  -6 -10  -4 195.267 363.522  19
  -6 -10  -4 104.575 378.608  13
   6 -10   5 3102.21 787.251   3
  -6 -10  -5 3382.55 891.615  13
   6  10   5 2627.28 915.044  12
   6  10   5 3440.25 955.931  20
   6 -10   5 3150.46 849.098  19
  -6 -10  -5 2068.63 618.832  19
  -6  10  -5 3320.48 1055.77  21
  -6  10  -6 4003.58 1031.56  21
   7   1 -14 3716.29 1177.18  17
   7  -1 -14 3005.65 1071.24  17
   7   1 -14 3616.60 1176.05  11
  -7   1  14 5107.29 960.929   4
  -7  -1  14 4477.50 842.086   4
  -7  -1  14 4617.02 894.655  10
  -7   1  14 3374.06 826.658  10
   7  -1 -14 2338.29 846.858   9
   7   1 -14 1745.35 811.926   9
   7   1 -13 19807.8 2440.26  17
   7  -1 -13 22502.4 2497.20  17
   7  -1 -13 18680.4 2141.89  11
   7   1 -13 18122.3 2317.08  11
  -7   1  13 22931.0 1939.09   4
  -7  -1  13 23200.2 1825.58   4
   7  -1 -13 17917.1 2253.81   9
  -7  -1  13 22320.5 1818.77  10
  -7   1  13 23070.1 1856.68  10
   7   1 -13 18383.9 2285.97   9
   7  -1 -12 12265.6 1800.76  17
   7   1 -12 10536.1 1671.83  17
   7  -1 -12 8961.65 1405.75  11
   7   1 -12 10527.2 1745.12  11
  -7  -1  12 12423.6 1313.56   4
  -7   1  12 11758.5 1354.17   4
  -7  -1  12 13298.8 1327.92  10
   7   1 -12 9893.93 1582.42   9
  -7   1  12 13112.0 1307.18  10
   7  -1 -12 10613.6 1649.45   9
   7  -1 -11-34.3466 533.584  17
   7   1 -11-225.104 536.041  17
   7  -1 -11-497.321 505.517  11
   7   1 -11 930.237 598.664  11
  -7  -1  11 9.98385 302.406   4
  -7   1  11 826.295 429.421   4
  -7  -1  11-1.27664 315.911  10
  -7   1  11 262.371 329.196  10
   7  -1 -11 283.079 528.444   9
   7   1 -11-374.757 567.849   9
   7   1 -10 13885.3 1687.59  17
   7  -1 -10 13377.1 1629.73  17
   7   1 -10 12373.4 1615.18  11
   7  -1 -10 13142.5 1528.43  11
  -7   1  10 15451.1 1445.79   4
  -7  -1  10 13953.1 1251.01   4
   7   1 -10 13333.4 1597.35   9
  -7  -1  10 16615.5 1327.19  10
  -7   1  10 14831.8 1262.18  10
   7  -1 -10 13714.9 1721.45   9
   7  -1  -9 69619.3 3748.75  17
   7   1  -9 67425.6 3711.41  17
   7  -1  -9 78245.2 3970.82   9
   7   1  -9 68832.8 3693.81   9
  -7  -1   9 82423.2 3153.72  10
  -7   1   9 79051.2 3092.46  10
   7  -1  -9 70548.5 3603.13  11
   7   1  -9 67983.0 3790.25  11
  -7  -1   9 74058.6 3168.54   4
  -7   1   9 75687.7 3377.36   4
   7   1  -8 95837.4 3488.22   1
  -7  -1   8 89724.3 3068.94   3
  -7  -1   8 95366.9 3386.98  10
   7  -1  -8 89630.5 4028.30   9
   7   1  -8 89290.6 4020.14   9
  -7   1   8 97798.2 3403.05  10
  -7  -1   8 90710.3 2937.85   8
   7  -1  -8 89778.6 4041.07  17
   7   1  -8 80227.8 3908.11  17
  -7   1   8 91329.7 3029.00   8
   7  -1  -8 85533.0 3829.37  11
   7   1  -8 81857.8 4022.09  11
  -7  -1   8 92023.9 3523.79   4
  -7   1   8 93670.6 3760.56   4
  -7  -1   7 3414.81 463.214   3
   7  -1  -7 3480.45 403.464   1
   7   1  -7 3274.67 519.109   1
  -7  -1   7 3700.77 516.052  10
  -7   1   7 3963.35 531.722  10
   7  -1  -7 4196.15 723.567   9
   7   1  -7 3029.67 636.466   9
   7  -1  -7 2831.00 635.885  17
   7   1  -7 3332.58 662.159  17
  -7  -1   7 2955.17 406.993   8
  -7   1   7 3334.16 451.840   8
   7  -1  -7 3462.73 442.229  13
   7  -1  -7 2716.94 568.757  14
  -7   1   7 3303.17 594.187  14
   7  -1  -7 2976.65 579.213  11
   7   1  -7 3007.81 667.119  11
  -7  -1   7 3060.00 523.492   4
  -7   1   7 2733.66 575.703   4
  -7   1   6 116872. 4119.22   4
  -7  -1   6 118621. 3864.13   4
   7  -1  -6 117989. 3351.91   1
  -7  -1   6 112306. 3545.18   3
  -7  -1   6 111347. 3025.51  19
   7   1  -6 106486. 4097.74  17
   7  -1  -6 121714. 4332.62  17
  -7   1   6 123296. 3671.83   8
   7   1  -6 112604. 4270.81  14
   7  -1  -6 118009. 4257.03  14
  -7   1   6 118614. 3090.48  16
  -7  -1   6 120345. 4097.05  14
   7  -1  -6 113818. 3559.39  13
  -7   1   6 121816. 4133.90  14
   7  -1  -6 113359. 4023.62  11
   7   1  -6 118544. 4375.33  11
   7  -1  -6 117384. 4179.79   9
   7   1  -6 118388. 4185.73   9
  -7  -1   6 113886. 3660.26  10
  -7   1   6 118817. 3703.12  10
  -7  -1   6 118141. 3539.47   8
  -7   1   5 288037. 7825.75   4
  -7  -1   5 280541. 7520.85   4
   7  -1  -5 286071. 7002.41   1
  -7  -1   5 273935. 7277.69   3
  -7  -1   5 271691. 6747.24   2
  -7  -1   5 277271. 6917.06  19
   7   1  -5 278565. 7855.28  17
   7  -1  -5 288129. 7969.80  17
  -7   1   5 286989. 7437.02   8
   7  -1  -5 290894. 7992.59  14
   7   1  -5 274258. 7984.56  14
  -7  -1   5 291182. 7784.79  14
  -7   1   5 292715. 7761.67  14
  -7   1   5 282851. 6699.43  16
   7  -1  -5 284609. 7333.32  13
   7  -1  -5 282026. 7689.57  11
   7   1  -5 290583. 8156.91  11
  -7  -1   5 281771. 7308.72   8
   7  -1  -5 282079. 7861.01   9
   7   1  -5 278799. 7718.65   9
  -7  -1   5 284038. 7305.89  10
  -7   1   5 276134. 7326.45  10
  -7   1   4 75235.3 2727.46   4
  -7  -1   4 73709.6 2587.56   4
  -7  -1   4 72996.7 2147.56   2
  -7  -1   4 75594.7 2258.59  19
   7  -1  -4 76448.4 2843.51  17
   7   1  -4 78275.8 2867.14  17
  -7   1   4 74298.8 2588.04   8
   7  -1  -4 73171.0 2497.04  13
   7  -1  -4 75705.5 2801.98  14
   7   1  -4 74826.2 2943.61  14
  -7  -1   4 76496.0 2769.72  14
  -7   1   4 90341.8 2862.81  14
   7   1  -4 75436.0 2909.24  11
   7  -1  -4 74473.5 2676.41  11
   7  -1  -4 75592.1 2799.24   9
  -7  -1   4 74382.6 2368.83  10
   7   1  -4 76834.2 2663.95   9
  -7   1   4 74025.6 2412.76  10
  -7  -1   4 78645.9 2555.80   8
  -7  -1   3 404.559 132.878  10
   7   1  -3 544.524 185.881   9
   7  -1  -3 419.743 201.565   9
   7  -1  -3 870.023 248.747  17
   7   1  -3 537.667 206.813  17
  -7  -1   3 333.256 149.672   8
  -7   1   3 458.298 190.484   8
   7  -1  -3 307.467 128.279  13
   7   1  -3 804.691 257.282  14
   7  -1  -3 108.940 131.842  14
  -7  -1   3 313.811 176.425  14
  -7   1   3 615.627 194.114  14
   7  -1  -3 665.670 202.217  11
   7   1  -3 445.797 199.252  11
  -7  -1   3 984.147 242.093   4
  -7   1   3 1010.93 256.438   4
  -7   1   2 136541. 3917.45   4
  -7  -1   2 143912. 4005.14   4
  -7  -1   2 133637. 3752.32   2
   7   1  -2 136295. 4168.73  20
   7   1  -2 134770. 4025.99  17
   7  -1  -2 138199. 4103.70  17
  -7   1   2 137327. 4035.97   8
  -7   1   2 145610. 4038.59  14
  -7  -1   2 139985. 4072.48  14
   7  -1  -2 137646. 3915.27  13
   7  -1  -2 137900. 3922.07  11
   7   1  -2 135124. 4107.85  11
  -7  -1   2 134014. 3940.35   8
   7  -1  -2 135596. 4080.15   9
   7   1  -2 136237. 3808.39   9
  -7  -1   2 144504. 3571.24  10
  -7   1   1 404514. 9905.72   4
  -7  -1   1 406370. 10074.8   4
   7  -1  -1 391699. 10024.7   5
  -7  -1   1 406667. 9981.39   2
   7   1  -1 400676. 9694.18  21
   7  -1  -1 412670. 9728.70  20
   7   1  -1 412875. 10293.3  20
   7  -1  -1 413239. 9773.03  16
  -7   1   1 404085. 10132.7   8
  -7   1   1 422161. 10172.9  14
  -7  -1   1 417883. 10201.2  14
   7  -1  -1 405525. 10031.0  13
   7  -1  -1 405068. 9988.34  11
   7   1  -1 393160. 10168.0  11
  -7  -1   1 408337. 9539.22  10
  -7  -1   1 410747. 10084.9   8
  -7   1   0 56751.9 1804.52   4
   7   1   0 53306.3 1811.84   5
   7  -1   0 56437.5 1983.68   5
  -7  -1   0 56297.0 2009.90   4
   7  -1   0 52755.1 1762.85   1
  -7  -1   0 56685.7 1999.78   2
   7  -1   0 56752.8 1640.11  20
   7   1   0 56596.2 2082.25  20
   7  -1   0 53740.6 1811.80  16
  -7   1   0 53630.8 1945.47   8
   7   1   0 54615.5 2027.38  11
   7   1   0 57799.7 1810.35  12
   7  -1   0 55745.0 1949.93  11
  -7  -1   0 58429.2 1985.61   8
  -7   1  -1 44622.4 1486.14   4
  -7  -1  -1 44666.5 1779.39   4
   7  -1   1 40839.5 1695.30   5
   7   1   1 40756.2 1526.41   5
  -7  -1  -1 40680.0 1709.75   2
  -7   1  -1 41564.3 1720.47   2
   7  -1   1 39192.9 1513.34   1
   7  -1   1 43109.0 1361.99  20
   7   1   1 43444.1 1709.96  20
   7  -1   1 41852.3 1569.78  16
  -7  -1  -1 39865.8 1655.78  18
  -7   1  -1 40874.5 1733.63   7
  -7   1  -1 40587.7 1557.28   8
   7   1   1 42454.8 1577.67  16
   7   1   1 42063.8 1348.30  12
   7   1   1 39638.6 1678.83  11
   7  -1   1 42879.6 1291.70  10
  -7  -1  -1 39410.0 1563.94   8
   7  -1   2 230360. 6365.33   5
  -7  -1  -2 238303. 6458.78   4
  -7   1  -2 237240. 5974.48   4
   7   1   2 221024. 6058.27   5
   7  -1   2 225693. 6077.15   1
  -7  -1  -2 235604. 6403.39   2
  -7   1  -2 231795. 6309.18   2
   7   1   2 224759. 6212.43  20
  -7  -1  -2 231497. 6360.09  18
   7  -1   2 228499. 6349.51   6
  -7   1  -2 226096. 5931.37   8
   7   1   2 226899. 6514.93   6
  -7   1  -2 234217. 6338.52   7
   7  -1   2 236009. 6177.96  16
   7   1   2 232105. 6164.07  16
   7   1   2 234775. 5749.99  12
  -7  -1  -2 225192. 6028.97   8
   7  -1   2 243868. 5705.43  10
  -7  -1  -3 165999. 5078.02   4
   7  -1   3 164575. 4989.24   5
   7   1   3 165654. 4650.02   5
   7  -1   3 161375. 4719.81   1
  -7  -1  -3 165248. 4998.71   2
   7   1   3 157328. 4693.51   1
  -7   1  -3 164066. 4881.65   2
   7   1   3 164813. 4831.04  20
  -7  -1  -3 170175. 5084.61  18
   7  -1   3 169210. 4988.20   6
  -7   1  -3 169356. 4385.72   8
   7   1   3 169536. 5132.54   6
   7  -1   3 171150. 4825.36  16
   7   1   3 163119. 4758.79  16
  -7  -1  -3 165967. 4794.45  15
   7   1   3 167320. 4365.91  12
   7  -1   3 165890. 4316.29  10
   7   1   3 166808. 4334.88  10
   7  -1   4 8150.07 800.515   5
   7   1   4 8626.90 700.370   5
  -7  -1  -4 8184.14 814.519   2
  -7   1  -4 8736.78 833.121   1
   7   1   4 7034.23 672.560   1
  -7   1  -4 7919.35 759.812   2
   7  -1   4 7989.70 728.910   1
   7   1   4 7874.14 747.476  20
  -7  -1  -4 8057.35 861.543  18
  -7   1  -4 7842.05 815.550  18
   7   1   4 7637.36 835.844   6
  -7   1  -4 7264.38 489.490   8
   7  -1   4 9402.59 871.181   6
   7  -1   4 8148.45 758.815  16
   7   1   4 8043.97 738.091  16
  -7  -1  -4 8122.28 779.500  15
   7   1   4 8132.44 585.387  12
   7  -1   4 7098.18 550.553  10
   7   1   4 7765.76 576.423  10
  -7   1  -5 22982.4 1416.58   2
  -7   1  -5 24686.9 1576.90   1
  -7  -1  -5 23276.6 1530.33   2
   7   1   5 20395.9 1284.44   1
   7  -1   5 23776.4 1410.53   1
  -7  -1  -5 21534.1 1561.14   9
  -7   1  -5 22915.3 895.261   8
   7  -1   5 22377.5 1147.60  10
   7   1   5 22317.4 1135.20  10
  -7  -1  -5 23765.6 1663.45  18
  -7   1  -5 22026.9 1499.58  18
   7  -1   5 24393.6 1534.85   6
   7   1   5 23245.5 1583.76   6
   7  -1   5 19782.4 1310.28  16
   7   1   5 22851.9 1371.25  16
  -7  -1  -5 21939.3 1466.25  15
   7   1   5 22398.5 1131.66  12
   7  -1   5 24627.1 1503.50   5
   7   1   5 21982.2 1225.17   5
  -7   1  -6 200664. 6097.21   2
  -7  -1  -6 192816. 6293.12   2
  -7  -1  -6 201089. 6633.71   9
   7  -1   6 187304. 5503.71  10
   7   1   6 194579. 5498.96  10
  -7  -1  -6 195967. 6640.50  18
  -7   1  -6 195112. 6380.90  18
   7  -1   6 208953. 6337.82   6
   7   1   6 214467. 6518.49   6
   7   1   6 184918. 5614.21   5
   7  -1   6 202902. 5964.74  16
   7   1   6 201453. 5941.41  16
  -7  -1  -6 205799. 6373.23  15
  -7   1  -6 190575. 6498.55  15
   7   1   6 191529. 5490.39  12
   7  -1   6 193706. 6051.72   5
  -7  -1  -7 120459. 4990.25  18
  -7   1  -7 116178. 4751.52  18
   7  -1   7 117666. 4295.91   5
   7   1   7 114523. 3945.62   5
   7  -1   7 125058. 4634.79   6
   7   1   7 124894. 4765.32   6
   7  -1   7 122830. 4271.34  16
   7   1   7 121836. 4236.38  16
  -7  -1  -7 125782. 4739.08  15
  -7   1  -7 122962. 4948.17  15
  -7   1  -7 118663. 4406.98   2
  -7  -1  -7 120628. 4658.22   2
  -7  -1  -7 127079. 5039.51   9
  -7   1  -7 119484. 5090.84   9
   7  -1   7 120886. 3957.23  10
   7   1   7 116610. 3860.53  10
   7  -1   8 1600.08 389.825  10
   7   1   8 1880.28 422.272  10
  -7  -1  -8 1854.25 646.885   9
  -7   1  -8 1877.22 713.851   9
  -7   1  -8 1954.74 629.797  18
  -7  -1  -8 2266.02 707.006  18
   7  -1   8 1412.08 516.673   6
   7   1   8 2047.99 614.912   6
   7  -1   8 1427.66 437.409  16
   7   1   8 1964.04 525.480  16
  -7  -1  -8 2061.88 590.453  15
  -7   1  -8 1642.61 616.226  15
  -7  -1  -8 2276.59 628.765   2
  -7   1  -8 1050.70 414.774   2
   7  -1   8 2873.44 600.149   5
   7   1   8 1919.41 427.685   5
  -7  -1  -9 52811.9 3571.07  17
  -7  -1  -9 51414.7 3288.62  18
  -7   1  -9 51064.3 3251.31  18
   7  -1   9 51485.6 2701.94   5
   7   1   9 59171.6 3233.23   6
   7  -1   9 57302.3 3068.56   6
   7  -1   9 56901.0 2778.75  16
   7   1   9 52598.0 2679.09  16
  -7   1  -9 56450.9 3468.20  15
  -7   1  -9 56568.4 3608.01   9
   7  -1   9 54591.3 2508.59  10
   7   1   9 56478.0 2506.62  10
  -7  -1  -9 62088.5 3534.14   9
  -7  -1  -9 50709.2 2971.04   2
  -7   1  -9 54085.9 2887.16   2
  -7   1 -10 53183.2 3851.21  17
  -7  -1 -10 51703.5 3421.25  18
   7  -1  10 60011.2 3003.26  16
  -7   1 -10 56700.2 3572.59  18
  -7  -1 -10 52869.0 3704.68  17
   7  -1  10 60392.0 3233.54   6
   7   1  10 63075.0 3469.27   6
   7   1  10 55609.6 2915.60  16
  -7   1 -10 59336.8 3720.50  15
   7  -1  10 61713.9 2778.98  10
   7   1  10 55079.5 2634.68  10
  -7  -1 -10 60778.3 3676.90   9
  -7   1 -10 63047.3 3958.95   9
  -7  -1 -10 54556.0 3188.20   2
   7   1  11 13830.6 1451.18  16
   7   1  11 12934.4 1543.98   6
   7  -1  11 12961.0 1447.67   6
  -7   1 -11 12191.9 1660.82  18
  -7  -1 -11 12089.0 1808.88  17
  -7   1 -11 10725.9 1732.96  17
   7  -1  11 14322.9 1456.79  16
  -7  -1 -11 13350.6 1728.91  18
  -7  -1 -11 11943.3 1659.23   9
   7  -1  11 12993.0 1256.84  10
   7   1  11 15298.4 1344.96  10
  -7   1 -11 12872.6 1827.98   9
   7  -1  12 434.916 493.823  16
   7   1  12 45.2734 349.592  16
   7   1  12-17.2548 438.940   6
   7  -1  12 315.035 449.561   6
  -7   1 -12 505.772 555.467  18
  -7  -1 -12 566.860 591.028  17
  -7   1 -12 1608.00 847.799  17
  -7  -1 -12-718.507 735.349  18
   7  -1  12 594.878 384.775  10
   7   1  12 608.668 393.137  10
  -7  -1 -12 750.067 617.661   9
  -7   1 -12-517.874 678.321   9
   7  -1  13 9253.06 1261.68  16
   7   1  13 7414.60 1138.75  16
   7  -1  13 8314.49 1244.14   6
   7   1  13 9610.82 1387.23   6
  -7  -1 -13 7893.08 1556.26  17
  -7   1 -13 9138.27 1683.09  17
  -7  -1 -13 8413.30 1519.53  18
   7  -1  13 9113.96 1152.31  10
   7   1  13 6578.51 970.720  10
  -7  -1 -13 7302.72 1452.32   9
  -7   1 -13 10660.7 1831.14   9
   7   3 -14 2274.03 1006.21   9
   7  -3 -13 16231.2 2043.20  17
   7   3 -13 13082.9 1959.38  17
   7   3 -13 20499.1 2682.36  11
  -7   3  13 16045.8 1816.50   4
   7   3 -13 16540.5 2145.60   9
   7  -3 -13 16607.4 2188.33   9
  -7   3  13 19274.9 1804.76  10
  -7  -3  13 18843.1 1726.47  10
   7  -3 -12 7787.55 1464.89  17
   7   3 -12 9349.63 1581.35  17
   7   3 -12 9998.13 1853.03  11
  -7   3  12 9307.09 1342.05   4
  -7  -3  12 8916.81 1155.91  10
  -7   3  12 9580.41 1193.79  10
   7  -3 -12 7845.94 1391.96   9
   7   3 -12 7427.69 1351.69   9
   7   3 -11-48.5828 467.720  17
   7  -3 -11-25.6793 422.256  17
   7   3 -11-92.9073 632.472  11
  -7   3  11-20.8890 393.319   4
  -7  -3  11 183.570 253.795   4
  -7  -3  11 48.6167 339.806  10
  -7   3  11 311.550 337.525  10
   7  -3 -11-7.19749 471.298   9
   7   3 -11 236.380 442.471   9
   7  -3 -10 10162.5 1428.19  17
   7   3 -10 10252.1 1421.31  17
  -7  -3  10 12418.1 1216.04  10
   7  -3 -10 10290.6 1420.71   9
  -7   3  10 12692.2 1250.12  10
   7   3 -10 10983.3 1435.50   9
   7   3 -10 8375.28 1463.32  11
  -7   3  10 11570.7 1400.04   4
  -7  -3  10 11605.7 1113.70   4
  -7  -3   9 55353.7 2510.27   3
   7   3  -9 50814.4 3106.26   9
   7  -3  -9 61662.3 3370.37   9
  -7  -3   9 61598.5 2832.32  10
  -7   3   9 62695.6 2881.47  10
   7   3  -9 55384.4 3307.86  17
   7  -3  -9 60685.4 3406.92  17
  -7   3   9 63968.6 2618.92   8
   7   3  -9 58597.1 3712.26  11
  -7   3   9 66744.2 3356.85   4
  -7  -3   9 61557.0 2711.45   4
  -7  -3   8 56055.0 2463.05   3
  -7  -3   8 60757.6 2653.53  10
   7  -3  -8 58471.7 3058.01   9
   7   3  -8 52427.4 2879.42   9
  -7   3   8 62571.2 2749.49  10
   7  -3  -8 62675.6 3175.58  17
   7   3  -8 52323.6 2952.01  17
  -7   3   8 61920.4 2581.15   8
   7  -3  -8 58723.0 2949.09  13
   7  -3  -8 57163.5 2551.94  11
   7   3  -8 48497.5 3171.48  11
  -7   3   8 60237.4 2786.28  12
  -7  -3   8 58441.2 2526.15   4
  -7  -3   7 4303.46 593.506   4
  -7  -3   7 3698.09 547.157   3
  -7  -3   7 3433.33 413.095  19
   7  -3  -7 3910.73 723.945  17
   7   3  -7 2562.24 541.766  17
  -7   3   7 3452.32 593.351   8
   7  -3  -7 3583.52 627.052  14
  -7   3   7 3941.86 656.177  14
   7  -3  -7 3913.07 710.384  13
   7   3  -7 3554.76 760.085  11
   7  -3  -7 4645.22 598.114  11
  -7   3   7 3114.59 572.336  12
  -7  -3   7 4393.85 610.078  10
   7  -3  -7 3679.61 693.138   9
   7   3  -7 2632.98 546.681   9
  -7  -3   6 101608. 3358.27   4
  -7  -3   6 93500.4 3358.70   3
  -7  -3   6 93899.1 3016.25  19
   7   3  -6 91530.4 3565.47  17
   7  -3  -6 99718.5 3747.10  17
  -7   3   6 103160. 3644.95   8
   7  -3  -6 98400.7 3879.03  13
   7  -3  -6 91599.5 3465.43  14
   7   3  -6 87859.5 3770.51  14
  -7  -3   6 98199.0 3656.95  14
  -7   3   6 106112. 3726.35  14
   7   3  -6 93582.2 3995.48  11
  -7   3   6 94585.6 3500.47  12
   7  -3  -6 98699.2 3191.45  11
  -7  -3   6 93256.9 3319.84  10
   7  -3  -6 99918.7 3818.62   9
   7   3  -6 88822.3 3419.76   9
  -7  -3   5 189470. 5479.59   4
  -7  -3   5 192378. 5649.28   3
  -7  -3   5 189075. 5299.84  19
   7  -3  -5 194396. 5867.37  17
   7   3  -5 187568. 5659.08  17
  -7   3   5 195475. 5236.28   7
  -7   3   5 193058. 5904.17   8
   7  -3  -5 205510. 6227.70  13
   7  -3  -5 188067. 5584.50  14
   7   3  -5 178896. 5928.02  14
  -7  -3   5 196670. 5792.78  14
  -7   3   5 203030. 5722.78  14
   7   3  -5 184801. 6146.11  11
   7  -3  -5 193910. 5257.77  11
  -7   3   5 189849. 5627.59  12
  -7  -3   5 192382. 5473.07  10
   7   3  -5 179896. 5437.42   9
   7  -3  -5 200747. 6008.05   9
  -7  -3   4 46158.6 1932.09   4
  -7  -3   4 47817.2 1504.47   2
  -7  -3   4 46371.9 2047.97   3
   7  -3  -4 50156.0 1895.20  19
  -7  -3   4 48511.0 1917.04  19
   7  -3  -4 48744.5 2152.42  17
   7   3  -4 46137.8 1980.74  17
  -7   3   4 48260.8 1948.29   7
  -7   3   4 48292.7 2304.07   8
   7  -3  -4 51323.5 2392.45  13
   7  -3  -4 48789.2 1969.53  14
   7   3  -4 46375.6 2218.42  14
  -7  -3   4 47396.5 2083.34  14
  -7   3   4 48425.8 1981.62  14
  -7   3   4 45297.4 1965.84  12
   7   3  -4 50644.6 2408.00  11
   7  -3  -4 49429.9 1723.73  11
  -7  -3   4 46835.2 1906.66  10
   7  -3  -4 48223.7 2239.82   9
   7   3  -4 47751.0 1818.49   9
  -7  -3   3 1164.83 280.360   4
  -7  -3   3 449.802 215.038   3
  -7  -3   3 889.633 187.557   2
   7  -3  -3 1118.25 267.618  19
   7   3  -3 1160.25 392.858  20
  -7  -3   3 869.296 247.983  19
   7  -3  -3 920.548 277.397  17
   7   3  -3 750.536 225.629  17
  -7   3   3 572.548 308.989   8
   7   3  -3 696.966 272.744  14
  -7  -3   3 815.577 244.211  14
  -7   3   3 612.673 198.005  14
   7  -3  -3 566.846 246.898  13
   7   3  -3 543.184 248.413  11
   7  -3  -3 977.704 194.679  11
  -7   3   3 854.686 242.916  12
   7  -3  -3 929.727 338.453   9
   7   3  -3 899.962 178.840   9
  -7  -3   3 1149.94 273.117  10
  -7  -3   2 132952. 4051.30   4
  -7   3   2 132686. 4022.39   4
   7  -3  -2 128798. 3960.19   5
  -7  -3   2 134920. 3882.78   2
  -7  -3   2 130275. 4084.10   3
   7   3  -2 132147. 4521.69  20
  -7  -3   2 128800. 3975.08  19
   7  -3  -2 131316. 4175.37  19
   7  -3  -2 131034. 4096.40  17
  -7  -3   2 139834. 3490.24  18
  -7   3   2 130489. 4292.07   7
  -7   3   2 127891. 4421.71   8
  -7  -3   2 134605. 4010.82  14
  -7   3   2 132010. 3783.64  14
   7  -3  -2 140956. 4396.98  13
   7  -3  -2 135875. 3651.22  11
  -7   3   2 131279. 3847.96  12
   7   3  -2 131370. 4197.38  11
  -7  -3   2 134461. 3937.19  10
   7  -3  -1 259183. 6377.91   1
  -7  -3   1 264461. 7006.66   2
  -7  -3   1 267528. 7023.87   3
   7   3  -1 252063. 7061.50  21
   7  -3  -1 256361. 7237.58  19
   7   3  -1 260446. 7433.92  20
  -7  -3   1 256256. 6642.67  18
  -7   3   1 251219. 7396.07   7
  -7   3   1 244810. 7358.25   8
  -7   3   1 263421. 6647.62  14
  -7  -3   1 264791. 6861.83  14
   7  -3  -1 263504. 7222.47  13
  -7   3   1 266089. 6670.47  12
   7   3  -1 258242. 7031.14  11
  -7   3   1 253647. 6659.44   4
  -7  -3   1 273269. 7106.60   4
   7  -3  -1 262952. 6939.00   5
   7  -3   0 48769.8 1704.13   1
  -7  -3   0 49027.7 2096.05   2
  -7  -3   0 47686.6 1924.55   3
  -7   3   0 47309.8 1726.65   1
   7   3   0 48138.4 1962.95  21
  -7   3   0 49978.0 1917.61  21
   7  -3   0 49658.2 2218.53  19
   7   3   0 46626.3 2186.95  20
  -7  -3   0 46519.1 1857.51  18
  -7   3   0 42200.7 2195.55   7
  -7   3   0 48642.7 2225.73   8
   7  -3   0 48644.2 2059.17  13
   7   3   0 48556.1 1969.64  11
  -7   3   0 47719.8 1706.42  12
   7   3   0 47553.0 2081.41  12
  -7   3   0 47485.3 1573.16   4
   7  -3   0 45615.2 1943.06   5
  -7  -3   0 49387.4 2083.23   4
  -7  -3  -1 29524.4 1622.83   4
  -7   3  -1 30508.3 987.754   4
   7  -3   1 29402.4 1547.00   5
   7   3   1 30845.2 1078.83   5
  -7   3  -1 31698.6 1468.19   1
  -7  -3  -1 31919.8 1680.19   2
   7  -3   1 32110.7 1400.56   1
  -7  -3  -1 29185.2 1406.37   3
  -7   3  -1 30558.2 1474.51  21
   7   3   1 32058.5 1730.15  20
   7  -3   1 33564.4 1752.44  19
   7  -3   1 28431.5 1493.35  16
  -7  -3  -1 31677.8 1566.59  18
  -7   3  -1 29004.2 1767.62   7
   7  -3   1 31106.1 1302.81   6
   7   3   1 30188.2 1557.12   6
  -7   3  -1 28773.7 1589.32   8
   7  -3   1 32030.3 1559.75  13
   7   3   1 29399.4 1459.40  11
   7   3   1 29609.2 1501.28  12
  -7   3  -1 29407.3 1270.98  12
  -7  -3  -1 29653.6 1125.57   9
   7  -3   2 205483. 5987.13   5
   7   3   2 201823. 5003.49   5
  -7  -3  -2 210096. 6245.58   4
  -7  -3  -2 207941. 6206.56   2
   7  -3   2 202887. 5685.83   1
  -7  -3  -2 207772. 5590.64   3
  -7   3  -2 209348. 5988.22   1
   7  -3   2 210310. 6110.96  19
   7   3   2 207387. 6109.69  20
  -7  -3  -2 202691. 6025.55  18
   7  -3   2 195285. 5845.03  16
  -7   3  -2 197797. 6293.25   7
   7  -3   2 207714. 5511.19   6
   7   3   2 195670. 5932.51   6
  -7   3  -2 199059. 5812.85   8
   7  -3   2 210465. 5791.17  13
   7   3   2 203317. 5793.08  11
   7   3   2 201209. 5719.42  12
  -7   3  -2 203302. 5489.86  12
  -7  -3  -2 202933. 5445.47   9
   7  -3   2 203097. 5614.38  10
  -7  -3  -3 97566.7 3866.44   4
   7   3   3 102042. 2717.84   5
   7  -3   3 102283. 3688.78   5
   7  -3   3 104901. 3678.84  19
   7   3   3 101119. 3681.35  20
   7  -3   3 101600. 3553.46  16
  -7  -3  -3 105397. 3803.24  18
  -7  -3  -3 101768. 3826.23   2
   7  -3   3 101062. 3435.50   1
  -7   3  -3 105565. 3780.43   1
  -7  -3  -3 100127. 3140.19   3
   7  -3   3 104615. 3282.87   6
  -7   3  -3 97211.1 3814.67   7
   7   3   3 101654. 3648.69   6
  -7   3  -3 96506.2 3273.52   8
   7   3   3 100817. 3310.56  12
  -7  -3  -3 103277. 3315.26   9
   7  -3   3 100265. 3219.46  10
   7  -3   4 12896.6 1115.84   5
  -7   3  -4 11137.8 973.443   2
   7  -3   4 11605.6 970.254   1
  -7  -3  -4 11554.2 1137.03   2
  -7   3  -4 12917.6 1179.97   1
  -7  -3  -4 10374.9 719.565   3
   7   3   4 10304.4 1005.24  20
   7  -3   4 11612.4 1005.88  16
  -7  -3  -4 11537.7 1118.38  18
  -7   3  -4 11726.4 1111.85   7
   7   3   4 11366.8 611.852   5
  -7   3  -4 12342.6 817.281   8
   7   3   4 11934.2 1094.61   6
   7  -3   4 11910.9 902.849   6
   7   3   4 11579.2 889.399  12
   7  -3   4 10288.4 792.228  10
  -7  -3  -4 11024.0 905.528   9
   7  -3   5 17669.9 1411.36   5
   7   3   5 17466.3 1214.87   1
  -7  -3  -5 17281.9 939.916   3
  -7  -3  -5 20534.5 1577.13   2
  -7   3  -5 19525.1 1333.10   2
   7   3   5 19239.5 1437.72  20
  -7  -3  -5 19323.2 1571.64  18
   7  -3   5 23362.5 1506.45  16
  -7   3  -5 19268.9 1420.23  18
  -7   3  -5 17942.5 1397.96   7
   7   3   5 18712.8 1440.62   6
  -7   3  -5 20233.2 993.955   8
   7  -3   5 18430.4 1249.62   6
  -7   3  -5 18696.0 1666.23  14
   7   3   5 20470.1 1247.33  12
   7  -3   5 18289.4 1134.96  10
  -7  -3  -5 21173.4 1397.12   9
  -7  -3  -6 147951. 5502.90   2
  -7   3  -6 155560. 4997.16   2
   7  -3   6 149815. 4698.19  10
  -7  -3  -6 158380. 5248.18   9
  -7  -3  -6 151517. 5602.69  18
   7  -3   6 147916. 5136.26  16
  -7   3  -6 148250. 5268.79  18
  -7   3  -6 148482. 5145.10   7
   7   3   6 155633. 5425.24   6
   7  -3   6 149523. 4951.55   6
   7   3   6 151009. 4794.12  12
   7  -3   6 159350. 5393.77   5
   7  -3   7 80250.3 3160.21  10
   7   3   7 79448.0 3170.78  10
  -7  -3  -7 89810.0 3741.64   9
  -7  -3  -7 83747.7 3973.74  18
  -7   3  -7 87240.0 3843.64  18
   7  -3   7 86003.5 3598.36  16
  -7   3  -7 87152.3 3506.28   7
   7  -3   7 84377.0 3399.61   6
   7  -3   7 85332.8 3713.61   5
   7   3   7 90961.2 3911.49   6
   7   3   7 80447.4 3437.12  16
  -7   3  -7 90608.1 4315.65  15
   7   3   7 81446.3 3243.81  12
  -7  -3  -7 81035.3 3871.81   2
  -7   3  -7 85885.6 3399.92   2
  -7  -3  -8-16.2475 368.426   2
  -7   3  -8 357.721 286.528   2
  -7   3  -8 249.543 479.104   9
   7   3   8 187.618 259.907  10
  -7  -3  -8 1928.90 580.072   9
   7  -3   8 649.703 349.545  10
  -7   3  -8 333.450 397.987  18
  -7  -3  -8-29.7154 352.887  17
  -7  -3  -8 839.531 438.704  18
   7   3   8 1462.52 593.330   6
  -7   3  -8 497.890 344.270   7
   7  -3   8 188.118 251.010   6
   7  -3   8 292.020 354.852  16
   7   3   8 441.880 334.324  16
  -7   3  -8-461.813 580.377  15
   7   3   8 1424.79 455.299  12
   7  -3   8 760.497 502.062   5
  -7   3  -9 47046.7 3536.44   9
   7  -3   9 43906.3 2373.26  10
   7   3   9 46198.4 2397.62  10
  -7  -3  -9 45724.9 2848.97   9
  -7  -3  -9 50501.1 3222.92  18
   7  -3   9 48942.0 2747.48  16
  -7   3  -9 47872.7 3113.69  18
  -7  -3  -9 46801.6 3116.53  17
   7  -3   9 48474.5 2773.17   5
   7   3   9 46532.7 2865.94   6
   7  -3   9 50071.2 2583.30   6
   7   3   9 46752.3 2631.57  16
  -7   3  -9 46781.2 3401.89  15
   7   3   9 45436.6 2439.08  12
  -7  -3  -9 44006.1 2911.00   2
  -7   3 -10 40353.6 3367.23   9
   7  -3  10 40636.0 2375.93  10
   7   3  10 42911.1 2390.62  10
  -7  -3 -10 43743.0 2912.56   9
  -7   3 -10 45812.1 3504.19  17
  -7  -3 -10 40967.0 3072.20  18
   7  -3  10 44153.9 2669.84  16
  -7   3 -10 39616.9 2959.92  18
  -7  -3 -10 40915.0 3019.11  17
   7  -3  10 41596.1 2632.84   5
   7  -3  10 43591.8 2466.18   6
   7   3  10 47766.9 3007.58   6
   7   3  10 44464.2 2661.39  16
  -7   3 -10 42815.3 3393.42  15
   7   3  10 42297.4 2400.00  12
  -7  -3 -10 36729.1 2746.48   2
   7  -3  11 8026.60 1172.76  16
   7   3  11 9988.73 1243.86  16
  -7   3 -11 11090.4 1808.46  15
   7   3  11 10247.4 1372.83   6
   7  -3  11 9833.11 1169.72   6
  -7  -3 -11 12573.3 1704.81  17
  -7   3 -11 10045.3 1688.85  17
  -7  -3 -11 11377.2 1658.01  18
   7   3  11 9867.50 1154.10  10
  -7  -3 -11 11954.2 1583.34   9
  -7   3 -11 10260.1 1761.48   9
   7  -3  11 10394.7 1194.18  10
   7  -3  12 548.808 564.720  16
   7   3  12 17.5520 382.544  16
  -7   3 -12 429.525 617.560  15
   7   3  12 1115.64 575.469   6
   7  -3  12 331.373 355.946   6
  -7  -3 -12 595.700 522.028   9
   7   3  12-248.430 387.220  10
  -7   3 -12-819.616 734.820   9
   7  -3  12-274.878 344.662  10
  -7  -3 -12 643.471 647.548  17
  -7   3 -12-63.8656 636.643  17
  -7  -3 -12 165.121 477.139  18
  -7  -3 -13 8409.47 1469.76   9
   7   3  13 7007.81 1074.10  10
   7  -3  13 7435.83 1079.46  10
   7  -5 -13 8757.92 1497.27  17
   7  -5 -12 3164.38 941.719   9
  -7   5  12 6711.74 1133.96  10
  -7  -5  12 6107.84 1046.06  10
   7   5 -12 4758.70 1394.11  11
  -7   5  12 6431.01 1191.78   4
   7  -5 -12 5473.83 1161.17  17
  -7   5  11-37.3185 391.112  10
   7  -5 -11-72.6818 500.795   9
  -7  -5  11 316.083 374.251  10
   7   5 -11 929.639 782.810  11
  -7   5  11 1109.95 603.045  12
  -7   5  11-153.364 409.302   4
   7  -5 -11 523.236 473.997  17
  -7   5  10 6663.65 1057.97  10
   7  -5 -10 6035.51 1103.09   9
  -7  -5  10 6642.44 996.836  10
   7  -5 -10 7895.60 1197.86  17
   7   5 -10 6251.85 1408.26  11
  -7   5  10 7131.34 1134.78  12
  -7  -5  10 6671.60 889.464   3
  -7  -5   9 30205.3 1925.99   3
   7  -5  -9 33904.0 2475.32   9
  -7  -5   9 37524.3 2263.23  10
   7  -5  -9 32777.7 2301.19  17
  -7   5   9 38065.8 2314.70   8
   7  -5  -9 38647.9 2686.95  13
   7   5  -9 25599.4 2590.79  11
  -7   5   9 34020.3 2373.74  12
  -7  -5   9 33437.4 1879.67   4
  -7  -5   8 36139.1 2112.84   3
   7  -5  -8 41840.5 2591.58   9
  -7  -5   8 44334.7 2366.05  10
   7  -5  -8 38514.1 2349.98  17
   7   5  -8 36326.7 2266.55  17
  -7   5   8 41628.1 2479.36   8
   7  -5  -8 43425.4 2826.20  13
   7   5  -8 42024.4 3046.69  11
  -7   5   8 44724.9 2609.64  12
  -7  -5   8 42619.2 2102.78   4
  -7  -5   7 431.461 248.046   4
  -7  -5   7 546.554 349.986   3
  -7  -5   7 289.454 257.283  19
   7  -5  -7 7.47570 266.899  17
   7   5  -7 213.387 250.745  17
  -7   5   7 486.865 375.430   8
   7  -5  -7 1141.38 512.835  13
  -7   5   7 515.366 440.365  12
   7   5  -7 288.803 406.004  11
   7  -5  -7-9.38250 342.420   9
  -7  -5   7-72.2687 300.754  10
   7  -5  -6 47933.3 2156.88   5
  -7  -5   6 45169.2 2107.40   4
  -7  -5   6 44828.6 2285.34   3
   7   5  -6 46847.5 2713.83  20
  -7  -5   6 43813.4 2079.94  19
   7   5  -6 43552.8 2081.13  17
   7  -5  -6 47256.3 2346.53  17
  -7   5   6 49249.9 2759.84   8
   7  -5  -6 46214.9 2758.09  13
   7   5  -6 40807.2 2631.63  11
  -7   5   6 45195.0 2448.53  12
   7  -5  -6 44887.7 2479.12   9
  -7  -5   6 45126.9 2265.40  10
  -7  -5   5 104002. 3614.30   4
   7  -5  -5 107602. 3605.96   5
  -7  -5   5 99377.0 3808.21   3
  -7  -5   5 104398. 3657.52  19
   7  -5  -5 107734. 3923.52  19
   7   5  -5 108139. 4389.76  20
   7  -5  -5 112759. 3873.29  17
   7   5  -5 97660.9 3363.41  17
  -7   5   5 106939. 3934.35   7
  -7   5   5 103901. 4412.42   8
   7   5  -5 94260.8 3837.47  14
   7  -5  -5 111426. 4513.36  13
  -7  -5   5 97904.5 3688.75  14
   7   5  -5 99722.0 4206.87  11
  -7   5   5 107981. 4042.44  12
   7  -5  -5 113519. 4135.72   9
  -7  -5   5 106637. 3821.59  10
   7  -5  -4 33070.3 1648.36   5
  -7  -5   4 29133.8 1598.25   4
  -7  -5   4 32133.3 1832.02   3
  -7  -5   4 32283.3 1703.65  19
   7  -5  -4 32967.0 1930.99  19
   7   5  -4 31983.9 2104.87  20
   7  -5  -4 31616.6 1695.14  17
  -7   5   4 30239.8 2140.64   8
   7  -5  -4 33988.9 2145.37  13
  -7  -5   4 29233.2 1595.12  14
  -7  -5   4 28910.8 1328.63  13
  -7   5   4 32033.3 1839.88  12
   7   5  -4 31078.4 1965.50  11
   7  -5  -4 32188.4 1890.90   9
  -7  -5   4 33589.6 1811.88  10
   7  -5  -3 1280.08 324.739   5
  -7  -5   3 912.668 339.396   4
  -7  -5   3 1167.11 319.182   3
   7   5  -3 1005.32 424.970  20
   7  -5  -3 1391.38 421.639  19
   7   5  -3 1181.31 401.500  21
  -7  -5   3 837.270 298.547  19
   7  -5  -3 1108.11 323.145  17
  -7   5   3 1135.24 479.130   8
  -7  -5   3 860.950 277.250  14
  -7   5   3 926.857 205.373  14
   7  -5  -3 1355.91 472.042  13
  -7   5   3 1060.94 344.526  12
  -7  -5   3 717.546 226.070  13
   7   5  -3 1116.22 396.966  11
  -7  -5   3 1920.23 408.600  10
  -7  -5   2 57351.2 2576.25   3
   7  -5  -2 58885.4 2857.51  19
   7   5  -2 58933.2 2872.32  21
  -7  -5   2 55114.7 2421.12  19
   7   5  -2 59098.6 2947.58  20
  -7   5   2 55732.5 3099.48   8
   7  -5  -2 60462.5 2756.52  13
  -7  -5   2 55431.1 2264.88  13
  -7  -5   2 58857.7 2225.06  14
  -7   5   2 58006.3 1831.63  14
  -7   5   2 55367.0 2488.38  12
   7   5  -2 57311.5 2878.15  12
   7   5  -2 57205.8 2524.19  11
  -7  -5   2 58983.6 2479.56   4
   7  -5  -2 59466.6 2373.00   5
  -7   5   1 176308. 4705.47   1
  -7  -5   1 170783. 5194.47   2
  -7  -5   1 172458. 5461.29   3
   7   5  -1 168980. 5634.71  21
  -7  -5   1 178398. 5345.35  19
   7  -5  -1 180991. 5900.20  19
   7   5  -1 172421. 5811.06  20
  -7  -5   1 170087. 4620.83  18
  -7   5   1 172081. 6223.91   8
  -7  -5   1 168014. 4845.84  14
  -7   5   1 174416. 4425.14  14
   7  -5  -1 176976. 5588.12  13
  -7   5   1 164661. 5275.06  12
   7   5  -1 163380. 5155.51  11
   7   5  -1 165773. 5734.14  12
  -7  -5   1 172890. 5368.48   4
   7  -5  -1 173523. 5215.41   5
  -7  -5   0 29264.6 1674.02   2
  -7   5   0 29672.7 1499.37   1
  -7  -5   0 28573.1 1657.76   3
  -7   5   0 26993.5 1695.95  21
  -7  -5   0 28367.1 1617.77  19
   7  -5   0 30230.6 1943.98  19
   7   5   0 26681.3 1810.01  20
  -7  -5   0 26992.3 1342.99  18
   7   5   0 27991.0 1475.12   6
  -7   5   0 27351.1 2044.61   8
  -7   5   0 28489.5 1106.13  14
  -7  -5   0 26023.3 1295.73  14
   7  -5   0 28477.8 1686.15  13
   7   5   0 28725.1 1525.77  11
  -7   5   0 26748.3 1559.70  12
   7   5   0 27563.8 1809.57  12
   7  -5   0 27022.7 1902.00   3
  -7  -5   0 27759.1 1675.94   4
  -7   5   0 27806.4 1184.44   4
   7  -5   0 29116.0 1603.94   5
  -7  -5  -1 23621.3 1620.59   2
  -7   5  -1 30385.4 1634.50   1
  -7  -5  -1 24663.2 1505.46   3
  -7   5  -1 26139.0 1677.13  21
   7  -5   1 28280.8 1847.07  19
  -7  -5  -1 24255.4 1515.62  19
   7   5   1 25273.2 1776.23  20
  -7  -5  -1 26066.2 1431.00  18
   7   5   1 25147.5 1433.11   6
  -7   5  -1 27617.1 1967.34   8
  -7  -5  -1 24621.7 1261.91  14
   7  -5   1 26749.9 1588.23  13
   7   5   1 25318.6 1417.28  11
   7   5   1 23855.4 1658.24  12
  -7   5  -1 25833.6 1529.43  12
  -7  -5  -1 26398.7 1720.93   4
   7  -5   1 24308.2 1522.88   5
   7  -5   1 21263.0 1723.25   3
  -7  -5  -2 101057. 3989.65   2
  -7  -5  -2 97275.8 3494.56   3
  -7   5  -2 102461. 3901.10  21
   7  -5   2 100566. 4007.29  19
   7   5   2 100230. 4036.03  20
  -7  -5  -2 95396.4 3626.63  19
  -7  -5  -2 99972.1 3612.46  18
   7   5   2 94401.2 3462.12   6
  -7   5  -2 103058. 4091.42   8
  -7   5  -2 98648.6 3473.86  14
   7  -5   2 98145.9 3566.97  13
   7   5   2 96745.6 3410.41  11
   7   5   2 101631. 3899.52  12
  -7   5  -2 98299.4 3609.23  12
   7  -5   2 101294. 4225.50   3
  -7  -5  -2 96730.7 3962.18   4
   7  -5   2 99972.0 3733.79   5
  -7  -5  -3 76472.9 3479.08   2
  -7   5  -3 90930.0 3575.13   1
  -7  -5  -3 77859.6 2910.08   3
   7  -5   3 78796.7 3417.36  19
   7   5   3 81555.8 3534.30  20
  -7  -5  -3 76933.6 3151.04  19
  -7  -5  -3 78367.1 3293.17  18
   7   5   3 73545.7 3024.20   6
  -7   5  -3 72109.4 3221.88   8
  -7   5  -3 72925.8 3088.30  14
   7  -5   3 73991.5 2951.60  13
   7  -5   3 77124.2 3103.57  10
   7   5   3 78155.7 3253.44  12
  -7   5  -3 72730.7 3050.46  12
   7  -5   3 76316.0 3575.25   3
   7  -5   3 78227.0 3252.56   5
   7  -5   4 4702.64 754.673   5
  -7  -5  -4 3006.97 702.668   2
   7  -5   4 3504.53 698.083   3
  -7  -5  -4 3867.08 528.552   3
   7  -5   4 3822.44 699.175  19
   7   5   4 3774.01 751.062  20
  -7  -5  -4 4263.89 669.928  19
  -7  -5  -4 3797.27 724.539  18
  -7   5  -4 4379.96 838.468   7
   7   5   4 3663.92 616.951   6
  -7   5  -4 3410.30 604.742   8
   7  -5   4 2479.91 552.130  16
  -7   5  -4 4250.33 705.750  14
   7   5   4 4135.68 699.160  12
   7  -5   4 3870.21 616.170  10
   7  -5   5 10071.1 1139.78   5
  -7   5  -5 9244.83 979.948   2
  -7  -5  -5 8858.45 1153.08   2
   7  -5   5 7979.95 1085.23   3
   7   5   5 9571.66 1158.75  20
   7  -5   5 9580.96 1078.52  19
  -7  -5  -5 8176.82 936.989  19
  -7  -5  -5 8457.98 939.099  17
  -7  -5  -5 10059.5 1168.38  18
   7  -5   5 10445.1 1118.20  16
  -7   5  -5 9139.86 1218.95   7
   7   5   5 9103.97 1022.82   6
  -7   5  -5 9190.09 895.753   8
  -7   5  -5 8182.38 1039.45  14
   7   5   5 9614.54 1023.13  12
   7  -5   5 9514.63 957.541  10
   7  -5   6 84455.9 3712.50   5
   7  -5   6 80570.3 3516.87   3
  -7  -5  -6 72656.3 3725.16   2
  -7   5  -6 75381.4 3227.62   2
  -7  -5  -6 81290.9 3816.06  18
   7  -5   6 76148.4 3559.83  16
  -7   5  -6 73509.0 3489.06  18
  -7  -5  -6 83429.9 3482.48  17
   7  -5   6 76054.2 3442.69  19
  -7  -5  -6 79744.0 3340.51  19
   7   5   6 79531.8 3821.33  20
   7   5   6 82534.3 3568.34   6
  -7   5  -6 77440.5 3825.57   7
   7   5   6 80323.9 3424.34  12
   7  -5   6 76726.4 3214.96  10
  -7  -5  -7 56318.4 3249.87   2
  -7  -5  -7 57763.5 2774.71  19
  -7  -5  -7 54546.2 3192.34  18
   7  -5   7 57088.1 3096.95  16
  -7   5  -7 56237.2 3089.84  18
  -7  -5  -7 56686.4 2938.29  17
   7  -5   7 62797.0 3194.43   5
   7   5   7 51841.3 2887.41   6
  -7   5  -7 59198.9 3240.54   7
   7   5   7 59738.5 2899.33  12
   7  -5   7 56668.3 2733.26  10
  -7   5  -8 1010.42 652.259   9
   7  -5   8 1074.90 420.790  10
  -7   5  -8 902.841 426.733  18
  -7  -5  -8 821.305 460.447  17
  -7  -5  -8 1259.87 608.077  18
   7   5   8 747.370 449.773   6
  -7   5  -8 458.494 402.745   7
  -7   5  -8 825.007 486.812  15
   7  -5   8 509.279 408.793  16
   7   5   8 1532.60 549.563  12
  -7  -5  -8 476.819 436.024  13
   7  -5   8 613.457 451.260   5
  -7   5  -9 29087.9 2587.16  17
  -7  -5  -9 23588.2 2212.52  18
   7  -5   9 21981.8 1978.74  16
  -7  -5  -9 25479.6 2058.46  17
   7  -5   9 22264.1 1950.91   5
   7   5   9 23687.3 2010.95   6
   7   5   9 23954.4 2003.35  16
  -7   5  -9 21545.7 2466.60  15
  -7  -5  -9 24603.4 2023.32  13
   7   5   9 22753.4 1838.48  12
  -7   5  -9 25516.3 2632.31   9
   7  -5   9 25405.3 1878.32  10
   7   5   9 21149.0 1749.01  10
  -7  -5 -10 24026.3 2345.21  18
   7  -5  10 28116.1 2300.15  16
  -7  -5 -10 26631.7 2212.92  17
  -7   5 -10 26598.2 2638.07  17
   7  -5  10 26876.4 2189.49   5
   7   5  10 27400.9 2201.17   6
   7   5  10 25502.7 2170.80  16
  -7   5 -10 27327.1 2976.26  15
  -7  -5 -10 26256.8 2144.90  13
   7   5  10 28924.7 2157.85  12
  -7   5 -10 28148.8 2925.18   9
   7  -5  10 27582.0 2023.17  10
   7   5  10 26807.7 2047.20  10
  -7   5 -11 7436.22 1409.34  17
  -7  -5 -11 4759.28 1146.83  18
  -7  -5 -11 6891.28 1166.81  17
   7   5  11 6945.01 1149.92   6
   7  -5  11 5602.31 1055.70  16
   7   5  11 7333.25 1198.64  16
  -7   5 -11 6293.28 1514.06  15
  -7  -5 -11 4862.85 930.874  13
   7   5  11 6942.18 1108.11  12
   7   5  11 6866.81 1040.75  10
  -7   5 -11 7545.78 1649.74   9
   7  -5  11 5865.38 982.694  10
  -7   5 -12 883.418 678.827  17
   7   5  12 563.657 457.734  10
   7  -5  12 134.559 410.369  10
   7   7 -11-643.156 611.237  20
   7   7 -11 974.912 724.049  11
  -7   7  11 686.689 609.746  12
  -7   7  11-181.395 510.312  10
   7  -7 -11 57.0780 472.269   9
  -7  -7  11-467.779 492.613  10
   7   7 -10 3266.50 1016.80  20
  -7  -7  10 4263.56 783.535   3
   7  -7 -10 4058.84 1052.44  13
   7   7 -10 4553.18 1195.13  11
  -7   7  10 2413.09 826.043  12
   7  -7 -10 3967.69 963.957   9
  -7  -7  10 2579.10 712.823  10
   7   7  -9 16069.1 1906.87  20
  -7   7   9 20236.2 1957.34   8
  -7  -7   9 15575.7 1447.09   3
   7  -7  -9 17123.0 1975.60  13
  -7   7   9 19636.8 1971.90  12
   7   7  -9 15765.3 2020.14  11
  -7  -7   9 18663.0 1754.10  10
   7  -7  -9 15925.5 1726.19   9
   7   7  -8 17858.7 1920.87  20
  -7   7   8 18256.4 1851.02   8
  -7  -7   8 15151.1 1415.75   3
   7  -7  -8 13691.1 1713.02  13
   7   7  -8 15625.5 1912.14  11
  -7   7   8 15632.2 1731.25  12
  -7  -7   8 16286.0 1622.42  10
   7  -7  -8 14138.8 1563.49   9
   7   7  -7 1568.73 688.989  20
  -7  -7   7 467.239 353.032  19
  -7   7   7 1029.78 588.904   8
  -7  -7   7 882.182 447.897   3
   7  -7  -7 1885.22 790.757  13
   7   7  -7 432.507 474.139  11
  -7   7   7 1244.66 621.439  12
   7  -7  -7 956.347 481.211   9
  -7  -7   7 601.037 450.653  10
   7   7  -6 25465.4 2189.08  20
  -7  -7   6 22137.4 1626.62  19
  -7   7   6 26260.8 2291.66   8
  -7  -7   6 23309.6 1752.26   3
   7  -7  -6 26381.2 2218.63  13
   7   7  -6 22115.2 1986.19  11
  -7   7   6 26613.9 2106.76  12
   7  -7  -6 26675.1 1978.97   9
  -7  -7   6 25408.6 1886.78  10
  -7  -7   5 44344.4 2462.25   3
  -7   7   5 46120.6 3100.54   8
  -7  -7   5 40213.8 2257.31  19
   7  -7  -5 47206.1 2674.52  19
   7   7  -5 43951.2 2940.53  21
   7   7  -5 42236.4 2784.88  20
   7  -7  -5 46705.8 2867.45  13
  -7  -7   5 42820.4 2513.99  10
  -7   7   5 44999.8 2712.40  12
   7   7  -5 39007.9 2509.48  11
  -7  -7   5 42191.2 2188.07   4
  -7  -7   4 11614.8 1231.43   3
  -7   7   4 13384.5 1681.44   8
  -7  -7   4 12775.6 1174.82  19
   7   7  -4 12884.1 1503.49  21
   7  -7  -4 14355.9 1450.30  19
   7   7  -4 12810.3 1487.44  20
   7  -7  -4 13116.5 1412.50  13
  -7  -7   4 13193.3 1307.63  10
  -7   7   4 14370.0 1423.03  12
   7   7  -4 11295.4 1391.80  12
   7   7  -4 12142.0 1257.80  11
  -7  -7   4 12353.6 1093.73   4
  -7  -7   3-115.762 316.174   3
  -7   7   3-631.038 604.558   8
   7  -7  -3 50.1568 290.825  19
   7   7  -3 83.0932 329.598  20
   7   7  -3-304.779 369.458  21
  -7  -7   3 67.9284 255.096  19
  -7  -7   3 126.040 196.521  13
   7  -7  -3 444.221 362.018  13
  -7   7   3 608.926 417.760  12
   7   7  -3 1379.36 424.327  11
   7   7  -3 125.852 409.713  12
  -7  -7   3-161.478 293.638   4
   7  -7  -3 482.592 307.839   5
  -7  -7   2 36827.9 2191.83   3
  -7   7   2 41386.8 2987.97   8
  -7  -7   2 33752.4 1978.89  19
   7   7  -2 41807.0 2671.93  21
   7  -7  -2 36734.7 2394.33  19
   7   7  -2 35415.8 2417.90  20
   7  -7  -2 36403.5 2261.38  13
  -7  -7   2 33136.3 1787.75  13
  -7   7   2 33277.6 2171.38  12
   7   7  -2 34882.4 2018.91  11
   7   7  -2 37312.0 2530.63  12
  -7  -7   2 32104.6 1935.47   4
   7  -7  -2 38228.6 1956.97   5
  -7  -7   1 64327.3 3048.17   3
  -7   7   1 71293.5 3977.92   8
   7   7  -1 67428.9 3466.27  21
  -7  -7   1 63721.8 2924.34  19
   7   7  -1 66195.9 3381.51  20
   7  -7  -1 70810.0 3495.91  19
  -7  -7   1 61323.7 2731.93  13
   7  -7  -1 64923.8 3146.33  13
  -7   7   1 72484.2 3320.45  12
   7   7  -1 66228.1 2772.88  11
   7   7  -1 65669.3 3427.80  12
  -7  -7   1 61826.7 2913.88   4
   7  -7  -1 68499.3 2834.62   5
   7  -7  -1 67037.2 3446.53   3
  -7  -7   0 14264.6 1289.40   3
  -7  -7   0 16026.9 1337.17  19
   7  -7   0 17443.2 1623.52  19
   7   7   0 15253.0 1508.74  20
  -7   7   0 20262.3 2013.40   8
  -7  -7   0 13552.3 1199.45  13
   7  -7   0 15038.9 1345.28  13
  -7   7   0 15153.9 1409.25  12
   7   7   0 15428.2 1523.28  12
  -7  -7   0 13022.1 1235.03   4
   7  -7   0 15249.9 1247.17   5
   7  -7   0 14060.4 1506.70   3
  -7  -7  -1 10318.7 1054.66   3
   7  -7   1 9077.53 1231.69   3
  -7   7  -1 12187.7 1317.95  21
   7   7   1 8617.33 1167.67  20
   7  -7   1 9259.38 1147.64  19
  -7  -7  -1 10239.1 1082.30  19
  -7  -7  -1 8992.42 853.392  18
  -7   7  -1 10671.7 1441.55   8
  -7  -7  -1 9374.22 1036.36  13
   7  -7   1 9518.16 1041.67  13
   7   7   1 10023.5 1234.77  12
  -7   7  -1 9889.40 1142.67  12
   7  -7   1 10774.3 1071.63   5
  -7  -7  -2 52748.8 2590.16   3
  -7   7  -2 56957.2 3057.38  21
   7  -7   2 58741.2 3025.58  19
   7   7   2 53931.2 3027.94  20
  -7  -7  -2 53805.5 2723.99  19
  -7  -7  -2 51912.5 2485.29  18
  -7   7  -2 61091.5 3410.47   8
   7  -7   2 53379.6 2609.63  13
  -7  -7  -2 52980.5 2773.71  13
   7   7   2 58266.2 3156.05  12
  -7   7  -2 56898.6 2899.10  12
   7  -7   2 63949.8 2875.27   5
   7  -7   2 56658.4 3188.75   3
  -7  -7  -3 23859.3 1607.43   3
  -7   7  -3 27743.2 2122.47  21
  -7  -7  -3 25623.8 1812.99  19
   7  -7   3 25560.3 1932.88  19
   7   7   3 27202.9 2115.04  20
  -7  -7  -3 26946.3 1776.95  18
  -7   7  -3 27755.9 2160.76   8
   7  -7   3 27217.1 1718.56  13
  -7  -7  -3 27007.1 1929.73  13
   7   7   3 30783.6 2216.76  12
  -7   7  -3 28016.0 1957.49  12
   7  -7   3 24876.9 2050.14   3
   7  -7   3 28018.3 1897.19   5
   7  -7   4 4255.31 857.301   3
   7   7   4 3892.71 861.844  20
   7  -7   4 2417.37 636.422  19
  -7   7  -4 4489.59 892.529  21
  -7  -7  -4 3570.71 704.806  19
  -7  -7  -4 4647.82 797.195  18
   7   7   4 3265.07 605.094   6
  -7   7  -4 3801.23 752.288   8
   7  -7   4 3334.86 583.503  13
   7   7   4 4037.81 808.534  12
  -7   7  -4 4584.00 785.564  12
  -7  -7  -4 3879.32 812.046  13
   7  -7   4 3542.28 711.305   5
   7  -7   5 6084.42 964.348   5
   7  -7   5 3087.96 709.280   3
   7   7   5 3735.36 900.382  20
   7  -7   5 5995.30 956.687  19
  -7   7  -5 7641.63 1139.47  21
  -7  -7  -5 3748.70 723.632  19
  -7  -7  -5 5363.73 915.070  18
   7   7   5 4866.94 762.554   6
   7   7   5 5271.38 945.042  12
  -7   7  -5 5207.86 903.416  12
  -7  -7  -5 3323.13 756.944  13
   7  -7   5 5242.57 827.898  10
  -7  -7  -6 37442.9 2305.53  19
   7  -7   6 37311.4 2414.27  19
   7   7   6 44336.5 3010.17  20
  -7  -7  -6 39123.5 2652.29  18
  -7   7  -6 41561.2 3012.75   7
   7  -7   6 40960.6 2552.62   5
   7   7   6 37883.7 2274.76   6
  -7  -7  -6 37107.4 2486.94  13
   7  -7   6 38241.7 2422.03  10
   7   7   6 40193.4 2633.72  12
   7  -7   6 39617.3 2480.05   3
   7  -7   7 21563.1 1747.24   3
  -7  -7  -7 19667.5 1619.14  19
   7  -7   7 22540.0 1846.88  19
  -7  -7  -7 20599.4 1945.93  18
   7  -7   7 20580.4 1815.60   5
  -7   7  -7 23666.0 2226.14   7
   7   7   7 21655.9 1742.87   6
  -7  -7  -7 20543.0 1854.15  13
   7   7   7 23070.1 1993.94  12
   7  -7   7 22304.8 1810.69  10
  -7   7  -8-826.229 780.794   9
   7  -7   8 268.904 454.089  10
  -7  -7  -8 381.899 460.254  18
  -7   7  -8 286.040 474.870   7
   7   7   8-566.582 519.368   6
  -7   7  -8-1296.15 836.584  15
  -7  -7  -8 152.366 403.422  13
   7   7   8 300.433 412.000  12
   7  -7   8 700.206 488.945   5
  -7   7  -9 14407.9 2029.37   9
   7  -7   9 12648.4 1489.16  10
  -7  -7  -9 15357.9 1826.90  18
   7   7   9 14692.8 1505.22   6
  -7  -7  -9 11529.3 1435.75  13
  -7   7  -9 12780.7 2016.79  15
   7   7   9 14535.9 1691.16  12
   7  -7   9 9747.28 1342.00   5
  -7  -7 -10 14802.0 1845.29  18
   7   7  10 11082.4 1332.14   6
   7   7  10 14491.8 1726.44  12
  -7   7 -10 15117.9 2136.42   9
   7  -7  10 11340.4 1459.73  10
  -7  -7 -10 12331.6 1490.78  13
   7   7  10 15563.3 1839.92  16
  -7   7 -10 13755.9 2130.35  15
  -7   9   9 5709.92 1238.58   8
   7   9  -8 7885.89 1456.59  20
   7   9  -8 7074.46 1458.18  21
  -7   9   8 7384.15 1396.64   8
  -7  -9   8 5760.45 969.123   3
   7  -9  -8 7258.08 1304.83  13
   7   9  -8 6327.31 1370.39  12
  -7   9   8 5509.20 1166.75  12
  -7  -9   8 7484.35 1215.57  10
   7   9  -7 545.216 547.659  20
   7   9  -7 235.671 523.943  21
  -7  -9   7 160.190 360.803  19
  -7   9   7-202.327 516.307   8
  -7  -9   7 372.528 408.870   3
   7  -9  -7-956.259 604.601  13
   7   9  -7-401.150 670.788  12
  -7   9   7 998.324 688.813  12
  -7  -9   7-340.479 500.477  10
  -7   9   6 9587.14 1574.89   8
   7   9  -6 5942.83 1178.74  20
   7   9  -6 10012.7 1589.26  21
  -7  -9   6 7967.34 1090.15  19
   7  -9  -6 8782.37 1375.38  13
   7   9  -6 7906.82 1401.81  12
  -7   9   6 8290.85 1360.03  12
  -7  -9   6 7290.66 1090.26   3
  -7   9   5 20698.2 2351.17   8
   7   9  -5 14753.7 1851.42  21
   7   9  -5 16113.4 1802.46  20
  -7  -9   5 14657.6 1467.68  19
   7  -9  -5 14418.5 1655.52  13
  -7   9   5 18042.9 1881.71  12
   7   9  -5 16467.0 1974.83  12
  -7  -9   5 15980.3 1582.34   3
  -7   9   4 6681.29 1393.58   8
   7   9  -4 4577.87 984.000  20
  -7  -9   4 4883.16 868.576  19
   7  -9  -4 7049.71 1141.49  19
   7   9  -4 4421.31 1018.56  21
   7  -9  -4 6199.84 1070.35  13
  -7   9   4 4901.08 1013.77  12
   7   9  -4 5665.27 1142.06  12
  -7  -9   4 6542.78 1021.93   3
  -7   9   3 1216.74 826.542   8
   7   9  -3-271.769 464.301  20
   7  -9  -3 432.447 410.932  19
  -7  -9   3-417.740 408.822  19
   7   9  -3 177.258 521.146  21
   7  -9  -3-0.88802 365.567  13
  -7   9   3-181.963 529.372  12
   7   9  -3 34.4830 507.090  12
  -7  -9   3 472.780 480.740   3
  -7   9   2 10675.4 1724.21   8
   7   9  -2 12401.2 1512.61  20
   7  -9  -2 10395.0 1325.17  19
  -7  -9   2 10264.7 1186.50  19
   7  -9  -2 10669.7 1293.76  13
  -7   9   2 12191.0 1490.23  12
   7   9  -2 12951.0 1632.58  12
  -7  -9   2 11802.1 1349.82   3
  -7   9   1 33846.4 2992.57   8
  -7  -9   1 24973.6 1890.56  19
   7  -9  -1 27423.7 2176.79  19
   7   9  -1 26915.0 2234.72  20
  -7  -9   1 23735.3 1688.81  13
   7  -9  -1 26585.3 2011.71  13
  -7   9   1 28553.0 2270.37  12
   7   9  -1 31702.4 2548.30  12
  -7  -9   1 25812.9 1943.91   3
  -7   9   0 6201.51 1342.91   8
   7   9   0 5872.87 1049.11  20
   7  -9   0 4683.06 947.557  19
  -7  -9   0 5461.11 896.292  19
   7  -9   0 4567.89 890.251  13
  -7  -9   0 5461.22 822.449  13
  -7   9   0 5619.09 1011.48  12
   7   9   0 4231.65 987.226  12
   7  -9   0 4793.69 991.531   3
  -7  -9   0 5432.62 894.313   3
  -7   9  -1 4888.16 1164.94   8
   7   9   1 4009.19 862.707  20
   7  -9   1 3447.30 772.420  19
  -7  -9  -1 4373.84 794.870  19
  -7  -9  -1 4844.72 809.341  13
   7  -9   1 4348.72 796.295  13
  -7   9  -1 5229.27 987.221  12
   7   9   1 4406.28 1012.37  12
   7  -9   1 4428.31 988.056   3
  -7  -9  -1 5323.91 868.702   3
  -7  -9  -2 15938.7 1422.64   3
  -7   9  -2 19470.4 2126.41   8
  -7  -9  -2 17126.1 1547.64  19
   7  -9   2 16440.7 1646.66  19
   7   9   2 18042.9 1832.50  20
  -7  -9  -2 15786.4 1504.00  13
   7  -9   2 16844.0 1501.66  13
   7   9   2 15960.9 1826.92  12
  -7   9  -2 15152.3 1623.98  12
   7  -9   2 14823.1 1661.50   3
   7  -9   3 10192.3 1423.56   3
  -7   9  -3 13431.8 1692.48   8
  -7  -9  -3 8387.68 1107.49  19
   7   9   3 12424.9 1551.45  20
   7  -9   3 8676.34 1285.38  19
  -7   9  -3 12697.0 1577.01  21
  -7  -9  -3 11709.5 1333.29  13
   7  -9   3 13102.3 1281.50  13
   7   9   3 11650.1 1563.39  12
   7  -9   3 11795.9 1270.66   5
   7  -9   4 1248.12 625.120   3
  -7   9  -4 769.467 471.397   8
  -7  -9  -4 1036.50 500.953  13
   7   9   4 1772.04 714.721  20
  -7  -9  -4 1531.56 602.628  19
   7  -9   4 1279.35 604.988  19
  -7   9  -4 1563.97 699.635  21
   7   9   4 597.072 452.447  12
   7  -9   4 822.451 440.943   5
   7  -9   5 2337.85 722.037   3
   7   9   5 2281.35 793.824  20
  -7  -9  -5 1096.68 529.180  19
   7  -9   5 2108.00 679.838  19
  -7   9  -5 2033.75 729.496  21
  -7  -9  -5 1874.16 723.261  13
   7   9   5 1623.77 768.069  12
   7  -9   5 2495.95 625.591   5
   7  -9   6 8763.08 1224.96   3
  -7   9  -6 15761.7 2076.24   7
   7  -9   6 11610.0 1414.80  19
   7   9   6 13998.3 1822.41  20
  -7  -9  -6 10646.6 1248.36  19
  -7   9  -6 13110.6 1737.17  21
  -7  -9  -6 11556.5 1422.74  13
   7   9   6 14013.1 1774.47  12
   7  -9   6 11501.4 1357.25   5
   7  -9   7 7653.13 1114.99   3
  -7   9  -7 7866.06 1476.06   7
  -7  -9  -7 7732.70 1214.62  13
  -7   9  -7 11761.8 1703.84  21
   7  -9   7 10317.7 1330.43  19
   7  -9   7 10243.5 1302.24   5
   7   9   7 10444.0 1572.12  12
  -7  11   3 289.316 592.029  12
   7 -11  -3-482.068 531.781  19
   7  11  -2 2573.52 814.312  20
   7 -11  -2 4809.73 1007.81  19
   7 -11  -2 3247.17 794.025  13
  -7  11   2 3295.05 910.569  12
  -7 -11   2 2853.06 775.708   3
   7  11  -1 6991.43 1249.16  20
  -7 -11   1 7454.33 1160.70  19
   7 -11  -1 6975.71 1208.52  19
   7 -11  -1 7443.25 1144.59  13
  -7  11   1 10298.8 1866.13   8
   7  11  -1 8918.67 1523.09  12
  -7 -11   1 8266.98 1167.67   3
   7  11   0 1112.97 582.143  20
   7 -11   0 992.994 542.203  19
  -7 -11   0 2774.35 753.451  19
   7 -11   0 257.808 402.112  13
  -7 -11   0 1354.47 507.474  13
  -7  11   0 1520.87 902.457   8
   7  11   0 1816.69 817.059  12
  -7 -11   0 2035.53 625.674   3
   7  11   1 1392.78 656.469  20
   7 -11   1 1387.70 589.656  19
   7 -11   1 1515.26 619.157  13
  -7 -11  -1 1137.10 554.612  13
  -7  11  -1 1669.12 839.560   8
   7  11   1 2358.76 898.972  12
  -7 -11  -1 1381.16 528.367   3
  -7 -11  -2 5254.42 947.469  13
  -7  11  -2 6598.66 1431.63   8
   7  11   2 4071.11 1007.04  20
  -7  11  -3 5927.85 1262.66   8
   7  11   3 3301.40 903.444  20
   8   0 -14 1038.15 767.457  17
   8   0 -14 1177.71 813.935  11
  -8   0  14 1700.08 621.192   4
  -8   0  14 1319.89 573.086  10
   8   0 -14-322.862 562.937   9
   8   0 -13 9536.04 1699.75  17
   8   0 -13 10935.7 1722.88  11
  -8   0  13 15050.5 1522.68   4
  -8   0  13 13522.6 1401.15  10
   8   0 -13 13789.4 1970.01   9
   8   0 -12 14650.0 1952.66  17
   8   0 -12 16530.7 2059.77  11
  -8   0  12 20364.2 1736.55   4
  -8   0  12 20837.3 1671.14  10
   8   0 -12 15618.6 1973.08   9
   8   0 -11 6345.72 1229.29  17
   8   0 -11 6102.68 1197.35  11
  -8   0  11 6379.51 946.634   4
  -8   0  11 6171.87 848.446  10
   8   0 -11 5806.58 1156.42   9
   8   0 -10 1121.26 561.430  17
   8   0 -10 1324.62 649.975  11
  -8   0  10 1684.56 528.302   4
  -8   0  10 1205.17 416.102  10
   8   0 -10 1572.83 664.335   9
   8   0  -9 59750.6 3365.24  17
   8   0  -9 63518.6 3507.23   9
  -8   0   9 65886.4 2751.87  10
   8   0  -9 53866.4 3226.26  11
  -8   0   9 61846.0 2948.55   4
  -8   0   8 127071. 3898.56   3
   8   0  -8 116381. 4898.44  17
   8   0  -8 129253. 5097.77   9
  -8   0   8 134624. 4280.05  10
  -8   0   8 132670. 3963.06   8
   8   0  -8 120229. 4923.30  11
  -8   0   8 124510. 4580.02   4
  -8   0   7 16978.0 1010.24   3
   8   0  -7 18143.8 1129.47   1
   8   0  -7 17093.1 1454.28   9
  -8   0   7 17057.1 1142.11  10
   8   0  -7 17616.9 1482.47  17
  -8   0   7 17204.0 1060.04   8
   8   0  -7 18341.2 1505.96  11
  -8   0   7 21625.2 1462.98   4
   8   0  -6 61287.2 2688.82   9
  -8   0   6 58086.1 2238.70  10
   8   0  -6 58182.1 2748.77  17
  -8   0   6 59304.8 2233.02   8
   8   0  -6 53597.5 2679.01  14
  -8   0   6 60602.8 2595.43  14
   8   0  -6 57827.3 2706.90  11
  -8   0   6 60887.3 2562.13   4
   8   0  -5 183703. 5653.66   9
  -8   0   5 184438. 5150.84  10
   8   0  -5 189984. 5841.13  17
  -8   0   5 187064. 5283.40   8
   8   0  -5 192939. 5963.79  14
  -8   0   5 199000. 5691.09  14
   8   0  -5 183566. 5712.78  11
  -8   0   5 191492. 5566.36   4
   8   0  -4 91856.2 3152.02   9
  -8   0   4 88118.5 2725.65  10
   8   0  -4 92862.2 3296.89  17
  -8   0   4 87966.6 2954.26   8
   8   0  -4 94817.3 3351.19  14
  -8   0   4 94038.5 3187.37  14
   8   0  -4 88747.6 3209.10  11
  -8   0   4 89273.1 3059.07   4
  -8   0   3 86.2137 74.0239  10
   8   0  -3 193.031 184.352  17
  -8   0   3 273.390 154.882   8
   8   0  -3 565.928 218.077  14
  -8   0   3 340.945 174.769  14
   8   0  -3 173.395 175.778  11
  -8   0   3 144.241 157.068   4
  -8   0   2 216041. 5885.15   4
  -8   0   2 222293. 5810.50   2
   8   0  -2 220684. 5913.91  20
   8   0  -2 212639. 6069.66  17
   8   0  -2 232918. 5259.76  16
  -8   0   2 219106. 5938.08   8
  -8   0   2 232948. 6103.23  14
   8   0  -2 222204. 6065.83  11
   8   0  -2 214819. 5954.58   9
  -8   0   2 217696. 5297.09  10
  -8   0   1 487826. 11889.9   2
  -8   0   1 481554. 11897.1   8
   8   0  -1 480945. 11887.2  20
  -8   0   1 488175. 12116.5  14
   8   0  -1 505443. 11417.3  16
   8   0  -1 485319. 11997.4  11
  -8   0   1 496804. 11877.6   4
  -8   0   0 172848. 4879.97   2
  -8   0   0 174393. 4784.24   8
   8   0   0 175950. 4706.61  20
   8   0   0 176580. 4552.41  16
   8   0   0 172090. 4880.52  11
   8   0   0 181253. 4137.70  12
   8   0   0 170911. 4762.94   5
  -8   0   0 172516. 4748.98   4
  -8   0  -1 7688.01 666.992   2
   8   0   1 6814.16 537.724  20
  -8   0  -1 6669.33 555.632   8
   8   0   1 6902.44 543.950  16
   8   0   1 5685.51 579.022  11
  -8   0  -1 6966.90 592.818   4
   8   0   1 6458.44 586.082   5
  -8   0  -2 273560. 7140.53   4
   8   0   2 262105. 7152.42   5
   8   0   2 261533. 7000.11   1
  -8   0  -2 272149. 7269.42   2
   8   0   2 272309. 6937.07  20
  -8   0  -2 268824. 7288.19  18
   8   0   2 266908. 7414.01   6
   8   0   2 264991. 7019.17  16
   8   0   2 279997. 6323.79  12
   8   0   2 267220. 6368.87  10
  -8   0  -2 268308. 6867.41   8
  -8   0  -3 310191. 8331.14   2
   8   0   3 295529. 8051.79   1
   8   0   3 312739. 8041.72  20
  -8   0  -3 314958. 8462.91  18
   8   0   3 307988. 8506.22   6
   8   0   3 316300. 8187.11  16
  -8   0  -3 312784. 7785.67   8
   8   0   3 316107. 7535.31  10
   8   0   3 303742. 8265.15   5
  -8   0  -3 315444. 8228.14   4
  -8   0  -4 88742.8 2683.79   8
   8   0   4 89182.9 2671.95  10
  -8   0  -4 86915.7 3378.80  18
   8   0   4 91144.0 3417.83   6
   8   0   4 88942.5 3127.93  16
  -8   0  -4 88511.2 3272.45   2
   8   0   4 84384.4 3040.15   1
   8   0   4 89584.3 3174.87   5
   8   0   5 21917.5 1130.34  10
  -8   0  -5 23282.3 1638.55  18
   8   0   5 22448.1 1568.20   6
   8   0   5 24321.2 1447.14  16
  -8   0  -5 22545.9 1576.85  15
   8   0   5 23112.6 1387.89   1
  -8   0  -5 21375.8 1476.35   2
   8   0   5 26042.6 1490.69   5
  -8   0  -6 276962. 8538.74   9
   8   0   6 264029. 7189.39  10
  -8   0  -6 271777. 8370.89  18
   8   0   6 286495. 8278.66   6
   8   0   6 271462. 7691.43  16
  -8   0  -6 268049. 8298.00  15
  -8   0  -6 260959. 7977.00   2
   8   0   6 267730. 7627.37   5
  -8   0  -7 120312. 5032.81  18
   8   0   7 137000. 4969.38   6
   8   0   7 119111. 4280.80   5
   8   0   7 124560. 4392.50  16
  -8   0  -7 126673. 5048.46  15
  -8   0  -7 126303. 4784.21   2
  -8   0  -7 123527. 5172.19   9
   8   0   7 125481. 4005.39  10
   8   0   8 2479.64 480.926  10
  -8   0  -8 1894.91 631.529   9
  -8   0  -8 2834.12 746.888  18
   8   0   8 2391.16 613.866   6
   8   0   8 2954.47 624.688  16
  -8   0  -8 2984.16 763.528  15
  -8   0  -8 2085.41 591.533   2
   8   0   8 2096.06 516.698   5
  -8   0  -9 16999.5 1847.12  18
   8   0   9 14185.4 1257.50   5
   8   0   9 16635.8 1661.34   6
   8   0   9 15476.1 1376.17  16
  -8   0  -9 15426.7 1726.10  15
  -8   0  -9 16990.1 1872.40   9
   8   0   9 15785.0 1232.07  10
  -8   0  -9 15310.8 1560.46   2
  -8   0 -10 36322.3 3139.78  17
  -8   0 -10 32554.8 2697.99  18
   8   0  10 38306.2 2610.62   6
   8   0  10 34510.5 2226.31  16
  -8   0 -10 39980.7 2939.17  15
   8   0  10 34372.3 1988.10  10
  -8   0 -10 36223.8 2902.22   9
  -8   0 -10 30755.4 2322.28   2
   8   0  11 19826.2 1729.71  16
   8   0  11 18404.5 1867.21   6
  -8   0 -11 17674.1 2230.06  17
  -8   0 -11 17504.7 2033.40  18
   8   0  11 17459.2 1447.68  10
  -8   0 -11 19124.7 2190.45   9
   8   0  12 1679.04 600.734  16
   8   0  12 2909.54 841.301   6
  -8   0 -12 1127.06 759.469  17
  -8   0 -12 1559.19 786.542  18
   8   0  12 2373.00 615.862  10
  -8   0 -12 1485.33 827.279   9
   8   0  13 5712.72 1022.31  16
   8   0  13 6346.39 1170.00   6
  -8   0 -13 5550.42 1251.63  18
  -8   0 -13 4650.89 1238.16   9
   8   2 -14 108.161 564.264  17
   8   2 -14 1022.61 727.751  11
  -8   2  14 1295.60 578.612   4
   8   2 -14 1033.31 756.810   9
   8  -2 -13 9507.36 1634.94  17
   8   2 -13 9841.89 1734.98  17
   8   2 -13 9741.72 1778.82  11
  -8  -2  13 11759.2 1291.35   4
  -8   2  13 13086.7 1550.42   4
  -8  -2  13 11756.8 1347.81  10
   8  -2 -13 12047.5 1879.24   9
  -8   2  13 12206.7 1391.27  10
   8   2 -13 12248.9 1818.89   9
   8  -2 -12 12070.1 1768.29  17
   8   2 -12 8731.77 1538.83  17
   8   2 -12 10967.9 1835.81  11
  -8   2  12 15212.8 1612.66   4
  -8  -2  12 13645.0 1339.76   4
  -8  -2  12 14220.8 1409.03  10
  -8   2  12 13042.7 1359.88  10
   8   2 -12 12264.4 1725.84   9
   8  -2 -11 7382.68 1285.47  17
   8   2 -11 7324.22 1308.92  17
   8   2 -11 6955.12 1419.40  11
   8  -2 -11 7216.77 1141.58  11
  -8   2  11 9225.45 1239.24   4
  -8  -2  11 8021.10 1002.57   4
  -8  -2  11 9263.30 1098.87  10
  -8   2  11 8182.60 1020.80  10
   8  -2 -11 8436.27 1444.31   9
   8   2 -11 8846.91 1371.14   9
   8  -2 -10 2142.70 807.214  17
   8   2 -10 3346.77 879.802  17
  -8  -2  10 3761.73 655.770  10
  -8   2  10 2229.48 571.263  10
   8  -2 -10 2572.10 724.474   9
   8   2 -10 2217.84 680.658   9
   8   2 -10 2649.32 866.668  11
   8  -2 -10 1951.63 654.499  11
  -8  -2  10 3133.61 636.232   4
  -8   2  10 3134.44 748.144   4
  -8  -2   9 51345.1 2265.99   3
   8  -2  -9 52066.9 3114.90   9
   8   2  -9 44011.2 2822.99   9
  -8  -2   9 54088.3 2535.32  10
  -8   2   9 56650.0 2570.57  10
   8  -2  -9 51986.1 3164.81  17
   8   2  -9 44458.1 2921.05  17
  -8   2   9 52270.9 2239.94   8
   8  -2  -9 51984.8 2821.42  11
   8   2  -9 48295.2 3208.41  11
  -8   2   9 55777.5 2975.10   4
  -8  -2   9 53186.5 2568.88   4
  -8  -2   8 103089. 3607.37   3
   8  -2  -8 109454. 4488.94   9
   8   2  -8 104005. 4331.32   9
  -8  -2   8 106226. 3800.21  10
  -8   2   8 109972. 3846.43  10
   8  -2  -8 113155. 4652.34  17
   8   2  -8 97448.2 4310.47  17
  -8   2   8 105810. 3606.94   8
   8  -2  -8 109794. 3865.40  13
   8  -2  -8 100484. 4015.38  11
   8   2  -8 91001.2 4449.41  11
  -8   2   8 105039. 4299.44   4
  -8  -2   8 108383. 3882.49   4
  -8  -2   7 21371.7 1318.26   3
   8  -2  -7 22772.0 1670.22   9
   8   2  -7 22855.9 1598.79   9
  -8  -2   7 22709.7 1366.40  10
  -8   2   7 22876.1 1388.39  10
   8  -2  -7 20716.9 1640.89  17
   8   2  -7 19111.8 1551.28  17
  -8   2   7 22918.0 1377.84   8
   8  -2  -7 23422.8 1495.17  13
   8  -2  -7 22235.0 1474.71  11
   8   2  -7 19559.1 1701.79  11
  -8   2   7 19583.9 1552.38   4
  -8  -2   7 21820.1 1405.44   4
  -8   2   6 68539.0 3070.42   4
  -8  -2   6 68302.7 2688.22   4
  -8  -2   6 70577.8 2659.25   3
  -8  -2   6 69203.3 2244.07  19
   8  -2  -6 70652.1 3078.24  17
   8   2  -6 65216.4 2912.07  17
  -8   2   6 70602.9 2733.74   8
   8  -2  -6 69785.3 2969.17  14
  -8  -2   6 72060.9 2951.25  14
  -8   2   6 75617.7 3014.66  14
   8  -2  -6 68932.9 2827.86  13
   8   2  -6 68111.3 3202.75  11
  -8   2   6 70560.5 2759.03  12
   8  -2  -6 68957.6 2731.23  11
  -8  -2   6 69180.2 2561.63   8
   8  -2  -6 73506.3 3104.52   9
   8   2  -6 69169.7 2874.07   9
  -8  -2   6 73178.7 2622.85  10
  -8   2   6 69574.6 2642.30  10
  -8   2   5 127151. 4360.75   4
  -8  -2   5 129299. 4002.93   4
  -8  -2   5 124017. 3896.81   3
  -8  -2   5 121901. 3151.77   2
   8  -2  -5 119531. 3067.52   1
  -8  -2   5 127034. 3624.11  19
   8  -2  -5 133269. 4371.92  17
   8   2  -5 124002. 4187.69  17
  -8   2   5 130404. 4122.50   8
   8  -2  -5 122698. 4149.47  14
   8   2  -5 119116. 4360.73  14
  -8  -2   5 125707. 4175.32  14
  -8   2   5 136090. 4203.03  14
   8  -2  -5 131399. 4211.66  13
   8   2  -5 128314. 4585.04  11
  -8   2   5 123110. 3953.33  12
   8  -2  -5 121048. 3911.81  11
   8  -2  -5 126351. 4337.15   9
   8   2  -5 130414. 4066.34   9
  -8  -2   5 124861. 3897.14   8
  -8  -2   5 122322. 3750.47  10
  -8  -2   4 97746.9 3264.91   4
  -8   2   4 97784.9 3479.70   4
  -8  -2   4 95963.2 2732.98   2
  -8  -2   4 94102.8 3170.25   3
  -8  -2   4 95588.2 2998.45  19
   8  -2  -4 102192. 3528.25  17
   8   2  -4 98361.5 3407.15  17
  -8   2   4 98706.1 3420.56   8
   8  -2  -4 96973.9 3354.23  14
   8   2  -4 98613.9 3637.92  14
  -8  -2   4 98215.5 3415.81  14
  -8   2   4 106398. 3397.34  14
   8  -2  -4 98225.1 3420.26  13
  -8   2   4 100074. 3199.64  12
   8  -2  -4 102498. 3210.81  11
   8   2  -4 99242.1 3658.01  11
   8  -2  -4 100659. 3563.96   9
   8   2  -4 98285.8 3159.75   9
  -8  -2   4 95925.1 3015.08  10
  -8  -2   4 93235.4 3222.89   8
  -8   2   3 2242.04 391.651   4
  -8  -2   3 2386.85 392.435   4
  -8  -2   3 1048.55 259.193   3
   8  -2  -3 1235.09 138.153   1
  -8  -2   3 1713.46 256.858   2
   8   2  -3 994.174 296.740  20
   8   2  -3 870.396 260.409  17
   8  -2  -3 1471.50 363.229  17
  -8   2   3 1522.04 295.640   7
  -8  -2   3 1380.86 319.978   8
  -8   2   3 1273.45 341.175   8
   8  -2  -3 1077.33 289.597  13
  -8  -2   3 823.556 242.287  14
  -8   2   3 987.156 262.739  14
   8  -2  -3 1245.10 264.083  11
   8   2  -3 720.889 257.774  11
  -8   2   3 1185.90 244.696  12
   8  -2  -3 1008.64 292.183   9
   8   2  -3 1918.85 293.877   9
  -8  -2   3 966.421 212.587  10
  -8   2   2 218473. 6025.77   4
   8  -2  -2 224474. 6118.53   5
  -8  -2   2 222823. 6146.40   4
  -8  -2   2 223784. 5936.49   2
   8  -2  -2 222221. 5488.71   1
   8   2  -2 225793. 6571.38  20
   8   2  -2 227259. 6179.21  17
   8  -2  -2 224611. 6319.53  17
  -8  -2   2 223342. 5664.30  18
  -8   2   2 226732. 6203.86   7
  -8   2   2 222958. 6353.53   8
  -8   2   2 229157. 6085.17  14
  -8  -2   2 223512. 6197.93  14
   8  -2  -2 225207. 6278.78  13
  -8   2   2 225544. 5746.78  12
   8  -2  -2 227602. 5932.46  11
   8   2  -2 225440. 6348.19  11
  -8  -2   2 230613. 5792.00  10
  -8  -2   2 223565. 6185.91   8
  -8  -2   1 323370. 8400.56   4
   8  -2  -1 318111. 8311.34   5
  -8   2   1 316555. 8056.56   4
   8  -2  -1 316771. 7825.40   1
  -8  -2   1 327415. 8295.58   2
   8   2  -1 314231. 8089.02  21
   8  -2  -1 338386. 7521.64  20
   8   2  -1 318574. 8696.35  20
  -8  -2   1 319884. 8003.52  18
  -8   2   1 330182. 8565.86   7
  -8   2   1 313043. 8510.21   8
  -8   2   1 331708. 8304.41  14
  -8  -2   1 331152. 8401.11  14
   8  -2  -1 328118. 8460.35  13
   8  -2  -1 321624. 8128.45  11
  -8   2   1 329174. 7745.26  12
   8   2  -1 320955. 8488.89  11
  -8  -2   1 323751. 8394.22   8
   8  -2   0 183909. 4931.90   1
  -8  -2   0 188662. 5363.31   2
   8   2   0 186690. 5559.05  20
  -8  -2   0 186781. 5144.68  18
   8  -2   0 183730. 5168.76  16
  -8   2   0 187051. 5525.86   7
  -8   2   0 184407. 5366.45   8
   8  -2   0 196085. 5373.79  13
  -8   2   0 199244. 4536.51  12
   8   2   0 190558. 5386.00  11
   8   2   0 190552. 5220.62  12
  -8  -2   0 188357. 5412.21   4
   8  -2   0 184121. 5279.41   5
   8   2   0 184854. 4924.63   5
  -8   2   0 191430. 4904.09   4
   8  -2   1 7212.63 595.568   1
  -8  -2  -1 8198.47 763.925   2
  -8   2  -1 8395.83 576.891  21
   8   2   1 6875.67 718.512  20
   8  -2   1 7527.40 651.394  16
  -8  -2  -1 7862.32 699.243  18
  -8   2  -1 7350.78 779.551   7
  -8   2  -1 7237.59 655.240   8
   8   2   1 8324.16 784.599   6
   8  -2   1 7485.37 655.575   6
   8   2   1 8236.27 720.544  11
  -8   2  -1 7702.08 331.303  12
   8   2   1 6956.98 567.716  12
  -8   2  -1 8380.47 511.753   4
  -8  -2  -1 7230.05 733.930   4
   8  -2   1 7619.45 716.723   5
   8   2   1 8223.00 567.521   5
   8   2   2 249899. 6541.89   5
  -8  -2  -2 252985. 7272.46   4
  -8   2  -2 264023. 6355.09   4
   8  -2   2 249593. 7079.75   5
  -8   2  -2 266509. 7146.06   2
  -8  -2  -2 254074. 7217.35   2
   8  -2   2 249319. 6791.36   1
   8   2   2 248910. 7071.23  20
  -8  -2  -2 255687. 7131.39  18
   8  -2   2 257249. 6926.28  16
  -8   2  -2 257683. 7270.56   7
   8  -2   2 247972. 6876.61   6
  -8   2  -2 248148. 6734.04   8
   8   2   2 250963. 7212.59   6
  -8  -2  -2 264879. 6548.27  15
   8   2   2 254943. 7029.94  11
   8   2   2 252802. 6552.38  12
  -8   2  -2 256092. 6217.26  12
   8  -2   2 253441. 6509.30  10
   8  -2   3 208962. 6112.35   5
   8   2   3 206190. 5407.85   5
  -8  -2  -3 194029. 6240.55   4
  -8   2  -3 212444. 6025.35   2
  -8   2  -3 215303. 6136.95   1
   8  -2   3 196401. 5763.21   1
  -8  -2  -3 203422. 6206.08   2
   8   2   3 201089. 5980.84  20
   8  -2   3 206840. 5899.29  16
  -8  -2  -3 199274. 6141.76  18
  -8   2  -3 205847. 6103.11   7
   8   2   3 203198. 6187.32   6
  -8   2  -3 200030. 5465.43   8
   8  -2   3 198070. 5820.33   6
  -8  -2  -3 203240. 5636.62  15
   8   2   3 205852. 5460.34  12
   8  -2   3 206492. 5392.33  10
   8  -2   4 108581. 3842.46   5
   8   2   4 103487. 3130.52   5
  -8   2  -4 112587. 3963.50   1
   8   2   4 98390.8 3456.34   1
  -8  -2  -4 104084. 3924.78   2
   8  -2   4 98947.1 3519.39   1
  -8   2  -4 106737. 3676.51   2
   8   2   4 100025. 3660.22  20
  -8  -2  -4 99099.9 3892.33  18
   8  -2   4 100068. 3594.06  16
   8  -2   4 102905. 3598.46   6
  -8   2  -4 103172. 3693.24   7
   8   2   4 100098. 3846.01   6
  -8   2  -4 103904. 3074.90   8
   8   2   4 97196.6 3528.28  16
  -8  -2  -4 106894. 3523.02  15
   8   2   4 101188. 3203.56  12
  -8  -2  -4 107122. 3740.55   9
   8  -2   4 101029. 3130.07  10
   8  -2   5 31579.1 1904.37   5
  -8  -2  -5 31357.0 1957.08   2
  -8   2  -5 29971.9 1716.88   2
   8   2   5 33829.3 1864.58  20
   8  -2   5 29463.4 1706.16  16
  -8  -2  -5 29006.5 1938.08  18
  -8   2  -5 30009.3 1848.76  18
  -8   2  -5 30008.0 1690.54   7
  -8   2  -5 28607.3 1171.97   8
   8  -2   5 29245.6 1718.85   6
   8   2   5 28130.1 1353.73   5
   8   2   5 29012.5 1886.31   6
   8   2   5 26592.1 1601.90  16
  -8  -2  -5 30846.7 1716.16  15
   8   2   5 28700.0 1413.45  12
  -8  -2  -5 30328.0 1847.49   9
   8  -2   5 25396.5 1333.97  10
   8   2   5 28435.3 1381.31  10
  -8  -2  -6 228874. 7314.03   2
  -8   2  -6 232327. 6932.37   2
  -8  -2  -6 234331. 7275.91   9
   8  -2   6 217405. 6296.76  10
   8   2   6 215017. 6249.50  10
   8  -2   6 230681. 6897.98  16
  -8  -2  -6 221065. 7433.25  18
  -8   2  -6 228791. 7194.87  18
   8   2   6 220520. 6194.35   5
   8  -2   6 233143. 6983.66   6
   8   2   6 247325. 7421.20   6
   8   2   6 221392. 6737.76  16
  -8  -2  -6 235490. 6978.20  15
   8   2   6 219939. 6313.96  12
   8  -2   6 236581. 7109.39   5
  -8  -2  -7 99826.2 4346.39   2
  -8   2  -7 104411. 4015.43   2
   8  -2   7 100321. 3553.93  10
   8   2   7 98271.2 3491.05  10
  -8  -2  -7 103961. 4337.66   9
   8  -2   7 102657. 3972.20  16
  -8  -2  -7 109846. 4672.62  18
  -8   2  -7 99630.3 4338.86  18
   8   2   7 102254. 3420.49   5
   8  -2   7 105023. 4086.97   6
   8   2   7 108987. 4474.17   6
   8   2   7 100085. 3874.63  16
  -8   2  -7 100641. 4570.70  15
   8   2   7 98897.5 3532.03  12
   8  -2   7 101449. 4073.69   5
  -8  -2  -8 4513.94 853.587   2
  -8   2  -8 3434.59 670.591   2
   8  -2   8 4339.64 645.543  10
  -8   2  -8 3622.15 968.250   9
   8   2   8 5507.68 674.626  10
  -8  -2  -8 4671.79 889.181   9
  -8  -2  -8 4854.30 965.234  18
  -8   2  -8 2807.89 748.105  18
   8   2   8 5111.78 902.539   6
   8  -2   8 5479.30 860.659   6
   8  -2   8 4290.15 760.280  16
   8   2   8 5189.27 808.555  16
  -8   2  -8 5969.69 1092.80  15
   8   2   8 3941.84 605.210  12
   8  -2   8 3791.30 713.823   5
  -8  -2  -9 19994.6 2126.16  17
  -8  -2  -9 19352.2 1991.98  18
   8  -2   9 20717.7 1666.66  16
  -8   2  -9 17667.7 1889.08  18
   8  -2   9 17981.3 1604.49   5
   8  -2   9 21008.1 1714.61   6
   8   2   9 20988.7 1917.69   6
   8   2   9 17732.6 1541.71  16
  -8   2  -9 18628.1 2037.65  15
  -8   2  -9 17907.0 2097.85   9
   8  -2   9 19546.7 1455.10  10
   8   2   9 19472.4 1420.17  10
  -8  -2  -9 17944.2 1795.57   9
  -8  -2  -9 18225.4 1783.51   2
  -8   2 -10 27070.3 2723.18  17
   8  -2  10 26626.2 2000.02  16
  -8  -2 -10 23707.1 2304.60  18
  -8   2 -10 23994.2 2319.37  18
  -8  -2 -10 23448.2 2401.38  17
   8   2  10 30501.6 2403.75   6
   8  -2  10 25028.3 1945.86   5
   8  -2  10 27809.7 2068.44   6
   8   2  10 27829.1 2033.96  16
  -8   2 -10 29006.4 2675.58  15
  -8   2 -10 26454.6 2652.67   9
   8  -2  10 26246.8 1783.36  10
   8   2  10 26682.2 1744.68  10
  -8  -2 -10 27999.1 2372.07   9
  -8  -2 -10 19524.6 1956.58   2
   8  -2  11 18251.3 1707.33  16
  -8   2 -11 13196.5 1994.17  17
  -8  -2 -11 15667.8 1956.33  18
  -8   2 -11 15504.7 1912.29  18
  -8  -2 -11 17653.4 2133.92  17
   8   2  11 17316.8 1835.23   6
   8  -2  11 18466.9 1691.71   6
   8   2  11 17170.0 1666.88  16
  -8   2 -11 18302.4 2242.09  15
   8  -2  11 16004.2 1438.25  10
  -8   2 -11 17576.5 2292.41   9
   8   2  11 16881.6 1443.41  10
  -8  -2 -11 17579.9 1977.56   9
  -8  -2 -11 13801.5 1668.17   2
   8  -2  12 2443.48 737.750  16
   8   2  12 2592.40 727.314  16
   8   2  12 1910.07 737.924   6
   8  -2  12 1890.65 674.140   6
  -8   2 -12 1927.15 767.181  18
  -8  -2 -12 1727.01 869.353  17
  -8   2 -12 2625.89 1002.34  17
  -8  -2 -12 2590.96 927.462  18
   8  -2  12 1851.27 576.906  10
   8   2  12 2252.23 591.287  10
  -8  -2 -12 2965.31 949.070   9
  -8   2 -12 2792.98 1026.41   9
   8  -2  13 8773.72 1233.82   6
  -8   4  13 8640.23 1273.99  10
   8  -4 -13 8956.79 1634.72   9
  -8  -4  13 8399.91 1213.56  10
   8   4 -13 7190.99 1652.38  11
  -8   4  13 9750.32 1473.13   4
   8  -4 -13 8087.29 1453.28  17
   8   4 -13 7765.59 1543.51  17
   8  -4 -12 10389.9 1640.72   9
  -8   4  12 12774.3 1434.28  10
  -8  -4  12 10089.1 1259.25  10
   8   4 -12 8487.85 1729.43  11
  -8   4  12 10487.7 1482.58   4
   8  -4 -12 9053.64 1546.15  17
   8   4 -12 7997.33 1470.48  17
  -8   4  11 5985.23 979.191  10
   8  -4 -11 4274.33 1024.91   9
  -8  -4  11 3887.53 813.979  10
   8   4 -11 4838.42 1297.57  11
  -8   4  11 4663.28 971.451   4
   8  -4 -11 3912.74 902.136  17
   8   4 -11 3702.01 959.308  17
  -8   4  10 1414.59 526.595  10
   8  -4 -10 1417.02 701.347   9
  -8  -4  10 932.684 440.204  10
   8   4 -10 730.969 484.414  17
   8  -4 -10 2588.98 810.172  17
   8   4 -10 650.335 605.891  11
  -8  -4  10 1212.98 495.282   4
  -8   4  10 1332.83 585.189   4
  -8  -4   9 38469.5 2094.02   3
   8  -4  -9 43635.7 2778.85   9
  -8  -4   9 37843.6 2221.94  10
   8   4  -9 33515.6 2373.23   9
  -8   4   9 39999.5 2331.94  10
   8  -4  -9 37790.3 2556.95  17
   8   4  -9 34355.6 2452.00  17
  -8   4   9 40299.4 2243.21   8
   8  -4  -9 43130.2 2707.09  13
   8   4  -9 34082.3 2868.53  11
  -8   4   9 43890.5 2536.16  12
  -8  -4   9 41208.2 2155.07   4
  -8   4   9 39346.4 2665.93   4
  -8  -4   8 70231.9 3037.52   3
   8  -4  -8 76159.0 3636.55   9
  -8  -4   8 79218.4 3201.94  10
   8   4  -8 63386.3 3188.74   9
   8  -4  -8 69628.6 3429.94  17
   8   4  -8 68540.6 3395.53  17
  -8   4   8 76724.3 3298.44   8
   8  -4  -8 77247.4 3755.88  13
   8   4  -8 66574.9 3875.00  11
  -8   4   8 77506.0 3428.92  12
  -8   4   8 79107.4 3794.13   4
  -8  -4   8 73832.8 3009.97   4
  -8  -4   7 10572.6 952.509   4
  -8  -4   7 10318.4 999.248   3
  -8  -4   7 10100.3 839.419  19
   8  -4  -7 10856.6 1150.83  17
   8   4  -7 11460.6 1135.79  17
  -8   4   7 10961.0 1118.16   8
   8  -4  -7 10118.9 1233.95  13
  -8   4   7 10389.4 1054.82  14
  -8   4   7 11908.1 1152.67  12
   8   4  -7 11104.9 1339.97  11
   8  -4  -7 12057.7 1265.44   9
  -8  -4   7 11449.6 1027.42  10
   8   4  -7 9222.92 959.040   9
  -8  -4   6 35139.8 1797.09   4
  -8  -4   6 34556.1 1886.62   3
  -8  -4   6 32296.9 1632.71  19
   8  -4  -6 37856.1 2095.25  17
   8   4  -6 34024.2 1880.67  17
  -8   4   6 36822.2 2161.07   8
   8  -4  -6 34530.4 2261.79  13
   8  -4  -6 33590.4 1785.29  14
  -8   4   6 35186.6 1919.12  14
   8   4  -6 36086.3 2340.90  11
  -8   4   6 38574.3 2064.79  12
   8  -4  -6 35884.5 2158.37   9
  -8  -4   6 35286.5 1833.52  10
   8   4  -6 32191.3 1676.12   9
  -8  -4   5 96380.1 3398.63   4
  -8  -4   5 92570.0 3499.30   3
   8   4  -5 92109.5 4005.76  20
  -8  -4   5 95254.5 3297.28  19
   8  -4  -5 101575. 3404.21  19
   8  -4  -5 97557.2 3670.14  17
   8   4  -5 92004.6 3375.87  17
  -8   4   5 97322.4 3969.08   8
  -8   4   5 104008. 3462.22   7
   8  -4  -5 106203. 4200.15  13
   8  -4  -5 99669.6 3365.06  14
   8   4  -5 91589.9 3742.90  14
  -8  -4   5 93832.7 3519.46  14
  -8   4   5 99174.3 3418.81  14
   8   4  -5 91857.9 3932.28  11
  -8   4   5 97173.6 3585.57  12
   8  -4  -5 100402. 3892.27   9
  -8  -4   5 96993.0 3427.70  10
   8   4  -5 94092.9 3066.10   9
   8  -4  -4 59354.9 2404.93   5
  -8  -4   4 64484.4 2489.04   4
  -8  -4   4 62536.4 2604.66   3
  -8  -4   4 57032.4 2363.90  19
   8  -4  -4 57731.4 2534.98  19
   8   4  -4 58114.1 2948.44  20
   8   4  -4 56038.0 2293.37  17
   8  -4  -4 65506.7 2661.05  17
  -8   4   4 62512.8 2628.47   7
  -8   4   4 56374.4 2879.54   8
   8  -4  -4 63965.7 2957.37  13
   8   4  -4 56629.8 2656.90  14
  -8  -4   4 60763.2 2494.19  14
  -8   4   4 59442.5 2262.42  14
  -8   4   4 57201.2 2473.18  12
   8  -4  -4 60149.6 1943.68  11
   8   4  -4 60151.1 2831.31  11
   8  -4  -4 60172.9 2750.91   9
  -8  -4   4 61247.8 2456.68  10
  -8   4   3 1842.86 416.581   4
  -8  -4   3 1522.52 387.382   4
   8  -4  -3 1545.46 333.788   5
  -8  -4   3 2420.48 474.258   3
  -8  -4   3 1135.02 250.813   2
   8  -4  -3 1411.57 373.271  19
   8   4  -3 1592.10 500.292  20
  -8  -4   3 1085.60 294.950  19
   8   4  -3 3008.77 430.967  17
   8  -4  -3 2134.19 426.179  17
  -8   4   3 1127.05 388.388   7
  -8   4   3 1794.38 517.433   8
  -8  -4   3 1410.87 327.404  14
  -8   4   3 1107.11 257.025  14
   8  -4  -3 2718.11 556.900  13
   8   4  -3 1746.48 482.308  11
   8  -4  -3 1776.71 253.280  11
  -8   4   3 907.252 302.057  12
  -8  -4   3 1148.90 326.815  10
  -8  -4   2 116294. 3544.33   2
  -8  -4   2 112761. 3815.97   3
   8   4  -2 103819. 3930.21  21
   8  -4  -2 107353. 4002.06  19
  -8  -4   2 105160. 3595.87  19
   8   4  -2 109582. 4234.72  20
  -8  -4   2 110672. 2939.74  18
  -8   4   2 102639. 4211.92   8
  -8   4   2 104455. 4087.36   7
  -8  -4   2 105595. 3496.42  14
  -8   4   2 109796. 3269.95  14
   8  -4  -2 113981. 4049.70  13
  -8  -4   2 103973. 3561.78  10
  -8   4   2 104990. 3491.03  12
   8   4  -2 108161. 3785.73  11
  -8   4   2 108218. 3558.35   4
   8  -4  -2 111939. 3644.77   5
  -8  -4   2 110435. 3733.07   4
  -8  -4   1 238735. 6694.31   2
  -8  -4   1 251000. 6852.21   3
   8   4  -1 237761. 6878.73  21
   8  -4  -1 235633. 7175.71  19
  -8  -4   1 240065. 6691.46  19
   8   4  -1 234449. 7247.39  20
  -8  -4   1 239944. 6192.48  18
  -8   4   1 218400. 7304.65   7
  -8   4   1 211550. 7243.94   8
  -8   4   1 233189. 6144.72  14
  -8  -4   1 240680. 6462.17  14
   8  -4  -1 246180. 7043.56  13
  -8   4   1 239754. 6449.62  12
   8   4  -1 234645. 6720.45  11
   8   4  -1 231039. 7058.93  12
  -8  -4   1 243763. 6845.56   4
  -8   4   1 233190. 6255.86   4
   8  -4  -1 243059. 6675.81   5
  -8  -4   0 94451.4 3510.32   2
  -8  -4   0 99965.9 3475.99   3
  -8   4   0 97028.0 3103.70   1
   8  -4   0 105594. 3943.40  19
   8   4   0 100843. 3850.16  20
  -8  -4   0 96120.4 3425.40  19
  -8  -4   0 101517. 3239.62  18
  -8   4   0 91608.0 4011.77   7
  -8   4   0 92010.2 3848.83   8
   8   4   0 95533.7 3409.47   6
  -8  -4   0 98091.1 3211.61  14
   8  -4   0 101937. 3614.97  13
   8   4   0 98002.5 3399.06  11
  -8   4   0 93543.7 3139.15  12
   8   4   0 99651.0 3663.28  12
  -8   4   0 98354.3 2832.49   4
  -8  -4   0 96498.5 3552.60   4
   8  -4   0 100277. 3466.72   5
  -8  -4  -1 5661.09 663.403   3
   8  -4   1 5772.31 572.778   1
  -8   4  -1 6173.41 667.539   1
  -8  -4  -1 6283.20 777.128   2
   8  -4   1 6059.87 830.520  19
   8   4   1 5520.36 784.825  20
  -8   4  -1 4828.98 624.897  21
  -8  -4  -1 6133.84 682.688  18
   8   4   1 5106.54 653.321   6
  -8   4  -1 7235.38 994.789   7
   8  -4   1 6180.22 527.811   6
  -8   4  -1 5825.24 795.164   8
   8  -4   1 6660.74 749.529  13
   8   4   1 5280.65 682.138  12
   8   4   1 5900.59 657.285  11
  -8   4  -1 5455.94 569.627  12
  -8  -4  -1 6823.16 814.781   4
   8   4   1 5038.05 329.368   5
  -8   4  -1 5116.50 326.209   4
   8  -4   1 5713.91 706.148   5
  -8  -4  -2 137466. 4823.52   4
   8  -4   2 139055. 4587.42   5
   8  -4   2 133523. 4210.50   1
  -8  -4  -2 131986. 4744.53   2
  -8  -4  -2 134606. 4253.07   3
  -8   4  -2 150509. 4697.55   1
  -8   4  -2 132762. 4468.18  21
   8  -4   2 134718. 4829.16  19
   8   4   2 139124. 4833.84  20
   8  -4   2 130815. 4501.97  16
  -8  -4  -2 136727. 4576.62  18
   8  -4   2 132844. 3907.21   6
  -8   4  -2 129840. 5114.00   7
  -8   4  -2 126927. 4570.77   8
   8   4   2 136231. 4477.85   6
   8  -4   2 131938. 4362.03  13
   8  -4   2 132549. 4301.34  10
   8   4   2 133639. 4364.29  11
   8   4   2 136169. 4463.95  12
  -8   4  -2 140122. 4179.62  12
  -8  -4  -2 134112. 3682.98   9
   8  -4   3 146620. 4917.61   5
   8  -4   3 146065. 5058.60  19
   8   4   3 141927. 5040.38  20
  -8  -4  -3 141335. 4964.75  18
   8  -4   3 135684. 4787.57  16
   8  -4   3 136178. 4534.37   1
  -8  -4  -3 148584. 5169.67   2
  -8   4  -3 163341. 5204.39   1
  -8  -4  -3 147794. 4441.66   3
  -8   4  -3 141596. 4715.00   8
   8   4   3 144891. 4833.99   6
  -8   4  -3 133990. 5288.77   7
   8  -4   3 148475. 4287.99   6
   8   4   3 139040. 4609.23  12
  -8   4  -3 145446. 4491.54  12
   8  -4   3 143983. 4548.84  10
  -8  -4  -3 147270. 4219.10   9
   8  -4   4 49962.8 2522.06   5
   8   4   4 48826.7 2569.12  20
  -8  -4  -4 50018.9 2607.73  18
   8  -4   4 46023.2 2399.79  16
  -8   4  -4 48824.4 2429.80   2
  -8  -4  -4 46971.0 2628.92   2
  -8  -4  -4 50830.8 2034.75   3
   8   4   4 49262.5 2468.07   6
  -8   4  -4 48135.0 2723.24   7
  -8   4  -4 46999.9 2133.11   8
   8  -4   4 50512.8 2059.26   6
   8   4   4 48369.6 2239.04  12
   8  -4   4 49279.3 2177.89  10
  -8  -4  -4 47866.8 2087.23   9
   8  -4   5 14368.2 1336.19   5
   8   4   5 14937.9 1394.93  20
  -8  -4  -5 12914.2 1305.59  18
   8  -4   5 13865.8 1249.07  16
  -8  -4  -5 14117.9 1398.98   2
  -8   4  -5 14927.9 1270.19   2
  -8   4  -5 13356.9 1354.16   7
   8   4   5 15367.4 1332.30   6
   8  -4   5 15179.9 1089.13   6
   8   4   5 13640.0 1133.23  12
   8  -4   5 13511.3 1062.35  10
  -8  -4  -5 12756.3 1070.40   9
   8  -4   6 147264. 5360.05   5
  -8  -4  -6 139387. 5481.98   2
  -8   4  -6 140907. 4942.01   2
   8   4   6 147113. 5442.73  20
   8  -4   6 143015. 5211.98  16
  -8  -4  -6 148133. 5604.56  18
  -8   4  -6 141436. 5307.61  18
  -8   4  -6 135685. 5279.74   7
   8  -4   6 144070. 4673.95   6
   8   4   6 147369. 5327.79   6
   8   4   6 141943. 4815.61  12
   8  -4   6 138039. 4644.93  10
  -8  -4  -6 152529. 5004.36   9
  -8  -4  -7 72882.9 3783.13   2
  -8   4  -7 71651.9 3238.93   2
   8  -4   7 72313.3 3079.19  10
  -8  -4  -7 76087.4 3379.59   9
  -8  -4  -7 79449.1 3822.00  17
   8  -4   7 79269.4 3657.17  16
  -8  -4  -7 76889.4 3866.26  18
  -8   4  -7 75729.0 3699.97  18
  -8   4  -7 80319.1 3646.47   7
   8  -4   7 79810.0 3159.43   6
   8   4   7 78868.4 3687.84   6
   8   4   7 72462.4 3452.65  16
   8   4   7 76697.5 3231.77  12
   8  -4   7 77544.0 3617.29   5
  -8  -4  -8 2058.48 688.882   2
  -8  -4  -8 1835.24 572.238   9
   8   4   8 1175.14 416.127  10
  -8   4  -8 1743.35 763.251   9
   8  -4   8 1543.52 498.775  10
  -8   4  -8 2153.84 655.553  18
  -8  -4  -8 1710.82 656.001  17
  -8  -4  -8 1432.24 616.101  18
   8   4   8 817.578 458.264   6
  -8   4  -8 2479.50 672.339   7
   8  -4   8 1464.18 445.703   6
  -8   4  -8 1422.19 737.064  15
   8  -4   8 1870.78 597.844  16
   8   4   8 1650.52 531.404  16
   8   4   8 2111.43 540.974  12
   8  -4   8 1897.50 617.278   5
  -8  -4  -9 11068.6 1336.42   9
   8   4   9 11369.1 1172.66  10
   8  -4   9 9515.89 1092.69  10
  -8   4  -9 9987.72 1680.93   9
  -8   4  -9 9361.29 1354.69  18
  -8  -4  -9 12128.6 1502.90  17
  -8  -4  -9 9661.24 1446.97  18
   8   4   9 11894.9 1441.50   6
   8  -4   9 13149.8 1473.85   5
   8  -4   9 11073.0 1340.28  16
   8   4   9 10560.7 1297.65  16
  -8   4  -9 11518.2 1724.76  15
   8   4   9 10338.8 1173.59  12
  -8  -4  -9 10312.0 1446.32   2
   8  -4  10 17131.7 1564.00  10
  -8  -4 -10 19355.5 1883.30   9
   8   4  10 20465.2 1662.47  10
  -8   4 -10 18635.1 2366.27   9
   8  -4  10 20735.2 1903.01  16
  -8   4 -10 23540.4 2547.81  17
  -8  -4 -10 20347.6 2118.79  18
  -8  -4 -10 20115.0 2027.93  17
   8   4  10 20803.6 2020.57   6
   8  -4  10 20339.4 1885.55   5
  -8  -4 -10 18606.7 1793.13  13
   8   4  10 20776.5 1894.59  16
  -8   4 -10 21325.0 2530.26  15
   8   4  10 19765.8 1675.10  12
  -8  -4 -10 16293.7 1877.18   2
  -8   4 -11 13455.9 1971.57  17
  -8  -4 -11 14577.9 1763.60  17
  -8  -4 -11 12766.5 1808.89  18
   8   4  11 14155.9 1683.82   6
   8  -4  11 13160.6 1544.02  16
   8   4  11 11967.9 1490.96  16
  -8   4 -11 11183.4 1936.47  15
  -8  -4 -11 11669.9 1428.30  13
  -8  -4 -11 11579.9 1521.40   9
   8   4  11 9984.07 1202.66  10
  -8   4 -11 12772.6 2085.00   9
   8  -4  11 11260.6 1301.55  10
   8  -4  12 543.576 446.845  16
   8   4  12 469.972 449.134  16
  -8   4 -12 1087.75 846.409  15
   8   4  12 725.315 486.984   6
   8   4  12 428.972 443.945  10
  -8   4 -12 812.332 663.009   9
   8  -4  12 1144.77 532.064  10
  -8  -4 -12 1017.09 644.068   9
  -8   4 -12 1298.72 710.610  17
  -8  -4 -12 1232.46 795.201  18
  -8  -4 -12 1479.27 720.783  17
   8  -6 -12 7148.96 1385.99   9
   8  -6 -12 6651.29 1212.34  17
  -8   6  11 3187.86 926.163   4
   8   6 -11 2092.85 770.027  20
   8  -6 -11 3100.37 877.570  17
  -8   6  11 3417.53 912.585  12
   8   6 -11 2428.14 1011.15  11
  -8   6  11 2763.57 849.366  10
   8  -6 -11 3269.41 918.716   9
  -8  -6  11 3446.29 853.231  10
  -8   6  10 1419.18 669.225   4
  -8  -6  10 865.120 417.530   3
   8   6 -10 937.400 577.541  20
   8  -6 -10 1198.31 608.260  17
   8  -6 -10 1494.75 656.346  13
  -8   6  10 1001.17 547.105  12
   8   6 -10 1614.05 894.538  11
   8  -6 -10 1496.99 671.574   9
  -8  -6  10 1409.99 573.020  10
  -8  -6   9 17312.0 1522.51   3
   8   6  -9 20765.3 2113.16  20
   8  -6  -9 20990.8 1826.32  17
  -8   6   9 24214.8 2027.17   8
   8  -6  -9 24488.1 2259.35  13
   8   6  -9 19721.0 2300.15  11
  -8   6   9 19538.4 1899.74  12
   8  -6  -9 20751.8 1985.56   9
  -8  -6   9 21925.4 1797.62  10
  -8  -6   8 41781.4 2225.24   4
  -8  -6   8 38445.8 2291.47   3
   8   6  -8 42454.5 2966.00  20
   8  -6  -8 43048.2 2546.22  17
  -8   6   8 43893.6 2818.48   8
   8  -6  -8 45017.9 3065.39  13
   8   6  -8 39580.2 3071.80  11
  -8   6   8 42661.8 2760.30  12
   8  -6  -8 41216.4 2693.32   9
  -8  -6   8 41285.8 2454.88  10
  -8  -6   7 5191.94 725.079   4
  -8  -6   7 5293.33 832.574   3
  -8  -6   7 5100.00 715.089  19
   8   6  -7 5896.07 1049.88  20
   8  -6  -7 5444.85 817.328  17
  -8   6   7 4844.23 934.143   8
   8  -6  -7 5798.65 1093.04  13
   8   6  -7 5907.54 1067.57  11
  -8   6   7 4546.39 855.048  12
   8  -6  -7 6092.53 979.857   9
  -8  -6   7 5417.41 845.921  10
   8  -6  -6 19018.7 1340.79   5
  -8  -6   6 17566.8 1339.17   4
  -8  -6   6 15156.0 1369.29   3
  -8  -6   6 17663.4 1327.63  19
   8   6  -6 17791.2 1747.77  20
   8  -6  -6 17018.7 1398.33  17
  -8   6   6 19890.0 1833.77   8
   8  -6  -6 18061.4 1766.98  13
   8   6  -6 15149.1 1608.75  11
  -8   6   6 17260.4 1555.19  12
   8  -6  -6 19414.0 1687.28   9
  -8  -6   6 17899.5 1477.74  10
  -8  -6   5 49087.4 2369.53   4
   8  -6  -5 51251.7 2334.43   5
  -8  -6   5 44019.4 2429.63   3
  -8  -6   5 47671.4 2349.61  19
   8  -6  -5 51580.9 2676.08  19
   8   6  -5 51730.6 3053.37  20
   8  -6  -5 51859.1 2458.15  17
  -8   6   5 46232.1 2984.77   8
  -8   6   5 53014.3 2787.92   7
   8  -6  -5 52664.7 3011.93  13
  -8   6   5 50597.5 2700.70  12
   8   6  -5 49146.0 2835.58  11
  -8  -6   5 46685.6 2496.00  10
  -8  -6   4 34751.8 1907.98  19
   8   6  -4 33968.9 2364.62  21
   8  -6  -4 34698.3 2215.85  19
   8   6  -4 38019.8 2512.29  20
  -8   6   4 35201.8 2331.55   7
  -8   6   4 35459.6 2547.54   8
  -8  -6   4 33339.1 2013.84   3
   8  -6  -4 35861.2 2334.44  13
  -8   6   4 31378.6 2026.46  12
  -8  -6   4 32692.4 2003.82  10
   8   6  -4 34245.2 2175.83  11
   8  -6  -4 38778.2 1940.56   5
  -8  -6   4 31003.9 1819.30   4
   8  -6  -3 757.203 326.297   5
  -8  -6   3 851.435 346.136   4
   8  -6  -3 1868.68 514.963  19
   8   6  -3 1654.53 552.993  20
   8   6  -3 955.478 450.104  21
  -8  -6   3 1052.50 363.685  19
  -8   6   3 1098.43 518.637   8
  -8  -6   3 990.411 360.326   3
   8  -6  -3 2340.73 608.699  13
  -8   6   3 800.007 379.945  12
   8   6  -3 810.445 372.897  11
   8   6  -3 1761.57 587.431  12
  -8  -6   3 823.463 266.531  13
  -8  -6   3 1211.04 403.081  10
  -8  -6   2 51252.0 2544.01   3
  -8   6   2 54775.9 3242.51   8
   8   6  -2 50630.4 2815.46  21
  -8  -6   2 50410.0 2393.33  19
   8  -6  -2 50234.9 2802.80  19
   8   6  -2 58435.6 3064.71  20
  -8  -6   2 43433.3 2093.04  13
   8  -6  -2 51050.9 2712.94  13
  -8   6   2 48231.4 2460.76  12
   8   6  -2 52853.2 2538.54  11
   8   6  -2 52817.9 2933.33  12
  -8  -6   2 47572.1 2359.62   4
   8  -6  -2 50245.0 2321.43   5
  -8  -6   1 118221. 4392.18   3
   8   6  -1 121112. 4703.76  21
  -8  -6   1 119013. 4277.53  19
   8  -6  -1 124321. 4889.04  19
   8   6  -1 117187. 4766.13  20
   8   6  -1 123054. 3993.17   6
  -8   6   1 125569. 5314.92   8
  -8  -6   1 115755. 4115.41  13
   8  -6  -1 121472. 4541.02  13
  -8   6   1 122410. 4370.59  12
   8   6  -1 118482. 4189.75  11
   8   6  -1 124820. 4847.82  12
   8  -6  -1 125759. 4246.00   5
  -8  -6   1 111997. 4271.15   4
  -8  -6   0 45655.1 2375.07   3
   8  -6   0 49240.6 2771.30  19
  -8  -6   0 51866.5 2468.36  19
   8   6   0 46511.1 2674.79  20
  -8  -6   0 48046.3 1979.32  18
   8   6   0 50803.9 2208.95   6
  -8   6   0 49571.0 3052.40   8
   8  -6   0 47400.4 2466.06  13
   8   6   0 49527.9 2265.66  11
   8   6   0 49887.3 2710.50  12
  -8   6   0 50037.3 2436.66  12
   8  -6   0 50306.3 2381.16   5
  -8  -6   0 45827.7 2454.86   4
  -8  -6  -1 2592.49 542.505   3
  -8  -6  -1 3296.80 626.264   2
   8  -6   1 2992.50 714.452   3
   8  -6   1 2608.89 622.523  19
   8   6   1 3269.85 683.302  20
  -8   6  -1 2864.69 624.586  21
  -8  -6  -1 2340.80 551.438  19
  -8  -6  -1 3354.87 530.836  18
   8   6   1 3248.38 521.976   6
  -8   6  -1 2803.41 728.594   8
   8  -6   1 5261.51 738.250  13
  -8   6  -1 3213.51 594.347  12
   8   6   1 3710.38 743.354  12
   8   6   1 2803.29 474.726  11
  -8  -6  -1 4239.36 710.875   4
   8  -6   1 3236.17 617.969   5
  -8  -6  -2 63766.9 3148.06   2
  -8  -6  -2 60011.3 2724.05   3
  -8  -6  -2 65068.1 2974.23  19
   8   6   2 66588.7 3340.22  20
  -8   6  -2 63225.9 3110.95  21
   8  -6   2 66448.1 3263.37  19
  -8  -6  -2 67591.9 2843.43  18
   8   6   2 62391.8 2714.65   6
  -8   6  -2 68610.7 3440.98   8
   8  -6   2 69291.3 2959.15  13
   8   6   2 68339.5 3245.08  12
  -8   6  -2 66622.9 2945.41  12
   8   6   2 64013.1 2680.57  11
   8  -6   2 65009.8 2964.45   5
   8  -6   2 59266.1 3297.92   3
  -8  -6  -3 63744.7 3274.98   2
  -8  -6  -3 61821.5 2729.19   3
  -8   6  -3 65651.5 3245.29  21
   8  -6   3 65860.3 3236.09  19
  -8  -6  -3 63969.9 2998.66  19
   8   6   3 68131.7 3414.07  20
  -8  -6  -3 60458.3 2926.12  18
  -8   6  -3 62603.5 3175.09   8
   8   6   3 67836.9 2873.70   6
   8  -6   3 62995.6 2809.38  13
   8   6   3 69705.5 3272.58  12
  -8   6  -3 72753.2 3101.37  12
   8  -6   3 71089.1 3173.45   5
   8  -6   3 65091.3 3420.52   3
  -8  -6  -4 22174.1 1872.82   2
  -8  -6  -4 22642.5 1429.34   3
   8  -6   4 27014.5 1934.05  19
  -8   6  -4 26308.4 1969.46  21
   8   6   4 24953.1 2005.99  20
  -8  -6  -4 22353.6 1675.15  19
  -8  -6  -4 20262.1 1665.74  18
  -8   6  -4 21806.1 1682.04   8
   8   6   4 23375.6 1625.82   6
  -8   6  -4 21176.3 1994.50   7
   8  -6   4 23134.3 1536.64  13
   8   6   4 25615.5 1842.69  12
  -8   6  -4 23956.2 1693.39  12
   8  -6   4 21434.3 1616.47  10
   8  -6   4 25019.7 1811.27   5
   8  -6   4 24114.8 1945.61   3
   8  -6   5 6249.29 915.962   5
  -8   6  -5 4503.77 748.485   2
  -8  -6  -5 7717.50 1148.34   2
   8  -6   5 6659.68 1013.46   3
   8   6   5 6683.21 1080.49  20
   8  -6   5 6996.25 963.862  19
  -8  -6  -5 8196.32 989.841  19
  -8  -6  -5 6471.85 979.870  18
   8   6   5 7334.39 917.564   6
  -8   6  -5 6190.01 1095.00   7
   8   6   5 7125.70 976.490  12
   8  -6   5 7099.05 911.750  10
   8  -6   6 76574.6 3670.27   5
  -8   6  -6 67119.1 3237.56   2
   8  -6   6 70903.7 3496.91  19
   8   6   6 79606.4 4036.37  20
  -8  -6  -6 75710.6 3423.65  19
  -8  -6  -6 73984.8 3762.58  18
  -8   6  -6 77038.7 3711.98  18
  -8   6  -6 74106.8 4001.23   7
   8   6   6 76390.6 3481.44   6
  -8  -6  -6 73503.0 3653.92  13
   8   6   6 73998.7 3513.72  12
   8  -6   6 72762.1 3319.87  10
  -8  -6  -7 36459.2 2232.96  19
  -8  -6  -7 37138.0 2662.35  18
  -8   6  -7 38211.5 2746.76   7
   8   6   7 35810.8 2359.49   6
   8  -6   7 39088.4 2567.69   5
  -8  -6  -7 36510.7 2486.90  13
   8   6   7 41087.3 2497.74  12
   8  -6   7 36667.6 2276.70  10
  -8   6  -8 1008.74 626.981   9
   8  -6   8 1292.79 481.715  10
  -8  -6  -8 1358.74 568.682  18
   8   6   8 1817.28 639.864   6
  -8   6  -8 1474.43 663.640   7
  -8   6  -8 733.886 506.451  15
   8  -6   8 567.010 458.022  16
  -8  -6  -8 729.606 397.483  13
   8   6   8 683.493 469.756  12
   8  -6   8 1602.59 643.794   5
  -8   6  -9 8409.45 1617.83   9
   8  -6   9 5190.49 908.809  10
  -8  -6  -9 5745.32 1143.66  18
   8   6   9 6176.81 1054.37   6
   8  -6   9 5248.02 1030.32  16
   8   6   9 4580.76 990.745  16
  -8   6  -9 7496.77 1548.66  15
  -8  -6  -9 6042.43 1057.60  13
   8   6   9 5493.02 988.871  12
   8  -6   9 6803.68 1115.70   5
   8   6  10 10251.6 1309.48  10
  -8   6 -10 11559.2 1933.05   9
   8  -6  10 10621.9 1333.35  10
  -8  -6 -10 11366.2 1621.56  18
   8  -6  10 11828.5 1539.40  16
   8   6  10 11088.8 1524.06  16
  -8   6 -10 10311.8 1882.32  15
   8   6  10 10469.7 1377.93   6
  -8  -6 -10 10787.3 1413.82  13
   8   6  10 10679.5 1382.30  12
   8  -6  10 12031.7 1489.18   5
   8   6  11 6336.27 1112.23   6
  -8  -6 -11 4726.39 965.620  13
   8   6  11 6158.71 1105.01  12
   8   6  11 6309.38 1099.09  10
   8  -6  11 4925.13 975.329  10
  -8   8  10-523.641 620.919   4
   8   8 -10-276.988 575.092  20
  -8  -8  10-25.0798 356.016   3
   8  -8 -10 1174.10 748.973  13
   8   8 -10 692.756 720.791  11
  -8   8  10-1.29647 493.129  12
   8  -8 -10 281.316 511.413   9
   8   8  -9 9816.27 1600.50  20
  -8   8   9 7462.54 1311.74   8
  -8  -8   9 9877.69 1245.04   3
   8  -8  -9 10396.3 1552.18  13
   8   8  -9 10817.9 1683.73  11
  -8   8   9 9266.77 1441.08  12
   8  -8  -9 9973.92 1474.70   9
  -8  -8   9 10380.2 1365.24  10
   8   8  -8 18016.4 2135.71  21
   8   8  -8 17847.8 2020.47  20
  -8   8   8 17938.2 2013.02   8
  -8  -8   8 16471.8 1565.83   3
   8  -8  -8 17795.8 1983.47  13
  -8   8   8 15708.6 1852.60  12
   8   8  -8 14396.2 1802.17  11
  -8  -8   8 15370.9 1619.75  10
   8   8  -7 3159.56 892.715  20
   8   8  -7 3358.09 1052.90  21
  -8  -8   7 2391.25 618.088  19
  -8   8   7 3315.54 1006.81   8
  -8  -8   7 2846.93 743.457   3
   8  -8  -7 2408.73 806.490  13
   8   8  -7 2516.96 754.532  11
  -8   8   7 3684.02 1009.49  12
  -8  -8   7 3513.62 842.969  10
   8   8  -6 9772.71 1460.35  20
  -8  -8   6 6644.43 930.015  19
   8   8  -6 8693.21 1388.85  21
  -8   8   6 7956.49 1393.45   8
  -8  -8   6 5375.28 885.114   3
   8  -8  -6 9410.01 1379.80  13
   8   8  -6 7496.23 1185.62  11
  -8   8   6 8940.16 1286.84  12
  -8  -8   6 6576.24 1019.04  10
  -8   8   5 21795.1 2011.42   7
  -8   8   5 21139.1 2293.13   8
  -8  -8   5 18754.3 1548.55  19
   8   8  -5 20641.5 2117.54  21
   8   8  -5 19240.8 2007.14  20
   8  -8  -5 18019.2 1849.12  13
  -8   8   5 20077.5 1867.69  12
   8   8  -5 19742.3 2086.91  12
   8   8  -5 18619.3 1752.71  11
  -8  -8   5 19414.7 1678.00   3
  -8  -8   4 13564.0 1399.94   3
  -8   8   4 15561.1 1998.55   8
  -8  -8   4 14726.5 1349.56  19
   8   8  -4 12867.5 1666.66  21
   8  -8  -4 16422.2 1656.18  19
   8   8  -4 14646.2 1684.21  20
   8  -8  -4 15653.8 1636.22  13
   8   8  -4 14139.0 1695.65  12
  -8   8   4 14525.8 1545.87  12
   8   8  -4 14328.0 1436.10  11
  -8  -8   4 14443.3 1292.89   4
  -8  -8   3 1564.21 539.911   3
  -8   8   3 491.806 639.371   8
   8  -8  -3 78.6772 349.957  19
   8   8  -3 681.012 514.419  20
   8   8  -3 792.397 610.934  21
  -8  -8   3 91.7393 338.993  19
   8  -8  -3 797.359 447.840  13
  -8   8   3 950.141 513.384  12
   8   8  -3 431.241 645.078  12
  -8  -8   3 784.472 416.529   4
  -8  -8   2 18357.0 1634.10   3
  -8   8   2 23439.1 2393.03   8
  -8  -8   2 18998.0 1569.92  19
   8   8  -2 25189.6 2242.37  21
   8  -8  -2 19900.1 1867.93  19
   8   8  -2 22374.1 2032.30  20
  -8  -8   2 20101.1 1414.34  13
   8  -8  -2 23327.4 1871.00  13
  -8   8   2 22453.0 1874.04  12
   8   8  -2 21403.4 2037.27  12
  -8  -8   2 18097.5 1498.71   4
  -8  -8   1 40612.7 2478.61   3
  -8   8   1 50243.3 3568.86   8
  -8  -8   1 43149.5 2436.60  19
   8  -8  -1 42581.3 2802.03  19
   8   8  -1 49338.6 3010.56  20
  -8  -8   1 43620.4 2286.48  13
   8  -8  -1 45234.3 2659.15  13
  -8   8   1 50861.5 2847.25  12
   8   8  -1 53435.5 3197.81  12
  -8  -8   1 40398.5 2413.26   4
   8  -8  -1 50181.2 2458.07   5
  -8  -8   0 21490.1 1690.53   3
  -8   8   0 26551.1 2489.91   8
  -8  -8   0 19969.5 1621.55  19
   8  -8   0 23767.2 1973.09  19
   8   8   0 22817.6 1973.58  20
  -8  -8   0 20599.5 1584.37  13
   8  -8   0 21490.2 1709.94  13
  -8   8   0 20901.4 1802.53  12
   8   8   0 23351.0 2007.09  12
   8  -8   0 23007.9 1637.97   5
   8  -8   1 1193.04 549.654   3
  -8  -8  -1 1132.14 468.281   3
  -8   8  -1 1936.43 767.255   8
   8   8   1 2502.00 729.896  20
   8  -8   1 2011.96 620.808  19
  -8  -8  -1 1354.85 447.454  19
   8  -8   1 1532.40 496.898  13
  -8  -8  -1 1087.99 470.237  13
  -8   8  -1 1382.95 505.856  12
   8   8   1 1587.29 607.066  12
   8  -8   1 1564.16 491.345   5
  -8  -8  -2 23245.4 1683.30   3
  -8  -8  -2 20288.6 1682.47  19
  -8   8  -2 27012.7 2186.51  21
   8  -8   2 23190.9 1962.31  19
   8   8   2 24426.8 2095.62  20
  -8   8  -2 30145.1 2456.46   8
  -8  -8  -2 24884.3 1862.90  13
   8  -8   2 24850.1 1786.19  13
   8   8   2 25518.1 2192.15  12
  -8   8  -2 27757.4 2046.37  12
   8  -8   2 25315.0 1839.88   5
   8  -8   2 24482.9 2117.45   3
  -8  -8  -3 24918.7 1701.20   3
  -8  -8  -3 25156.5 1901.77  19
  -8   8  -3 26357.1 2173.45  21
   8  -8   3 25002.3 2015.85  19
   8   8   3 30377.5 2395.13  20
  -8  -8  -3 24353.3 1754.60  18
  -8   8  -3 25509.1 2203.99   8
   8  -8   3 26197.3 1794.80  13
  -8  -8  -3 23829.8 1903.64  13
   8   8   3 26605.0 2233.29  12
   8  -8   3 23629.1 2072.50   3
   8  -8   3 29559.6 2005.62   5
   8  -8   4 9939.65 1342.93   3
   8   8   4 11604.7 1492.16  20
   8  -8   4 9365.76 1256.43  19
  -8   8  -4 10828.9 1463.03  21
  -8  -8  -4 9314.80 1157.21  19
  -8  -8  -4 8893.31 1130.09  18
  -8   8  -4 9669.37 1286.98   8
   8  -8   4 9396.37 1049.47  13
   8   8   4 9898.84 1355.43  12
  -8  -8  -4 9477.03 1234.89  13
   8  -8   4 9856.48 1202.33   5
   8  -8   5 3751.86 838.746   3
   8  -8   5 3165.33 744.253  19
   8   8   5 3093.98 928.972  20
  -8  -8  -5 2654.57 672.237  19
  -8   8  -5 4795.06 1007.56  21
  -8  -8  -5 4206.86 868.389  18
  -8   8  -5 3889.75 1112.29   7
   8   8   5 2269.68 754.446  12
  -8  -8  -5 2322.20 650.402  13
   8  -8   5 3670.03 768.474   5
  -8  -8  -6 25939.7 2210.67  18
  -8   8  -6 31691.9 2799.30   7
   8  -8   6 29892.3 2231.28   5
  -8  -8  -6 26263.0 2150.08  13
   8   8   6 31142.2 2489.76  12
  -8   8  -6 30323.3 2524.55  21
   8  -8   6 27235.5 2145.28  19
  -8  -8  -6 24312.4 1919.82  19
   8   8   6 28432.5 2514.56  20
  -8  -8  -7 15592.9 1793.18  18
  -8   8  -7 17293.2 2091.09   7
   8  -8   7 17587.4 1721.86   5
  -8  -8  -7 15305.4 1656.44  13
   8  -8   7 12943.4 1468.20  10
   8   8   7 17297.0 1833.79  12
  -8  -8  -7 15753.3 1495.31  19
  -8   8  -7 18872.0 2050.41  21
   8  -8   8 1042.45 615.316   5
  -8   8  -8 864.919 640.578  21
  -8  -8  -8 103.416 430.342  18
  -8   8  -8 1254.44 763.815  15
  -8  -8  -8 684.832 484.469  13
   8   8   8 622.631 466.812  12
  -8   8  -8-70.4845 477.681   9
   8  -8   8 10.3840 372.288  10
  -8   8  -8 886.754 633.409   7
  -8   8  -9 4377.90 1136.24  21
   8  -8   9 3435.58 871.411  10
   8   8   9 2844.05 875.281  12
  -8 -10   7 702.866 520.450  19
  -8  10   6 2088.76 981.195   8
  -8  10   6 1602.24 729.917  12
   8  10  -6 2111.45 796.232  20
   8  10  -6 2281.59 858.360  21
  -8 -10   6 2364.90 639.797  19
  -8  10   5 11202.7 1848.40   8
  -8 -10   5 7255.06 1123.57   3
   8 -10  -5 6183.38 1171.83  13
   8  10  -5 8998.02 1535.62  12
  -8  10   5 6418.80 1215.06  12
  -8 -10   5 6346.09 1041.49  19
   8  10  -5 7590.23 1451.48  21
   8  10  -5 6530.10 1239.29  20
  -8  10   4 4724.28 1179.58   7
  -8  10   4 6150.07 1453.31   8
  -8 -10   4 5061.12 969.633   3
   8 -10  -4 4380.11 1032.32  13
  -8  10   4 3852.56 957.854  12
   8  10  -4 6432.69 1306.94  12
  -8 -10   4 4278.52 820.063  19
   8  10  -4 4109.37 988.328  20
   8  10  -4 6196.72 1271.98  21
  -8  10   3-312.599 802.418   8
  -8 -10   3-406.654 467.994   3
   8 -10  -3 585.270 573.935  13
  -8  10   3 74.8105 405.329  12
   8  10  -3 281.653 551.781  12
   8 -10  -3 85.2592 379.725  19
   8  10  -3-435.731 597.337  20
  -8 -10   3 278.020 458.121  19
  -8  10   2 8549.33 1672.46   8
  -8 -10   2 5562.09 1016.18   3
   8 -10  -2 5123.29 960.943  13
  -8  10   2 6984.04 1224.32  12
   8  10  -2 6317.56 1251.75  12
   8  10  -2 3678.70 910.900  20
   8 -10  -2 3676.29 920.340  19
  -8 -10   2 4071.08 837.540  19
  -8  10   1 18247.5 2286.24   8
  -8 -10   1 14723.8 1575.11   3
   8 -10  -1 14968.0 1563.92  13
   8  10  -1 18059.0 2110.00  12
  -8 -10   1 17639.1 1650.36  19
   8  10  -1 14929.2 1768.90  20
   8 -10  -1 16422.9 1757.96  19
  -8  10   0 6085.49 1371.73   8
  -8 -10   0 5448.76 934.832   3
   8 -10   0 3967.91 836.168  13
  -8 -10   0 5644.62 891.728  13
   8  10   0 6210.40 1251.45  12
   8  10   0 5337.76 1067.12  20
   8 -10   0 4728.37 960.537  19
  -8 -10   0 4522.26 875.723  19
  -8  10  -1 690.972 732.625   8
  -8 -10  -1 353.631 365.198   3
   8 -10   1 132.813 356.588  13
  -8 -10  -1 171.091 337.030  13
   8  10   1-314.773 643.376  12
   8  10   1 372.811 473.432  20
   8 -10   1 166.712 425.793  19
  -8 -10  -1 22.5094 415.922  19
   8 -10   2 8802.30 1136.57  13
  -8 -10  -2 8418.16 1129.95  13
   8  10   2 8040.28 1311.29  20
   8 -10   2 5884.75 1061.62  19
  -8 -10  -2 6092.92 1006.20  19
   8  10   2 7654.56 1365.02  12
  -8  10  -2 8915.72 1559.62   8
  -8 -10  -3 8372.14 1231.89  13
   8  10   3 8919.01 1431.39  20
   8 -10   3 7442.24 1186.26  19
  -8 -10  -3 10715.7 1303.91  19
   8  10   3 10084.8 1559.33  12
  -8  10  -3 13214.1 1839.86   8
  -8 -10  -4 1771.31 669.242  13
   8  10   4 3420.37 1002.18  12
  -8  10  -4 3601.06 1178.62   7
   8  10   4 1853.15 739.335  20
   8 -10   4 1838.21 696.106  19
  -8  10  -4 1868.72 790.720  21
  -8 -10  -4 2441.45 683.822  19
   8  10   5 285.871 584.369  12
   8  10   5 1230.49 641.527  20
  -8 -10  -5 1420.40 552.775  19
  -8  10  -5 595.995 603.935  21
   9   1 -14-307.668 647.197  11
  -9  -1  14-514.145 386.049   4
  -9   1  14-475.419 558.222   4
  -9  -1  14 235.275 377.691  10
  -9   1  14 794.188 516.330  10
   9   1 -14 953.408 709.067   9
   9  -1 -13 4258.21 1142.52  17
   9   1 -13 5558.06 1319.07  17
   9  -1 -13 3186.81 941.873  11
   9   1 -13 6592.06 1427.16  11
  -9   1  13 5466.89 990.423   4
  -9  -1  13 5298.90 906.104   4
  -9  -1  13 7316.22 1049.27  10
  -9   1  13 5751.17 933.888  10
   9  -1 -13 5437.81 1439.69   9
   9   1 -13 4838.13 1194.85   9
   9  -1 -12 18473.5 2189.18  17
   9   1 -12 19820.5 2253.06  17
   9  -1 -12 19677.1 2107.51  11
   9   1 -12 17845.0 2208.03  11
  -9  -1  12 22385.5 1823.96   4
  -9   1  12 21553.4 1899.13   4
   9  -1 -12 21632.0 2343.22   9
   9   1 -12 19221.6 2189.66   9
  -9  -1  12 22164.0 1746.59  10
  -9   1  12 25113.3 1850.20  10
   9  -1 -11 11725.2 1665.21  17
   9   1 -11 14758.0 1847.18  17
   9  -1 -11 15065.9 1781.68  11
   9   1 -11 15113.0 1910.75  11
  -9   1  11 18994.2 1724.35   4
  -9  -1  11 19046.9 1612.69   4
   9   1 -11 16800.3 1925.05   9
  -9  -1  11 19798.1 1551.51  10
   9  -1 -11 14731.5 1864.10   9
  -9   1  11 19594.8 1527.30  10
   9  -1 -10 196.779 367.782  17
   9   1 -10 444.956 450.813  17
  -9  -1  10 291.007 344.248  10
  -9   1  10 295.732 285.209  10
   9  -1 -10 422.123 453.968   9
   9   1 -10-497.584 537.545   9
   9  -1 -10 39.1019 399.004  11
   9   1 -10 115.317 467.012  11
  -9   1  10 438.108 423.401   4
  -9  -1  10 341.497 362.877   4
   9   1  -9 51269.4 3104.26  17
   9  -1  -9 54430.9 3207.30  17
   9  -1  -9 53184.8 3210.24   9
   9   1  -9 51613.4 3042.88   9
  -9  -1   9 57417.2 2585.85  10
  -9   1   9 56632.2 2578.29  10
  -9   1   9 59332.4 2365.18   8
   9  -1  -9 51699.6 3025.20  11
   9   1  -9 48486.9 3123.09  11
  -9   1   9 60388.0 3022.83   4
  -9  -1   9 55253.0 2756.21   4
   9   1  -8 102789. 3758.25   1
  -9  -1   8 103356. 3504.89   3
  -9  -1   8 100830. 3419.42   8
   9  -1  -8 99304.4 4322.14   9
   9   1  -8 97647.6 4205.29   9
  -9  -1   8 102273. 3660.16  10
  -9   1   8 107664. 3701.22  10
   9  -1  -8 102717. 4401.57  17
   9   1  -8 94227.6 4237.41  17
  -9   1   8 108243. 3550.73   8
   9  -1  -8 100064. 4193.75  11
   9   1  -8 96671.6 4377.75  11
  -9   1   8 102213. 4144.02   4
  -9  -1   8 106972. 3981.06   4
  -9  -1   7 12944.3 942.606   3
   9  -1  -7 11836.3 1215.18   9
   9   1  -7 11784.5 1164.89   9
  -9  -1   7 11706.3 962.847  10
  -9  -1   7 12548.0 928.033   8
  -9   1   7 12331.2 984.335  10
   9  -1  -7 11287.2 1231.24  17
   9   1  -7 12072.2 1225.94  17
  -9   1   7 12419.5 955.704   8
   9  -1  -7 11966.6 854.955  13
   9  -1  -7 12018.7 1144.14  11
   9   1  -7 10672.6 1217.93  11
  -9   1   7 12590.9 1196.58   4
  -9  -1   7 12474.4 1094.89   4
  -9   1   6 11468.5 1064.17   4
  -9  -1   6 11003.6 960.863   4
   9  -1  -6 11915.8 746.876   1
  -9  -1   6 11509.5 873.802   3
  -9  -1   6 11955.1 660.060  19
   9  -1  -6 13391.9 1219.12  17
   9   1  -6 9982.78 1007.33  17
  -9   1   6 11761.0 924.300   8
   9  -1  -6 10486.1 1079.77  14
  -9   1   6 11084.7 1008.10  14
   9  -1  -6 11682.5 850.468  13
   9   1  -6 11352.5 1194.09  11
   9  -1  -6 11373.9 1041.73  11
  -9  -1   6 10845.6 851.544   8
   9  -1  -6 10135.2 1049.45   9
   9   1  -6 12062.6 1083.39   9
  -9  -1   6 11232.5 851.776  10
  -9   1   6 12786.4 907.547  10
  -9   1   5 119679. 4041.65   4
  -9  -1   5 115893. 3827.11   4
  -9  -1   5 110550. 3208.70   2
  -9  -1   5 116387. 3307.39  19
   9  -1  -5 116261. 4163.10  17
   9   1  -5 122917. 4208.61  17
  -9   1   5 116292. 3779.65   8
   9  -1  -5 117931. 4116.39  14
   9   1  -5 113829. 4254.57  14
  -9  -1   5 121397. 4053.70  14
  -9   1   5 119479. 3975.05  14
   9  -1  -5 111687. 3590.24  13
   9  -1  -5 110992. 3900.78  11
   9   1  -5 115273. 4208.75  11
  -9  -1   5 113447. 3687.24   8
   9   1  -5 115608. 3892.17   9
   9  -1  -5 114757. 4073.70   9
  -9  -1   5 114399. 3470.64  10
  -9   1   5 116393. 3532.17  10
  -9  -1   4 277844. 7269.33   2
  -9  -1   4 287983. 7736.30   8
   9  -1  -4 286440. 8010.46   9
   9   1  -4 288723. 7759.37   9
  -9  -1   4 287495. 7291.16  10
  -9   1   4 290972. 7361.78  10
   9  -1  -4 290999. 8093.82  17
   9   1  -4 294961. 8075.56  17
  -9   1   4 294380. 7842.87   8
   9  -1  -4 290839. 8034.54  14
   9   1  -4 296626. 8240.71  14
  -9  -1   4 298281. 8006.80  14
  -9   1   4 303466. 7953.83  14
   9  -1  -4 286980. 7612.41  13
   9  -1  -4 296522. 7912.05  11
   9   1  -4 290694. 8134.72  11
  -9   1   4 283415. 7866.94   4
  -9  -1   4 291464. 7796.45   4
  -9   1   3 78503.1 2784.71   4
  -9  -1   3 81048.6 2813.88   4
  -9  -1   3 78999.1 2546.71   2
   9   1  -3 81605.3 3088.13  20
   9   1  -3 79363.1 2927.68  17
   9  -1  -3 77632.6 2957.01  17
  -9   1   3 80006.5 2857.27   8
  -9  -1   3 81772.0 2938.49  14
  -9   1   3 81909.8 2891.65  14
   9  -1  -3 76121.9 2678.43  13
   9  -1  -3 83505.1 2860.62  11
   9   1  -3 78435.8 2997.45  11
   9  -1  -3 79080.2 2951.41   9
   9   1  -3 81403.9 2725.23   9
  -9  -1   3 79862.9 2352.63  10
  -9  -1   3 76251.0 2765.33   8
  -9   1   3 81207.3 2389.29  10
  -9  -1   2 108180. 3345.72   4
  -9   1   2 97915.5 3201.71   4
  -9  -1   2 101641. 3146.72   2
   9   1  -2 101961. 3481.65  20
   9  -1  -2 98679.0 3034.44  20
   9   1  -2 103625. 3446.25  17
   9  -1  -2 106304. 3525.20  17
  -9   1   2 99799.9 3351.91   8
  -9   1   2 107925. 3424.28  14
  -9  -1   2 102752. 3413.29  14
   9   1  -2 101496. 2639.98  16
   9  -1  -2 104186. 3310.97  11
   9   1  -2 98967.2 3433.81  11
  -9  -1   2 104267. 2752.47  10
  -9  -1   2 99036.9 3293.61   8
  -9   1   2 100874. 2724.81  10
   9  -1  -1 486614. 12724.1   5
  -9  -1   1 523294. 12837.9   4
  -9   1   1 520859. 12653.0   4
  -9  -1   1 511937. 12723.9   2
   9   1  -1 526113. 12089.1  21
   9  -1  -1 505449. 12364.7  20
   9   1  -1 506927. 12956.9  20
   9  -1  -1 515245. 12392.9  16
  -9   1   1 507359. 12835.9   8
  -9   1   1 521291. 12966.9  14
  -9  -1   1 525817. 12997.9  14
   9   1  -1 519833. 12268.3  16
   9  -1  -1 513990. 12744.3  11
   9   1  -1 524181. 12966.3  11
  -9  -1   1 516830. 12807.2   8
  -9  -1   0 214898. 5937.20   4
  -9   1   0 207395. 5622.73   4
   9   1   0 204677. 5682.66   5
   9  -1   0 211399. 5873.81   5
  -9   1   0 217444. 6019.63   2
   9  -1   0 202826. 5571.24   1
  -9  -1   0 218490. 5968.04   2
   9  -1   0 223349. 5409.78  20
   9   1   0 218141. 5989.60  20
   9  -1   0 213405. 5606.73  16
  -9   1   0 216065. 5875.47   8
   9   1   0 215758. 5589.93  16
   9  -1   0 207184. 5851.59  11
   9   1   0 213988. 6009.04  11
   9   1   0 213950. 5429.04  12
  -9  -1   0 217059. 5882.08   8
  -9   1  -1 4365.45 446.551   4
   9  -1   1 3605.67 492.631   5
   9   1   1 3818.43 449.265   5
  -9  -1  -1 3680.53 507.797   4
   9  -1   1 4848.82 484.683   1
  -9  -1  -1 4253.26 537.432   2
  -9   1  -1 3972.21 526.024   2
   9   1   1 4145.26 517.575  20
  -9   1  -1 4565.84 271.269  21
   9  -1   1 5005.17 410.339  20
  -9  -1  -1 3689.23 480.951  18
   9  -1   1 4019.50 458.336  16
  -9   1  -1 4599.37 502.427   8
   9   1   1 3812.03 446.142  16
   9   1   1 4806.23 342.746  12
   9   1   1 3870.50 518.129  11
  -9  -1  -1 5503.12 547.785   8
  -9  -1  -2 54817.4 2358.89   4
  -9   1  -2 56211.8 2048.86   4
   9   1   2 53941.8 2125.61   5
   9  -1   2 52431.8 2254.26   5
   9  -1   2 52758.4 2073.80   1
  -9  -1  -2 56548.6 2370.29   2
  -9   1  -2 56113.9 2341.93   2
   9  -1   2 56082.9 1910.15  20
   9   1   2 58839.7 2253.53  20
  -9  -1  -2 56115.3 2314.74  18
   9  -1   2 54051.1 2317.73   6
   9   1   2 53711.0 2422.07   6
  -9   1  -2 52834.2 2002.54   8
   9  -1   2 54381.3 2135.13  16
   9   1   2 56129.3 2160.63  16
   9   1   2 55594.3 1694.20  12
   9  -1   2 55594.8 1665.38  10
  -9  -1  -2 55391.7 2091.33   8
   9   1   2 57134.1 1622.18  10
  -9   1  -3 165754. 4597.22   4
  -9  -1  -3 161705. 5144.40   4
   9   1   3 157894. 4745.22   5
   9  -1   3 161758. 5064.52   5
  -9  -1  -3 165063. 5155.15   2
   9  -1   3 159340. 4792.00   1
   9   1   3 156713. 4797.32   1
  -9   1  -3 168428. 5102.72   2
   9   1   3 164169. 4904.09  20
  -9  -1  -3 159327. 5115.14  18
   9  -1   3 160452. 5044.68   6
   9   1   3 159922. 5222.15   6
  -9   1  -3 157149. 4499.32   8
   9  -1   3 164087. 4881.16  16
   9   1   3 164642. 4881.45  16
   9   1   3 161772. 4244.60  12
   9  -1   3 164083. 4259.61  10
   9   1   3 163945. 4235.97  10
   9   1   4 170360. 4970.92   5
   9  -1   4 170920. 5321.05   5
   9  -1   4 162489. 5020.12   1
   9   1   4 151431. 4957.97   1
  -9  -1  -4 170433. 5419.01   2
  -9   1  -4 170957. 5310.48   2
   9   1   4 163091. 5097.10  20
  -9  -1  -4 166569. 5489.58  18
  -9   1  -4 170212. 5483.73  18
   9  -1   4 174259. 5374.29   6
   9   1   4 175265. 5571.23   6
   9  -1   4 159392. 5085.07  16
   9   1   4 165473. 5079.71  16
  -9  -1  -4 162255. 5134.08  15
   9   1   4 164840. 4478.08  12
   9  -1   4 164985. 4483.90  10
  -9   1  -4 170067. 4564.41   8
   9   1   4 168561. 4502.76  10
  -9  -1  -5 560.147 364.645   2
  -9   1  -5 517.724 319.680   2
   9  -1   5 653.943 194.076  10
   9   1   5 407.790 183.035  10
  -9  -1  -5 464.444 284.044   9
  -9  -1  -5 330.567 301.139  18
  -9   1  -5 1372.30 437.815  18
   9  -1   5 1284.28 437.705   6
   9   1   5 1020.09 430.233   6
  -9   1  -5 951.059 209.235   8
   9  -1   5 1315.55 396.308  16
   9   1   5 682.872 286.518  16
  -9  -1  -5 1190.64 383.674  15
   9   1   5 1233.09 258.881  12
   9   1   5 837.232 330.379   5
   9  -1   5 386.286 295.831   5
  -9  -1  -6 101641. 4115.99   2
  -9   1  -6 99486.9 3932.40   2
  -9  -1  -6 97244.6 4176.96   9
   9  -1   6 93949.8 3231.62  10
   9   1   6 99410.4 3248.98  10
  -9  -1  -6 100747. 4317.71  18
  -9   1  -6 100243. 4185.04  18
   9   1   6 106458. 4236.49   6
   9  -1   6 108193. 4091.36   6
   9  -1   6 98038.3 3747.67  16
   9   1   6 102537. 3742.44  16
  -9  -1  -6 95662.2 3958.91  15
  -9   1  -6 97833.7 4217.45  15
   9   1   6 97368.8 3194.71  12
   9  -1   6 102412. 3887.35   5
   9   1   6 100702. 3491.31   5
  -9  -1  -7 117380. 4943.26   9
  -9   1  -7 122505. 5284.00   9
   9  -1   7 107054. 3808.28  10
   9   1   7 118173. 3851.12  10
  -9  -1  -7 117265. 5059.88  18
  -9   1  -7 120582. 4926.74  18
   9   1   7 116181. 4016.38   5
   9  -1   7 127150. 4740.62   6
   9   1   7 123482. 4875.99   6
   9  -1   7 118562. 4354.47  16
   9   1   7 120390. 4336.83  16
  -9  -1  -7 122149. 4768.32  15
  -9   1  -7 111791. 4913.88  15
  -9  -1  -7 115056. 4746.79   2
  -9   1  -7 120023. 4643.78   2
   9  -1   7 123185. 4462.99   5
  -9  -1  -8 17750.2 1834.56  18
  -9   1  -8 14840.2 1632.63  18
   9  -1   8 19226.7 1661.03   6
   9   1   8 19417.8 1767.62   6
   9  -1   8 17013.1 1449.81   5
   9   1   8 16358.8 1248.38   5
   9  -1   8 16978.6 1433.29  16
   9   1   8 17985.4 1470.33  16
  -9  -1  -8 17488.5 1677.17  15
  -9   1  -8 18491.5 1837.04  15
  -9  -1  -8 16931.8 1677.69   2
  -9   1  -8 18234.7 1608.70   2
  -9  -1  -8 16661.7 1759.87   9
  -9   1  -8 17522.1 1868.59   9
   9  -1   8 17594.9 1271.62  10
   9   1   8 17315.9 1216.95  10
   9  -1   9 3406.70 603.210  10
   9   1   9 3872.75 616.428  10
  -9  -1  -9 3797.33 957.686   9
  -9   1  -9 3615.99 946.761   9
  -9  -1  -9 5364.98 1037.71  18
  -9   1  -9 3500.21 905.627  18
   9  -1   9 3101.30 726.748   6
   9   1   9 4309.25 908.187   6
   9  -1   9 3933.10 774.455  16
   9   1   9 3814.10 697.254  16
  -9   1  -9 3608.13 983.962  15
  -9  -1  -9 3700.91 836.539   2
  -9   1  -9 3167.92 715.549   2
   9  -1   9 3122.12 657.944   5
  -9  -1 -10 20661.5 2297.43  17
   9  -1  10 19858.5 1713.34  16
  -9  -1 -10 19122.0 2066.63  18
  -9   1 -10 20975.1 2193.09  18
   9  -1  10 21711.7 1933.57   6
   9   1  10 21771.1 2040.38   6
   9  -1  10 19766.1 1640.70   5
   9   1  10 18857.5 1652.53  16
  -9   1 -10 21396.6 2226.04  15
  -9   1 -10 18072.1 2187.15   9
   9  -1  10 19740.6 1494.12  10
   9   1  10 21164.7 1511.03  10
  -9  -1 -10 19489.6 2064.09   9
  -9  -1 -10 17798.1 1822.03   2
   9   1  11 25203.3 2029.19  16
  -9   1 -11 29034.2 2697.21  15
   9  -1  11 29934.6 2299.36   6
   9   1  11 29271.5 2453.34   6
  -9   1 -11 26432.2 2819.61  17
   9  -1  11 26409.6 2108.61  16
  -9  -1 -11 22925.0 2376.84  18
  -9   1 -11 25717.7 2526.65  18
  -9  -1 -11 28840.0 2846.60  17
   9  -1  11 25824.7 1816.03  10
   9   1  11 25492.6 1777.18  10
  -9  -1 -11 26443.1 2498.00   9
  -9   1 -11 28796.3 2814.30   9
   9  -1  12 4897.12 988.192  16
   9   1  12 4136.47 910.181  16
   9  -1  12 5829.30 1051.73   6
   9   1  12 5557.94 1096.35   6
  -9   1 -12 3636.81 1038.49  18
  -9  -1 -12 4016.88 1162.09  17
  -9   1 -12 4208.63 1210.52  17
  -9  -1 -12 3551.30 1059.54  18
  -9  -1 -12 4958.21 1189.84   9
  -9   1 -12 3450.59 1082.32   9
  -9   1 -13 5103.09 1234.04  18
   9  -3 -13 3478.42 935.889  17
   9   3 -13 3760.76 1127.92  17
   9   3 -13 3640.88 1193.98  11
  -9   3  13 5437.35 1104.42   4
  -9   3  13 3545.80 829.193  10
   9  -3 -13 5952.39 1373.03   9
   9   3 -13 4159.19 1055.74   9
  -9  -3  13 3412.79 755.631  10
   9  -3 -12 14057.4 1903.51  17
   9   3 -12 15557.0 2008.74  17
   9   3 -12 15528.8 2249.79  11
  -9   3  12 20334.4 1986.39   4
  -9  -3  12 15184.0 1417.46   4
  -9  -3  12 17056.7 1595.68  10
   9  -3 -12 15906.7 2034.03   9
  -9   3  12 16570.7 1592.60  10
   9   3 -12 15682.7 1933.49   9
   9  -3 -11 15705.3 1889.47  17
   9   3 -11 14187.0 1843.71  17
   9   3 -11 14737.4 2064.77  11
  -9   3  11 18027.8 1825.22   4
  -9  -3  11 15370.3 1425.53   4
  -9  -3  11 19829.0 1647.31  10
   9   3 -11 13922.7 1728.61   9
   9  -3 -11 15999.1 1931.45   9
  -9   3  11 17777.0 1577.53  10
   9   3 -10 520.250 520.687  17
   9  -3 -10 67.3952 491.483  17
  -9  -3  10-60.5018 309.930  10
  -9   3  10-120.672 312.270  10
   9  -3 -10 747.657 593.886   9
   9   3 -10 808.800 493.564   9
   9   3 -10 68.5703 543.690  11
  -9   3  10 814.158 476.408   4
  -9  -3  10 663.950 316.610   4
  -9  -3   9 37129.7 2008.38   3
   9  -3  -9 39984.8 2676.34   9
  -9  -3   9 40312.8 2226.82  10
   9   3  -9 33529.0 2364.56   9
  -9   3   9 41985.4 2253.87  10
   9  -3  -9 37236.8 2610.22  17
   9   3  -9 33795.3 2478.07  17
  -9   3   9 40248.0 2097.61   8
   9   3  -9 36017.5 2824.13  11
  -9   3   9 40792.4 2651.36   4
  -9  -3   9 41163.7 2219.93   4
  -9  -3   8 79001.8 3156.28   3
   9  -3  -8 80470.4 3768.87   9
   9   3  -8 71048.2 3392.35   9
  -9  -3   8 85718.8 3292.45  10
  -9   3   8 82950.7 3319.03  10
   9  -3  -8 76442.0 3684.04  17
   9   3  -8 71429.1 3539.43  17
  -9   3   8 83576.6 3294.91   8
   9  -3  -8 77163.4 3535.87  13
   9   3  -8 68579.2 3861.54  11
   9  -3  -8 77728.7 3171.18  11
  -9   3   8 76672.9 3732.17   4
  -9  -3   8 86669.6 3332.51   4
  -9  -3   7 11924.1 1036.21   3
   9  -3  -7 12633.3 1280.88   9
   9   3  -7 10453.7 1036.25   9
  -9  -3   7 11852.3 1010.23  10
   9  -3  -7 11682.0 1193.05  17
   9   3  -7 10575.1 1135.32  17
  -9   3   7 12840.6 1135.17   8
   9  -3  -7 11704.2 1195.01  13
   9   3  -7 10986.1 1310.13  11
  -9   3   7 11894.9 1105.35  12
   9  -3  -7 13148.9 1035.24  11
  -9  -3   7 11959.5 1029.35   4
  -9   3   7 8674.88 1132.99   4
  -9   3   6 12316.3 1265.51   4
  -9  -3   6 13230.3 1068.59   4
  -9  -3   6 13779.3 1092.33   3
  -9  -3   6 11432.1 821.590  19
   9  -3  -6 12402.5 1200.49  17
   9   3  -6 11385.6 1064.75  17
  -9   3   6 11990.8 1104.45   8
   9  -3  -6 11108.2 1034.56  14
  -9   3   6 13556.4 1121.69  14
   9  -3  -6 12774.9 1235.28  13
   9   3  -6 11127.5 1228.96  11
  -9   3   6 11834.7 1041.60  12
   9  -3  -6 11674.5 921.399  11
   9  -3  -6 13386.6 1269.55   9
   9   3  -6 12054.8 998.146   9
  -9  -3   6 13298.8 1001.98  10
  -9   3   5 74828.2 3249.57   4
  -9  -3   5 71677.3 2777.21   4
  -9  -3   5 72050.1 2822.98   3
  -9  -3   5 71255.4 2570.91  19
   9   3  -5 69923.7 2867.20  17
   9  -3  -5 70572.1 3039.77  17
  -9   3   5 71735.9 3053.92   8
   9  -3  -5 70500.2 2830.10  14
   9   3  -5 68033.3 3117.15  14
  -9  -3   5 71281.6 2909.88  14
  -9   3   5 72493.9 2800.80  14
   9  -3  -5 72685.3 3180.18  13
  -9   3   5 68296.7 2773.45  12
   9  -3  -5 75602.3 2588.28  11
   9   3  -5 70237.4 3237.86  11
   9  -3  -5 76960.4 3212.10   9
   9   3  -5 69095.9 2587.48   9
  -9  -3   5 71053.4 2627.14  10
  -9   3   4 218566. 6602.15   4
  -9  -3   4 220605. 6296.49   4
  -9  -3   4 220743. 5715.13   2
  -9  -3   4 215541. 6305.06   3
  -9  -3   4 216066. 6072.15  19
   9   3  -4 223101. 6996.83  20
   9   3  -4 227006. 6416.01  17
   9  -3  -4 228841. 6645.70  17
  -9   3   4 216249. 6219.43   7
  -9   3   4 219946. 6733.60   8
  -9  -3   4 224474. 6454.10  14
  -9   3   4 226630. 6273.65  14
   9  -3  -4 220627. 6789.92  13
  -9   3   4 215930. 6181.69  12
   9  -3  -4 221242. 5947.93  11
   9   3  -4 222608. 6863.33  11
   9  -3  -4 220948. 6745.18   9
   9   3  -4 223086. 5939.85   9
  -9  -3   4 215468. 6053.51  10
  -9  -3   3 48570.9 2128.53   4
  -9   3   3 49492.1 2186.43   4
   9  -3  -3 47845.1 2102.39   5
  -9  -3   3 50752.5 1892.74   2
  -9  -3   3 50965.7 2151.27   3
  -9  -3   3 50918.4 2059.73  19
   9   3  -3 53849.6 2673.83  20
   9   3  -3 50425.3 2154.11  17
   9  -3  -3 52455.0 2324.39  17
  -9  -3   3 49367.1 1545.22  18
  -9   3   3 49767.1 2220.80   7
  -9   3   3 50280.0 2458.05   8
  -9  -3   3 50291.5 2179.52  14
  -9   3   3 51312.0 2040.74  14
   9  -3  -3 49783.3 2380.88  13
  -9   3   3 49198.6 1960.15  12
   9  -3  -3 50967.9 1882.95  11
   9   3  -3 47445.6 2322.87  11
  -9  -3   3 50115.3 1970.24  10
  -9   3   2 72190.9 2598.56   4
  -9  -3   2 72177.7 2755.66   4
   9  -3  -2 73461.0 2716.51   5
  -9  -3   2 75386.0 2629.47   2
   9  -3  -2 71453.5 2074.19   1
  -9  -3   2 75058.2 2738.43   3
   9   3  -2 72390.7 2798.83  21
   9   3  -2 74008.1 3173.99  20
  -9  -3   2 72038.8 2293.14  18
  -9   3   2 72653.9 2932.23   7
  -9   3   2 75369.6 3090.74   8
  -9   3   2 70304.0 2520.29  14
  -9  -3   2 73561.8 2716.91  14
   9  -3  -2 72308.4 2935.87  13
   9  -3  -2 76544.1 2464.73  11
  -9   3   2 74502.9 2421.03  12
   9   3  -2 72832.4 2892.59  11
  -9  -3   2 72490.3 2504.17  10
  -9  -3   1 326482. 8682.37   2
   9  -3  -1 318574. 8028.59   1
  -9  -3   1 333043. 8628.99   3
   9   3  -1 323069. 8515.79  21
   9   3  -1 317283. 9115.24  20
  -9  -3   1 316852. 8277.43  18
  -9   3   1 323169. 9089.14   7
  -9   3   1 320700. 9082.54   8
  -9   3   1 324687. 8409.66  14
  -9  -3   1 324638. 8589.40  14
   9  -3  -1 336504. 8936.63  13
  -9   3   1 339684. 8082.00  12
   9   3  -1 322817. 8780.08  11
   9   3  -1 314280. 8821.01  12
   9  -3  -1 327644. 8651.09   5
  -9  -3   1 343337. 8855.49   4
  -9   3   1 320003. 8245.59   4
  -9  -3   0 175749. 5368.39   2
   9  -3   0 171468. 4793.76   1
  -9  -3   0 177460. 5134.35   3
   9   3   0 179641. 5646.17  20
  -9  -3   0 175044. 5088.55  18
  -9   3   0 168862. 5626.03   7
  -9   3   0 177239. 5546.33   8
   9  -3   0 177707. 5379.07  13
  -9   3   0 174667. 4530.96  12
   9   3   0 177408. 5306.96  11
   9   3   0 176898. 5259.21  12
  -9  -3   0 181394. 5428.70   4
  -9   3   0 170939. 4647.11   4
   9   3   0 171908. 4678.51   5
   9  -3   0 178103. 5263.75   5
  -9  -3  -1 4589.51 545.494   3
  -9  -3  -1 4806.88 660.357   2
   9  -3   1 4288.46 497.855   1
   9   3   1 4796.58 682.171  20
  -9   3  -1 4263.39 493.538  21
  -9  -3  -1 4614.87 584.688  18
   9   3   1 4393.26 610.458   6
   9  -3   1 4494.90 511.128   6
  -9   3  -1 4332.43 613.676   8
   9  -3   1 4914.02 624.894  13
   9  -3   1 4422.87 586.902  16
   9   3   1 3830.95 513.881  12
  -9   3  -1 5121.72 395.249  12
   9   3   1 4775.31 612.847  11
  -9  -3  -1 5402.73 708.643   4
   9   3   1 4414.99 412.656   5
  -9   3  -1 4184.03 353.285   4
   9  -3   1 3901.31 565.498   5
  -9  -3  -2 42654.2 2240.70   4
   9   3   2 41765.0 1510.01   5
   9  -3   2 43472.6 2097.77   5
   9   3   2 41056.6 2127.66  20
  -9  -3  -2 40225.3 2056.16  18
   9  -3   2 41510.3 1999.47  16
  -9  -3  -2 38345.5 1780.14   3
  -9   3  -2 41746.3 2018.39   1
  -9  -3  -2 41076.3 2170.57   2
   9  -3   2 40650.2 1861.30   1
  -9   3  -2 43058.1 2325.76   7
   9  -3   2 38783.7 1776.81   6
  -9   3  -2 44139.6 1984.12   8
   9   3   2 40583.9 2078.74   6
   9   3   2 43120.1 2042.41  11
   9   3   2 42235.0 1826.91  12
  -9   3  -2 41407.0 1495.22  12
   9  -3   2 42473.9 1796.70  10
  -9  -3  -2 43260.8 1721.24   9
  -9  -3  -3 119502. 4539.55   4
   9   3   3 123258. 3414.60   5
   9  -3   3 121127. 4307.56   5
   9   3   3 125510. 4374.50  20
   9  -3   3 119736. 4163.12  16
  -9  -3  -3 119037. 4405.24  18
  -9   3  -3 131721. 4461.83   1
  -9   3  -3 122000. 4310.71   2
  -9  -3  -3 125728. 4540.50   2
   9  -3   3 125105. 4072.45   1
  -9  -3  -3 118785. 3784.02   3
  -9   3  -3 120034. 4502.12   7
   9  -3   3 128988. 3982.96   6
   9   3   3 122060. 4347.71   6
  -9   3  -3 120359. 3903.19   8
   9   3   3 122203. 3833.85  12
  -9   3  -3 120436. 3584.54  12
  -9  -3  -3 121656. 3921.00   9
   9  -3   3 123442. 3810.94  10
   9  -3   4 141652. 4843.38   5
  -9  -3  -4 138489. 5031.77   2
   9  -3   4 134078. 4505.22   1
  -9  -3  -4 132589. 4055.64   3
  -9   3  -4 140647. 4750.76   2
   9   3   4 129672. 4705.86  20
   9  -3   4 144262. 4722.43  16
  -9  -3  -4 139768. 4988.05  18
  -9   3  -4 137500. 4910.08   7
   9   3   4 135558. 4852.95   6
  -9   3  -4 132661. 4095.05   8
   9  -3   4 137712. 4404.22   6
   9   3   4 133596. 4182.38  12
  -9  -3  -4 137556. 4493.77   9
   9  -3   4 131861. 4142.78  10
   9  -3   5 326.592 370.097   5
  -9  -3  -5 483.672 192.676   3
  -9  -3  -5 529.560 400.341   2
  -9   3  -5 330.684 267.618   2
   9   3   5 429.910 354.797  20
  -9  -3  -5 323.998 324.814  18
  -9   3  -5 1013.36 472.052  18
  -9   3  -5 55.2265 281.660   7
   9  -3   5 429.443 295.239   6
   9   3   5 105.014 307.428   6
   9  -3   5 303.104 302.891  16
   9   3   5 207.168 273.331  16
   9   3   5 74.0065 183.220  12
  -9  -3  -5 313.999 238.033   9
   9  -3   5 155.347 190.237  10
   9  -3   6 74270.2 3407.06   5
  -9  -3  -6 67281.2 3413.93   2
  -9   3  -6 71063.6 3177.90   2
   9   3   6 72982.2 3332.78  20
  -9  -3  -6 69694.5 3542.97  18
   9  -3   6 68485.4 3183.05  16
  -9   3  -6 71924.1 3418.77  18
   9  -3   6 73325.4 3058.16   6
  -9   3  -6 68574.7 3180.86   7
   9   3   6 72916.8 3441.92   6
   9   3   6 68455.2 3097.84  16
   9   3   6 69255.4 2767.62  12
   9  -3   6 63965.6 2642.23  10
  -9  -3  -6 72207.4 3202.11   9
  -9  -3  -7 90942.7 4262.34   2
  -9   3  -7 93861.6 3906.06   2
   9   3   7 95945.1 3488.17  10
  -9  -3  -7 98411.3 4084.37   9
   9  -3   7 90262.2 3442.52  10
  -9  -3  -7 93337.9 4411.88  18
   9  -3   7 93519.2 4011.43  16
  -9   3  -7 93010.7 4236.05  18
   9   3   7 102750. 4388.59   6
   9  -3   7 95709.6 3814.88   6
   9   3   7 92096.5 3880.76  16
   9   3   7 90593.0 3483.69  12
   9  -3   7 102601. 4218.88   5
  -9   3  -8 15394.7 1939.99   9
   9  -3   8 13113.9 1163.74  10
   9   3   8 15215.1 1217.18  10
  -9  -3  -8 14480.1 1475.22   9
  -9  -3  -8 13697.3 1599.34  18
  -9   3  -8 14034.3 1605.70  18
   9  -3   8 14608.0 1500.44   5
   9  -3   8 14091.8 1308.72   6
   9   3   8 15363.9 1605.91   6
   9   3   8 14628.8 1418.04  16
   9  -3   8 10764.2 1256.83  16
  -9   3  -8 13254.5 1731.84  15
   9   3   8 13522.0 1187.28  12
  -9  -3  -8 14353.3 1634.26   2
  -9   3  -8 12481.0 1288.64   2
  -9  -3  -9 3491.70 874.904   2
   9   3   9 3504.32 636.123  10
  -9  -3  -9 2945.98 780.532   9
  -9   3  -9 3951.99 1040.48   9
   9  -3   9 2748.92 601.801  10
  -9  -3  -9 4005.59 1047.47  18
  -9   3  -9 3191.35 918.974  18
  -9  -3  -9 2935.37 862.241  17
   9   3   9 2181.26 705.233   6
   9  -3   9 4133.49 775.481   6
   9  -3   9 3870.30 818.764  16
   9   3   9 4376.83 869.229  16
  -9   3  -9 3474.48 992.148  15
   9   3   9 3275.84 627.612  12
   9  -3   9 4467.95 883.831   5
  -9  -3 -10 15363.5 1859.47  17
   9  -3  10 16936.9 1672.30  16
  -9   3 -10 17068.1 1992.71  18
  -9  -3 -10 12880.9 1743.18  18
   9   3  10 15856.0 1779.50   6
   9  -3  10 14162.4 1426.06   6
   9  -3  10 13122.9 1484.78   5
   9   3  10 14031.8 1507.14  16
  -9   3 -10 14341.4 2033.02  15
   9  -3  10 12750.0 1290.15  10
   9   3  10 13622.7 1277.31  10
  -9  -3 -10 14304.1 1693.24   9
  -9   3 -10 12054.9 1901.22   9
  -9  -3 -10 11464.6 1545.18   2
  -9   3 -11 23071.2 2615.97  17
   9  -3  11 26260.5 2160.26  16
  -9   3 -11 21264.7 2329.93  18
  -9  -3 -11 18153.1 2172.92  18
  -9  -3 -11 22335.8 2309.08  17
   9  -3  11 21539.2 1783.04   6
   9   3  11 25310.7 2292.76   6
   9   3  11 20905.2 1917.74  16
  -9   3 -11 27012.0 2881.22  15
  -9   3 -11 23009.0 2694.00   9
   9   3  11 21335.9 1689.32  10
  -9  -3 -11 23623.0 2231.36   9
  -9  -3 -11 22214.7 2167.90   2
   9  -3  12 3840.00 836.659  16
   9   3  12 3552.91 883.402  16
  -9   3 -12 4827.98 1423.25  15
   9   3  12 3732.59 946.629   6
  -9  -3 -12 2803.36 926.477   9
  -9   3 -12 3769.29 1202.86   9
  -9  -3 -12 2487.45 838.095  17
  -9   3 -12 2839.79 1094.71  17
  -9  -3 -12 1576.05 716.062  18
  -9   5  12 12019.6 1454.42  10
   9  -5 -12 9262.44 1587.03   9
  -9  -5  12 12977.3 1501.66  10
   9   5 -12 9576.51 1949.80  11
  -9   5  12 13366.2 1761.24   4
   9  -5 -12 8704.82 1448.84  17
  -9   5  11 10188.3 1326.12  10
   9  -5 -11 9071.92 1451.05   9
  -9  -5  11 9574.54 1258.29  10
   9   5 -11 8724.71 1722.26  11
  -9   5  11 8804.12 1434.97   4
   9  -5 -11 8061.59 1295.33  17
  -9  -5  10 295.804 290.564   3
  -9   5  10 600.765 455.608  10
   9  -5 -10-384.379 475.517   9
  -9  -5  10-262.994 489.069  10
   9  -5 -10-853.745 540.023  17
   9   5 -10-11.0424 538.463  11
  -9   5  10-300.615 415.711  12
  -9   5  10 115.038 493.105   4
  -9  -5   9 24213.2 1746.42   3
   9  -5  -9 28367.0 2300.03   9
  -9  -5   9 29498.9 1990.07  10
   9  -5  -9 30805.2 2264.88  17
  -9   5   9 29289.2 2104.39   8
   9  -5  -9 26361.8 2296.80  13
   9   5  -9 22302.5 2413.99  11
  -9   5   9 27866.4 2174.64  12
  -9   5   9 27184.5 2328.51   4
  -9  -5   9 29161.8 1852.08   4
  -9   5   8 44765.2 2916.72   4
  -9  -5   8 45651.5 2357.54   4
  -9  -5   8 44962.1 2431.28   3
   9   5  -8 46675.7 3072.12  20
   9  -5  -8 48382.8 2760.03  17
  -9   5   8 47589.5 2756.69   8
   9  -5  -8 50491.4 3141.78  13
   9   5  -8 40685.2 3067.03  11
  -9   5   8 49705.6 2831.92  12
   9  -5  -8 49934.8 2956.32   9
  -9  -5   8 51390.3 2604.97  10
  -9  -5   7 6834.40 830.243   4
  -9   5   7 8297.28 1141.23   4
  -9  -5   7 6770.82 888.008   3
  -9  -5   7 6702.55 761.401  19
   9   5  -7 5706.13 1004.09  20
   9  -5  -7 6809.77 944.269  17
  -9   5   7 6420.98 985.494   8
   9  -5  -7 6328.15 1056.53  13
   9   5  -7 5640.56 1051.20  11
  -9   5   7 6958.57 975.205  12
  -9  -5   7 6118.81 833.821  10
   9  -5  -7 7200.90 1081.87   9
   9  -5  -6 4942.77 684.252   5
  -9   5   6 4283.50 832.735   4
  -9  -5   6 4916.98 689.499   4
  -9  -5   6 4447.97 708.240   3
   9   5  -6 5579.02 982.466  20
  -9  -5   6 4336.43 610.665  19
   9  -5  -6 5141.55 784.518  17
  -9   5   6 5407.75 894.812   8
   9  -5  -6 3740.28 794.419  13
   9   5  -6 3648.03 779.841  11
  -9   5   6 4284.95 723.042  12
   9  -5  -6 4127.66 763.624   9
  -9  -5   6 3535.40 621.685  10
   9  -5  -5 55525.9 2449.13   5
  -9  -5   5 52996.3 2434.18   4
  -9   5   5 52198.5 2822.89   4
  -9  -5   5 52745.6 2544.84   3
  -9  -5   5 47334.3 2252.82  19
   9  -5  -5 55308.1 2587.40  19
   9   5  -5 54220.7 3086.06  20
   9  -5  -5 55443.5 2643.30  17
  -9   5   5 55067.2 2612.91   7
  -9   5   5 51890.9 2979.09   8
   9  -5  -5 57881.9 3098.25  13
  -9   5   5 53477.7 2607.84  12
   9   5  -5 48458.2 2781.22  11
   9  -5  -5 55659.0 2858.66   9
  -9  -5   5 49410.1 2428.71  10
   9  -5  -4 98612.4 3510.48   5
  -9   5   4 99948.5 3911.20   4
  -9  -5   4 93426.8 3496.22   4
  -9  -5   4 88582.8 3585.88   3
  -9  -5   4 87884.2 3371.03  19
   9  -5  -4 96994.4 3866.05  19
   9   5  -4 105568. 4412.58  20
   9  -5  -4 101392. 3700.50  17
  -9   5   4 98318.1 3944.16   7
  -9   5   4 93152.8 4232.64   8
  -9  -5   4 91375.5 3396.38  14
  -9  -5   4 87909.1 2977.61  13
   9  -5  -4 104298. 4215.76  13
  -9   5   4 93273.2 3617.90  12
   9   5  -4 92309.5 3935.09  11
  -9  -5   4 89437.3 3513.78  10
  -9  -5   3 27550.0 1744.97   3
  -9   5   3 27924.2 1996.66   7
  -9   5   3 26642.4 2088.86   8
   9  -5  -3 28508.2 1943.30  19
   9   5  -3 31695.0 2102.38  21
  -9  -5   3 27352.1 1630.06  19
   9   5  -3 30231.0 2168.81  20
  -9  -5   3 25937.4 1504.24  14
   9  -5  -3 33408.1 2078.98  13
  -9  -5   3 31107.3 1757.29  10
  -9   5   3 28346.9 1664.43  12
   9   5  -3 29767.6 1903.37  11
  -9  -5   3 28244.0 1688.87   4
  -9   5   3 30757.2 1764.11   4
   9  -5  -3 26936.1 1613.65   5
  -9  -5   2 36124.5 1744.54   2
  -9  -5   2 35816.5 1982.85   3
  -9   5   2 31517.7 2229.68   7
  -9   5   2 34434.9 2366.98   8
   9   5  -2 31505.3 2012.66  21
  -9  -5   2 31445.4 1777.12  19
   9  -5  -2 36268.4 2249.39  19
   9   5  -2 33850.0 2286.81  20
  -9  -5   2 32683.0 1663.93  14
   9  -5  -2 38699.9 2181.92  13
  -9   5   2 35429.9 1827.47  12
   9   5  -2 34018.1 1944.13  11
   9   5  -2 35064.4 2229.73  12
  -9   5   2 33754.0 1704.06   4
  -9  -5   2 34477.5 1901.23   4
   9  -5  -2 38683.0 1928.95   5
  -9  -5   1 195060. 5875.46   2
  -9  -5   1 200524. 6103.90   3
   9   5  -1 192576. 6177.43  21
   9  -5  -1 200981. 6634.06  19
  -9  -5   1 193735. 5908.06  19
   9   5  -1 197337. 6537.14  20
  -9   5   1 178892. 6708.31   7
  -9   5   1 180830. 6684.88   8
  -9  -5   1 188850. 5546.03  14
   9  -5  -1 207156. 6331.43  13
  -9   5   1 186182. 5684.20  12
   9   5  -1 195732. 5967.14  11
   9   5  -1 190585. 6354.62  12
  -9   5   1 193999. 5373.00   4
  -9  -5   1 191089. 6043.39   4
   9  -5  -1 195892. 5935.71   5
  -9  -5   0 80447.0 3179.04   3
  -9  -5   0 76752.0 3172.28   2
  -9   5   0 78322.7 2758.82   1
   9  -5   0 81910.4 3680.66  19
  -9  -5   0 79371.6 3127.97  19
   9   5   0 75088.8 3451.59  20
  -9  -5   0 78856.1 2777.72  18
  -9   5   0 69383.4 3695.77   7
   9   5   0 77603.9 3020.83   6
  -9   5   0 72575.5 3625.88   8
  -9   5   0 75019.2 2502.90  14
  -9  -5   0 74110.8 2753.41  14
   9  -5   0 78095.9 3246.55  13
   9   5   0 74172.8 3002.79  11
  -9   5   0 75375.7 2853.69  12
   9   5   0 74242.2 3294.06  12
  -9  -5   0 69775.7 3120.76   4
   9  -5   0 79615.0 3137.18   5
  -9  -5  -1 470.874 299.121   3
  -9   5  -1 363.725 244.533   1
  -9  -5  -1 42.0741 227.855   2
   9  -5   1 852.013 429.482  19
   9   5   1 536.274 345.129  20
  -9   5  -1 100.603 195.289  21
  -9  -5  -1 101.038 238.561  19
  -9  -5  -1 764.642 277.562  18
  -9   5  -1 316.338 343.242   7
  -9   5  -1 116.635 295.126   8
   9   5   1 548.508 287.942   6
   9  -5   1 13.7366 245.944  13
  -9  -5  -1 167.862 144.591  14
  -9   5  -1 749.108 285.795  12
   9   5   1 454.597 303.078  12
   9   5   1 161.364 267.315  11
  -9  -5  -1 491.293 317.248   4
   9  -5   1 290.601 285.777   5
  -9   5  -2 39857.0 2108.13   1
  -9  -5  -2 34951.7 2144.54   2
  -9  -5  -2 31095.1 1747.61   3
  -9   5  -2 29975.3 1862.26  21
   9  -5   2 34937.2 2238.95  19
   9   5   2 29161.3 2049.50  20
  -9  -5  -2 34279.1 1958.08  19
  -9  -5  -2 32101.0 1889.47  18
  -9   5  -2 31367.4 2380.52   7
   9   5   2 32135.9 1838.42   6
  -9   5  -2 30956.6 2069.50   8
   9  -5   2 30771.3 1815.33  13
   9   5   2 32447.3 1811.74  11
   9   5   2 32923.8 1976.44  12
  -9   5  -2 32874.7 1719.12  12
  -9  -5  -2 30687.3 2030.67   4
   9  -5   2 30822.1 1900.75   5
  -9  -5  -3 80945.5 3677.91   2
  -9  -5  -3 78270.0 3060.78   3
  -9   5  -3 81376.2 3460.52  21
   9  -5   3 77679.9 3638.03  19
   9   5   3 84461.2 3777.16  20
  -9  -5  -3 85273.8 3452.23  19
  -9  -5  -3 80594.4 3467.51  18
   9   5   3 80699.0 3323.03   6
  -9   5  -3 76534.9 3972.64   7
  -9   5  -3 80701.3 3454.37   8
   9  -5   3 80306.9 3213.23  13
   9  -5   3 75638.5 3169.91  10
   9   5   3 81129.7 3368.69  12
   9  -5   3 82124.9 3480.79   5
   9  -5   4 66225.8 3095.81   5
  -9  -5  -4 58926.5 3168.35   2
  -9  -5  -4 57136.1 2454.63   3
   9   5   4 62472.9 3261.01  20
  -9  -5  -4 63493.1 2965.52  19
   9  -5   4 65994.2 3207.34  19
   9  -5   4 65771.7 3098.66  16
  -9  -5  -4 62542.1 3108.91  18
  -9   5  -4 58204.1 3375.10   7
  -9   5  -4 61437.2 2811.38   8
   9   5   4 61094.9 2913.03   6
   9   5   4 65072.8 2896.37  12
   9  -5   4 60769.0 2753.97  10
   9  -5   5 386.729 401.143   5
  -9  -5  -5 646.536 471.273   2
  -9   5  -5 96.8540 255.584   2
   9   5   5 707.114 478.097  20
  -9  -5  -5 153.666 353.776  18
  -9   5  -5 26.4963 361.291   7
   9   5   5-23.3634 289.847   6
   9  -5   5 358.814 345.730  16
   9   5   5 763.697 376.742  12
   9  -5   5 1101.93 426.279  10
   9  -5   6 52951.1 2910.60   5
   9   5   6 51318.9 3043.81  20
  -9  -5  -6 52448.2 2723.48  19
  -9  -5  -6 50282.0 2730.11  17
  -9  -5  -6 51499.3 2994.35  18
   9  -5   6 48143.4 2804.42  16
  -9   5  -6 49487.2 2879.49  18
  -9  -5  -6 50011.3 3021.86   2
  -9   5  -6 46615.2 2584.98   2
  -9   5  -6 49825.9 3053.57   7
   9   5   6 52969.6 2859.53   6
   9   5   6 50042.3 2582.03  12
   9  -5   6 49687.9 2495.69  10
   9  -5   7 54008.5 3027.59   5
  -9  -5  -7 50520.1 3154.02   2
  -9   5  -7 49064.6 2688.09   2
  -9  -5  -7 52024.6 2754.57  19
  -9  -5  -7 45204.6 2992.29  18
   9  -5   7 57298.1 3158.35  16
  -9   5  -7 56467.3 3223.80  18
  -9  -5  -7 53450.0 2939.54  17
  -9   5  -7 45785.4 2969.57   7
   9   5   7 47514.0 2870.86   6
   9   5   7 48599.4 2636.34  12
   9  -5   7 49415.3 2553.63  10
  -9  -5  -8 7659.27 1242.21   2
   9  -5   8 9019.03 1077.97  10
  -9   5  -8 9245.09 1302.20  18
  -9  -5  -8 8936.08 1224.19  17
  -9  -5  -8 8380.64 1056.62  19
  -9  -5  -8 7994.60 1236.75  18
   9   5   8 9155.39 1198.79   6
  -9   5  -8 8203.82 1213.13   7
  -9   5  -8 8037.58 1520.89  15
   9  -5   8 7206.86 1148.25  16
   9   5   8 7106.35 1158.89  16
   9   5   8 7286.81 1004.82  12
   9  -5   8 7373.51 1159.49   5
  -9  -5  -9 2082.82 776.138   2
  -9   5  -9 486.432 628.907   9
   9   5   9 1287.18 521.205  10
   9  -5   9 1111.16 469.473  10
  -9  -5  -9 1339.42 587.003  17
  -9  -5  -9 910.248 516.394  18
   9   5   9 1585.66 699.657   6
   9  -5   9 2223.63 725.127  16
   9   5   9 722.265 422.586  16
  -9   5  -9 513.727 624.615  15
  -9  -5  -9 1020.75 436.749  13
   9   5   9 962.645 450.806  12
   9  -5   9 1561.93 630.004   5
   9   5  10 10855.9 1272.12  10
  -9   5 -10 13370.6 2036.92   9
   9  -5  10 9262.58 1208.77  10
  -9   5 -10 10917.1 1706.20  17
  -9  -5 -10 10063.4 1495.35  18
   9   5  10 11739.5 1513.35   6
   9  -5  10 8997.22 1351.67  16
   9   5  10 11781.5 1547.18  16
  -9   5 -10 11302.0 1934.06  15
  -9  -5 -10 11121.8 1445.33  13
   9   5  10 9586.17 1228.36  12
   9  -5  10 9542.36 1329.66   5
  -9   5 -11 14823.8 2258.54   9
  -9   5 -11 15550.4 2011.76  17
  -9  -5 -11 13160.1 1813.63  18
   9   5  11 14919.4 1752.52  16
   9  -5  11 13482.6 1656.58  16
  -9   5 -11 11992.7 2104.79  15
  -9  -5 -11 10679.8 1419.82  13
   9   5  11 11211.5 1493.99   6
   9  -5  11 12959.4 1600.57   5
   9  -7 -11 6986.58 1366.03   9
  -9   7  10 153.259 464.308   4
   9   7 -10 199.226 543.176  20
  -9  -7  10 739.833 469.915   3
   9  -7 -10 513.742 599.124  13
   9   7 -10 325.499 636.963  11
  -9   7  10 48.9255 433.210  12
   9  -7 -10-175.396 545.416   9
  -9  -7  10-667.498 502.552  10
  -9   7   9 11370.7 1572.59   4
   9   7  -9 11414.1 1667.48  20
  -9   7   9 13335.0 1663.00   8
  -9  -7   9 10276.5 1219.21   3
   9  -7  -9 11055.6 1607.38  13
   9   7  -9 9030.00 1612.92  11
  -9   7   9 11284.0 1523.14  12
   9  -7  -9 13226.6 1617.31   9
  -9  -7   9 11485.4 1385.97  10
   9   7  -8 21139.1 2214.63  20
  -9   7   8 24234.9 2236.55   8
  -9  -7   8 21995.2 1780.52   3
   9  -7  -8 29061.9 2517.91  13
  -9   7   8 25868.8 2243.70  12
   9   7  -8 25655.8 2456.37  11
   9  -7  -8 25757.4 2218.25   9
  -9  -7   8 22098.7 1912.42  10
  -9  -7   7 3591.82 681.445  19
   9   7  -7 5424.06 1139.31  20
  -9   7   7 2868.71 776.045   8
  -9  -7   7 2778.52 658.423   3
   9  -7  -7 3668.17 889.328  13
   9   7  -7 2482.38 772.778  11
  -9   7   7 4341.04 901.554  12
  -9  -7   7 3514.21 775.194  10
  -9  -7   6 2693.64 582.084   4
   9   7  -6 2788.03 805.313  20
  -9  -7   6 3746.92 678.728  19
   9   7  -6 2670.14 798.539  21
  -9   7   6 4566.04 1014.41   8
  -9  -7   6 2681.00 648.902   3
   9  -7  -6 3365.06 828.798  13
   9   7  -6 3221.01 773.181  11
  -9   7   6 2845.19 754.565  12
  -9  -7   6 2849.11 660.818  10
  -9  -7   5 16910.5 1521.52   3
  -9   7   5 20459.0 1820.41   7
  -9   7   5 17288.7 1910.30   8
  -9  -7   5 16056.2 1366.88  19
   9   7  -5 17246.4 1830.17  21
   9   7  -5 17435.4 1894.26  20
   9  -7  -5 19143.7 1853.21  13
  -9   7   5 16596.5 1584.68  12
  -9  -7   5 18503.1 1599.62  10
   9   7  -5 18036.9 1718.29  11
  -9  -7   5 17491.0 1425.59   4
  -9  -7   4 43025.5 2509.91   3
  -9   7   4 53455.3 3194.03   7
  -9   7   4 49883.6 3349.82   8
  -9  -7   4 39820.4 2279.79  19
   9  -7  -4 46709.7 2836.39  19
   9   7  -4 48319.8 3062.37  21
   9   7  -4 46755.8 3081.24  20
   9  -7  -4 48819.2 2910.23  13
  -9   7   4 42064.5 2568.43  12
   9   7  -4 47762.0 3071.45  12
   9   7  -4 46966.2 2725.03  11
   9  -7  -4 50149.9 2411.56   5
  -9  -7   4 41296.3 2315.41   4
  -9  -7   3 10174.6 1142.41   3
  -9   7   3 9571.72 1388.50   7
  -9   7   3 12290.0 1641.94   8
   9  -7  -3 10500.0 1337.93  19
  -9  -7   3 9140.46 1016.26  19
   9   7  -3 9785.00 1330.67  20
   9   7  -3 9204.94 1249.19  21
   9  -7  -3 10906.5 1298.25  13
  -9  -7   3 8541.44 837.672  13
  -9   7   3 8821.22 1095.46  12
   9   7  -3 12172.5 1488.18  12
   9   7  -3 9785.14 1134.28  11
  -9  -7   3 9415.44 1037.61   4
   9  -7  -3 10513.5 1054.25   5
  -9  -7   2 14982.9 1398.30   3
  -9   7   2 14896.0 1782.74   8
  -9  -7   2 16890.5 1373.79  19
   9   7  -2 15628.9 1630.77  21
   9  -7  -2 13291.5 1496.66  19
   9   7  -2 14965.6 1655.83  20
  -9  -7   2 14837.0 1168.04  13
   9  -7  -2 16231.9 1530.86  13
  -9   7   2 14332.9 1364.99  12
   9   7  -2 17438.2 1465.05  11
   9   7  -2 15173.6 1633.38  12
   9  -7  -2 17909.1 1384.64   5
  -9  -7   2 15177.5 1331.46   4
  -9  -7   1 70641.6 3307.83   3
  -9   7   1 71969.7 4110.33   8
  -9  -7   1 72884.8 3218.74  19
   9  -7  -1 71173.7 3718.94  19
   9   7  -1 78976.6 3846.75  20
  -9  -7   1 67501.2 2987.34  13
   9  -7  -1 73537.7 3458.49  13
  -9   7   1 73622.8 3345.35  12
   9   7  -1 74095.1 3169.17  11
   9   7  -1 74373.8 3743.97  12
   9  -7  -1 78203.1 3226.52   5
  -9  -7   1 67791.6 3230.44   4
  -9  -7   0 37996.7 2277.23   3
  -9   7   0 44232.5 3073.85   8
   9  -7   0 40155.8 2631.24  19
   9   7   0 42468.2 2729.31  20
  -9  -7   0 45974.6 2435.79  19
   9  -7   0 44795.9 2504.46  13
  -9  -7   0 42291.8 2301.42  13
  -9   7   0 46955.6 2514.16  12
   9   7   0 43623.5 2727.72  12
  -9  -7   0 40742.4 2409.71   4
   9  -7   0 47874.4 2427.84   5
  -9  -7  -1 272.296 284.781   3
   9  -7   1 401.797 423.842  19
   9   7   1 234.568 381.485  20
  -9  -7  -1 750.459 433.074  19
  -9   7  -1 558.810 423.763   8
   9  -7   1 363.214 378.171  13
  -9   7  -1 873.693 385.114  12
   9   7   1 753.837 510.987  12
  -9  -7  -1 570.048 376.780  13
  -9  -7  -1-53.6391 347.340   4
   9  -7   1 53.8187 304.233   5
  -9  -7  -2 12733.4 1203.48   3
  -9   7  -2 14805.2 1486.54  21
  -9  -7  -2 13237.0 1303.37  19
   9  -7   2 14804.8 1544.70  19
   9   7   2 12841.6 1498.53  20
  -9  -7  -2 13097.4 1158.48  18
  -9   7  -2 15766.8 1871.62   7
  -9   7  -2 14544.8 1595.99   8
   9  -7   2 14365.1 1317.90  13
  -9  -7  -2 12986.1 1338.81  13
   9   7   2 14365.3 1518.73  12
   9  -7   2 14173.4 1342.62   5
  -9  -7  -3 33025.1 1982.07   3
  -9  -7  -3 39001.5 2372.71  19
   9  -7   3 38329.8 2534.99  19
  -9   7  -3 37597.9 2499.34  21
   9   7   3 41231.1 2745.62  20
  -9  -7  -3 37870.8 2238.63  18
  -9   7  -3 40309.9 3047.69   7
  -9   7  -3 40881.7 2637.24   8
   9   7   3 39646.5 2146.96   6
  -9  -7  -3 36398.4 2380.32  13
   9  -7   3 33399.0 2070.04  13
   9   7   3 40005.0 2584.91  12
   9  -7   3 42253.3 2427.79   5
  -9  -7  -4 33954.6 2241.74  19
   9  -7   4 30490.8 2258.83  19
   9   7   4 34370.7 2560.47  20
  -9   7  -4 35135.2 2498.30  21
  -9  -7  -4 31992.8 2173.64  18
  -9   7  -4 30664.2 2610.92   7
  -9   7  -4 34752.6 2305.95   8
   9   7   4 33996.8 2047.86   6
  -9  -7  -4 32466.7 2269.14  13
   9   7   4 31335.1 2300.07  12
   9  -7   4 31191.8 2157.16   5
  -9   7  -5 462.593 295.449   2
   9   7   5-1.07914 460.325  20
  -9   7  -5 254.451 378.927  21
  -9  -7  -5 605.333 419.004  19
   9  -7   5 579.253 483.606  19
  -9  -7  -5 133.136 366.372  18
   9   7   5-547.056 363.809   6
  -9   7  -5 433.351 535.416   7
   9   7   5 448.211 427.060  12
  -9  -7  -5-21.5559 392.863  13
   9  -7   5 74.7692 348.349   5
  -9   7  -6 22146.9 2059.66  21
  -9  -7  -6 19576.5 1683.68  19
   9   7   6 23854.4 2259.81  20
  -9  -7  -6 21022.9 1933.47  18
  -9   7  -6 22058.1 2204.10   7
   9   7   6 19386.7 1663.72   6
  -9  -7  -6 19010.7 1812.58  13
   9   7   6 18743.6 1783.01  12
   9  -7   6 20532.5 1721.64  10
   9  -7   6 21184.8 1875.43   5
  -9  -7  -7 22752.6 2144.17  18
  -9   7  -7 27261.0 2459.53   7
   9  -7   7 27312.5 2169.38   5
   9   7   7 23214.2 1894.65   6
  -9  -7  -7 23648.5 2032.16  13
   9   7   7 25267.9 2098.65  12
   9  -7   7 23651.0 1912.35  10
  -9  -7  -7 23952.5 1874.70  19
  -9   7  -8 6177.25 1357.43   9
   9  -7   8 3897.52 826.102  10
  -9  -7  -8 5113.94 1022.76  18
   9   7   8 5157.31 907.455   6
  -9   7  -8 4895.48 1031.01   7
  -9   7  -8 6364.55 1429.51  15
  -9  -7  -8 3940.86 908.960  13
   9   7   8 3978.75 905.972  12
   9  -7   8 4428.02 933.441   5
  -9   7  -9 1454.65 922.875   9
   9  -7   9 180.264 357.954  10
  -9  -7  -9 678.821 517.196  18
   9   7   9-199.133 487.931   6
   9   7   9 1442.16 693.160  16
  -9   7  -9 1204.99 726.038  15
  -9  -7  -9 2127.20 735.102  13
   9   7   9 990.788 616.011  12
   9  -7   9 636.015 516.725   5
   9   7  10 4796.13 1011.00  12
  -9   9   8 8837.04 1384.45   4
   9   9  -8 9697.89 1634.25  20
   9   9  -8 9601.00 1686.92  21
  -9   9   8 9979.59 1648.21   8
  -9  -9   8 7518.02 1117.74   3
   9  -9  -8 8442.15 1477.34  13
  -9   9   8 10401.6 1572.63  12
  -9  -9   8 9501.49 1358.67  10
  -9   9   7 2171.98 871.464   8
   9   9  -7 1718.42 764.728  20
   9   9  -7 2351.35 968.504  21
  -9  -9   7 1718.45 539.309  19
   9  -9  -7 3341.71 957.134  13
   9   9  -7 1606.13 797.123  12
  -9   9   7 2274.78 770.942  12
  -9  -9   7 551.619 414.004   3
  -9   9   6 2046.67 767.455   8
  -9  -9   6 1166.44 515.668  19
   9   9  -6 1414.44 691.559  20
   9   9  -6 148.921 572.105  21
   9  -9  -6 1441.99 702.524  13
   9   9  -6 542.204 502.209  12
  -9   9   6 1020.56 592.534  12
  -9  -9   6 1408.76 555.475   3
  -9   9   5 12114.8 1846.94   8
  -9  -9   5 6888.93 1008.10  19
   9   9  -5 10403.2 1551.19  20
   9   9  -5 10130.7 1583.59  21
   9  -9  -5 8903.45 1399.73  13
   9   9  -5 8275.78 1485.55  12
  -9   9   5 8899.80 1338.30  12
  -9  -9   5 9256.10 1236.08   3
  -9   9   4 17288.0 2021.70   7
  -9   9   4 16261.3 2171.77   8
  -9  -9   4 12166.3 1318.85  19
   9  -9  -4 13010.1 1576.98  19
   9   9  -4 13733.7 1752.89  20
   9   9  -4 16023.3 1969.37  21
   9  -9  -4 16045.2 1769.25  13
   9   9  -4 17193.1 1982.05  12
  -9   9   4 13536.3 1588.54  12
  -9  -9   4 13618.5 1479.53   3
  -9  -9   3 4108.48 873.929   3
  -9   9   3 6374.42 1404.71   7
  -9   9   3 3727.78 1139.42   8
   9  -9  -3 2893.76 807.221  19
   9   9  -3 4559.53 1040.78  20
   9   9  -3 3506.50 946.994  21
  -9  -9   3 2998.47 670.789  19
   9  -9  -3 4391.78 981.863  13
  -9   9   3 2887.88 780.415  12
   9   9  -3 3413.73 921.076  12
  -9  -9   3 2474.19 596.127   4
  -9  -9   2 6250.67 1005.70   3
  -9   9   2 6309.73 1329.72   8
   9  -9  -2 5016.53 1011.94  19
   9   9  -2 5455.61 1117.16  20
  -9  -9   2 4936.63 868.168  19
   9  -9  -2 5122.10 955.433  13
  -9   9   2 5244.85 982.575  12
   9   9  -2 6662.01 1231.64  12
  -9  -9   2 5773.41 890.899   4
  -9   9   1 33291.7 2977.87   8
  -9  -9   1 26206.2 1947.82  19
   9  -9  -1 28821.8 2379.73  19
   9   9  -1 29094.1 2449.09  20
  -9  -9   1 27073.5 1835.65  13
   9  -9  -1 28457.4 2157.62  13
   9   9  -1 29047.2 2522.95  12
  -9  -9   1 28382.3 2091.37   3
  -9   9   0 16523.5 2049.64   8
  -9  -9   0 13069.0 1386.91  19
   9  -9   0 13608.2 1624.38  19
   9   9   0 16955.3 1804.01  20
  -9  -9   0 13107.0 1297.18  13
   9  -9   0 13971.0 1466.40  13
   9   9   0 15961.2 1872.78  12
  -9  -9   0 13646.4 1424.93   3
  -9   9  -1 716.377 754.951   8
   9  -9   1-373.232 429.405  19
   9   9   1-442.845 544.355  20
  -9  -9  -1 20.1637 343.133  19
  -9  -9  -1 13.8557 322.137  13
   9  -9   1 96.6007 373.623  13
   9   9   1 1185.27 680.149  12
  -9  -9  -1 505.983 361.197   3
  -9  -9  -2 5610.55 848.240   3
   9  -9   2 5921.63 1070.40  19
   9   9   2 6143.64 1158.66  20
  -9  -9  -2 5744.97 948.035  19
   9  -9   2 6116.90 919.761  13
  -9  -9  -2 5590.37 940.282  13
  -9   9  -2 5932.15 1348.60   7
  -9   9  -2 7360.00 1337.07   8
   9   9   2 7906.55 1283.20  12
   9  -9   2 5043.71 853.900   5
  -9  -9  -3 14569.1 1516.96  19
  -9   9  -3 17255.8 1869.11  21
   9  -9   3 14267.3 1618.19  19
   9   9   3 16356.2 1865.21  20
  -9  -9  -3 15167.9 1570.20  13
   9  -9   3 15629.5 1490.11  13
  -9   9  -3 19679.2 2303.38   7
  -9   9  -3 16070.1 1836.34   8
   9   9   3 16220.0 1855.06  12
   9  -9   3 17144.4 1600.28   5
   9  -9   4 9077.53 1343.91  19
   9   9   4 9853.71 1481.71  20
  -9  -9  -4 9535.29 1250.61  19
  -9   9  -4 9697.01 1449.21  21
  -9  -9  -4 7530.78 1186.07  13
  -9   9  -4 10516.1 1721.71   7
   9   9   4 10829.4 1541.64  12
   9  -9   4 10332.4 1257.75   5
   9   9   5 458.686 499.764  20
  -9  -9  -5 29.0868 343.640  19
  -9   9  -5 829.756 626.877  21
   9  -9   5 371.544 442.155  19
  -9   9  -5-26.0194 602.728   7
  -9  -9  -5-417.010 487.200  13
   9   9   5-623.921 681.658  12
   9  -9   5 901.775 547.839   5
   9   9   6 10083.0 1574.11  20
  -9  -9  -6 7266.14 1080.63  19
   9  -9   6 7093.02 1129.77  19
  -9  -9  -6 6847.03 1117.05  18
  -9   9  -6 10916.5 1774.60   7
  -9  -9  -6 6215.74 1137.20  13
   9   9   6 7821.24 1373.57  12
   9  -9   6 9119.22 1236.85   5
   9   9   7 9128.51 1427.71  12
  -9  -9  -7 7105.40 1260.81  18
   9  -9   7 9884.67 1314.40   5
  10   0 -14 2274.72 897.729  11
 -10   0  14 2086.44 655.156   4
  10   0 -13 1730.43 868.206  17
  10   0 -13 1671.69 773.486  11
 -10   0  13 2151.37 640.082   4
 -10   0  13 1542.44 550.291  10
  10   0 -13 653.348 640.756   9
  10   0 -12 16475.5 2067.02  17
  10   0 -12 18504.4 2119.26  11
 -10   0  12 19976.3 1793.25   4
 -10   0  12 20100.8 1657.95  10
  10   0 -12 15391.8 1970.26   9
  10   0 -11 27367.7 2559.74  17
  10   0 -11 27267.2 2525.64  11
 -10   0  11 34733.3 2350.15   4
  10   0 -11 30858.3 2676.61   9
 -10   0  11 38263.7 2212.14  10
  10   0 -10 4749.96 1026.26  17
  10   0 -10 3813.01 887.311  11
 -10   0  10 3532.83 749.804   4
 -10   0  10 4763.68 767.462  10
  10   0 -10 4635.68 988.133   9
  10   0  -9 43382.3 2866.21  17
  10   0  -9 50668.0 3055.75   9
 -10   0   9 51635.2 2405.52  10
 -10   0   9 52613.9 2240.31   8
  10   0  -9 48181.1 2994.01  11
 -10   0   9 50349.0 2737.52   4
 -10   0   8 84880.8 3021.62   3
  10   0  -8 78582.2 3826.61  17
  10   0  -8 87355.7 3961.91   9
 -10   0   8 89783.5 3300.35  10
 -10   0   8 89676.9 3177.03   8
  10   0  -8 82608.4 3932.85  11
 -10   0   8 90299.3 3735.04   4
  10   0  -7 40489.2 1873.02   1
  10   0  -7 46165.9 2474.49   9
 -10   0   7 44598.2 1982.70  10
 -10   0   7 42566.6 1966.04   8
  10   0  -7 42039.4 2439.11  17
  10   0  -7 38372.2 2353.64  11
 -10   0   7 43066.4 2293.37   4
 -10   0   6 1382.45 303.665  10
  10   0  -6 1684.78 455.322   9
  10   0  -6 750.313 370.178  17
 -10   0   6 1820.62 374.870   8
  10   0  -6 1760.91 450.777  11
 -10   0   6 1539.02 439.133   4
  10   0  -5 70749.9 2875.16   9
 -10   0   5 66085.1 2339.99  10
  10   0  -5 73642.8 3088.54  17
 -10   0   5 66845.1 2613.94   8
  10   0  -5 68496.6 3017.29  14
 -10   0   5 69074.2 2852.49  14
  10   0  -5 65231.5 2863.22  11
 -10   0   5 69229.1 2766.27   4
  10   0  -4 175756. 5354.94   9
 -10   0   4 171052. 4674.23  10
  10   0  -4 178609. 5553.65  17
 -10   0   4 174171. 5186.90   8
 -10   0   4 186316. 5477.75  14
  10   0  -4 177267. 5488.48  11
 -10   0   4 177628. 5277.04   4
 -10   0   3 157149. 4697.73   4
 -10   0   3 156198. 4510.40   2
  10   0  -3 155536. 4775.41  20
  10   0  -3 158513. 4938.36  17
 -10   0   3 153656. 4687.98   8
 -10   0   3 163000. 4898.77  14
  10   0  -3 153579. 4860.54  11
  10   0  -3 157100. 4764.44   9
 -10   0   3 151958. 3994.61  10
 -10   0   2 15129.0 1007.85   4
 -10   0   2 14926.1 973.212   2
  10   0  -2 16219.5 1029.49  20
  10   0  -2 15553.5 666.672  16
 -10   0   2 14750.9 1007.59   8
 -10   0   2 15766.3 1111.83  14
  10   0  -2 15481.4 1081.63  11
 -10   0   2 15350.9 577.628  10
 -10   0   1 338545. 8901.08   2
  10   0  -1 342309. 8791.28  20
  10   0  -1 339573. 8305.43  16
 -10   0   1 355036. 9177.23  14
  10   0  -1 335270. 8826.94   5
 -10   0   1 346450. 8855.83   4
  10   0  -1 347215. 9015.77  11
 -10   0   1 335039. 8888.51   8
 -10   0   0 190889. 5481.65   2
 -10   0   0 184176. 5330.44   8
  10   0   0 197442. 5235.63  20
  10   0   0 188415. 5039.17  16
  10   0   0 189144. 5471.79  11
 -10   0   0 190544. 5334.88   4
  10   0   0 181816. 5315.55   5
  10   0   1 50904.8 2036.14   1
 -10   0  -1 53568.6 2263.86   2
  10   0   1 55466.4 2015.62  20
 -10   0  -1 54507.4 2103.42   8
  10   0   1 54167.9 2028.07  16
  10   0   1 54097.2 2252.46  11
 -10   0  -1 54273.0 2157.96   4
  10   0   1 53326.4 2163.87   5
  10   0   2 24726.6 1350.84   1
 -10   0  -2 27667.7 1568.04   2
  10   0   2 27868.4 1343.62  20
 -10   0  -2 28442.0 1595.92  18
  10   0   2 28499.8 1671.15   6
  10   0   2 26964.1 1387.90  16
 -10   0  -2 28522.9 1504.37   4
  10   0   2 25819.8 1464.26   5
  10   0   2 27027.1 840.411  10
 -10   0  -2 26450.4 1330.74   8
 -10   0  -3 237586. 6856.97   2
  10   0   3 224653. 6494.36   1
  10   0   3 231085. 6387.01  20
 -10   0  -3 236986. 6928.88  18
  10   0   3 235593. 6980.22   6
  10   0   3 232703. 6595.49  16
 -10   0  -3 234338. 6274.17   8
  10   0   3 231159. 5733.10  10
 -10   0  -3 236139. 6697.02   4
  10   0   3 236287. 6744.56   5
 -10   0  -4 153561. 4459.75   8
  10   0   4 155407. 4193.04  10
 -10   0  -4 161018. 5356.33  18
  10   0   4 159208. 5314.86   6
  10   0   4 155958. 4934.32  16
 -10   0  -4 159177. 5210.25   2
  10   0   4 151193. 4853.03   1
  10   0   4 156550. 4987.36   5
  10   0   5 8433.74 652.769  10
 -10   0  -5 8564.46 1056.94  18
  10   0   5 9558.92 1034.08   6
  10   0   5 8938.25 905.623  16
 -10   0  -5 9262.42 1043.62  15
 -10   0  -5 10826.7 1090.81   2
  10   0   5 9885.88 964.778   5
  10   0   6 68583.7 2523.74  10
 -10   0  -6 70795.1 3506.99  18
  10   0   6 76016.6 3446.25   6
  10   0   6 68247.5 2960.25  16
 -10   0  -6 72114.1 3432.14  15
 -10   0  -6 67277.4 3227.56   2
  10   0   6 72287.6 3011.28   5
 -10   0  -7 97308.6 4439.26  18
  10   0   7 92367.0 3652.42   5
  10   0   7 98920.5 4228.89   6
  10   0   7 97864.5 3799.63  16
 -10   0  -7 91343.6 4219.52  15
 -10   0  -7 87023.1 4010.66   2
 -10   0  -7 94122.4 4447.37   9
  10   0   7 89725.0 3230.11  10
 -10   0  -8 34454.5 2603.96  18
  10   0   8 32354.6 2000.69   5
  10   0   8 40307.7 2595.95   6
  10   0   8 35892.9 2164.42  16
 -10   0  -8 35017.1 2593.68  15
 -10   0  -8 33961.6 2410.38   2
 -10   0  -8 35063.6 2647.24   9
  10   0   8 32836.8 1783.46  10
  10   0   9 2194.49 502.835  10
 -10   0  -9 2486.74 887.184   9
 -10   0  -9 2069.80 760.932  18
  10   0   9 2142.85 681.353   6
  10   0   9 2138.06 579.791  16
 -10   0  -9 2974.82 910.045  15
 -10   0  -9 2027.03 648.720   2
  10   0   9 2049.43 525.013   5
 -10   0 -10 14900.4 1889.04  18
  10   0  10 18418.7 1869.91   6
  10   0  10 17902.6 1638.33  16
 -10   0 -10 18378.6 2028.34  15
 -10   0 -10 18071.2 2081.47   9
 -10   0 -10 15360.5 1706.33   2
  10   0  11 35376.7 2697.55   6
 -10   0 -11 28657.1 2943.96  17
  10   0  11 33043.9 2380.27  16
 -10   0 -11 29065.8 2748.04  18
 -10   0 -11 28600.3 2747.08   9
  10   0  12 5606.25 1052.92  16
  10   0  12 8667.89 1334.45   6
 -10   0 -12 6157.93 1290.65  18
 -10   0 -12 4749.34 1305.42  17
 -10   0 -12 7191.97 1471.14   9
  10  -2 -13 930.017 813.046  17
  10   2 -13 1392.28 861.751  17
  10   2 -13 562.207 610.288  11
 -10  -2  13 1230.98 513.685   4
 -10   2  13 973.191 588.614   4
 -10  -2  13 1908.58 628.946  10
 -10   2  13 637.839 435.864  10
  10  -2 -13 446.216 634.899   9
  10   2 -13 1191.31 768.463   9
  10  -2 -12 16488.4 2040.27  17
  10   2 -12 13763.2 1900.21  17
  10   2 -12 14260.0 2062.61  11
 -10   2  12 18007.2 1850.62   4
 -10  -2  12 17523.1 1599.12   4
 -10  -2  12 18509.8 1632.39  10
  10  -2 -12 15854.3 2107.59   9
  10   2 -12 12354.4 1727.55   9
 -10   2  12 19398.0 1654.21  10
  10  -2 -11 26690.5 2510.11  17
  10   2 -11 23588.5 2393.22  17
  10   2 -11 30837.9 2884.64  11
 -10   2  11 32040.7 2406.13   4
 -10  -2  11 33282.4 2172.46   4
  10  -2 -11 31592.2 2798.97   9
  10   2 -11 26024.7 2388.47   9
 -10  -2  11 32136.4 2073.94  10
 -10   2  11 35524.3 2176.23  10
  10  -2 -10 2458.86 842.626  17
  10   2 -10 3053.74 879.526  17
 -10  -2  10 2639.54 576.213  10
 -10   2  10 2212.50 542.913  10
  10  -2 -10 2361.13 803.075   9
  10   2 -10 2677.76 749.778   9
  10  -2 -10 2900.32 701.742  11
  10   2 -10 1657.48 736.334  11
 -10  -2  10 2856.74 625.151   4
 -10   2  10 3278.52 784.970   4
 -10  -2   9 35202.1 1887.50   3
  10  -2  -9 34586.1 2559.28  17
  10   2  -9 32577.4 2402.00  17
  10  -2  -9 38416.7 2635.64   9
  10   2  -9 33559.6 2345.71   9
 -10  -2   9 34572.6 1993.75  10
 -10   2   9 36894.6 2031.68  10
 -10   2   9 34876.6 1883.95   8
  10   2  -9 30714.4 2486.49  11
  10  -2  -9 33016.8 2178.90  11
 -10   2   9 37937.8 2479.73   4
 -10  -2   9 35752.7 2133.62   4
 -10  -2   8 91748.6 3370.24   3
  10  -2  -8 90857.0 4047.23   9
  10   2  -8 82429.1 3699.44   9
 -10  -2   8 89814.1 3411.11  10
 -10   2   8 93353.8 3456.79  10
  10  -2  -8 90319.0 4143.45  17
  10   2  -8 86141.6 3936.27  17
 -10   2   8 87154.9 3347.06   8
  10   2  -8 77512.0 4014.27  11
  10  -2  -8 83291.5 3559.54  11
 -10   2   8 91399.8 4018.50   4
 -10  -2   8 93480.7 3626.62   4
 -10  -2   7 30638.8 1682.74   3
  10  -2  -7 30880.2 2075.09   9
 -10  -2   7 30584.8 1641.18   8
  10   2  -7 29896.5 1864.75   9
 -10  -2   7 32525.0 1690.55  10
 -10   2   7 30016.4 1655.22  10
  10  -2  -7 31219.0 2092.96  17
  10   2  -7 28963.7 1953.73  17
 -10   2   7 31429.1 1753.14   8
  10  -2  -7 31704.5 1806.22  13
  10   2  -7 27197.3 2071.27  11
  10  -2  -7 29736.9 1792.17  11
 -10   2   7 28963.7 2032.64   4
 -10  -2   7 34122.4 1880.62   4
 -10   2   6 654.425 358.953   4
 -10  -2   6 2836.97 515.760   4
 -10  -2   6 1393.19 383.235   3
 -10  -2   6 951.068 247.863  19
  10  -2  -6 1703.19 488.488  17
  10   2  -6 1266.86 405.402  17
 -10  -2   6 1016.97 292.876   8
 -10   2   6 1582.57 425.314   8
  10  -2  -6 1558.11 409.471  13
  10  -2  -6 825.060 332.648  14
 -10   2   6 1351.32 375.554  14
  10  -2  -6 1264.67 410.858  11
  10   2  -6 1602.76 570.230  11
 -10  -2   6 974.321 263.565  10
 -10   2   6 1211.16 345.247  10
  10  -2  -6 630.344 322.261   9
  10   2  -6 1597.37 411.321   9
 -10   2   5 46185.5 2338.29   4
 -10  -2   5 47016.6 2174.18   4
 -10  -2   5 45383.5 2029.34   3
 -10  -2   5 46080.5 1832.51  19
  10  -2  -5 49141.8 2450.56  17
  10   2  -5 44698.6 2274.59  17
 -10   2   5 43775.9 2180.58   8
  10  -2  -5 49314.0 2342.18  14
 -10  -2   5 45759.7 2260.84  14
 -10   2   5 48526.8 2224.92  14
  10  -2  -5 47710.0 2225.48  13
  10  -2  -5 49186.9 2155.22  11
  10   2  -5 44816.4 2449.32  11
  10  -2  -5 50977.6 2470.91   9
  10   2  -5 49387.9 2157.11   9
 -10  -2   5 45889.9 1878.98  10
 -10  -2   5 45422.3 2083.18   8
 -10   2   5 46014.3 1923.18  10
 -10   2   4 186740. 5829.03   4
 -10  -2   4 190431. 5735.14   4
 -10  -2   4 195126. 5195.57   2
 -10  -2   4 187152. 5586.63   3
  10   2  -4 194535. 6275.63  20
  10   2  -4 198117. 5997.56  17
  10  -2  -4 198971. 6100.06  17
 -10   2   4 193858. 5923.31   8
 -10  -2   4 201441. 5935.30  14
 -10   2   4 203733. 5807.43  14
  10  -2  -4 194097. 5858.83  13
  10  -2  -4 203622. 5687.81  11
  10   2  -4 198826. 6175.93  11
  10  -2  -4 194565. 6085.35   9
  10   2  -4 201205. 5577.65   9
 -10  -2   4 188841. 5287.14  10
 -10  -2   4 193840. 5752.18   8
 -10  -2   3 100037. 3423.03   4
 -10   2   3 93154.9 3343.40   4
  10  -2  -3 95841.4 2691.46   1
 -10  -2   3 101256. 3139.14   2
  10   2  -3 105897. 3918.65  20
  10   2  -3 102093. 3554.06  17
  10  -2  -3 104797. 3691.68  17
 -10   2   3 94736.4 3540.66   8
 -10  -2   3 102513. 3527.86  14
 -10   2   3 101727. 3402.63  14
  10  -2  -3 98235.8 3488.38  13
  10  -2  -3 98808.4 3262.12  11
  10   2  -3 98399.6 3639.50  11
 -10  -2   3 97037.1 2959.27  10
 -10  -2   3 95709.6 3414.63   8
 -10  -2   2 8599.61 779.687   4
  10  -2  -2 9354.44 815.822   5
 -10   2   2 9463.85 755.721   4
  10  -2  -2 8155.91 536.986   1
 -10  -2   2 8173.08 708.658   2
  10   2  -2 8933.59 695.578  21
  10  -2  -2 9112.57 568.245  20
  10   2  -2 8518.54 901.915  20
 -10  -2   2 8879.42 635.158  18
 -10   2   2 8304.87 852.571   8
 -10   2   2 9808.38 810.373  14
 -10  -2   2 8537.08 805.217  14
  10  -2  -2 9003.73 827.143  13
  10  -2  -2 9673.66 754.474  11
  10   2  -2 8739.52 877.250  11
 -10  -2   2 8628.45 587.727  10
 -10  -2   2 9914.21 858.664   8
 -10  -2   1 291231. 7704.91   4
  10  -2  -1 275662. 7537.68   5
 -10   2   1 273772. 7254.08   4
 -10  -2   1 274858. 7510.18   2
  10  -2  -1 272027. 6997.36   1
  10   2  -1 279452. 7025.70  21
  10  -2  -1 280261. 6639.16  20
  10   2  -1 270824. 7849.05  20
  10  -2  -1 273075. 7321.12  16
 -10  -2   1 274265. 7239.73  18
 -10   2   1 279004. 7746.80   8
 -10   2   1 284039. 7601.35  14
 -10  -2   1 278371. 7644.92  14
  10  -2  -1 282958. 7660.98  13
  10  -2  -1 275377. 7369.68  11
  10   2  -1 273902. 7701.77  11
 -10  -2   1 281191. 7614.20   8
  10   2   0 202457. 5537.95   5
 -10  -2   0 204455. 5994.48   4
  10  -2   0 202254. 5894.64   5
 -10   2   0 198494. 5433.79   4
  10  -2   0 211992. 4949.38  20
  10   2   0 207054. 6139.24  20
 -10  -2   0 202442. 5738.85  18
  10  -2   0 201598. 5680.43  16
  10  -2   0 207582. 5494.34   1
 -10  -2   0 206326. 5971.00   2
 -10   2   0 199594. 5931.87   8
 -10   2   0 206409. 6141.85   7
  10   2   0 200738. 5988.36  11
  10   2   0 198684. 5571.83  12
 -10  -2   0 200439. 5888.00   8
 -10   2  -1 25449.2 1547.56   2
  10  -2   1 26868.4 1304.74   1
 -10  -2  -1 24751.5 1523.04   2
 -10   2  -1 25507.7 1026.08  21
  10   2   1 25764.0 1542.42  20
  10  -2   1 26151.2 1388.41  16
 -10  -2  -1 27609.6 1484.97  18
 -10   2  -1 26212.2 1604.88   7
 -10   2  -1 25541.8 1407.09   8
  10   2   1 26800.5 1636.31   6
  10  -2   1 26432.3 1472.24   6
  10   2   1 24713.7 1471.69  11
  10   2   1 24808.6 1172.56  12
 -10  -2  -1 25959.8 1547.97   4
 -10   2  -1 26642.9 1184.24   4
  10   2   1 25380.2 1271.39   5
  10  -2   1 26144.2 1504.07   5
  10  -2   2 11014.2 865.129   1
 -10   2  -2 13024.7 1110.89   2
 -10  -2  -2 12273.0 1090.22   2
  10   2   2 12225.0 1027.80  20
 -10  -2  -2 11898.3 1026.86  18
  10  -2   2 11345.5 921.719  16
  10  -2   2 12784.6 998.313   6
  10   2   2 13094.7 1141.39   6
 -10   2  -2 11389.4 876.474   8
 -10   2  -2 13217.9 1121.52   7
  10   2   2 12131.0 954.128  16
 -10  -2  -2 12754.2 810.448  15
  10  -2   2 11921.1 740.964  10
  10   2   2 12670.4 1038.46  11
  10   2   2 11563.6 738.618  12
 -10  -2  -2 11594.6 1066.82   4
 -10   2  -2 12689.6 771.279   4
  10   2   2 12221.1 841.365   5
  10  -2   2 12742.1 1063.95   5
 -10   2  -3 196481. 5314.59   4
 -10  -2  -3 204224. 6491.22   4
  10  -2   3 199285. 6248.16   5
  10   2   3 211108. 5680.28   5
 -10  -2  -3 207610. 6422.20   2
  10  -2   3 198229. 5930.42   1
 -10   2  -3 210966. 6319.23   2
  10   2   3 203586. 6171.24  20
  10  -2   3 212696. 6118.60  16
 -10  -2  -3 209545. 6427.97  18
  10  -2   3 209888. 6097.48   6
  10   2   3 206942. 6459.24   6
 -10   2  -3 197702. 5693.12   8
  10   2   3 204076. 6038.06  16
 -10  -2  -3 208355. 5777.60  15
  10   2   3 204115. 5474.41  12
  10  -2   3 207214. 5461.11  10
  10   2   4 151495. 4459.62   5
  10  -2   4 155524. 5186.54   5
 -10  -2  -4 155712. 5351.31   2
 -10   2  -4 156623. 5147.39   2
  10   2   4 154969. 5030.77  20
  10  -2   4 151009. 4960.73  16
 -10  -2  -4 149687. 5304.79  18
  10  -2   4 157833. 5019.13   6
  10   2   4 149951. 5290.30   6
 -10   2  -4 152544. 4402.29   8
  10   2   4 148941. 4899.93  16
 -10  -2  -4 152328. 4764.29  15
  10   2   4 147390. 4305.31  12
 -10  -2  -4 158363. 5091.22   9
  10  -2   4 155451. 4351.76  10
  10   2   4 141926. 4231.07  10
  10   2   5 3491.22 463.481   5
  10  -2   5 4359.95 726.100   5
 -10  -2  -5 3362.55 670.207   2
 -10   2  -5 3513.41 644.344   2
  10   2   5 2893.32 578.244  20
 -10  -2  -5 3311.60 738.077  18
 -10   2  -5 3540.36 678.816  18
  10  -2   5 4357.67 694.799   6
  10   2   5 4067.20 738.409   6
  10  -2   5 3054.94 586.037  16
  10   2   5 3314.63 600.938  16
 -10  -2  -5 3204.88 560.161  15
  10   2   5 2790.79 409.636  12
  10   2   5 3193.18 431.240  10
  10  -2   5 3100.97 432.496  10
 -10  -2  -5 3282.02 626.348   9
 -10  -2  -6 44582.9 2655.05   2
 -10   2  -6 45729.8 2505.44   2
 -10  -2  -6 42514.8 2531.85   9
  10  -2   6 43060.3 1932.36  10
  10   2   6 44328.9 1921.24  10
 -10  -2  -6 44193.9 2752.17  18
 -10   2  -6 46853.8 2670.97  18
  10  -2   6 44739.0 2411.80  16
  10   2   6 45014.6 1956.41   5
  10  -2   6 48568.3 2493.63   6
  10   2   6 44938.3 2693.16   6
  10   2   6 40844.5 2248.93  16
 -10  -2  -6 48265.1 2439.33  15
  10   2   6 44977.7 1960.46  12
  10  -2   6 48035.1 2578.79   5
 -10  -2  -7 97981.7 4391.64   2
 -10   2  -7 94468.9 4080.12   2
 -10  -2  -7 93583.9 4263.96   9
  10  -2   7 90637.6 3378.48  10
  10   2   7 92693.6 3330.23  10
 -10  -2  -7 96314.8 4532.70  18
 -10   2  -7 95222.7 4380.82  18
  10  -2   7 98673.3 4014.41  16
  10  -2   7 103762. 4130.99   6
  10   2   7 104012. 4449.07   6
  10   2   7 95113.5 3893.96  16
 -10  -2  -7 98886.5 4063.01  15
 -10   2  -7 96169.4 4580.49  15
  10   2   7 92424.5 3348.98  12
  10  -2   7 102466. 4173.76   5
 -10  -2  -8 26094.2 2308.37  18
  10  -2   8 26570.3 1921.23  16
 -10   2  -8 28683.2 2342.06  18
  10  -2   8 30518.8 2126.78   6
  10   2   8 29312.7 2318.36   6
  10  -2   8 27403.5 2013.40   5
  10   2   8 28641.7 1978.81  16
 -10   2  -8 30755.4 2519.33  15
 -10  -2  -8 27069.2 2240.78   2
 -10   2  -8 28523.2 2073.17   2
 -10   2  -8 30185.4 2627.25   9
  10  -2   8 26547.3 1639.20  10
  10   2   8 23480.4 1508.84  10
 -10  -2  -8 27566.6 2190.93   9
  10   2   9 1236.23 417.637  10
 -10  -2  -9 1007.51 595.843   9
 -10   2  -9 2000.54 919.309   9
  10  -2   9 1618.05 459.328  10
 -10  -2  -9 1824.58 807.583  18
 -10   2  -9 1416.11 719.158  18
  10  -2   9 1120.68 513.123   6
  10   2   9 2088.05 686.884   6
  10  -2   9 1725.12 609.598  16
  10   2   9 2367.65 668.484  16
 -10   2  -9 1755.23 738.881  15
 -10  -2  -9 2030.04 680.776   2
 -10   2  -9 1577.15 532.166   2
  10  -2   9 1974.88 642.377   5
 -10   2 -10 12339.8 1899.29   9
 -10  -2 -10 15020.4 1786.63   9
 -10  -2 -10 10040.8 1565.17  18
 -10   2 -10 13420.6 1819.00  18
 -10  -2 -10 13678.5 1862.73  17
  10   2  10 13589.7 1675.21   6
  10  -2  10 13635.8 1516.02   6
  10   2  10 11843.5 1379.62  16
  10  -2  10 11831.7 1382.35  16
 -10   2 -10 14607.4 1957.39  15
 -10  -2 -10 9729.97 1431.22   2
  10  -2  10 10042.1 1278.60   5
 -10   2 -11 32240.8 3197.05  17
 -10  -2 -11 29651.7 2770.52  18
 -10   2 -11 29704.0 2858.69  18
  10  -2  11 34645.6 2493.49  16
 -10  -2 -11 33725.7 3017.23  17
  10  -2  11 32747.3 2381.59   6
  10   2  11 30837.1 2641.37   6
  10   2  11 33685.1 2424.53  16
 -10   2 -11 35331.1 3130.94  15
 -10   2 -11 28000.2 3029.06   9
 -10  -2 -11 35140.9 2854.75   9
 -10  -2 -11 30157.7 2592.09   2
  10  -2  12 4519.27 958.378  16
  10   2  12 5804.49 1105.05  16
 -10   2 -12 4080.16 1135.27  15
  10  -2  12 4643.84 962.034   6
  10   2  12 6131.18 1232.14   6
 -10  -2 -12 5304.04 1229.18   9
 -10   2 -12 6512.11 1553.37   9
 -10   2 -12 3886.37 1059.48  18
 -10  -2 -12 4951.27 1257.63  17
 -10   2 -12 2979.53 1116.53  17
 -10  -2 -12 4734.76 1193.38  18
 -10   4  13 1415.98 644.366  10
 -10  -4  13 1223.50 581.276  10
  10   4 -13 282.240 505.730  17
  10  -4 -13-48.1314 559.796  17
 -10   4  12 12683.9 1437.00  10
  10  -4 -12 8748.34 1527.99   9
 -10  -4  12 10537.9 1318.27  10
  10   4 -12 11116.1 1972.82  11
 -10   4  12 10190.5 1504.32   4
  10   4 -12 9171.49 1536.35  17
  10  -4 -12 10895.8 1691.47  17
  10  -4 -11 21506.9 2265.89   9
 -10  -4  11 20220.5 1754.47  10
 -10   4  11 24714.3 1979.56  10
  10   4 -11 19836.7 2467.69  11
 -10   4  11 22928.2 2153.94   4
 -10  -4  11 20692.8 1662.28   4
  10  -4 -11 21847.0 2237.11  17
  10   4 -11 17046.6 2015.50  17
 -10  -4  10 1610.77 486.168   3
 -10   4  10 2579.35 687.284  10
  10  -4 -10 2293.19 705.933   9
 -10  -4  10 2973.57 722.893  10
  10   4 -10 1541.27 594.460  17
  10  -4 -10 1816.99 724.614  17
  10   4 -10 1665.96 765.176  11
 -10  -4  10 1854.64 539.464   4
 -10   4  10 2974.38 786.800   4
 -10  -4   9 25144.7 1731.94   3
  10  -4  -9 26102.1 2186.76   9
 -10  -4   9 25840.9 1791.49  10
 -10   4   9 27172.4 1897.66  10
  10  -4  -9 26342.6 2121.89  17
  10   4  -9 24724.6 2034.46  17
 -10   4   9 26777.5 1868.73   8
  10  -4  -9 27616.5 2170.35  13
  10   4  -9 22767.2 2305.06  11
 -10   4   9 23260.2 2072.06   4
 -10  -4   9 24555.6 1715.24   4
 -10  -4   8 50010.9 2513.73   3
  10  -4  -8 52965.3 3072.04   9
 -10  -4   8 53985.5 2580.12  10
  10  -4  -8 54267.2 2985.23  17
  10   4  -8 47154.8 2736.42  17
 -10   4   8 55897.9 2831.97   8
  10  -4  -8 55421.2 3147.21  13
  10   4  -8 46205.1 3148.00  11
 -10   4   8 51252.3 2743.40  12
 -10  -4   8 54388.7 2602.16   4
 -10   4   8 47992.1 3005.92   4
 -10   4   7 21244.2 1844.43   4
 -10  -4   7 23549.9 1586.09   4
 -10  -4   7 22386.2 1559.33   3
  10   4  -7 23955.2 2040.24  20
  10   4  -7 23922.3 1731.15  17
  10  -4  -7 22650.6 1772.65  17
 -10   4   7 25631.4 1834.38   8
  10  -4  -7 24375.5 1971.20  13
  10   4  -7 20613.8 1921.47  11
 -10   4   7 23480.5 1692.53  12
  10  -4  -7 28765.3 2063.06   9
 -10  -4   7 25137.1 1585.06  10
 -10  -4   6 609.267 309.774   4
 -10   4   6 162.046 302.764   4
 -10  -4   6 704.843 320.975   3
 -10  -4   6 506.140 256.348  19
  10   4  -6 477.575 393.237  20
  10  -4  -6 497.659 381.130  17
  10   4  -6 436.052 282.531  17
 -10   4   6 1405.08 505.417   8
  10  -4  -6 319.210 318.180  13
 -10   4   6 623.724 302.636  14
  10   4  -6 881.988 476.095  11
 -10   4   6 1066.93 366.776  12
 -10  -4   6 826.383 313.004  10
  10  -4  -6 692.840 450.699   9
 -10  -4   5 36253.1 1943.23   4
 -10   4   5 37849.9 2261.63   4
  10  -4  -5 38711.0 1989.05   5
 -10  -4   5 36253.6 1974.90   3
 -10  -4   5 35313.0 1778.62  19
  10   4  -5 35481.2 2384.50  20
  10   4  -5 33754.9 1898.64  17
  10  -4  -5 38618.7 2180.47  17
 -10   4   5 39656.5 1956.29   7
 -10   4   5 38035.2 2328.61   8
 -10   4   5 35460.2 1821.84  14
  10  -4  -5 39466.3 2428.82  13
 -10   4   5 38866.2 2013.60  12
  10   4  -5 37801.8 2351.33  11
  10  -4  -5 39927.7 2348.96   9
 -10  -4   5 37281.9 1883.81  10
 -10   4   4 120919. 4323.98   4
  10  -4  -4 116162. 4057.72   5
 -10  -4   4 112758. 4044.39   4
 -10  -4   4 117265. 4170.15   3
 -10  -4   4 116579. 3913.94  19
  10   4  -4 128756. 4958.52  20
  10   4  -4 119145. 4022.61  17
  10  -4  -4 124389. 4392.09  17
 -10   4   4 121913. 4269.61   7
 -10   4   4 122138. 4694.37   8
 -10  -4   4 112526. 4038.33  14
 -10   4   4 116357. 3826.53  14
  10  -4  -4 120494. 4621.00  13
 -10   4   4 116886. 4013.54  12
  10  -4  -4 121381. 3550.13  11
  10   4  -4 119115. 4607.69  11
 -10  -4   4 117182. 3957.82  10
 -10   4   3 77623.0 2996.44   4
  10  -4  -3 76796.4 2981.82   5
 -10  -4   3 75063.6 3011.83   4
  10   4  -3 78205.4 3347.45  21
 -10  -4   3 73095.0 2852.91  19
  10   4  -3 81525.7 3729.76  20
 -10   4   3 76963.9 3288.08   7
 -10   4   3 76353.5 3545.13   8
 -10  -4   3 75271.8 3050.16   3
 -10  -4   3 73548.8 2654.96   2
 -10  -4   3 72322.1 2894.26  14
 -10   4   3 75065.4 2708.40  14
  10  -4  -3 75888.4 3370.28  13
  10  -4  -3 80779.2 2572.68  11
 -10   4   3 73800.1 2790.55  12
  10   4  -3 71677.6 3184.89  11
 -10  -4   3 76992.5 2885.50  10
 -10  -4   2 9276.45 822.202   2
 -10  -4   2 9888.02 934.556   3
  10   4  -2 9227.87 947.669  21
 -10  -4   2 10085.9 921.604  19
  10   4  -2 11801.9 1243.79  20
 -10   4   2 9949.65 1108.79   7
 -10   4   2 9900.43 1146.40   8
 -10  -4   2 10504.3 898.186  14
 -10   4   2 10277.8 784.138  14
  10  -4  -2 11754.1 1136.24  13
 -10   4   2 9767.31 781.177  12
  10   4  -2 10365.5 1001.71  11
 -10   4   2 9722.40 823.341   4
 -10  -4   2 9892.78 944.135   4
  10  -4  -2 10400.5 955.415   5
  10  -4  -1 174324. 4749.17   1
 -10  -4   1 186506. 5592.76   2
 -10  -4   1 188816. 5585.32   3
  10   4  -1 175290. 5437.67  21
  10   4  -1 182237. 6085.72  20
 -10  -4   1 174186. 5443.92  19
 -10  -4   1 181733. 5108.34  18
 -10   4   1 162677. 6029.82   7
 -10   4   1 170459. 6096.09   8
 -10   4   1 179869. 5106.61  14
 -10  -4   1 176399. 5335.58  14
  10  -4  -1 185521. 5873.05  13
 -10   4   1 178859. 5011.73  12
  10   4  -1 175291. 5603.66  11
  10   4  -1 178824. 5799.30  12
 -10  -4   1 179382. 5682.57   4
  10  -4  -1 192117. 5609.57   5
 -10   4   1 184820. 5045.50   4
  10  -4   0 116203. 3573.67   1
 -10  -4   0 120413. 4267.58   2
 -10  -4   0 127290. 4122.17   3
  10   4   0 116927. 4510.59  20
 -10  -4   0 123617. 3956.06  18
 -10   4   0 112186. 4654.45   7
 -10   4   0 113482. 4484.62   8
  10   4   0 116954. 4172.91   6
 -10  -4   0 118356. 3933.51  14
  10  -4   0 124811. 4321.30  13
 -10   4   0 117185. 3515.78  12
  10   4   0 119191. 4133.35  11
  10   4   0 119824. 4207.74  12
  10  -4   0 121879. 4153.06   5
 -10  -4   0 117024. 4245.35   4
 -10   4   0 113934. 3361.28   4
  10   4   0 118255. 3384.97   5
  10  -4   1 25696.5 1375.96   1
 -10  -4  -1 24879.8 1705.72   2
 -10  -4  -1 25524.3 1506.41   3
 -10   4  -1 24889.2 1448.76  21
  10   4   1 25448.5 1776.47  20
 -10  -4  -1 26208.5 1584.88  18
 -10   4  -1 23598.9 1875.42   7
  10  -4   1 24649.0 1285.39   6
  10   4   1 23914.6 1583.92   6
 -10   4  -1 22662.2 1668.81   8
  10  -4   1 25011.5 1610.57  13
  10   4   1 27105.6 1618.05  11
  10   4   1 25007.4 1551.19  12
 -10  -4  -1 23381.2 1658.02   4
  10  -4   1 26826.1 1657.38   5
 -10   4  -2 11381.4 1000.98  21
  10   4   2 11637.9 1200.31  20
  10  -4   2 11117.2 1082.87  16
 -10  -4  -2 13441.7 1181.45  18
  10  -4   2 10946.8 914.578   1
 -10   4  -2 11709.9 1073.64   1
 -10  -4  -2 11797.0 1187.30   2
 -10  -4  -2 13830.9 1050.16   3
 -10   4  -2 11360.8 1320.63   7
  10  -4   2 12664.0 899.461   6
  10   4   2 10979.0 1053.80   6
 -10   4  -2 11072.1 1073.40   8
  10   4   2 10826.5 1054.42  11
  10   4   2 10960.7 975.676  12
 -10  -4  -2 11840.5 1194.93   4
  10  -4   2 10886.5 1063.60   5
  10   4   3 120387. 4709.39  20
 -10  -4  -3 128219. 4720.06  18
  10  -4   3 121291. 4487.99  16
  10  -4   3 118201. 4206.53   1
 -10  -4  -3 131871. 4933.83   2
 -10  -4  -3 122480. 4091.07   3
 -10   4  -3 134117. 4770.67   1
  10  -4   3 131759. 4068.94   6
 -10   4  -3 126976. 5084.89   7
  10   4   3 129145. 4625.78   6
 -10   4  -3 120500. 4325.62   8
  10  -4   3 123273. 4145.89  10
  10   4   3 129350. 4255.12  12
 -10  -4  -3 127117. 4892.42   4
  10  -4   3 133033. 4661.35   5
  10  -4   4 93874.7 3925.92   5
 -10   4  -4 94022.2 3919.97   2
 -10  -4  -4 96924.0 4162.67   2
 -10  -4  -4 93747.4 3298.84   3
  10   4   4 93315.7 4000.93  20
 -10  -4  -4 96911.6 4089.94  18
  10  -4   4 96504.6 3897.38  16
 -10   4  -4 97576.8 4307.48   7
  10   4   4 97665.5 3952.35   6
 -10   4  -4 96097.4 3485.21   8
  10  -4   4 102153. 3449.54   6
  10   4   4 92980.9 3467.31  12
  10  -4   4 94140.2 3446.52  10
  10  -4   5 4537.51 798.699   5
 -10  -4  -5 4945.04 872.187   2
 -10   4  -5 5229.13 823.372   2
  10   4   5 4254.17 831.989  20
 -10  -4  -5 5770.01 935.766  18
 -10   4  -5 4556.90 886.366   7
  10  -4   5 4942.67 657.075   6
  10   4   5 5642.39 857.818   6
  10  -4   5 4771.32 820.471  16
  10   4   5 4341.68 639.756  12
 -10  -4  -5 4449.24 651.375   9
  10  -4   5 6068.69 740.417  10
  10  -4   6 40235.5 2476.35   5
 -10  -4  -6 30823.3 2355.78   2
 -10   4  -6 35155.0 2226.78   2
  10   4   6 37002.5 2420.57  20
  10  -4   6 37180.3 2354.22  16
 -10  -4  -6 39953.4 2614.58  18
 -10   4  -6 36165.4 2433.62  18
 -10   4  -6 33692.4 2350.41   7
  10  -4   6 35275.6 1969.93   6
  10   4   6 39652.3 2501.26   6
  10   4   6 37772.5 2326.70  16
  10   4   6 33948.0 1938.66  12
  10  -4   6 33171.7 1873.51  10
 -10  -4  -6 39436.8 2164.17   9
 -10  -4  -7 56399.3 3336.24   2
 -10   4  -7 54645.7 2931.93   2
  10  -4   7 52254.0 2539.24  10
  10   4   7 55208.5 2607.38  10
 -10  -4  -7 57710.6 2927.36   9
  10  -4   7 55563.6 3096.43  16
 -10  -4  -7 56547.7 3345.69  18
 -10   4  -7 54289.9 3245.66  18
 -10   4  -7 62010.6 3259.58   7
  10  -4   7 58940.4 2717.67   6
  10   4   7 63870.3 3372.21   6
  10   4   7 57088.4 3059.79  16
  10   4   7 54804.8 2665.23  12
  10  -4   7 61048.1 3253.91   5
  10  -4   8 18317.3 1446.91  10
 -10  -4  -8 20173.7 1723.50   9
  10   4   8 19611.3 1491.31  10
 -10  -4  -8 18473.4 1870.34  17
  10  -4   8 15560.6 1653.16  16
 -10  -4  -8 19576.1 1987.27  18
 -10   4  -8 21264.6 2039.06  18
  10  -4   8 20276.1 1833.78   5
  10   4   8 20470.4 1929.04   6
  10   4   8 19702.8 1765.13  16
 -10   4  -8 23045.0 2389.62  15
  10   4   8 17382.8 1451.34  12
 -10  -4  -8 17457.6 1874.83   2
 -10   4  -9 1597.97 836.012   9
 -10  -4  -9 1368.89 525.937   9
 -10   4  -9 1107.43 638.780  18
 -10  -4  -9 1793.26 728.692  17
 -10  -4  -9 1577.45 689.123  18
  10   4   9 1179.21 562.016   6
  10  -4   9 1054.85 530.119  16
  10   4   9 876.371 515.302  16
 -10   4  -9 1451.84 786.106  15
 -10  -4  -9 1021.04 512.003   2
  10  -4   9 1495.35 572.456   5
 -10   4 -10 10316.6 1833.13   9
 -10   4 -10 10162.2 1581.34  18
 -10  -4 -10 10792.3 1549.60  17
 -10  -4 -10 10590.6 1640.66  18
  10   4  10 11014.9 1529.72   6
  10  -4  10 9214.22 1335.52  16
  10   4  10 8654.75 1274.56  16
 -10   4 -10 13213.3 2026.33  15
 -10  -4 -10 9325.13 1456.15   2
  10  -4  10 9375.24 1320.06   5
 -10   4 -11 24634.1 2661.72  17
 -10  -4 -11 18837.0 2202.48  18
 -10  -4 -11 19180.1 2076.79  17
  10  -4  11 18794.2 1949.44  16
  10  -4  11 20900.5 1989.86   5
  10   4  11 17625.1 1976.40   6
 -10  -4 -11 18653.6 1866.29  13
  10   4  11 18642.9 1922.15  16
 -10   4 -11 19154.4 2583.79  15
 -10  -4 -11 14163.2 1811.23   2
 -10   4 -11 20362.9 2594.05   9
  10  -6 -12 5702.30 1189.59  17
 -10   6  11 12840.7 1748.80   4
  10  -6 -11 12059.7 1599.36  17
  10   6 -11 11210.0 1797.21  20
  10   6 -11 10295.0 1891.18  11
  10  -6 -11 9216.28 1516.28   9
 -10   6  11 13597.3 1605.45  10
 -10  -6  11 11849.8 1440.79  10
 -10   6  10 1773.14 670.654   4
 -10  -6  10 599.342 443.625   3
  10   6 -10 397.994 498.404  20
  10  -6 -10 1220.85 610.259  17
  10   6 -10 1726.94 811.744  11
 -10   6  10 1625.96 726.569  12
 -10   6  10 1010.32 580.092  10
  10  -6 -10 647.807 607.568   9
 -10  -6  10 1471.64 563.031  10
 -10   6   9 14889.3 1759.07   4
 -10  -6   9 11330.5 1236.66   3
  10   6  -9 11387.6 1636.13  20
  10  -6  -9 13273.4 1512.87  17
 -10   6   9 14462.4 1611.03   8
  10  -6  -9 13437.3 1728.14  13
  10   6  -9 11896.0 1833.94  11
 -10   6   9 13903.1 1595.65  12
  10  -6  -9 12774.8 1599.91   9
 -10  -6   9 13434.9 1441.80  10
 -10  -6   8 29719.7 1949.86   4
 -10   6   8 33892.0 2582.98   4
 -10  -6   8 29184.8 2031.27   3
  10   6  -8 29468.3 2551.26  20
  10  -6  -8 31091.6 2214.77  17
 -10   6   8 31770.3 2466.54   8
  10  -6  -8 32721.8 2626.10  13
 -10   6   8 33451.2 2423.96  12
  10   6  -8 28898.0 2609.09  11
  10  -6  -8 31314.8 2419.72   9
 -10  -6   8 29834.1 2083.94  10
 -10  -6   7 11209.7 1140.39   4
 -10   6   7 12090.2 1478.43   4
  10  -6  -7 12915.2 1224.72   5
 -10  -6   7 11490.3 1218.36   3
 -10  -6   7 10323.4 1028.41  19
  10   6  -7 12988.7 1661.26  20
  10  -6  -7 12957.8 1329.84  17
 -10   6   7 10630.1 1429.36   8
  10  -6  -7 12942.7 1600.04  13
 -10   6   7 11807.0 1358.36  12
  10   6  -7 10241.5 1449.56  11
  10  -6  -7 15129.3 1580.17   9
 -10  -6   7 13010.8 1302.09  10
  10  -6  -6 585.739 333.442   5
 -10   6   6 531.581 426.895   4
 -10  -6   6 274.010 293.067   4
 -10  -6   6 157.709 331.873   3
  10   6  -6 43.3555 433.443  20
 -10  -6   6 579.106 322.306  19
  10  -6  -6 612.558 503.710  17
 -10   6   6 1571.44 594.369   8
  10  -6  -6 630.989 487.873  13
  10   6  -6 364.977 339.095  11
 -10   6   6 333.664 333.523  12
 -10  -6   6 655.913 402.074  10
 -10   6   5 21921.7 1829.96   4
 -10  -6   5 20432.4 1534.41   4
  10  -6  -5 22307.0 1556.81   5
 -10  -6   5 21940.3 1643.66   3
 -10  -6   5 19906.9 1439.72  19
  10   6  -5 22506.0 1991.90  21
  10   6  -5 23445.4 2127.48  20
  10  -6  -5 22125.3 1621.35  17
 -10   6   5 20742.0 1698.83   7
 -10   6   5 18620.3 1916.90   8
  10  -6  -5 18654.2 1798.75  13
 -10   6   5 19388.1 1608.70  12
  10   6  -5 21996.2 1854.09  11
 -10  -6   5 19473.5 1566.69  10
 -10  -6   4 61835.9 2988.93   3
 -10   6   4 65411.7 3405.94   7
 -10   6   4 61891.2 3644.75   8
 -10  -6   4 60103.4 2775.99  19
  10   6  -4 64770.8 3495.76  21
  10  -6  -4 65858.8 3353.64  19
  10   6  -4 68468.0 3709.08  20
  10  -6  -4 68474.1 3475.50  13
 -10   6   4 60586.3 2986.39  12
 -10  -6   4 62988.7 2973.17  10
  10   6  -4 67326.6 3391.08  11
 -10   6   4 67949.4 3147.97   4
 -10  -6   4 60753.9 2866.65   4
  10  -6  -4 71829.6 2996.68   5
 -10  -6   3 34034.7 2113.87   3
 -10   6   3 36151.9 2540.69   7
 -10   6   3 36641.7 2724.15   8
 -10  -6   3 34691.1 1977.09  19
  10   6  -3 36607.7 2475.70  21
  10  -6  -3 39619.0 2532.14  19
  10   6  -3 36700.6 2594.46  20
  10  -6  -3 36099.9 2357.59  13
 -10  -6   3 32734.2 1729.38  13
 -10   6   3 37464.0 2112.90  12
  10   6  -3 38982.4 2364.96  11
  10   6  -3 40906.4 2626.80  12
 -10   6   3 39259.5 2071.93   4
 -10  -6   3 34321.4 2034.14   4
  10  -6  -3 41060.8 2143.15   5
 -10  -6   2 5093.78 805.512   3
 -10   6   2 6227.08 1094.54   7
 -10   6   2 4864.87 992.096   8
  10  -6  -2 6299.07 1020.54  19
  10   6  -2 5803.45 1006.95  20
  10   6  -2 6757.65 956.831  21
 -10  -6   2 6323.40 817.135  19
  10  -6  -2 5720.14 908.973  13
 -10   6   2 6102.92 790.943  12
  10   6  -2 5248.05 805.661  11
  10   6  -2 6289.28 1019.65  12
 -10  -6   2 6601.06 853.843   4
  10  -6  -2 7101.45 875.259   5
 -10  -6   1 88172.6 3514.82   2
 -10  -6   1 89934.4 3718.67   3
 -10   6   1 86695.6 4512.13   7
  10   6  -1 91796.1 3512.63   6
 -10   6   1 84799.2 4393.39   8
 -10  -6   1 89686.9 3587.53  19
  10  -6  -1 92821.7 4286.79  19
  10   6  -1 88216.5 4145.97  20
  10  -6  -1 98219.4 3975.59  13
 -10   6   1 92614.4 3529.37  12
  10   6  -1 87016.0 3591.97  11
  10   6  -1 92234.2 4105.91  12
 -10  -6   1 92389.3 3764.21   4
  10  -6  -1 93269.1 3663.07   5
 -10  -6   0 60577.6 2907.30   2
 -10  -6   0 62915.9 2937.03   3
  10  -6   0 71045.7 3628.16  19
 -10  -6   0 61018.1 2899.09  19
  10   6   0 65520.1 3384.23  20
 -10   6   0 62989.4 3756.25   7
 -10   6   0 65084.7 3623.43   8
  10   6   0 65369.1 2820.92   6
  10  -6   0 64582.6 3063.45  13
  10   6   0 65049.2 2873.84  11
  10   6   0 63511.8 3188.04  12
  10  -6   0 67242.3 2968.59   5
 -10  -6   0 59414.8 2993.89   4
 -10  -6  -1 12510.6 1269.31   2
 -10  -6  -1 10848.7 1070.08   3
  10  -6   1 12830.0 1455.09  19
 -10  -6  -1 12918.9 1226.22  19
  10   6   1 12493.8 1387.06  20
 -10  -6  -1 9968.22 942.587  18
  10   6   1 11376.8 1079.75   6
 -10   6  -1 12329.7 1625.24   7
 -10   6  -1 11409.0 1435.40   8
  10  -6   1 12598.6 1224.69  13
  10   6   1 11882.4 1086.38  11
  10   6   1 12449.0 1324.93  12
 -10  -6  -1 11438.5 1228.47   4
  10  -6   1 12302.3 1199.97   5
 -10  -6  -2 4961.41 770.062   3
 -10  -6  -2 5335.62 887.328   2
  10   6   2 5602.99 945.370  20
 -10   6  -2 5494.96 834.051  21
  10  -6   2 7330.48 1064.61  19
 -10  -6  -2 6480.01 912.623  19
 -10  -6  -2 5785.85 771.588  18
 -10   6  -2 6157.50 1163.50   7
  10   6   2 5721.49 777.313   6
 -10   6  -2 5472.32 947.263   8
  10  -6   2 4269.24 717.491  13
  10   6   2 6124.82 927.549  12
  10   6   2 4690.68 701.319  11
 -10  -6  -2 5324.23 885.197   4
  10  -6   2 5890.97 852.791   5
 -10  -6  -3 56616.5 3187.98   2
 -10  -6  -3 60222.6 2695.91   3
 -10   6  -3 62700.5 3137.85  21
  10  -6   3 58146.3 3246.45  19
  10   6   3 63668.2 3430.72  20
 -10  -6  -3 61548.6 3020.32  19
 -10  -6  -3 60119.5 2963.71  18
  10   6   3 58852.6 2837.95   6
 -10   6  -3 58758.0 3673.60   7
 -10   6  -3 57372.4 3076.48   8
  10  -6   3 62388.2 2905.49  13
  10   6   3 63094.7 3102.76  12
  10  -6   3 66071.2 3132.97   5
 -10   6  -4 54658.7 2994.95  21
  10   6   4 49782.5 3118.98  20
 -10  -6  -4 54808.6 2884.83  19
 -10  -6  -4 51521.8 2873.60  18
 -10  -6  -4 54093.4 3115.25   2
 -10   6  -4 48519.2 3267.05   7
 -10   6  -4 50723.0 2734.76   8
  10   6   4 54603.5 2757.51   6
  10   6   4 53788.9 2841.05  12
  10  -6   4 56745.9 2951.73   5
  10  -6   5 2643.95 705.426   5
  10   6   5 2681.04 770.489  20
 -10   6  -5 2694.90 730.650  21
 -10  -6  -5 2123.02 591.727  19
 -10  -6  -5 2101.94 598.848  18
 -10  -6  -5 2389.39 740.364   2
 -10   6  -5 1951.59 512.805   2
 -10   6  -5 1889.07 770.863   7
  10   6   5 1381.80 524.378   6
  10   6   5 2405.51 621.514  12
  10  -6   5 2049.18 542.946  10
  10  -6   6 17749.9 1698.46   5
  10   6   6 16491.6 1809.66  20
 -10  -6  -6 16869.8 1565.54  19
 -10  -6  -6 17113.5 1757.18  18
 -10   6  -6 14790.8 1615.00  18
 -10  -6  -6 16481.7 1796.91   2
 -10   6  -6 16471.9 1560.62   2
 -10   6  -6 17438.7 1889.22   7
  10   6   6 20481.6 1740.91   6
  10   6   6 17830.2 1601.06  12
  10  -6   6 17143.5 1487.97  10
  10  -6   7 30655.6 2310.19   5
 -10  -6  -7 26275.4 2359.42   2
 -10  -6  -7 30026.6 2134.83  19
  10  -6   7 27973.3 2335.26  16
 -10  -6  -7 28882.0 2359.67  18
 -10   6  -7 31164.9 2440.73  18
 -10   6  -7 29302.0 2490.60   7
  10   6   7 30395.1 2243.53   6
  10   6   7 29631.0 2131.24  12
  10  -6   7 31652.1 2122.52  10
 -10  -6  -8 12387.9 1337.52  19
 -10  -6  -8 9059.44 1446.29  18
  10   6   8 9044.65 1246.04   6
 -10   6  -8 10823.8 1511.57   7
 -10   6  -8 13828.8 2019.69  15
  10  -6   8 12023.6 1561.45  16
  10   6   8 12796.3 1640.75  16
  10   6   8 12654.9 1403.05  12
 -10  -6  -8 9263.57 1287.42  13
  10  -6   8 12113.5 1489.45   5
 -10   6  -9 832.010 631.462   9
 -10  -6  -9 580.510 605.231  18
  10   6   9-90.7921 446.126   6
  10  -6   9 259.263 439.387  16
  10   6   9 624.214 504.426  16
 -10   6  -9 617.729 731.048  15
 -10  -6  -9-183.129 510.705  13
  10   6   9 778.886 516.470  12
  10  -6   9 898.651 519.060   5
 -10   6 -10 6307.73 1428.87   9
 -10  -6 -10 4267.17 1032.15  18
  10   6  10 4332.58 991.028   6
  10  -6  10 2949.48 870.642  16
  10   6  10 5044.44 1070.32  16
 -10   6 -10 6097.88 1488.10  15
 -10  -6 -10 3740.10 840.827  13
  10  -6  10 4191.41 967.887   5
 -10   8   9 6480.14 1250.38   4
  10   8  -9 3697.68 1052.50  20
  10   8  -9 5248.85 1264.81  21
 -10   8   9 5031.16 1134.53   8
 -10  -8   9 6049.49 1007.10   3
  10  -8  -9 3846.92 1002.98  13
  10   8  -9 4331.07 1125.78  11
 -10   8   9 5586.78 1167.40  12
 -10  -8   9 5789.92 1066.76  10
  10   8  -8 14531.6 1945.89  20
  10   8  -8 11612.7 1768.99  21
 -10   8   8 12582.6 1759.30   8
 -10  -8   8 12425.9 1389.32   3
  10  -8  -8 13740.2 1805.56  13
  10   8  -8 10662.2 1620.80  11
 -10  -8   8 13620.1 1561.99  10
 -10   8   8 11540.4 1556.09  12
 -10   8   8 10498.9 1495.27   4
 -10   8   7 5201.38 1051.24   4
 -10  -8   7 5095.82 841.676  19
  10   8  -7 6867.74 1298.56  20
  10   8  -7 5067.29 1186.67  21
 -10   8   7 4675.98 1093.90   8
 -10  -8   7 4624.27 865.461   3
  10  -8  -7 7380.85 1330.77  13
  10   8  -7 4800.01 1060.46  11
 -10   8   7 6189.73 1132.66  12
 -10  -8   7 6697.51 1085.41  10
 -10  -8   6 628.839 384.908   3
 -10   8   6 199.067 573.107   8
 -10  -8   6-115.934 350.893  19
  10   8  -6 232.328 519.070  20
  10   8  -6 781.217 636.830  21
  10  -8  -6 531.688 531.935  13
  10   8  -6-134.572 441.857  11
  10   8  -6-176.597 472.851  12
 -10   8   6 729.891 527.743  12
 -10   8   6 387.146 464.653   4
 -10  -8   5 9256.86 1155.59   3
 -10   8   5 9276.52 1592.11   8
  10   8  -5 9179.32 1456.09  20
  10   8  -5 9511.77 1493.44  21
 -10  -8   5 7413.17 986.076  19
  10  -8  -5 9005.07 1309.11  13
  10   8  -5 6921.66 1125.03  11
  10   8  -5 8434.19 1401.77  12
 -10   8   5 6829.44 1103.14  12
 -10  -8   5 7520.22 1008.35   4
 -10  -8   4 28744.5 2123.38   3
 -10   8   4 33749.5 2709.90   7
 -10   8   4 33639.1 2980.86   8
 -10  -8   4 25554.7 1875.62  19
  10   8  -4 31658.9 2650.37  21
  10  -8  -4 29482.3 2388.85  19
  10   8  -4 31252.0 2622.47  20
  10  -8  -4 29189.8 2341.06  13
 -10   8   4 33053.3 2346.17  12
  10   8  -4 28438.6 2177.69  11
  10   8  -4 33206.0 2678.95  12
 -10  -8   4 30936.5 2051.01   4
 -10  -8   3 12885.7 1408.69   3
 -10   8   3 16209.9 1960.89   7
 -10   8   3 15899.9 2031.21   8
  10  -8  -3 11548.7 1504.00  19
 -10  -8   3 11150.5 1213.71  19
  10   8  -3 13132.3 1659.46  20
  10   8  -3 14581.2 1712.85  21
  10  -8  -3 13947.5 1549.02  13
 -10   8   3 13555.1 1464.00  12
  10   8  -3 16018.0 1815.48  12
 -10  -8   3 12013.6 1262.37   4
 -10  -8   2 2733.68 745.762   3
 -10   8   2 4667.76 1131.21   7
 -10   8   2 1817.89 917.269   8
  10  -8  -2 2265.46 741.957  19
  10   8  -2 2673.46 852.887  20
 -10  -8   2 1736.12 516.502  19
  10  -8  -2 2549.26 734.781  13
 -10  -8   2 2574.03 543.120  13
  10   8  -2 2329.34 843.556  12
 -10  -8   2 3228.37 692.518   4
  10  -8  -2 3080.78 673.941   5
 -10  -8   1 35548.6 2328.32   3
 -10   8   1 35302.5 3089.22   7
 -10   8   1 35695.8 2998.86   8
 -10  -8   1 38244.5 2300.99  19
  10  -8  -1 36493.5 2707.93  19
  10   8  -1 40332.6 2831.86  20
 -10  -8   1 33974.5 2049.92  13
  10  -8  -1 38017.3 2485.82  13
  10   8  -1 39095.0 2819.89  12
 -10  -8   1 32733.5 2219.65   4
  10  -8  -1 38925.2 2258.58   5
 -10  -8   0 24676.6 1899.14   3
 -10   8   0 29953.4 2836.62   7
 -10   8   0 30972.2 2755.53   8
 -10  -8   0 27814.8 1986.43  19
  10  -8   0 31892.5 2445.77  19
  10   8   0 30692.1 2420.22  20
 -10  -8   0 25446.0 1833.83  13
  10  -8   0 28805.8 2091.69  13
  10   8   0 28164.9 2315.01  12
 -10  -8   0 25553.6 1972.61   4
  10  -8   0 29779.6 1965.02   5
 -10  -8  -1 3598.76 701.425   3
 -10   8  -1 5818.20 1291.99   7
 -10   8  -1 4387.24 1017.73   8
 -10  -8  -1 4495.06 819.417  19
  10  -8   1 3684.58 857.321  19
  10   8   1 2900.55 834.334  20
  10  -8   1 5657.86 921.158  13
  10   8   1 3829.16 909.578  12
 -10  -8  -1 3737.04 717.178  13
  10  -8   1 5910.37 876.750   5
 -10  -8  -2 1527.65 525.032   3
  10  -8   2 2473.16 735.158  19
  10   8   2 2576.83 781.323  20
 -10  -8  -2 1372.68 524.649  19
  10  -8   2 1952.45 549.457  13
 -10   8  -2 3018.50 917.539   7
 -10   8  -2 2106.26 751.336   8
  10   8   2 1600.62 642.076  12
 -10  -8  -2 1674.90 593.953  13
  10  -8   2 905.402 452.661   5
 -10   8  -3 27925.5 2248.08  21
 -10  -8  -3 24704.1 1946.04  19
  10  -8   3 24028.2 2133.58  19
  10   8   3 25967.7 2285.43  20
 -10   8  -3 27858.5 2688.29   7
 -10   8  -3 27339.7 2284.03   8
  10  -8   3 27627.3 1922.07  13
 -10  -8  -3 24347.2 1982.08  13
  10   8   3 25183.6 2184.16  12
  10  -8   3 28536.5 2076.67   5
 -10   8  -4 25456.5 2185.56  21
 -10  -8  -4 19754.2 1762.71  19
  10  -8   4 19077.5 1861.48  19
  10   8   4 17865.0 1968.27  20
 -10  -8  -4 19975.6 1734.47  18
 -10   8  -4 19667.0 2241.93   7
 -10  -8  -4 21051.5 1883.28  13
  10   8   4 21252.9 2013.90  12
  10  -8   4 22921.9 1883.95   5
 -10  -8  -5 1523.91 655.024  18
  10   8   5 216.109 455.667  20
 -10  -8  -5 213.657 384.512  19
  10  -8   5 1363.18 553.227  19
 -10   8  -5 534.443 549.033   7
  10   8   5 1150.64 641.083  12
 -10  -8  -5 1361.87 583.008  13
  10  -8   5 1618.93 590.634   5
 -10  -8  -6 6113.55 1066.14  18
  10   8   6 6131.61 1234.68  20
 -10  -8  -6 5365.26 943.627  19
 -10   8  -6 8708.70 1546.55   7
  10   8   6 7458.52 1215.94  12
 -10  -8  -6 6038.39 1044.17  13
  10  -8   6 8454.76 1203.66   5
 -10   8  -7 17270.1 2100.69   7
  10  -8   7 13308.4 1552.08   5
 -10  -8  -7 12679.4 1629.38  18
 -10  -8  -7 12796.1 1531.17  13
  10   8   7 12928.0 1599.86  12
 -10  -8  -7 12483.4 1394.22  19
 -10   8  -8 6467.14 1333.01   7
  10   8   8 4993.13 1058.18  12
 -10   8  -8 5757.11 1315.92   9
 -10  -8  -8 3801.44 990.145  18
  10  10  -5 4234.75 1082.55  12
 -10 -10   5 3266.53 793.307  19
  10  10  -5 4119.42 1080.61  20
  10  10  -5 2610.54 1013.01  21
  10  10  -4 11473.4 1686.35  20
 -10 -10   4 8574.90 1179.50  19
  10 -10  -4 9044.50 1373.67  13
 -10  10   4 10038.0 1818.67   8
  10  10  -4 9557.14 1563.62  12
 -10 -10   4 8770.00 1244.25   3
  10 -10  -3 3207.66 880.126  19
  10  10  -3 4998.66 1126.52  20
 -10 -10   3 4875.51 877.934  19
  10 -10  -3 5421.33 1056.77  13
 -10  10   3 6285.09 1397.94   7
 -10  10   3 7304.20 1579.36   8
  10  10  -3 6804.57 1379.71  12
 -10 -10   3 4945.98 963.171   3
  10 -10  -2 890.147 572.722  19
  10  10  -2 410.905 500.059  20
 -10 -10   2 1196.45 541.965  19
  10 -10  -2 1418.57 633.522  13
 -10  10   2 2669.56 1095.69   7
 -10  10   2-454.110 820.429   8
  10  10  -2 1192.01 651.290  12
 -10 -10   2 1767.49 673.714   3
  10 -10  -1 10090.9 1498.49  19
  10  10  -1 11872.9 1667.31  20
 -10 -10   1 11154.6 1314.53  19
  10 -10  -1 10583.7 1390.83  13
 -10  10   1 14019.6 2055.45   8
  10  10  -1 14026.2 1861.42  12
 -10 -10   1 9021.81 1219.90   3
  10 -10   0 7606.45 1282.18  19
  10  10   0 9115.77 1445.01  20
 -10 -10   0 8401.60 1171.53  19
  10 -10   0 8281.71 1212.34  13
 -10 -10   0 7882.57 1068.16  13
 -10  10   0 11357.1 1943.54   7
 -10  10   0 12045.5 1900.08   8
  10  10   0 12786.7 1795.44  12
 -10 -10   0 8782.85 1160.29   3
  10 -10   1 1594.34 676.238  19
  10  10   1 2264.73 817.668  20
 -10 -10  -1 1492.70 588.622  19
 -10 -10  -1 1450.12 593.465  13
  10 -10   1 1661.54 638.286  13
 -10  10  -1-331.605 838.189   7
 -10  10  -1 1171.68 710.028   8
  10  10   1 2327.30 837.622  12
 -10 -10  -1 2186.51 683.742   3
 -10  10  -2 1658.51 805.343   7
 -10  10  -2 1143.96 682.046   8
  10  10   2 1453.82 764.265  12
  10 -10   2 1210.90 656.587  19
  10  10   2 720.809 653.569  20
 -10 -10  -2 272.903 379.451  19
  10 -10   2 1171.02 553.089  13
 -10 -10  -2 243.054 383.853  13
 -10  10  -3 6307.05 1396.58   7
  10 -10   3 6264.43 991.755  13
 -10 -10  -3 7012.64 1098.80  13
  10  10   3 8239.47 1439.34  12
 -10 -10  -3 7505.03 1125.57  19
  10  10   3 6873.44 1267.26  20
  10 -10   3 6258.48 1127.37  19
  10  10   4 7098.96 1380.32  12
  11  -1 -13 969.348 685.168  17
  11   1 -13 647.688 644.928  17
  11   1 -13-356.915 484.540  11
 -11  -1  13-139.234 421.317   4
 -11   1  13 306.163 483.408   4
 -11  -1  13 762.206 421.732  10
 -11   1  13 136.796 341.901  10
  11  -1 -13-426.441 696.569   9
  11   1 -13 76.8690 485.877   9
  11  -1 -12 10014.3 1630.13  17
  11   1 -12 9915.94 1659.01  17
  11  -1 -12 11478.3 1609.36  11
  11   1 -12 9681.93 1644.04  11
 -11   1  12 14510.6 1659.07   4
 -11  -1  12 12324.2 1380.00   4
 -11  -1  12 14165.7 1384.72  10
  11  -1 -12 11494.1 1740.24   9
  11   1 -12 9104.96 1462.75   9
 -11   1  12 14338.8 1391.27  10
  11  -1 -11 29049.1 2600.54  17
  11   1 -11 30603.9 2726.33  17
  11   1 -11 27578.3 2587.60  11
  11  -1 -11 29637.5 2540.34  11
 -11   1  11 40394.6 2643.77   4
 -11  -1  11 37093.8 2414.78   4
  11  -1 -11 31493.6 2786.43   9
  11   1 -11 29956.5 2612.33   9
 -11  -1  11 35783.4 2179.24  10
 -11   1  11 36074.0 2166.03  10
  11  -1 -10 5900.06 1101.04  17
  11   1 -10 5883.66 1133.64  17
 -11  -1  10 6674.20 871.975  10
 -11   1  10 7206.47 898.722  10
  11  -1 -10 5862.36 1126.13   9
  11   1 -10 6407.99 1169.05   9
  11  -1 -10 6447.82 1127.06  11
  11   1 -10 6626.62 1202.98  11
 -11  -1  10 6518.88 956.289   4
 -11   1  10 7908.32 1138.90   4
 -11  -1   9 14790.0 1141.27   3
  11  -1  -9 15766.6 1669.41  17
  11   1  -9 12915.2 1499.30  17
  11  -1  -9 13232.8 1544.05   9
  11   1  -9 13891.4 1489.29   9
 -11  -1   9 14910.5 1225.97  10
 -11   1   9 15077.6 1221.45  10
 -11  -1   9 14923.8 1137.82   8
 -11   1   9 13965.2 1139.03   8
  11   1  -9 12134.1 1489.33  11
  11  -1  -9 16663.1 1629.61  11
 -11   1   9 14392.0 1468.53   4
 -11  -1   9 14813.2 1390.09   4
 -11  -1   8 50496.1 2257.96   3
  11  -1  -8 48049.9 2913.19  17
  11   1  -8 45854.4 2769.46  17
 -11  -1   8 51376.5 2295.46   8
  11  -1  -8 51003.2 2876.35   9
  11   1  -8 49300.1 2752.71   9
 -11  -1   8 50097.9 2321.25  10
 -11   1   8 51522.7 2333.12  10
 -11   1   8 48754.0 2293.05   8
  11  -1  -8 47990.9 2682.44  11
  11   1  -8 47167.9 2920.52  11
 -11   1   8 50051.2 2776.25   4
 -11  -1   8 53040.9 2661.99   4
 -11  -1   7 58838.9 2457.75   3
  11  -1  -7 57759.6 2959.65   9
  11   1  -7 58478.7 2881.39   9
 -11  -1   7 60239.6 2446.79  10
 -11  -1   7 58604.8 2500.33   8
 -11   1   7 61525.7 2470.49  10
 -11   1   7 59456.5 2565.14   8
  11  -1  -7 60529.4 3134.08  17
  11   1  -7 56303.0 2963.75  17
  11  -1  -7 57189.1 2830.01  11
  11   1  -7 54476.3 3054.86  11
 -11   1   7 60653.0 2972.00   4
 -11  -1   7 63685.1 2824.69   4
  11  -1  -6 6435.34 843.695   9
  11   1  -6 5301.58 737.790   9
 -11  -1   6 6582.51 643.636  10
 -11   1   6 5786.34 607.977  10
  11  -1  -6 5549.38 862.991  17
  11   1  -6 6045.86 867.238  17
 -11  -1   6 5839.50 684.660   8
 -11   1   6 5855.42 710.145   8
  11  -1  -6 6513.57 824.329  11
  11   1  -6 5838.34 876.765  11
 -11  -1   6 6408.87 789.467   4
 -11   1   6 5876.15 808.579   4
 -11  -1   5 41966.2 1681.07   2
  11  -1  -5 43085.1 2276.04   9
  11   1  -5 42116.9 2108.85   9
 -11  -1   5 42512.5 1710.86  10
 -11   1   5 44315.2 1770.14  10
 -11  -1   5 43182.6 2040.22   8
  11  -1  -5 41913.8 2308.79  17
  11   1  -5 45333.9 2391.21  17
 -11   1   5 44271.3 2109.14   8
 -11   1   5 46675.6 2234.12  14
  11  -1  -5 43689.7 2199.08  11
  11   1  -5 41716.7 2322.03  11
 -11  -1   5 41883.9 2075.89   4
 -11   1   5 46732.8 2244.45   4
 -11  -1   4 225303. 6364.65   4
 -11   1   4 203018. 6276.25   4
 -11  -1   4 209740. 5858.53   2
  11   1  -4 212344. 6671.46  20
  11   1  -4 217610. 6604.51  17
  11  -1  -4 214707. 6632.00  17
 -11   1   4 211211. 6342.28   8
 -11  -1   4 236257. 6597.02  14
 -11   1   4 227100. 6498.02  14
  11  -1  -4 224420. 6444.52  11
  11   1  -4 215076. 6634.92  11
  11  -1  -4 219233. 6570.18   9
  11   1  -4 211656. 6242.79   9
 -11  -1   4 213169. 6256.43   8
 -11  -1   4 212324. 5624.61  10
 -11   1   4 215159. 5649.01  10
 -11  -1   3 181044. 5392.31   4
 -11   1   3 172927. 5299.34   4
 -11  -1   3 173813. 5071.98   2
  11   1  -3 175216. 5631.20  20
  11  -1  -3 181651. 5153.41  20
  11   1  -3 173100. 5566.46  17
  11  -1  -3 185102. 5704.55  17
 -11   1   3 175878. 5436.74   8
 -11  -1   3 177371. 5517.11  14
 -11   1   3 183173. 5511.50  14
  11  -1  -3 184474. 5447.94  11
  11   1  -3 180227. 5645.61  11
 -11  -1   3 183928. 4646.58  10
 -11  -1   3 175770. 5357.46   8
 -11   1   3 178528. 4611.26  10
 -11  -1   2 7603.92 758.880   4
  11  -1  -2 7036.84 728.202   5
 -11   1   2 6960.23 692.374   4
 -11  -1   2 6449.57 658.324   2
  11   1  -2 7255.20 471.184  21
  11  -1  -2 7226.92 620.492  20
  11   1  -2 7365.58 776.991  20
 -11   1   2 6899.01 735.108   8
 -11   1   2 7654.09 776.477  14
 -11  -1   2 6976.39 763.325  14
  11   1  -2 7074.38 433.096  16
  11  -1  -2 6671.39 718.727  11
  11   1  -2 7239.06 801.331  11
 -11  -1   2 7141.24 406.626  10
 -11   1   2 7692.56 386.803  10
 -11  -1   2 7094.12 726.359   8
  11  -1  -1 149125. 4612.50   5
 -11  -1   1 156598. 4698.41   4
 -11   1   1 148904. 4491.85   4
  11   1  -1 144378. 4472.51   5
 -11   1   1 151999. 4747.94   2
 -11  -1   1 145000. 4581.97   2
  11  -1  -1 153270. 4187.24  20
  11   1  -1 148952. 4720.14  20
  11  -1  -1 148354. 4192.47  16
 -11   1   1 150578. 4669.64   8
 -11   1   1 153268. 4822.34  14
 -11  -1   1 155305. 4854.75  14
  11   1  -1 147573. 4067.75  16
  11  -1  -1 148081. 4605.52  11
  11   1  -1 156653. 4833.31  11
 -11  -1   1 151644. 4662.10   8
 -11   1   0 197961. 5550.18   4
  11   1   0 201676. 5651.66   5
  11  -1   0 194884. 5782.85   5
 -11  -1   0 197446. 5863.36   4
 -11   1   0 197502. 5944.19   2
  11  -1   0 193391. 5462.91   1
 -11  -1   0 206053. 5920.08   2
  11  -1   0 205227. 5269.68  20
  11   1   0 199572. 5828.45  20
  11  -1   0 198522. 5453.78  16
 -11   1   0 196299. 5774.42   8
  11   1   0 200700. 5425.22  16
  11  -1   0 200575. 5828.32  11
  11   1   0 199437. 5947.10  11
  11   1   0 203281. 5102.96  12
 -11  -1   0 206032. 5808.91   8
 -11   1  -1 134515. 4155.37   4
 -11  -1  -1 135629. 4453.28   4
  11   1   1 136923. 4234.86   5
  11  -1   1 136515. 4406.14   5
  11  -1   1 132125. 4105.65   1
 -11  -1  -1 143015. 4540.30   2
 -11   1  -1 137582. 4545.75   2
  11  -1   1 140059. 3854.35  20
  11   1   1 136511. 4313.10  20
  11  -1   1 137357. 4143.14  16
 -11  -1  -1 139767. 4424.85  18
 -11   1  -1 133049. 4216.23   8
  11   1   1 135791. 4140.76  16
  11   1   1 137457. 4480.80  11
  11   1   1 138945. 3526.18  12
 -11  -1  -1 133784. 4267.60   8
 -11  -1  -2 3524.00 584.856   2
  11  -1   2 2097.07 381.149   1
 -11   1  -2 2636.80 490.485   2
  11   1   2 1730.12 382.625  20
 -11  -1  -2 2266.39 480.228  18
  11  -1   2 2316.30 461.648   6
  11   1   2 2016.98 503.971   6
 -11  -1  -2 1664.06 363.071   8
 -11   1  -2 1906.01 375.330   8
  11  -1   2 2780.79 447.626  16
  11   1   2 1821.24 395.879  16
  11   1   2 1801.80 202.698  12
  11  -1   2 1993.84 438.423   5
 -11   1  -2 2267.50 404.245   4
 -11  -1  -2 2108.49 460.616   4
  11   1   2 1541.02 374.382   5
  11  -1   3 114589. 3953.56   1
 -11  -1  -3 129113. 4456.86   2
 -11   1  -3 121908. 4336.85   2
  11   1   3 119349. 4049.47  20
 -11  -1  -3 124111. 4405.94  18
  11  -1   3 121720. 4299.30   6
  11   1   3 126192. 4534.83   6
 -11   1  -3 121339. 3805.34   8
  11  -1   3 122240. 4090.48  16
  11   1   3 123184. 4100.44  16
  11   1   3 120502. 3279.15  12
  11   1   3 123658. 4046.34   5
 -11   1  -3 125336. 3915.25   4
 -11  -1  -3 124111. 4395.89   4
  11  -1   3 120216. 4274.10   5
 -11  -1  -4 170298. 5711.01   2
 -11   1  -4 167223. 5587.84   2
  11   1   4 162756. 5258.19  20
 -11  -1  -4 168698. 5750.87  18
 -11   1  -4 173253. 5800.59  18
  11  -1   4 164469. 5507.66   6
  11   1   4 166639. 5737.63   6
  11  -1   4 166649. 5336.99  16
  11   1   4 169635. 5362.25  16
 -11  -1  -4 167442. 5365.12  15
 -11   1  -4 172512. 4872.25   8
  11  -1   4 172987. 5565.50   5
  11   1   4 166097. 5153.33   5
 -11  -1  -5 31459.6 2117.77  18
 -11   1  -5 30751.6 2100.23  18
  11  -1   5 31261.3 1995.08   6
  11   1   5 33286.7 2153.41   6
  11  -1   5 28523.2 1817.01  16
  11   1   5 31342.8 1827.45  16
 -11  -1  -5 30226.5 1897.65  15
 -11  -1  -5 31666.5 2064.46   2
 -11   1  -5 29272.4 1936.12   2
  11   1   5 31524.1 1715.50   5
  11  -1   5 31750.1 1953.00   5
 -11  -1  -6 13212.0 1417.86   9
 -11  -1  -6 14511.2 1551.04  18
 -11   1  -6 15208.0 1539.88  18
  11  -1   6 15156.4 1416.84   6
  11   1   6 16410.9 1564.56   6
  11  -1   6 14351.7 1289.05  16
  11   1   6 13565.7 1227.64  16
 -11  -1  -6 13899.7 1346.72  15
 -11  -1  -6 11775.0 1312.85   2
 -11   1  -6 13618.6 1338.03   2
  11  -1   6 14889.1 1349.40   5
  11   1   6 15326.6 1178.65   5
 -11  -1  -7 40099.6 2694.28   9
 -11  -1  -7 39567.1 2772.93  18
 -11   1  -7 37964.7 2647.36  18
  11   1   7 37451.8 2008.46   5
  11  -1   7 39372.3 2469.66   6
  11   1   7 39555.3 2585.84   6
  11  -1   7 35996.0 2209.79  16
  11   1   7 40011.7 2275.83  16
 -11  -1  -7 39984.3 2516.85  15
 -11   1  -7 44292.4 2806.51  15
 -11  -1  -7 40330.5 2617.78   2
 -11   1  -7 41105.1 2556.58   2
  11  -1   7 39137.7 2325.12   5
 -11  -1  -8 50350.4 3332.98  18
  11  -1   8 48982.6 2739.59  16
 -11   1  -8 51315.5 3312.25  18
  11   1   8 49265.6 2426.47   5
  11  -1   8 52878.3 2802.99   5
  11  -1   8 51289.3 2990.21   6
  11   1   8 58323.1 3279.74   6
  11   1   8 50842.4 2752.70  16
 -11  -1  -8 54886.4 3163.88  15
 -11   1  -8 46829.1 3190.45  15
 -11  -1  -8 48070.3 3089.56   2
 -11   1  -8 51032.8 3038.32   2
 -11  -1  -8 49030.7 3257.33   9
 -11   1  -8 48654.9 3376.06   9
 -11  -1  -9 11326.8 1680.79  18
 -11   1  -9 10733.5 1562.30  18
  11  -1   9 11155.2 1303.28  16
  11  -1   9 13110.4 1481.45   6
  11  -1   9 11381.3 1277.08   5
  11   1   9 14549.2 1666.80   6
  11   1   9 12822.5 1356.00  16
 -11  -1  -9 12295.9 1536.92  15
 -11   1  -9 14386.7 1750.40  15
 -11  -1  -9 10731.0 1454.75   2
 -11   1  -9 12763.3 1522.64   2
 -11  -1  -9 14283.9 1732.88   9
 -11   1  -9 10881.3 1614.83   9
 -11  -1 -10 9698.53 1524.99   9
 -11   1 -10 7871.93 1495.29   9
 -11  -1 -10 7121.18 1400.64  18
 -11   1 -10 7898.78 1410.12  18
  11  -1  10 8501.17 1263.53   6
  11   1  10 9138.01 1379.66   6
  11  -1  10 9057.70 1226.17  16
  11   1  10 6200.82 1012.01  16
 -11   1 -10 8418.77 1460.36  15
 -11  -1 -10 7010.22 1209.56   2
  11  -1  10 6967.77 1003.11   5
 -11  -1 -11 25391.7 2764.14  17
 -11   1 -11 22853.9 2762.61  17
 -11  -1 -11 25026.2 2546.72  18
 -11   1 -11 23181.9 2488.04  18
  11  -1  11 24658.1 2099.10  16
  11  -1  11 28306.8 2384.31   6
  11   1  11 28538.5 2497.61   6
  11   1  11 26345.6 2160.06  16
 -11   1 -11 27305.2 2708.46  15
 -11  -1 -11 24167.4 2499.20   9
 -11   1 -11 26034.5 2715.09   9
 -11  -1 -11 22221.5 2194.16   2
  11  -1  12 9065.57 1318.88  16
  11  -1  12 8250.42 1300.25   6
  11   1  12 10645.1 1576.51   6
 -11   1 -12 7604.49 1502.54  18
 -11  -1 -12 12673.6 1965.32  17
 -11  -1 -12 8724.93 1613.90  18
 -11  -1 -12 9846.46 1612.10   9
 -11   1 -12 10283.3 1754.20   9
  11  -3 -13 1410.75 810.646  17
  11   3 -13-373.090 565.668  17
  11   3 -13 28.4659 547.164  11
 -11  -3  13 93.6640 365.238   4
 -11   3  13-485.284 603.265   4
 -11   3  13 703.535 457.796  10
  11  -3 -13-273.955 666.424   9
 -11  -3  13-536.223 447.957  10
  11  -3 -12 9087.80 1600.61  17
  11   3 -12 8511.04 1556.14  17
  11   3 -12 8848.60 1658.97  11
 -11  -3  12 10949.7 1283.96   4
 -11   3  12 11065.5 1538.18   4
  11  -3 -12 11434.8 1823.68   9
 -11  -3  12 12875.3 1411.59  10
 -11   3  12 12520.1 1382.72  10
  11  -3 -11 29275.3 2651.85  17
  11   3 -11 25015.6 2442.93  17
  11   3 -11 19039.8 2380.85  11
 -11   3  11 27622.9 2359.47   4
 -11  -3  11 24090.1 1883.62   4
  11  -3 -11 25554.9 2493.93   9
 -11  -3  11 27886.8 2002.72  10
 -11   3  11 27467.4 1999.69  10
  11   3 -10 3253.26 923.615  17
  11  -3 -10 2727.47 811.312  17
 -11   3  10 5248.90 832.527  10
  11  -3 -10 5590.39 1112.75   9
  11   3 -10 3383.74 809.837   9
 -11  -3  10 5275.72 846.039  10
  11   3 -10 3107.72 904.936  11
 -11   3  10 4013.54 948.226   4
 -11  -3  10 4709.29 826.056   4
 -11  -3   9 8709.10 944.915   3
  11   3  -9 10020.1 1215.65   9
  11  -3  -9 8643.72 1268.11   9
 -11  -3   9 9954.37 1055.14  10
 -11   3   9 10687.4 1100.40  10
  11  -3  -9 8423.52 1277.05  17
  11   3  -9 8516.00 1231.15  17
 -11   3   9 9983.10 1043.53   8
  11   3  -9 8480.91 1350.89  11
 -11   3   9 10003.0 1328.42   4
 -11  -3   9 8791.46 1027.11   4
 -11  -3   8 42407.5 2214.42   3
  11  -3  -8 41217.4 2656.14   9
  11   3  -8 39533.5 2301.76   9
 -11  -3   8 44827.1 2237.32  10
 -11   3   8 43557.8 2280.16  10
  11  -3  -8 39227.1 2578.68  17
  11   3  -8 41396.8 2585.55  17
 -11   3   8 43395.4 2342.84   8
  11  -3  -8 45937.2 2559.16  13
  11   3  -8 37257.2 2700.13  11
 -11   3   8 42036.2 2714.65   4
 -11  -3   8 45363.3 2388.92   4
 -11  -3   7 38929.8 2095.14   3
  11  -3  -7 43544.7 2593.74   9
  11   3  -7 38870.2 2086.08   9
 -11  -3   7 40663.5 2016.71  10
 -11   3   7 42611.1 2138.37  10
  11  -3  -7 40811.8 2491.35  17
  11   3  -7 37021.9 2297.28  17
 -11   3   7 43190.9 2328.75   8
  11  -3  -7 39196.5 2370.90  13
  11  -3  -7 40667.9 2057.46  11
  11   3  -7 37214.3 2547.07  11
 -11   3   7 37733.4 2487.49   4
 -11  -3   7 40364.8 2158.14   4
 -11   3   6 6549.74 973.879   4
 -11  -3   6 7105.89 829.832   4
 -11  -3   6 6762.48 794.125   3
 -11  -3   6 5940.54 630.455  19
  11   3  -6 6585.32 1012.38  20
  11  -3  -6 5976.21 894.634  17
  11   3  -6 5694.88 817.814  17
 -11   3   6 7272.00 916.745   8
  11  -3  -6 6629.51 938.804  13
  11  -3  -6 5822.05 685.760  11
  11   3  -6 5952.76 994.737  11
  11   3  -6 6094.95 728.707   9
  11  -3  -6 5710.13 905.778   9
 -11  -3   6 6698.79 725.085  10
 -11   3   5 33149.7 2039.76   4
 -11  -3   5 30970.1 1780.03   4
 -11  -3   5 31333.2 1761.37   3
 -11  -3   5 31326.7 1585.09  19
  11   3  -5 34452.0 2264.99  20
  11   3  -5 34134.1 1973.76  17
  11  -3  -5 33063.6 2069.48  17
 -11   3   5 33238.8 2011.76   8
 -11   3   5 32768.8 1786.00  14
  11  -3  -5 31732.2 2034.18  13
 -11   3   5 34000.7 1765.85  12
  11  -3  -5 33016.0 1657.11  11
  11   3  -5 32719.4 2186.93  11
  11  -3  -5 36976.0 2203.19   9
  11   3  -5 34110.9 1665.77   9
 -11  -3   5 30095.0 1576.91  10
 -11   3   4 174678. 5618.72   4
 -11  -3   4 176947. 5491.85   4
  11  -3  -4 173312. 5489.11   5
 -11  -3   4 172739. 4907.15   2
 -11  -3   4 175805. 5413.20   3
 -11  -3   4 170347. 5185.03  19
  11   3  -4 178037. 6228.95  20
  11   3  -4 184280. 5720.23  17
  11  -3  -4 175009. 5820.18  17
 -11   3   4 182815. 5904.01   8
 -11   3   4 180361. 5383.50  14
  11  -3  -4 176926. 5875.64  13
 -11   3   4 177458. 5215.58  12
  11  -3  -4 183536. 5176.46  11
  11   3  -4 173287. 5929.64  11
 -11  -3   4 172426. 5099.29  10
 -11   3   3 112734. 3904.18   4
 -11  -3   3 116772. 4004.92   4
  11  -3  -3 115266. 3973.98   5
 -11  -3   3 114031. 3643.54   2
 -11  -3   3 112398. 3875.49   3
 -11  -3   3 109261. 3734.58  19
  11   3  -3 119864. 4620.19  20
 -11   3   3 116056. 4322.43   8
 -11   3   3 117146. 4081.88   7
 -11  -3   3 113866. 3983.55  14
 -11   3   3 116834. 3816.97  14
  11  -3  -3 114612. 4243.67  13
 -11   3   3 113928. 3571.20  12
  11  -3  -3 113451. 3633.00  11
  11   3  -3 113399. 4216.00  11
 -11  -3   3 117298. 3612.04  10
 -11  -3   2 1667.40 382.994   3
  11  -3  -2 3330.99 346.030   1
 -11  -3   2 2009.90 399.634   2
  11   3  -2 2576.56 580.942  20
  11   3  -2 2543.67 429.923  21
 -11  -3   2 1488.58 280.162  18
 -11   3   2 1757.48 445.027   7
 -11   3   2 1117.52 417.294   8
  11  -3  -2 1917.79 432.017  13
 -11   3   2 1638.62 351.661  14
 -11  -3   2 1534.03 364.852  14
  11   3  -2 2759.36 543.783  11
  11  -3  -2 1712.32 347.438  11
 -11   3   2 2069.55 317.434  12
  11  -3  -2 2079.63 459.158   5
 -11  -3   2 2084.98 493.881   4
 -11   3   2 1864.08 375.581   4
 -11  -3   1 103149. 3767.90   2
 -11  -3   1 108725. 3724.37   3
  11  -3  -1 108036. 3254.43   1
  11   3  -1 111198. 4172.86  20
 -11  -3   1 108622. 3505.99  18
 -11   3   1 106660. 4132.50   7
 -11   3   1 106941. 4080.08   8
 -11   3   1 108874. 3660.90  14
 -11  -3   1 110424. 3802.90  14
  11  -3  -1 110500. 3995.34  13
  11   3  -1 106510. 3894.68  11
  11   3  -1 108522. 3814.64  12
 -11  -3   1 113285. 3955.38   4
  11  -3  -1 113616. 3851.14   5
 -11   3   1 110918. 3470.73   4
 -11  -3   0 144519. 4842.82   2
  11  -3   0 145465. 4274.10   1
  11   3   0 149372. 5071.73  20
  11  -3   0 140231. 4606.02  16
 -11  -3   0 145285. 4565.08  18
 -11   3   0 139747. 5096.00   7
 -11   3   0 153160. 5003.32   8
 -11  -3   0 153328. 4790.54  14
  11   3   0 147402. 4827.30  11
  11   3   0 142142. 4518.20  12
 -11  -3   0 146492. 4897.47   4
  11  -3   0 150052. 4796.97   5
 -11   3   0 142105. 4105.37   4
  11   3   0 145184. 4207.13   5
 -11  -3  -1 88631.4 3523.68   2
  11  -3   1 87433.8 3028.60   1
 -11   3  -1 87261.2 2792.60  21
  11   3   1 89589.3 3578.73  20
 -11  -3  -1 85300.9 3300.47  18
  11  -3   1 83913.8 3227.74  16
 -11   3  -1 81881.5 3665.95   7
 -11   3  -1 83584.8 3338.69   8
  11   3   1 90825.9 3558.67   6
  11  -3   1 85642.9 3112.82   6
  11   3   1 89941.1 3420.89  11
  11   3   1 86713.5 3043.53  12
 -11  -3  -1 89166.3 3541.28   4
 -11   3  -1 89760.9 2693.95   4
  11  -3   1 83921.3 3364.08   5
  11   3   1 89331.2 2846.69   5
 -11   3  -2 294.386 296.745   2
  11  -3   2 315.006 231.860   1
 -11  -3  -2-111.687 282.161   2
  11   3   2 502.245 326.109  20
 -11   3  -2 621.047 217.732  21
 -11  -3  -2 94.3931 217.006  18
  11   3   2 204.017 272.473   6
 -11   3  -2 302.233 298.006   7
 -11   3  -2-44.7317 189.879   8
  11  -3   2 354.276 239.833   6
  11  -3   2 912.820 340.780  16
  11   3   2 27.9346 161.717  12
  11   3   2 758.942 343.626  11
 -11  -3  -2 67.8312 273.806   4
  11  -3   2 279.947 245.540   5
  11   3   2 60.7434 114.757   5
 -11  -3  -3 105606. 4235.14   4
  11  -3   3 101649. 3936.89   5
 -11   3  -3 101750. 4026.52   2
 -11  -3  -3 101526. 4147.96   2
  11  -3   3 103713. 3683.24   1
  11   3   3 103865. 3998.83  20
  11  -3   3 101040. 3829.59  16
 -11  -3  -3 99128.7 4033.25  18
 -11   3  -3 99304.1 4156.87   7
  11  -3   3 106126. 3666.88   6
  11   3   3 105519. 4089.26   6
 -11   3  -3 101894. 3580.90   8
  11  -3   3 100313. 3369.69  10
  11   3   3 99968.6 3351.55  12
 -11  -3  -3 104349. 3581.46   9
  11  -3   4 127305. 4639.51   5
 -11  -3  -4 125946. 4852.36   2
 -11  -3  -4 121565. 3916.79   3
 -11   3  -4 123747. 4636.99   2
  11   3   4 120173. 4543.35  20
  11  -3   4 117464. 4422.93  16
 -11  -3  -4 120788. 4758.11  18
 -11   3  -4 118034. 4697.48   7
  11  -3   4 129099. 4289.11   6
  11   3   4 126379. 4746.94   6
 -11   3  -4 121255. 3954.53   8
  11   3   4 121903. 4393.82  16
  11   3   4 116392. 3825.73  12
 -11  -3  -4 117642. 4210.99   9
  11  -3   4 120283. 3867.15  10
  11  -3   5 22577.6 1755.85   5
 -11  -3  -5 19696.0 1775.86   2
 -11   3  -5 22341.1 1722.65   2
  11   3   5 22577.0 1728.44  20
  11  -3   5 22568.3 1686.25  16
 -11  -3  -5 24096.1 1918.26  18
 -11   3  -5 21923.4 1774.49  18
  11   3   5 24268.4 1871.72   6
  11  -3   5 23880.7 1598.61   6
 -11   3  -5 21101.6 1721.59   7
  11   3   5 21503.5 1601.59  16
  11   3   5 22710.1 1343.72  12
 -11  -3  -5 24470.5 1665.08   9
  11  -3   5 21244.6 1316.10  10
  11  -3   6 10003.9 1187.13   5
 -11  -3  -6 9233.74 1215.44   2
 -11   3  -6 8514.65 1063.58   2
  11   3   6 9951.71 1185.05  20
 -11  -3  -6 8483.69 1206.43  18
 -11   3  -6 11098.7 1303.01  18
  11   3   6 9522.55 1206.36   6
  11  -3   6 10571.8 1094.00   6
  11   3   6 9585.79 1118.05  16
  11  -3   6 8127.06 1041.88  16
  11   3   6 7729.37 790.627  12
 -11  -3  -6 9164.52 1089.13   9
 -11  -3  -7 39890.1 2447.40   9
 -11  -3  -7 35868.8 2662.42  18
  11  -3   7 35645.0 2361.92  16
 -11   3  -7 36289.4 2596.49  18
  11  -3   7 39317.3 2298.88   6
  11   3   7 40410.5 2665.61   6
  11   3   7 39547.6 2396.78  16
 -11  -3  -7 35099.4 2578.44   2
 -11   3  -7 33581.7 2306.77   2
  11  -3   7 37317.5 2445.04   5
 -11  -3  -8 30533.9 2574.24  18
  11  -3   8 34150.3 2384.89  16
 -11   3  -8 35851.7 2744.43  18
  11  -3   8 36950.9 2484.30   5
  11  -3   8 36423.3 2279.22   6
  11   3   8 38523.7 2698.26   6
  11   3   8 33833.3 2322.35  16
 -11   3  -8 33410.2 2843.96  15
 -11  -3  -8 30343.4 2516.55   2
 -11   3  -8 36983.0 2468.99   2
 -11  -3  -8 36063.1 2451.23   9
 -11  -3  -9 10621.3 1548.94  18
 -11   3  -9 9972.63 1519.81  18
  11  -3   9 10439.5 1230.16   6
  11   3   9 11036.5 1492.39   6
  11  -3   9 12721.6 1488.58   5
  11  -3   9 10058.0 1325.79  16
  11   3   9 11179.7 1377.16  16
 -11   3  -9 13349.4 1866.44  15
 -11  -3  -9 6942.30 1257.70   2
 -11   3  -9 9069.97 1689.30   9
 -11  -3  -9 10507.0 1365.35   9
 -11  -3 -10 7209.99 1259.81   9
 -11   3 -10 4848.96 1247.74   9
 -11   3 -10 6629.33 1295.21  18
 -11  -3 -10 8123.36 1420.30  17
 -11  -3 -10 7448.97 1333.48  18
  11   3  10 6872.09 1238.78   6
  11  -3  10 7101.42 1064.50   6
  11  -3  10 7779.75 1198.23  16
  11   3  10 6252.37 1077.19  16
 -11   3 -10 6622.15 1435.40  15
 -11  -3 -10 6871.58 1265.58   2
  11  -3  10 5951.65 1072.76   5
 -11   3 -11 25717.3 2859.74  17
  11  -3  11 22972.6 2116.20  16
 -11  -3 -11 19250.1 2266.37  18
 -11   3 -11 20067.8 2374.67  18
 -11  -3 -11 19363.3 2219.01  17
  11   3  11 23192.7 2305.08   6
  11  -3  11 15787.2 1717.33   5
  11   3  11 21183.4 1988.55  16
 -11   3 -11 23081.0 2730.63  15
 -11  -3 -11 15984.4 1914.15   2
 -11   3 -11 23102.5 2779.63   9
 -11  -3 -11 18315.9 2033.40   9
 -11  -3 -12 6023.80 1232.91   9
 -11   5  12 5382.21 1140.29   4
  11   5 -12 6115.68 1417.08  20
  11   5 -12 4619.20 1313.18  11
 -11   5  12 8751.83 1275.12  10
  11  -5 -12 5147.44 1233.44   9
 -11  -5  12 6741.99 1097.96  10
  11  -5 -12 6153.26 1298.10  17
 -11   5  11 17027.5 1907.37   4
  11   5 -11 11953.3 1833.77  20
  11  -5 -11 15445.8 1849.44  17
  11   5 -11 13035.3 2120.43  11
  11  -5 -11 14363.8 1910.89   9
 -11  -5  11 18547.7 1722.74  10
 -11   5  11 19267.7 1841.19  10
 -11   5  10 2670.66 858.210   4
 -11  -5  10 2823.66 651.707   4
 -11  -5  10 2642.12 638.644   3
  11   5 -10 3820.74 1046.17  20
  11  -5 -10 3557.96 897.879  17
 -11   5  10 3300.02 747.110   8
  11   5 -10 3496.92 1111.81  11
 -11   5  10 4105.35 866.149  10
  11  -5 -10 2355.23 849.649   9
 -11  -5  10 3444.98 731.327  10
 -11   5   9 8245.90 1309.04   4
 -11  -5   9 7079.76 947.716   4
 -11  -5   9 6713.12 944.985   3
  11   5  -9 6387.28 1260.76  20
  11  -5  -9 7399.23 1185.60  17
 -11   5   9 7775.03 1161.80   8
  11  -5  -9 7388.93 1257.05  13
  11   5  -9 4878.47 1145.36  11
 -11   5   9 6972.58 1066.26  12
 -11   5   9 8119.77 1119.99  10
  11  -5  -9 8395.24 1316.28   9
 -11  -5   9 7793.62 1044.12  10
 -11   5   8 24817.1 2138.17   4
 -11  -5   8 22255.0 1679.37   4
  11  -5  -8 22260.8 1721.77   5
 -11  -5   8 19036.4 1557.92   3
  11   5  -8 25934.7 2340.44  20
  11  -5  -8 23201.2 1919.00  17
 -11   5   8 22790.8 1931.90   8
  11  -5  -8 23965.7 2153.29  13
 -11   5   8 18976.3 1710.81  12
  11   5  -8 18893.9 2058.99  11
  11  -5  -8 23503.0 2085.33   9
 -11  -5   8 23798.5 1729.38  10
 -11   5   7 29837.2 2310.74   4
  11  -5  -7 30948.3 1988.05   5
 -11  -5   7 29756.6 1910.75   4
 -11  -5   7 25498.6 1822.95   3
  11   5  -7 29692.0 2432.32  20
  11  -5  -7 33735.6 2255.51  17
 -11   5   7 31771.9 2295.18   8
  11  -5  -7 33014.0 2505.85  13
 -11   5   7 28252.6 2021.66  12
  11   5  -7 25763.8 2277.97  11
  11  -5  -7 29578.8 2286.12   9
 -11  -5   7 30359.7 1924.88  10
  11  -5  -6 3677.46 658.055   5
 -11   5   6 3032.02 699.138   4
 -11  -5   6 4533.90 730.308   4
 -11  -5   6 3425.68 641.449   3
 -11  -5   6 2989.93 543.767  19
  11   5  -6 2814.06 821.131  20
  11  -5  -6 3426.00 731.466  17
 -11   5   6 3241.73 806.617   8
  11  -5  -6 3527.51 868.816  13
  11   5  -6 2378.15 636.410  11
 -11   5   6 2944.05 634.509  12
  11  -5  -6 3992.48 831.459   9
 -11  -5   6 3791.37 658.889  10
 -11   5   5 20820.7 1687.60   4
 -11  -5   5 20090.7 1484.86   4
  11  -5  -5 22069.9 1547.48   5
 -11  -5   5 18753.9 1487.50   3
 -11  -5   5 19018.8 1333.54  19
  11   5  -5 21670.1 1983.84  20
  11  -5  -5 22261.5 1692.06  17
 -11   5   5 21290.2 1590.49   7
 -11   5   5 22383.3 1945.14   8
  11  -5  -5 22816.8 1938.46  13
 -11   5   5 20814.0 1556.12  12
  11   5  -5 20231.8 1783.21  11
 -11  -5   5 18628.0 1428.84  10
 -11  -5   4 96907.9 3829.79   3
 -11   5   4 92602.7 3994.10   7
 -11   5   4 93737.4 4419.16   8
  11   5  -4 97630.3 4248.11  21
 -11  -5   4 93926.5 3561.52  19
  11   5  -4 99073.5 4581.27  20
  11  -5  -4 104812. 4399.77  13
 -11   5   4 91734.4 3617.00  12
 -11  -5   4 94188.6 3651.52  10
  11   5  -4 98337.2 4248.57  11
 -11   5   4 93475.7 3783.69   4
 -11  -5   4 95706.8 3745.07   4
  11  -5  -4 102377. 3773.46   5
 -11  -5   3 76409.4 2857.91   2
 -11  -5   3 76046.4 3296.78   3
  11   5  -3 79399.2 3613.36  21
 -11  -5   3 75096.8 3111.64  19
  11   5  -3 81448.5 4023.32  20
 -11   5   3 78913.6 3733.35   7
 -11   5   3 76175.4 3898.00   8
  11  -5  -3 82999.9 3748.20  13
 -11   5   3 78581.2 3110.22  12
  11   5  -3 78419.8 3534.79  11
 -11   5   3 79510.5 3148.05   4
 -11  -5   3 77556.7 3281.44   4
  11  -5  -3 84198.3 3310.29   5
 -11  -5   2 2169.74 515.170   3
 -11  -5   2 2344.68 459.758   2
  11   5  -2 2693.40 715.675  20
  11   5  -2 3104.15 639.734  21
 -11  -5   2 2909.63 545.367  19
  11  -5  -2 2728.62 629.685  13
  11  -5  -2 2863.39 575.498   5
 -11  -5   2 3361.72 620.056   4
 -11   5   2 3312.62 508.400   4
  11   5  -2 3755.25 679.496  11
  11   5  -2 2236.21 626.082  12
 -11   5   2 3199.49 521.046  12
 -11   5   2 3656.10 779.592   7
 -11   5   2 1296.56 467.493   8
 -11  -5   1 48390.7 2405.30   2
 -11  -5   1 54830.5 2616.86   3
  11  -5  -1 52545.7 2952.01  19
 -11  -5   1 51460.8 2494.50  19
  11   5  -1 54018.0 2950.53  20
 -11   5   1 48291.7 3012.45   7
 -11   5   1 51219.6 3064.21   8
 -11  -5   1 48286.7 2241.32  14
  11  -5  -1 52988.2 2754.70  13
  11   5  -1 48778.0 2486.37  11
  11   5  -1 50915.8 2711.32  12
 -11  -5   1 49589.7 2559.68   4
  11  -5  -1 55886.8 2576.83   5
 -11  -5   0 76546.3 3309.90   2
 -11  -5   0 75227.9 3205.58   3
  11   5   0 74724.6 3593.55  20
 -11  -5   0 73015.8 3144.81  19
 -11  -5   0 76979.4 2872.95  18
 -11   5   0 66716.9 3775.56   7
  11   5   0 76336.6 3211.13   6
 -11   5   0 73407.2 3746.34   8
 -11  -5   0 72676.6 2910.85  14
  11  -5   0 81814.6 3462.02  13
  11   5   0 73436.9 3176.09  11
  11   5   0 73619.6 3304.56  12
 -11  -5   0 73785.6 3332.85   4
  11  -5   0 83860.0 3350.48   5
 -11  -5  -1 56177.2 2880.03   2
 -11  -5  -1 62538.9 2750.68   3
  11   5   1 53512.2 2959.21  20
 -11  -5  -1 54388.0 2677.89  19
 -11  -5  -1 56898.6 2577.30  18
 -11   5  -1 56608.7 3410.71   7
 -11   5  -1 54088.9 3023.92   8
  11   5   1 55409.9 2680.81   6
 -11  -5  -1 53300.5 2434.55  14
  11  -5   1 57365.3 2787.39  13
  11   5   1 57232.0 2691.69  11
  11   5   1 55154.2 2712.61  12
 -11  -5  -1 54522.6 2856.54   4
  11  -5   1 57123.3 2756.30   5
  11   5   2 1118.72 525.049  20
 -11   5  -2 627.843 325.486  21
 -11  -5  -2 78.7551 245.808  18
 -11  -5  -2 700.122 401.287  19
 -11  -5  -2 619.697 301.459   3
 -11  -5  -2 505.492 367.255   2
 -11   5  -2 835.907 353.321   1
 -11   5  -2 516.183 447.935   7
  11   5   2 460.544 275.906   6
 -11   5  -2 664.590 375.694   8
  11   5   2 660.101 370.628  12
  11   5   2 1262.62 429.797  11
 -11  -5  -2 788.417 417.849   4
  11  -5   2 845.060 377.077   5
 -11   5  -3 48073.2 2495.29  21
  11   5   3 48106.9 2846.99  20
 -11  -5  -3 47317.1 2549.24  19
 -11  -5  -3 48147.4 2637.16  18
 -11  -5  -3 48506.2 2810.80   2
 -11  -5  -3 45892.2 2279.17   3
 -11   5  -3 42810.0 2989.61   7
  11   5   3 47283.7 2539.65   6
 -11   5  -3 47608.2 2553.89   8
  11   5   3 49239.0 2449.42  12
 -11  -5  -3 42409.2 2681.01   4
  11  -5   3 49969.5 2659.92   5
 -11   5  -4 81723.0 3552.39  21
  11   5   4 77231.2 3827.22  20
  11  -5   4 76884.9 3624.72  16
 -11  -5  -4 81898.7 3754.73  18
 -11   5  -4 77257.1 3673.84   2
 -11  -5  -4 79088.1 3883.73   2
 -11  -5  -4 78287.1 3108.20   3
  11   5   4 82094.2 3611.44   6
 -11   5  -4 82844.2 4221.49   7
 -11   5  -4 73014.4 3277.52   8
  11  -5   4 76118.7 3231.53  10
  11   5   4 83268.2 3406.99  12
  11  -5   4 85194.6 3717.67   5
  11  -5   5 14200.4 1486.66   5
 -11  -5  -5 13226.8 1503.57   2
 -11   5  -5 13082.6 1395.36   2
  11   5   5 13645.1 1526.08  20
 -11  -5  -5 13505.4 1475.87  18
  11  -5   5 13745.6 1465.81  16
 -11   5  -5 11942.3 1503.00   7
  11   5   5 13212.2 1370.04   6
  11   5   5 12063.7 1175.03  12
  11  -5   5 11940.3 1162.60  10
 -11  -5  -6 7051.70 1169.82   2
 -11   5  -6 6420.76 973.746   2
  11   5   6 7055.90 1133.19  20
 -11   5  -6 6998.04 1100.11  18
 -11  -5  -6 7171.12 1052.08  19
 -11  -5  -6 7966.58 1218.10  18
 -11   5  -6 6465.72 1155.67   7
  11   5   6 7112.22 1081.64   6
  11  -5   6 8214.50 1146.34  16
  11   5   6 7760.77 964.073  12
  11  -5   6 6707.71 1075.15   5
 -11  -5  -7 16988.0 1844.80   2
 -11   5  -7 16167.8 1593.90   2
 -11  -5  -7 20095.4 1727.07  19
 -11  -5  -7 17532.1 1859.73  18
  11  -5   7 16977.5 1725.77  16
 -11   5  -7 18177.5 1845.35  18
 -11   5  -7 16717.7 1794.97   7
  11   5   7 19034.0 1807.13   6
  11   5   7 17795.8 1740.10  16
  11   5   7 16811.0 1478.77  12
  11  -5   7 18475.7 1768.34   5
 -11  -5  -8 23046.5 2200.31  18
  11  -5   8 21285.4 2027.27  16
 -11   5  -8 23766.8 2318.24  18
  11  -5   8 24216.9 2151.30   5
  11   5   8 24166.4 2106.89   6
 -11   5  -8 23067.0 2121.43   7
  11   5   8 24826.6 2175.63  16
 -11   5  -8 25602.9 2718.95  15
 -11  -5  -8 23781.6 1924.52  19
 -11  -5  -8 21648.6 2168.09   2
 -11   5  -9 5715.03 1397.52   9
 -11   5  -9 4285.67 1059.32  18
 -11  -5  -9 4597.63 1112.50  18
  11   5   9 3905.18 922.489   6
  11  -5   9 4532.51 1028.36  16
  11   5   9 3961.46 922.861  16
 -11   5  -9 5858.98 1377.69  15
  11  -5   9 5031.10 991.408   5
 -11  -5  -9 5826.05 1176.90   2
 -11  -5 -10 2376.75 843.234   2
 -11   5 -10 3657.79 1200.61   9
 -11  -5 -10 3134.63 896.203  18
  11   5  10 5359.26 1081.74   6
  11  -5  10 4117.75 963.682  16
  11   5  10 3948.42 975.608  16
 -11   5 -10 4828.05 1295.20  15
 -11  -5 -10 4921.99 1050.25  13
  11  -5  10 4948.14 1089.36   5
 -11   7  10 2154.69 808.627   4
  11   7 -10 1189.46 706.397  20
 -11  -7  10 1051.77 458.527   3
  11   7 -10 476.172 584.804  11
 -11   7  10 1462.37 662.048  12
  11  -7 -10 1243.93 744.118   9
 -11  -7  10 1597.18 659.400  10
 -11   7   9 2351.27 790.548   4
  11   7  -9 2806.72 988.913  20
 -11   7   9 2628.92 824.995   8
 -11  -7   9 2509.34 680.794   3
  11  -7  -9 3618.72 1035.30  13
  11   7  -9 1846.94 792.691  11
 -11   7   9 2559.86 837.417  12
 -11  -7   9 2908.45 735.983  10
 -11   7   8 13251.6 1661.84   4
  11   7  -8 12491.1 1817.38  20
 -11   7   8 14966.8 1823.37   8
 -11  -7   8 9866.86 1221.12   3
  11  -7  -8 12169.6 1708.58  13
  11   7  -8 12134.1 1749.66  11
 -11   7   8 11978.3 1490.38  12
 -11  -7   8 12457.2 1406.19  10
 -11   7   7 9266.80 1351.65   4
 -11  -7   7 13349.3 1333.72   4
 -11  -7   7 10483.6 1116.06  19
  11   7  -7 11152.1 1651.88  20
  11   7  -7 13541.3 1752.83  21
 -11   7   7 14029.0 1790.07   8
 -11  -7   7 10391.0 1226.00   3
  11  -7  -7 10268.3 1539.96  13
  11   7  -7 9137.58 1447.80  11
 -11   7   7 12195.5 1481.39  12
 -11  -7   7 13505.7 1443.71  10
 -11   7   6 3128.58 790.057   4
 -11  -7   6 2956.34 641.825   4
  11   7  -6 2211.66 810.642  20
  11   7  -6 3501.87 936.757  21
 -11  -7   6 3576.79 666.487  19
 -11   7   6 2476.27 825.047   8
 -11  -7   6 2680.74 657.790   3
  11  -7  -6 1634.96 726.176  13
  11   7  -6 1139.51 517.754  11
 -11   7   6 2214.17 658.694  12
 -11  -7   6 2339.39 640.410  10
 -11  -7   5 9355.11 1146.95   3
 -11   7   5 9267.32 1241.02   7
 -11   7   5 11780.6 1642.50   8
  11   7  -5 9217.74 1463.33  20
  11   7  -5 9198.82 1364.75  21
 -11  -7   5 6874.82 897.706  19
  11  -7  -5 10552.3 1465.61  13
  11   7  -5 8852.00 1263.10  11
  11   7  -5 10169.9 1445.18  12
 -11   7   5 7863.58 1100.80  12
 -11   7   5 10928.5 1296.68   4
 -11  -7   5 10063.2 1147.67   4
  11  -7  -5 10276.4 1151.24   5
 -11  -7   4 48794.0 2750.55   3
 -11   7   4 56426.7 3397.80   7
 -11   7   4 56733.0 3701.16   8
 -11  -7   4 46547.9 2485.88  19
  11   7  -4 51606.9 3263.49  21
  11  -7  -4 54587.4 3216.09  19
  11   7  -4 50019.0 3335.87  20
  11  -7  -4 53170.0 3183.02  13
 -11   7   4 48563.3 2745.93  12
  11   7  -4 48592.2 2973.13  11
  11   7  -4 55101.1 3408.73  12
 -11  -7   4 48570.3 2668.86   4
  11  -7  -4 50209.1 2665.20   5
 -11  -7   3 26880.0 1971.52   3
 -11   7   3 29035.9 2522.91   7
 -11   7   3 28193.0 2555.88   8
 -11  -7   3 27199.7 1838.04  19
  11  -7  -3 30853.0 2394.30  19
  11   7  -3 30091.0 2382.16  21
  11   7  -3 33407.9 2618.19  20
  11  -7  -3 31496.6 2336.56  13
  11   7  -3 30712.2 2187.43  11
  11   7  -3 32254.5 2536.73  12
 -11  -7   3 26814.0 1927.58   4
  11  -7  -3 28262.0 1903.12   5
 -11  -7   2-306.461 445.870   3
 -11   7   2-144.985 422.820   7
 -11   7   2 197.896 511.592   8
 -11  -7   2 58.9521 331.113  19
  11   7  -2-46.4933 436.732  20
  11   7  -2 232.174 362.111  21
  11  -7  -2 218.548 369.944  19
  11  -7  -2-98.0075 439.093  13
  11   7  -2 1067.84 634.630  12
 -11  -7   2 852.432 391.141  13
  11   7  -2-284.257 367.228  11
 -11  -7   2 309.019 331.056   4
  11  -7  -2 157.504 307.217   5
 -11  -7   1 24956.4 1861.90   3
 -11   7   1 28025.9 2564.73   7
 -11   7   1 20477.4 2166.08   8
 -11  -7   1 25371.3 1790.21  19
  11  -7  -1 26353.8 2238.45  19
  11   7  -1 23911.1 2120.22  20
  11  -7  -1 25509.2 1956.66  13
 -11  -7   1 20795.7 1567.17  13
  11   7  -1 21812.6 1682.41  11
  11   7  -1 26724.1 2158.55  12
 -11  -7   1 24672.8 1857.90   4
  11  -7  -1 24634.2 1762.84   5
 -11  -7   0 33626.7 2165.79   3
 -11   7   0 33397.2 2872.54   7
 -11   7   0 34565.5 2752.43   8
 -11  -7   0 32255.0 2118.45  19
  11  -7   0 31490.2 2541.56  19
  11   7   0 36478.4 2612.71  20
 -11  -7   0 32549.9 2077.18  13
  11  -7   0 34390.9 2258.26  13
  11   7   0 36904.5 2156.40  11
  11   7   0 35514.9 2469.43  12
 -11  -7   0 32447.6 2211.71   4
  11  -7   0 36601.6 2211.72   5
 -11  -7  -1 20571.1 1629.91   3
 -11   7  -1 20676.5 2248.64   7
  11   7   1 21154.2 1534.67   6
 -11   7  -1 20702.0 2075.76   8
 -11  -7  -1 19311.6 1624.71  19
  11  -7   1 21093.4 1998.46  19
  11   7   1 20783.7 1931.18  20
  11  -7   1 21760.1 1757.24  13
  11   7   1 20545.3 1822.23  12
 -11  -7  -1 18289.5 1682.96   4
  11  -7   1 20713.3 1670.49   5
 -11  -7  -2 280.081 301.753   3
  11   7   2 627.691 581.526  20
 -11  -7  -2 433.583 376.947  19
  11  -7   2 711.418 536.838  19
 -11   7  -2 791.795 546.718   8
 -11   7  -2 1172.28 765.565   7
  11   7   2-5.55653 280.596   6
  11  -7   2 709.829 399.468  13
  11   7   2 407.764 495.061  12
  11  -7   2-161.107 369.163   5
 -11  -7  -3 26760.3 2181.54   2
 -11  -7  -3 22369.4 1629.53   3
 -11  -7  -3 23761.9 1781.32  18
  11  -7   3 24255.6 2122.61  19
 -11  -7  -3 26630.7 1981.76  19
  11   7   3 24835.8 2185.44  20
 -11   7  -3 24845.6 2466.15   7
 -11   7  -3 23645.8 2016.70   8
  11   7   3 26617.7 1840.19   6
  11   7   3 27817.5 2115.87  12
  11  -7   3 27187.7 2007.13   5
 -11  -7  -4 34957.7 2363.23  18
 -11  -7  -4 36154.5 2434.36  19
  11   7   4 31985.3 2623.91  20
 -11   7  -4 34746.3 2930.94   7
  11   7   4 35476.6 2237.64   6
  11   7   4 35466.1 2450.88  12
  11  -7   4 37465.0 2461.25   5
 -11   7  -5 5383.10 947.142   2
  11   7   5 5159.59 1111.66  20
 -11  -7  -5 5688.63 958.279  19
 -11   7  -5 6199.16 1252.48   7
  11   7   5 5988.03 922.223   6
 -11  -7  -5 4883.24 930.453  18
  11   7   5 5598.16 953.640  12
 -11  -7  -5 4874.06 961.721  13
  11  -7   5 5072.54 937.342   5
  11   7   6 2545.66 832.625  20
 -11  -7  -6 1756.80 619.677  19
  11   7   6 3009.26 721.371   6
 -11   7  -6 3147.45 955.133   7
 -11   7  -6 2206.12 660.619  18
 -11  -7  -6 2968.31 812.806  18
 -11  -7  -6 2474.50 736.385  13
  11   7   6 1785.38 641.922  12
  11  -7   6 2614.36 782.084   5
 -11  -7  -7 9617.86 1241.65  19
 -11  -7  -7 11380.5 1555.84  18
 -11   7  -7 11809.5 1658.63   7
  11   7   7 11797.1 1406.67   6
 -11  -7  -7 9844.40 1356.14  13
  11   7   7 11943.0 1401.48  12
  11  -7   7 11178.2 1412.74   5
 -11  -7  -8 8684.21 1421.34  18
 -11   7  -8 11059.3 1900.12  15
  11   7   8 9521.98 1477.31  16
  11  -7   8 12412.3 1511.88   5
 -11  -7  -8 10997.7 1435.10  13
  11   7   8 10204.2 1342.65  12
  11   7   8 7383.00 1134.18   6
 -11   7  -8 11217.6 1629.53   7
  11   7   9 2570.59 774.352   6
 -11   9   7 7432.12 1556.83   8
  11   9  -7 6122.85 1357.87  20
  11   9  -7 6962.88 1400.70  21
  11  -9  -7 5422.70 1217.79  13
  11   9  -7 5680.54 1299.03  12
 -11  -9   7 4958.33 950.098   3
 -11   9   6 1435.49 899.646   8
 -11  -9   6 600.775 390.246  19
  11   9  -6 222.351 617.218  20
  11   9  -6 213.422 682.425  21
  11  -9  -6 155.704 478.345  13
  11   9  -6 331.957 563.685  12
 -11  -9   6 1195.48 623.679   3
 -11   9   5 3546.94 1186.42   8
  11   9  -5 3827.13 1041.34  20
 -11  -9   5 2466.53 647.393  19
  11   9  -5 3164.48 1000.12  21
  11  -9  -5 2898.41 864.165  13
  11   9  -5 3290.45 985.447  12
 -11  -9   5 2986.11 743.191   3
 -11  -9   4 17691.9 1710.28   3
 -11   9   4 19907.7 2243.64   7
 -11   9   4 19866.7 2415.96   8
 -11  -9   4 16352.2 1541.40  19
  11   9  -4 16128.4 1972.82  20
  11   9  -4 20732.2 2236.25  21
  11  -9  -4 17631.2 1866.19  13
  11   9  -4 16683.4 2029.64  12
 -11  -9   4 15240.9 1513.96   4
 -11  -9   3 11148.3 1394.25   3
 -11   9   3 12331.8 1851.63   7
 -11   9   3 14623.4 2059.97   8
  11  -9  -3 13936.7 1707.93  19
  11   9  -3 10177.8 1567.29  20
 -11  -9   3 10545.6 1197.37  19
  11  -9  -3 11929.9 1545.02  13
  11   9  -3 12742.0 1718.72  12
 -11  -9   3 10331.3 1269.37   4
 -11  -9   2-250.574 489.572   3
 -11   9   2-135.090 603.154   7
 -11   9   2-576.118 723.503   8
  11  -9  -2 1114.88 628.536  19
 -11  -9   2-85.7429 426.709  19
  11   9  -2 338.159 491.863  20
  11  -9  -2 792.348 561.868  13
  11   9  -2 474.082 484.389  12
 -11  -9   2 475.999 414.090   4
 -11   9   1 8883.90 1635.04   7
 -11   9   1 7237.24 1541.61   8
  11  -9  -1 6835.64 1252.12  19
 -11  -9   1 8410.60 1117.88  19
  11   9  -1 6854.78 1304.75  20
  11  -9  -1 7900.96 1176.29  13
 -11  -9   1 6905.28 926.900  13
  11   9  -1 9359.77 1479.64  12
 -11  -9   1 8075.68 1134.24   3
 -11   9   0 11620.1 1893.88   7
 -11   9   0 13226.7 1858.65   8
  11  -9   0 9220.03 1443.71  19
  11   9   0 12303.5 1633.16  20
 -11  -9   0 9312.83 1194.32  19
 -11  -9   0 10052.7 1151.37  13
  11  -9   0 8214.64 1176.26  13
  11   9   0 10735.1 1534.49  12
 -11  -9   0 9881.36 1239.32   3
 -11  -9  -1 8042.75 1104.94   3
 -11   9  -1 6703.03 1438.02   7
 -11   9  -1 8840.92 1553.32   8
  11   9   1 9645.80 1456.92  20
 -11  -9  -1 7756.39 1093.54  19
  11  -9   1 7862.21 1280.65  19
  11  -9   1 8173.20 1146.01  13
 -11  -9  -1 6070.31 942.749  13
  11   9   1 7057.68 1285.14  12
  11  -9   1 8563.09 1142.63   5
 -11  -9  -2 119.882 304.788   3
  11   9   2 725.716 612.822  20
 -11  -9  -2-126.533 381.754  19
  11  -9   2 250.086 452.282  19
  11  -9   2 479.437 496.528  13
 -11  -9  -2-298.110 416.284  13
 -11   9  -2-941.844 845.596   7
 -11   9  -2-632.532 590.438   8
  11   9   2-689.649 564.786  12
  11  -9   2-529.246 467.979   5
  11   9   3 9006.38 1427.46  20
 -11  -9  -3 8389.01 1191.31  19
  11  -9   3 8041.07 1285.94  19
  11  -9   3 7384.48 1035.39  13
  11   9   3 9836.62 1460.34  12
 -11  -9  -3 7896.73 1169.36  13
  11  -9   3 9645.59 1242.72   5
 -11   9  -3 8334.52 1636.51   7
 -11   9  -3 7225.00 1289.48   8
  11   9   4 13503.3 1802.31  20
 -11  -9  -4 10908.2 1370.92  19
  11  -9   4 11563.2 1510.86  19
 -11   9  -4 14315.2 2047.49   7
  11   9   4 13874.7 1732.35  12
 -11  -9  -4 10332.2 1386.72  13
  11  -9   4 11699.3 1378.84   5
  11   9   5 3441.87 982.830  20
 -11  -9  -5 3917.28 842.996  19
 -11  -9  -5 2766.21 797.462  13
  11   9   5 2212.26 773.166  12
  11  -9   5 2076.75 640.901   5
 -11   9  -5 2543.67 984.392   7
 -11  -9  -6 1396.24 588.153  19
  11   9   6 1141.21 551.537  12
  11  -9   6 1214.65 645.011   5
  12   0 -13-227.970 675.686  17
  12   0 -13 360.794 595.636  11
 -12   0  13 215.517 431.600   4
 -12   0  13-362.273 399.965  10
  12   0 -13-58.6272 500.674   9
  12   0 -12 7418.20 1449.92  17
  12   0 -12 5754.34 1273.61  11
 -12   0  12 10311.3 1351.68   4
 -12   0  12 9964.17 1175.93  10
  12   0 -12 8617.24 1543.24   9
  12   0 -11 29248.2 2649.89  17
  12   0 -11 27298.3 2526.96  11
 -12   0  11 31523.5 2313.62   4
  12   0 -11 30959.1 2623.23   9
 -12   0  11 33803.4 2096.46  10
  12   0 -10 12077.4 1605.28  17
  12   0 -10 11232.0 1505.32   9
 -12   0  10 14125.9 1250.68  10
  12   0 -10 12436.9 1611.01  11
 -12   0  10 14492.6 1508.65   4
  12   0  -9 17.5101 393.071  17
 -12   0   9 649.697 363.577  10
  12   0  -9 21.2788 355.850   9
 -12   0   9 649.082 317.662   8
  12   0  -9-257.322 418.563  11
 -12   0   9 69.3295 352.467   4
 -12   0   8 30722.0 1661.09   3
  12   0  -8 26366.8 2111.26  17
  12   0  -8 29115.8 2158.67   9
 -12   0   8 30508.2 1718.04  10
 -12   0   8 32989.2 1809.32   8
  12   0  -8 29079.5 2199.20  11
 -12   0   8 31844.3 2136.74   4
  12   0  -7 110500. 4581.89  17
  12   0  -7 108619. 4388.74   9
 -12   0   7 103040. 3624.16  10
 -12   0   7 111345. 3910.80   8
  12   0  -7 107147. 4393.29  11
 -12   0   7 111771. 4256.81   4
 -12   0   6 38907.0 1773.76   2
  12   0  -6 39746.1 2452.64  17
  12   0  -6 40072.9 2278.58   9
 -12   0   6 42331.3 1806.72  10
 -12   0   6 42071.1 2081.41   8
  12   0  -6 42073.8 2383.62  11
 -12   0   6 40940.3 2212.17   4
 -12   0   5 12339.9 932.826   2
  12   0  -5 12997.1 1180.44   9
 -12   0   5 13329.7 830.172  10
  12   0  -5 13466.3 1278.42  17
 -12   0   5 13817.2 1103.43   8
  12   0  -5 13436.5 1237.90  11
 -12   0   5 11325.7 1074.78   4
 -12   0   4 228548. 6645.89   4
 -12   0   4 217873. 6302.72   2
  12   0  -4 230451. 6806.21  20
  12   0  -4 226635. 7006.92  17
 -12   0   4 226054. 6622.26   8
 -12   0   4 236383. 6874.85  14
  12   0  -4 226788. 6878.45  11
  12   0  -4 231442. 6798.08   9
 -12   0   4 219215. 5748.25  10
 -12   0   3 167445. 5129.32   4
 -12   0   3 160840. 4958.84   2
  12   0  -3 162985. 5118.54  20
 -12   0   3 166684. 5164.99   8
 -12   0   3 167423. 5343.15  14
  12   0  -3 167570. 5358.70  11
 -12   0   3 164751. 4183.07  10
 -12   0   2 21703.7 1344.03   2
  12   0  -2 21495.1 1304.37  20
  12   0  -2 20692.9 913.549  16
 -12   0   2 22168.1 1378.36   8
 -12   0   2 23461.3 1505.04  14
  12   0  -2 23217.9 1475.91  11
 -12   0   2 20980.7 1326.39   4
 -12   0   1 5063.03 632.155   2
  12   0  -1 5053.10 584.865  20
  12   0  -1 6017.95 495.502  16
 -12   0   1 5026.53 693.042  14
 -12   0   1 5967.88 670.816   4
  12   0  -1 5850.06 673.739   5
  12   0  -1 4884.95 658.312  11
 -12   0   1 4792.82 638.007   8
 -12   0   0 104794. 3708.54   2
 -12   0   0 105510. 3597.33   8
  12   0   0 106151. 3416.09  20
  12   0   0 103564. 3227.06  16
  12   0   0 105852. 3736.79  11
 -12   0   0 104302. 3550.31   4
  12   0   0 103613. 3584.86   5
  12   0   1 204417. 6015.74   1
 -12   0  -1 218035. 6459.31   2
  12   0   1 214139. 5930.75  20
 -12   0  -1 212849. 6132.75   8
  12   0   1 216141. 5965.31  16
  12   0   1 215226. 6389.85  11
 -12   0  -1 216097. 6237.81   4
  12   0   1 213760. 6242.98   5
  12   0   2 23991.1 1410.77   1
 -12   0  -2 26003.5 1637.91   2
  12   0   2 24750.1 1330.73  20
 -12   0  -2 26039.4 1642.03  18
  12   0   2 23166.6 1639.10   6
  12   0   2 23744.1 1395.10  16
 -12   0  -2 27227.6 1584.13   4
  12   0   2 23556.9 1495.81   5
 -12   0  -2 22674.6 1340.85   8
 -12   0  -3 83194.1 3409.69   2
  12   0   3 80832.0 2926.34  20
 -12   0  -3 80730.8 3418.13  18
  12   0   3 79161.1 3408.58   6
  12   0   3 75148.8 3051.60  16
 -12   0  -3 80483.8 2919.81   8
 -12   0  -3 85401.5 3249.65   4
  12   0   3 78127.5 3181.03   5
 -12   0  -4 239173. 6686.19   8
 -12   0  -4 246693. 7648.67  18
  12   0   4 242075. 7525.85   6
  12   0   4 229610. 7102.07  16
 -12   0  -4 248530. 7535.49   2
  12   0   4 244872. 7234.01   5
 -12   0  -5 37654.2 2423.99  18
  12   0   5 38373.3 2324.89   6
  12   0   5 34301.9 2029.85  16
 -12   0  -5 35895.8 2267.58   2
  12   0   5 37782.7 2095.65   5
 -12   0  -6 1580.02 540.652  18
  12   0   6 683.423 463.672   6
  12   0   6 1105.41 443.116  16
 -12   0  -6 73.0851 305.649  15
 -12   0  -6 558.956 398.412   2
  12   0   6 511.129 301.588   5
 -12   0  -7 19582.8 1915.91   9
 -12   0  -7 18714.9 1911.46  18
  12   0   7 20069.1 1798.06   6
  12   0   7 19007.6 1580.16  16
 -12   0  -7 16305.2 1698.52  15
 -12   0  -7 17532.9 1708.17   2
  12   0   7 17982.7 1474.01   5
 -12   0  -8 58981.3 3730.35  18
  12   0   8 60149.3 2962.66   5
  12   0   8 66002.9 3581.06   6
  12   0   8 58045.0 3056.85  16
 -12   0  -8 60655.9 3627.50  15
 -12   0  -8 57247.7 3477.51   2
 -12   0  -8 65379.6 3849.28   9
 -12   0  -9 16665.1 1992.99  18
  12   0   9 15799.1 1440.69   5
  12   0   9 19444.0 1923.27   6
  12   0   9 15327.1 1535.85  16
 -12   0  -9 17492.5 2020.15  15
 -12   0  -9 16538.7 1797.11   2
 -12   0  -9 16535.6 1978.27   9
 -12   0 -10 1891.20 771.141   9
 -12   0 -10 2906.75 944.250  18
  12   0  10 1937.99 778.366   6
  12   0  10 1016.14 541.054  16
 -12   0 -10 1882.51 811.631  15
 -12   0 -10 2153.30 727.521   2
  12   0  10 1577.13 509.889   5
  12   0  11 27861.4 2457.15   6
 -12   0 -11 28136.4 3032.69  17
 -12   0 -11 25428.0 2628.57  18
  12   0  11 23978.2 2108.87  16
 -12   0 -11 22978.6 2565.20   9
  12  -2 -13-511.987 644.124  17
  12   2 -13 421.478 604.525  17
  12   2 -13 393.615 557.407  11
 -12  -2  13 289.462 396.053   4
 -12   2  13 85.9948 472.345   4
 -12  -2  13 643.753 458.211  10
 -12   2  13 419.302 421.193  10
  12  -2 -13 438.130 739.951   9
  12   2 -13 519.225 624.463   9
  12  -2 -12 7041.09 1408.84  17
  12   2 -12 7589.30 1422.60  17
  12   2 -12 8022.59 1561.90  11
 -12  -2  12 9746.79 1248.31   4
 -12   2  12 9180.64 1373.37   4
 -12  -2  12 8662.58 1145.63  10
 -12   2  12 9615.61 1153.47  10
  12  -2 -12 8210.24 1500.44   9
  12   2 -12 6726.45 1294.33   9
  12  -2 -11 25461.4 2499.90  17
  12   2 -11 18963.0 2179.89  17
  12   2 -11 20681.4 2360.56  11
 -12   2  11 24579.6 2178.84   4
 -12  -2  11 27264.7 2053.38   4
  12  -2 -11 24854.2 2481.08   9
  12   2 -11 23908.7 2240.65   9
 -12  -2  11 25121.3 1857.98  10
 -12   2  11 26863.2 1900.20  10
  12  -2 -10 14950.2 1786.84  17
  12   2 -10 13754.5 1681.30  17
  12  -2 -10 14198.2 1745.44   9
 -12  -2  10 14505.1 1321.33  10
  12   2 -10 11857.0 1462.88   9
 -12   2  10 15647.5 1368.49  10
  12   2 -10 9949.76 1540.16  11
  12  -2 -10 13346.3 1462.06  11
 -12   2  10 15181.7 1660.70   4
 -12  -2  10 14640.7 1460.37   4
 -12  -2   9-221.571 227.053   3
  12  -2  -9 161.700 473.406  17
  12   2  -9 115.748 502.013  17
 -12  -2   9-203.649 292.018  10
 -12   2   9-75.9118 255.814  10
  12  -2  -9-4.92249 396.985   9
  12   2  -9-238.037 400.294   9
 -12   2   9 535.969 319.036   8
  12  -2  -9-66.3844 311.978  11
  12   2  -9 222.145 527.693  11
 -12  -2   9 81.0571 335.042   4
 -12   2   9-74.7811 382.435   4
 -12  -2   8 28236.5 1727.09   3
 -12  -2   8 30847.6 1777.74   8
  12  -2  -8 30723.8 2244.51   9
  12   2  -8 28674.1 2000.40   9
 -12  -2   8 31906.9 1792.26  10
 -12   2   8 32004.7 1806.08  10
  12  -2  -8 32309.9 2354.53  17
  12   2  -8 27484.9 2127.87  17
 -12   2   8 30667.6 1858.50   8
  12  -2  -8 30849.9 2013.34  11
  12   2  -8 26860.9 2237.15  11
 -12   2   8 30431.7 2239.68   4
 -12  -2   8 32261.7 2034.06   4
 -12  -2   7 73920.6 3036.31   3
  12  -2  -7 77902.9 3685.81   9
  12   2  -7 69895.0 3207.33   9
 -12  -2   7 77502.5 3110.03   8
 -12  -2   7 78521.1 2966.29  10
 -12   2   7 79641.1 3003.99  10
  12  -2  -7 84926.5 3818.97  17
  12   2  -7 74485.8 3561.69  17
 -12   2   7 79508.9 3275.94   8
  12  -2  -7 74999.4 3175.09  13
  12  -2  -7 70025.9 3204.43  11
  12   2  -7 73912.3 3732.16  11
 -12   2   7 78725.6 3701.81   4
 -12  -2   7 84864.2 3390.09   4
 -12   2   6 46852.8 2575.83   4
 -12  -2   6 47721.7 2390.61   4
 -12  -2   6 45761.8 2191.27   3
 -12  -2   6 46325.4 1893.23  19
  12  -2  -6 45944.0 2647.08  17
  12   2  -6 47576.4 2587.41  17
 -12   2   6 48757.5 2431.84   8
  12  -2  -6 46709.3 2340.82  13
  12  -2  -6 48983.1 2377.60  11
  12   2  -6 49442.3 2809.97  11
  12  -2  -6 49391.8 2708.67   9
  12   2  -6 45425.9 2304.13   9
 -12  -2   6 45606.1 1997.89  10
 -12  -2   6 47495.2 2284.54   8
 -12   2   6 48494.1 2083.02  10
 -12   2   5 16160.9 1347.06   4
 -12  -2   5 17227.8 1305.47   4
 -12  -2   5 13625.4 1102.34   3
 -12  -2   5 15942.9 1032.91  19
  12   2  -5 16343.2 1485.95  20
  12   2  -5 17399.6 1446.81  17
  12  -2  -5 18945.4 1526.44  17
 -12   2   5 18892.4 1392.14   8
  12  -2  -5 14756.1 1239.13  13
  12  -2  -5 17980.0 1299.30  11
  12   2  -5 17582.4 1534.66  11
  12  -2  -5 15947.6 1433.32   9
  12   2  -5 15417.1 1206.55   9
 -12  -2   5 17249.9 1043.60  10
 -12   2   5 16113.5 1032.12  10
 -12  -2   5 17798.9 1291.61   8
 -12  -2   4 185347. 5817.16   4
 -12   2   4 183632. 5827.83   4
 -12  -2   4 184267. 5296.50   2
  12   2  -4 194966. 6463.11  20
  12   2  -4 194521. 6187.31  17
  12  -2  -4 190283. 6222.78  17
 -12   2   4 184721. 5980.39   8
 -12   2   4 192344. 5853.73  14
  12  -2  -4 192899. 5909.98  13
  12  -2  -4 192869. 5743.86  11
  12   2  -4 186931. 6191.25  11
 -12  -2   4 189209. 5182.97  10
 -12   2   4 188230. 5176.53  10
 -12  -2   4 188249. 5832.22   8
 -12  -2   3 119971. 4180.63   4
  12  -2  -3 123428. 4228.62   5
 -12   2   3 121434. 4093.88   4
  12  -2  -3 116449. 3403.89   1
 -12  -2   3 122430. 3923.13   2
  12   2  -3 121078. 4595.24  20
  12  -2  -3 125280. 3656.11  20
 -12   2   3 123307. 4350.88   8
 -12   2   3 125188. 4193.54  14
  12  -2  -3 128597. 4092.95  11
  12   2  -3 118283. 4420.72  11
 -12  -2   3 124847. 3556.24  10
 -12  -2   3 126570. 4260.65   8
 -12  -2   2 32416.0 1765.39   4
  12  -2  -2 32077.4 1752.62   5
 -12   2   2 31988.1 1629.62   4
  12  -2  -2 31820.5 1329.11   1
 -12  -2   2 33844.5 1705.24   2
  12   2  -2 30183.7 1319.01  21
  12   2  -2 30988.9 1906.16  20
 -12  -2   2 31615.3 1481.60  18
 -12   2   2 33101.3 1867.83   8
 -12   2   2 32493.6 1743.39  14
 -12  -2   2 31186.6 1782.69  14
  12   2  -2 30110.3 1257.19  16
  12  -2  -2 32978.9 1679.37  11
  12   2  -2 33256.9 1898.05  11
 -12  -2   2 32098.8 1765.06   8
 -12  -2   1 2002.20 445.191   2
  12  -2  -1 895.818 235.540   1
  12   2  -1 1247.73 397.565  20
 -12  -2   1 1362.07 324.077  18
 -12  -2   1 1138.22 366.892   8
 -12   2   1 1903.98 460.792   8
  12  -2  -1 1469.70 315.203  16
 -12   2   1 1676.22 399.203  14
 -12  -2   1 1668.24 402.687  14
  12   2  -1 1209.14 271.181  16
  12   2  -1 1655.71 348.124  12
  12  -2  -1 1081.62 313.947  11
  12  -2  -1 1507.81 390.289   5
  12   2  -1 1406.64 333.869   5
 -12   2   1 1541.27 347.266   4
 -12  -2   1 1259.85 374.476   4
 -12  -2   0 83651.9 3260.82   4
  12   2   0 80787.3 2871.51   5
  12  -2   0 82298.1 3178.17   5
 -12   2   0 80173.0 2774.71   4
 -12   2   0 81647.7 3313.14   2
  12  -2   0 80946.3 2761.05   1
 -12  -2   0 80885.8 3207.32   2
  12   2   0 79167.2 3261.67  20
 -12  -2   0 81224.2 3026.48  18
  12  -2   0 84803.3 2955.53  16
 -12   2   0 80889.4 3158.54   8
  12   2   0 80585.4 2836.20  16
  12   2   0 84645.6 3295.47  11
  12   2   0 82154.1 2697.55  12
 -12  -2   0 80134.8 3126.15   8
 -12   2  -1 179959. 5806.90   2
  12  -2   1 175267. 5168.66   1
 -12  -2  -1 183448. 5806.98   2
  12   2   1 170809. 5603.03  20
  12  -2   1 176415. 5321.42  16
 -12  -2  -1 182313. 5552.41  18
 -12   2  -1 171293. 5408.00   8
  12   2   1 178557. 5869.87   6
  12  -2   1 173382. 5535.26   6
  12   2   1 178872. 5324.83  16
  12   2   1 175720. 5651.67  11
  12   2   1 179465. 4838.06  12
 -12  -2  -1 176667. 5712.07   4
 -12   2  -1 183496. 5075.04   4
  12  -2   1 176864. 5593.45   5
  12   2   1 180185. 5232.28   5
  12  -2   2 28859.7 1581.04   1
 -12  -2  -2 32447.4 1945.58   2
 -12   2  -2 31635.3 1950.91   2
  12   2   2 28562.6 1748.80  20
 -12  -2  -2 31979.7 1860.89  18
  12  -2   2 28694.9 1639.65  16
  12  -2   2 31118.9 1765.02   6
 -12   2  -2 27459.4 1571.12   8
  12   2   2 28135.4 1895.68   6
  12   2   2 31393.0 1696.73  16
  12   2   2 30328.7 1280.43  12
  12  -2   2 29670.3 1803.46   5
 -12  -2  -2 29734.6 1877.85   4
 -12   2  -2 28938.3 1434.67   4
  12   2   2 30237.1 1558.34   5
  12   2   3 92191.4 3592.12  20
  12  -2   3 96285.6 3569.35  16
 -12  -2  -3 90349.7 3775.37  18
  12  -2   3 95231.5 3606.08   6
  12   2   3 89533.6 3837.35   6
 -12   2  -3 91437.2 3269.31   8
  12   2   3 92636.6 3510.49  16
 -12  -2  -3 94091.1 3233.84  15
  12   2   3 90218.5 3214.98   5
 -12  -2  -3 96507.8 3913.97   4
  12  -2   3 92680.5 3704.03   5
 -12  -2  -3 93754.3 3900.75   2
 -12   2  -3 93660.6 3818.56   2
  12   2   4 175207. 5841.32  20
  12  -2   4 183250. 5902.10  16
 -12  -2  -4 187836. 6337.70  18
 -12   2  -4 181943. 6290.96  18
  12  -2   4 183898. 5889.19   6
  12   2   4 180680. 6248.76   6
 -12   2  -4 182310. 5352.88   8
  12   2   4 179157. 5786.28  16
 -12  -2  -4 185465. 5619.67  15
 -12  -2  -4 176394. 6252.17   4
  12   2   4 184472. 5384.22   5
  12  -2   4 180996. 6051.70   5
 -12  -2  -4 175330. 6254.95   2
 -12   2  -4 179547. 6123.78   2
 -12  -2  -5 34129.5 2346.12   2
 -12   2  -5 38746.5 2349.86   2
  12   2   5 36950.7 2169.06  20
  12  -2   5 34361.8 2105.03  16
 -12  -2  -5 35046.4 2398.37  18
 -12   2  -5 34509.5 2325.77  18
  12   2   5 38713.5 2427.70   6
  12  -2   5 37718.1 2183.46   6
  12   2   5 36139.3 2113.52  16
 -12  -2  -5 35340.7 2025.44  15
 -12  -2  -5 36165.4 2232.99   9
  12  -2   5 38391.3 2310.50   5
  12   2   5 37118.2 1775.45   5
 -12  -2  -6 538.315 321.676   9
 -12  -2  -6 290.737 416.015  18
 -12   2  -6 564.046 467.796  18
  12   2   6 120.007 387.128   6
  12  -2   6 383.581 331.023   6
  12  -2   6 556.812 392.154  16
  12   2   6 328.538 329.606  16
 -12  -2  -6 336.307 338.411  15
 -12  -2  -6 1210.11 582.625   2
 -12   2  -6 756.582 381.185   2
  12  -2   6-254.606 358.395   5
 -12  -2  -7 22005.6 1928.02   9
  12  -2   7 19595.7 1705.82  16
 -12  -2  -7 17257.2 1887.90  18
 -12   2  -7 20661.3 1975.55  18
  12  -2   7 22164.1 1798.64   6
  12   2   7 24392.0 2086.83   6
  12   2   7 19267.2 1605.91  16
 -12  -2  -7 22002.0 1752.51  15
 -12   2  -7 23888.3 2185.48  15
 -12  -2  -7 18151.1 1863.67   2
 -12   2  -7 21239.1 1860.95   2
  12  -2   7 23393.3 1867.98   5
  12  -2   8 44082.4 2682.43  16
 -12  -2  -8 49230.6 3345.13  18
 -12   2  -8 40884.3 3011.74  18
  12  -2   8 49528.8 2854.64   6
  12   2   8 52206.1 3227.88   6
  12  -2   8 48086.1 2832.92   5
  12   2   8 43824.2 2643.73  16
 -12   2  -8 44675.9 3199.26  15
 -12  -2  -8 40510.8 2912.29   2
 -12   2  -8 42577.7 2831.44   2
 -12   2  -8 49653.3 3596.37   9
 -12  -2  -8 44406.9 2971.18   9
 -12  -2  -9 13485.8 1829.00  18
  12  -2   9 19637.3 1765.69  16
 -12   2  -9 17566.3 2055.36  18
  12  -2   9 18513.6 1753.31   6
  12   2   9 17633.4 1916.63   6
  12  -2   9 20026.2 1818.72   5
  12   2   9 16619.2 1645.29  16
 -12   2  -9 18717.0 2126.43  15
 -12  -2  -9 17866.5 1967.87   2
 -12   2  -9 18598.8 1837.22   2
 -12  -2  -9 18058.2 1910.10   9
 -12   2  -9 17406.9 2258.22   9
 -12  -2 -10 2415.64 821.170   9
 -12   2 -10 1835.41 850.264   9
 -12  -2 -10 1049.35 707.888  18
 -12   2 -10 2194.56 837.512  18
  12  -2  10 2147.71 687.549   6
  12   2  10 1690.95 711.886   6
  12  -2  10 2466.28 723.942  16
  12   2  10 2179.51 694.672  16
 -12   2 -10 992.294 673.712  15
 -12  -2 -10 1419.51 634.012   2
  12  -2  10 2145.01 659.354   5
 -12  -2 -11 20838.7 2377.15  18
 -12   2 -11 25770.8 2703.63  18
  12  -2  11 22437.2 2043.75  16
 -12  -2 -11 25356.2 2653.30  17
  12  -2  11 18763.5 1871.58   6
  12  -2  11 21897.8 1923.26   5
  12   2  11 24633.1 2379.20   6
  12   2  11 23019.3 2066.50  16
 -12   2 -11 21488.6 2543.15  15
 -12  -2 -11 19778.2 2127.88   2
 -12   2 -11 25974.4 2872.95   9
 -12  -2 -11 22421.6 2336.07   9
 -12   4  12 8020.79 1164.25  10
  12  -4 -12 3482.21 1080.03   9
 -12  -4  12 6430.67 1044.65  10
  12   4 -12 6200.69 1551.80  11
 -12  -4  12 5300.49 940.889   4
 -12   4  12 6691.98 1246.08   4
  12  -4 -12 5208.37 1200.25  17
  12   4 -12 5633.86 1224.57  17
  12  -4 -11 20285.7 2227.29   9
 -12  -4  11 18018.1 1679.52  10
 -12   4  11 19173.7 1716.19  10
  12  -4 -11 20809.2 2229.71  17
  12   4 -11 16529.1 1959.89  17
  12   4 -11 14754.0 2175.06  11
 -12   4  11 19463.5 2077.69   4
 -12  -4  11 21788.3 1790.04   4
 -12   4  10 8341.80 1106.38  10
  12  -4 -10 10304.2 1503.72   9
 -12  -4  10 9296.00 1143.42  10
  12  -4 -10 7287.72 1236.22  17
  12   4 -10 6942.94 1174.70  17
 -12  -4  10 9260.91 1075.90   3
 -12   4  10 7735.58 1039.77   8
  12   4 -10 6057.64 1330.08  11
 -12   4  10 10087.2 1452.02   4
 -12  -4  10 9082.23 1127.15   4
 -12   4   9-252.891 422.152   4
 -12  -4   9-14.6587 308.775   4
 -12  -4   9 51.0002 282.201   3
  12   4  -9-179.625 407.872  20
  12  -4  -9 262.635 449.590  17
  12   4  -9 670.710 437.751  17
 -12   4   9 435.803 371.438   8
  12   4  -9 676.857 538.448  11
 -12   4   9-187.133 356.030  10
  12  -4  -9-135.130 530.264   9
 -12  -4   9 162.702 273.074  10
 -12   4   8 18674.0 1851.97   4
 -12  -4   8 18043.1 1483.10   4
 -12  -4   8 16485.2 1413.91   3
  12   4  -8 18203.9 1950.32  20
  12  -4  -8 18578.6 1778.02  17
  12   4  -8 17049.7 1619.34  17
 -12   4   8 20887.9 1721.88   8
  12  -4  -8 19105.2 1818.15  13
  12   4  -8 15813.3 1799.54  11
  12  -4  -8 19206.0 1857.35   9
 -12  -4   8 19216.2 1486.08  10
 -12   4   8 21565.0 1631.18  10
 -12   4   7 55991.7 3249.31   4
 -12  -4   7 56382.6 2738.35   4
 -12  -4   7 53566.6 2665.73   3
  12   4  -7 57842.0 3473.56  20
  12   4  -7 54131.6 2899.87  17
  12  -4  -7 55924.1 3070.94  17
 -12   4   7 61794.8 3144.77   8
  12  -4  -7 52978.7 3148.68  13
  12   4  -7 51957.4 3224.00  11
  12  -4  -7 58488.6 3246.62   9
 -12  -4   7 54678.8 2576.81  10
 -12   4   6 25180.7 1984.65   4
  12  -4  -6 24973.3 1741.50   5
 -12  -4   6 25165.4 1717.44   4
 -12  -4   6 25500.5 1705.32   3
 -12  -4   6 24314.8 1456.44  19
  12   4  -6 27227.0 2226.37  20
  12   4  -6 24071.4 1735.44  17
  12  -4  -6 28888.3 2051.22  17
 -12   4   6 26317.1 1985.05   8
  12  -4  -6 24219.8 2003.92  13
 -12   4   6 26928.1 1754.34  12
  12   4  -6 22865.2 1996.94  11
  12  -4  -6 27559.5 2100.26   9
 -12  -4   6 25273.7 1585.02  10
 -12   4   5 8992.82 1073.66   4
  12  -4  -5 9411.25 1007.89   5
 -12  -4   5 7742.81 903.918   4
 -12  -4   5 8041.87 926.215   3
  12   4  -5 8441.05 1182.11  20
 -12  -4   5 6667.31 752.315  19
  12   4  -5 7053.52 895.913  17
  12  -4  -5 10726.7 1209.60  17
 -12   4   5 6238.09 951.264   8
  12  -4  -5 7972.64 1128.44  13
  12   4  -5 8338.16 1119.46  11
 -12   4   5 7955.10 874.343  12
 -12  -4   5 7548.72 805.191  10
 -12   4   4 120467. 4342.53   4
 -12  -4   4 114992. 4267.36   4
  12  -4  -4 119573. 4291.77   5
  12   4  -4 118420. 4528.65  21
 -12  -4   4 114047. 4005.40  19
  12   4  -4 117393. 5042.34  20
 -12   4   4 120254. 4827.56   8
 -12   4   4 125339. 4463.85   7
 -12  -4   4 114312. 4240.59   3
 -12   4   4 116325. 3982.40  14
  12  -4  -4 123781. 4845.17  13
 -12   4   4 117858. 4034.93  12
  12   4  -4 121043. 4780.04  11
 -12  -4   4 112906. 3949.46  10
 -12  -4   3 91467.0 3215.86   2
 -12  -4   3 88509.4 3476.46   3
 -12   4   3 92971.8 3827.04   7
 -12   4   3 91362.1 4049.14   8
  12   4  -3 90319.9 3622.44  21
 -12  -4   3 84328.0 3287.29  19
  12   4  -3 90143.2 4185.24  20
 -12   4   3 84611.2 3148.25  14
  12  -4  -3 93799.0 3948.57  13
 -12  -4   3 89559.1 3193.73  10
 -12   4   3 88369.4 3132.69  12
  12  -4  -3 86753.7 3061.95  11
  12   4  -3 91040.4 3808.47  11
 -12   4   3 84514.0 3312.35   4
 -12  -4   3 87704.6 3524.92   4
  12  -4  -3 89749.1 3504.38   5
 -12  -4   2 16743.7 1228.12   2
 -12  -4   2 15330.0 1268.18   3
  12   4  -2 14701.4 1162.30  21
  12   4  -2 17000.0 1571.55  20
 -12  -4   2 15582.9 1209.92  19
 -12   4   2 15679.3 1456.17   7
 -12   4   2 14725.1 1471.48   8
 -12   4   2 14605.3 1057.23  14
  12  -4  -2 16148.8 1423.11  13
  12   4  -2 14273.3 1283.72  11
  12   4  -2 14982.0 1367.60  12
  12  -4  -2 14828.1 1224.31   5
 -12   4   2 16071.7 1122.39   4
 -12  -4   2 14219.0 1254.89   4
 -12  -4   1 985.848 384.716   3
 -12  -4   1 850.167 331.964   2
  12   4  -1 1606.20 508.045  20
 -12  -4   1 1968.08 386.755  18
 -12   4   1 1447.05 490.476   7
 -12   4   1 702.841 388.811   8
  12  -4  -1 874.931 430.601  13
 -12   4   1 1105.36 303.102  14
  12   4  -1 1120.05 394.013  12
  12   4  -1 828.214 403.380  11
  12  -4  -1 754.543 356.047   5
 -12   4   1 792.342 237.840   4
 -12  -4   1 743.092 330.098   4
 -12  -4   0 57700.5 2833.63   2
 -12  -4   0 61182.6 2690.72   3
  12   4   0 60082.2 3037.22  20
 -12  -4   0 57955.6 2578.12  18
 -12   4   0 56319.3 3173.96   7
 -12   4   0 59452.3 3043.54   8
  12   4   0 63385.1 2925.70   6
 -12   4   0 60797.2 2552.37  14
  12  -4   0 61266.1 2903.08  13
  12   4   0 61691.7 2835.27  11
  12   4   0 61494.6 2708.25  12
  12  -4   0 66401.3 2884.30   5
 -12  -4   0 64093.5 2953.86   4
  12  -4   1 112327. 3828.75   1
 -12  -4  -1 116750. 4509.12   2
 -12  -4  -1 118002. 4121.64   3
 -12  -4  -1 110594. 4170.37  18
  12   4   1 115497. 4581.70  20
 -12   4  -1 115824. 4965.09   7
  12  -4   1 121008. 3903.58   6
  12   4   1 119359. 4434.40   6
 -12   4  -1 113851. 4464.29   8
  12   4   1 117260. 4333.19  11
  12   4   1 118994. 4077.35  12
 -12  -4  -1 112439. 4452.30   4
  12  -4   1 114685. 4320.35   5
 -12  -4  -2 12237.9 1073.08   3
  12  -4   2 12339.2 1038.61   1
 -12  -4  -2 12697.0 1329.13   2
  12  -4   2 11702.0 1152.57  16
 -12  -4  -2 12629.0 1228.55  18
  12   4   2 13025.6 1327.31  20
 -12   4  -2 12969.1 1487.15   7
  12  -4   2 13485.1 1025.08   6
  12   4   2 13844.3 1287.03   6
 -12   4  -2 12871.9 1221.93   8
  12   4   2 13938.2 1276.79  11
  12   4   2 13245.3 1070.06  12
 -12  -4  -2 13452.5 1345.53   4
  12  -4   2 15003.2 1322.28   5
 -12   4  -3 52569.0 2856.21   2
 -12  -4  -3 55513.8 2990.96   2
 -12  -4  -3 54335.1 2414.87   3
 -12  -4  -3 53389.5 2851.55  18
  12  -4   3 52295.4 2683.47  16
  12   4   3 51111.3 2819.62  20
 -12   4  -3 52843.8 3144.35   7
  12  -4   3 54924.1 2358.87   6
  12   4   3 53891.2 2806.45   6
 -12   4  -3 50664.2 2511.11   8
  12   4   3 51925.5 2352.80  12
 -12  -4  -3 49605.4 2890.91   4
  12  -4   3 58671.4 2844.37   5
 -12  -4  -4 131925. 5332.54   2
 -12  -4  -4 128344. 4347.78   3
 -12   4  -4 130704. 5102.81   2
  12   4   4 132341. 5132.93  20
 -12  -4  -4 130186. 5161.53  18
  12  -4   4 129445. 4933.81  16
 -12   4  -4 124013. 5322.29   7
  12   4   4 129233. 5031.33   6
 -12   4  -4 124807. 4447.75   8
  12  -4   4 137872. 4482.03   6
  12   4   4 132663. 4391.71  12
  12  -4   4 136367. 5026.38   5
 -12  -4  -5 27650.5 2215.85   2
 -12   4  -5 26833.9 2023.32   2
  12   4   5 23260.4 1927.17  20
 -12  -4  -5 21325.5 1901.44  18
  12  -4   5 22672.7 1854.96  16
 -12   4  -5 23458.8 2035.95   7
  12  -4   5 26668.7 1659.95   6
  12   4   5 24487.2 1945.07   6
  12   4   5 24245.9 1880.36  16
  12   4   5 23606.8 1513.83  12
  12  -4   5 25662.8 1959.91   5
  12   4   6 233.290 438.045  20
 -12  -4  -6-71.9638 428.348  18
 -12   4  -6 317.609 412.438  18
 -12   4  -6-738.577 524.732   7
  12   4   6 165.205 427.332   6
  12  -4   6 435.907 329.521  16
  12   4   6 652.890 412.920  16
 -12  -4  -6 557.229 466.482   2
 -12   4  -6-6.73981 280.517   2
  12  -4   6 330.333 418.577   5
 -12  -4  -7 12462.5 1562.13  18
  12  -4   7 11719.1 1414.94  16
 -12   4  -7 12456.2 1566.62  18
  12   4   7 10918.8 1462.12   6
  12   4   7 12599.7 1415.78  16
 -12  -4  -7 9988.89 1419.42   2
 -12   4  -7 11126.9 1355.68   2
  12  -4   7 10877.4 1374.97   5
  12   4   8 31208.5 2388.89  16
 -12   4  -8 36305.5 3195.96  15
  12  -4   8 36855.7 2604.75   5
  12   4   8 37729.8 2729.53   6
 -12  -4  -8 35258.3 2764.44   2
 -12   4  -8 32348.1 2395.52   2
  12  -4   8 34513.0 2592.47  16
 -12  -4  -8 33850.1 2741.24  18
 -12   4  -8 36681.9 2859.54  18
 -12   4  -9 11858.9 1958.02   9
 -12   4  -9 9151.60 1525.15  18
 -12  -4  -9 11653.8 1608.39  17
 -12  -4  -9 9877.86 1534.47  18
  12   4   9 11342.1 1554.50   6
  12  -4   9 13748.2 1620.05  16
  12   4   9 10636.2 1366.65  16
 -12   4  -9 9748.91 1729.45  15
 -12  -4  -9 9042.94 1475.69   2
  12  -4   9 10258.9 1428.84   5
 -12   4 -10 1150.46 791.654   9
 -12   4 -10 1982.83 804.043  18
 -12  -4 -10 1618.97 679.593  17
 -12  -4 -10 910.989 621.757  18
  12   4  10 1884.98 725.344   6
  12  -4  10 2152.39 730.084  16
  12   4  10 758.119 475.284  16
 -12   4 -10 1281.40 787.375  15
  12  -4  10 1873.56 727.743   5
 -12  -4 -10 2529.89 853.870   2
 -12  -4 -11 15766.1 1939.59  17
  12  -6 -11 11062.2 1587.15  17
 -12   6  11 12842.2 1579.00  10
  12  -6 -11 10897.6 1720.68   9
 -12  -6  11 10783.2 1396.05  10
 -12   6  11 13148.7 1778.77   4
 -12   6  10 6788.68 1291.03   4
 -12  -6  10 4614.70 822.988   3
  12   6 -10 6666.47 1401.62  20
  12  -6 -10 5797.12 1159.74  17
 -12   6  10 5965.94 1040.37   8
  12   6 -10 3913.43 1175.44  11
 -12   6  10 6399.05 1125.91  10
  12  -6 -10 6838.50 1305.22   9
 -12  -6  10 4927.07 923.346  10
 -12   6   9 546.006 617.728   4
 -12  -6   9 479.988 423.630   4
 -12  -6   9 382.409 338.824   3
  12   6  -9 122.426 592.110  20
  12  -6  -9-42.9797 436.589  17
 -12   6   9 845.119 563.763   8
  12  -6  -9 860.293 628.946  13
  12   6  -9 538.603 624.652  11
 -12   6   9 1015.24 563.645  12
  12  -6  -9-694.414 648.566   9
 -12  -6   9 990.449 490.578  10
  12  -6  -8 8907.96 1128.58   5
 -12   6   8 8934.42 1322.87   4
 -12  -6   8 9932.84 1155.60   4
 -12  -6   8 8880.17 1103.09   3
  12   6  -8 7615.29 1441.35  20
  12  -6  -8 8674.65 1219.61  17
 -12   6   8 9410.09 1406.63   8
  12  -6  -8 11007.8 1554.07  13
  12   6  -8 9088.99 1483.95  11
 -12   6   8 8830.84 1241.31  12
  12  -6  -8 11049.7 1533.31   9
 -12  -6   8 8976.75 1168.60  10
 -12   6   7 31596.8 2435.63   4
 -12  -6   7 28716.6 1977.11   4
  12  -6  -7 29812.1 2025.64   5
 -12  -6   7 27367.9 1963.61   3
  12   6  -7 33746.2 2830.47  20
  12  -6  -7 28578.2 2155.07  17
 -12   6   7 29008.0 2431.60   8
  12  -6  -7 25353.4 2389.35  13
 -12   6   7 27597.2 2120.01  12
  12   6  -7 25988.0 2378.59  11
 -12  -6   7 25406.2 1898.27  10
 -12   6   6 14818.3 1620.83   4
 -12  -6   6 14171.5 1362.27   4
  12  -6  -6 13666.9 1346.09   5
 -12  -6   6 13196.6 1328.64   3
 -12  -6   6 12006.2 1144.85  19
  12   6  -6 15047.1 1705.17  21
  12   6  -6 16823.8 1966.43  20
  12  -6  -6 17101.9 1598.48  17
 -12   6   6 12936.9 1642.84   8
  12  -6  -6 17931.1 1879.54  13
 -12   6   6 12621.8 1363.38  12
  12   6  -6 13985.6 1666.89  11
 -12  -6   6 14451.6 1387.76  10
  12  -6  -5 4124.52 742.087   5
 -12   6   5 3744.04 774.650   4
 -12  -6   5 4691.27 802.094   4
  12   6  -5 4089.77 1014.58  20
  12   6  -5 3751.75 852.259  21
 -12  -6   5 3937.40 666.863  19
 -12   6   5 4835.66 878.026   7
 -12   6   5 5585.02 1113.75   8
 -12  -6   5 2589.65 652.592   3
  12  -6  -5 5102.37 967.786  13
  12   6  -5 3510.43 855.624  11
 -12   6   5 3691.84 728.055  12
 -12  -6   5 3929.20 721.636  10
 -12  -6   4 52769.2 2824.75   3
 -12   6   4 55941.8 3234.02   7
 -12   6   4 60019.3 3665.25   8
 -12  -6   4 54582.3 2647.02  19
  12   6  -4 58214.6 3300.17  21
  12   6  -4 59405.6 3618.39  20
  12  -6  -4 57067.2 3308.25  13
  12   6  -4 55772.6 3213.47  11
  12   6  -4 55895.1 3344.58  12
 -12   6   4 57384.9 2819.05   4
 -12  -6   4 59077.1 2911.30   4
  12  -6  -4 62738.8 2936.03   5
 -12  -6   3 45161.5 2557.59   3
 -12   6   3 48681.3 3106.84   7
 -12   6   3 47971.3 3246.42   8
  12   6  -3 49650.2 2922.76  21
 -12  -6   3 45759.3 2420.66  19
  12   6  -3 41646.2 3002.61  20
  12  -6  -3 52393.1 3015.82  13
  12   6  -3 50126.0 2868.96  11
  12   6  -3 49965.0 3079.99  12
 -12  -6   3 47597.3 2581.59   4
  12  -6  -3 50983.8 2609.68   5
 -12  -6   2 9017.32 1068.74   3
 -12  -6   2 7060.34 840.295   2
 -12  -6   2 8180.95 983.254  19
  12   6  -2 9263.20 1355.21  20
  12   6  -2 8073.05 1077.54  21
 -12   6   2 8166.42 1336.59   7
 -12   6   2 9182.09 1403.60   8
  12  -6  -2 9299.88 1220.17  13
  12   6  -2 8424.52 1163.78  12
  12   6  -2 9439.19 1154.01  11
  12  -6  -2 10144.7 1130.89   5
 -12  -6   2 8845.71 1058.07   4
 -12  -6   1 939.986 437.677   3
 -12  -6   1 1090.51 405.807   2
  12   6  -1-428.175 524.495  20
 -12  -6   1 805.045 404.137  19
  12  -6  -1-18.9491 363.287  13
 -12  -6   1 611.057 399.309   4
  12  -6  -1 847.614 436.828   5
  12   6  -1 567.935 443.649  12
  12   6  -1 660.395 426.651  11
 -12   6   1 553.408 554.919   7
  12   6  -1 843.317 359.446   6
 -12   6   1 903.798 633.948   8
 -12  -6   0 31979.4 2088.80   2
 -12  -6   0 36236.6 2162.27   3
 -12   6   0 35005.2 2783.29   7
  12   6   0 32155.4 2022.27   6
 -12   6   0 33605.2 2579.17   8
 -12  -6   0 33312.3 2094.06  19
  12   6   0 31987.4 2370.46  20
  12  -6   0 33453.6 2209.71  13
  12   6   0 30931.4 2027.42  11
  12   6   0 32975.4 2233.74  12
 -12  -6   0 29434.1 2105.42   4
  12  -6   0 34562.1 2157.23   5
 -12  -6  -1 54368.9 2992.03   2
 -12  -6  -1 58738.5 2848.77   3
 -12  -6  -1 56019.5 2891.09  19
  12   6   1 55100.2 3255.02  20
 -12   6  -1 56533.4 3751.35   7
  12   6   1 57620.8 2835.20   6
 -12   6  -1 58754.6 3421.79   8
  12  -6   1 61116.4 3048.78  13
  12   6   1 57740.5 2854.51  11
  12   6   1 56434.6 2992.57  12
  12  -6   1 60799.3 2987.11   5
 -12  -6  -1 54572.9 3041.74   4
 -12  -6  -2 6455.17 855.521   3
 -12  -6  -2 6920.90 1082.29   2
 -12  -6  -2 5153.43 848.343  19
 -12  -6  -2 5624.91 806.949  18
  12   6   2 5992.57 1070.56  20
 -12   6  -2 6621.39 1282.85   7
  12   6   2 7009.57 944.288   6
 -12   6  -2 5180.30 921.118   8
  12   6   2 8335.35 1057.11  12
 -12  -6  -2 6490.05 1027.40   4
  12  -6   2 6053.52 893.730   5
 -12  -6  -3 30528.9 2291.96   2
 -12  -6  -3 27541.5 1786.13   3
 -12  -6  -3 28485.0 2036.25  18
  12   6   3 29411.0 2363.52  20
 -12  -6  -3 28265.1 2045.37  19
  12   6   3 32084.0 2084.81   6
 -12   6  -3 30386.1 2631.56   7
 -12   6  -3 31101.9 2192.85   8
  12   6   3 27005.6 1953.84  12
  12  -6   3 32498.1 2169.83   5
 -12   6  -4 63286.0 3454.57   2
 -12  -6  -4 63821.4 3641.85   2
 -12  -6  -4 64780.7 3419.80  18
  12   6   4 71353.1 3854.99  20
 -12  -6  -4 68806.8 3456.98  19
 -12   6  -4 75336.6 4283.66   7
  12   6   4 69921.0 3379.41   6
  12   6   4 63796.6 3196.37  12
  12  -6   4 70977.4 3506.01   5
 -12  -6  -5 13626.2 1625.63   2
 -12   6  -5 13331.8 1488.80   2
 -12  -6  -5 12980.1 1494.13  18
  12   6   5 15604.8 1770.32  20
 -12  -6  -5 13450.2 1459.27  19
 -12   6  -5 13874.8 1789.66   7
  12   6   5 15200.8 1510.21   6
  12   6   5 13092.3 1342.53  12
  12  -6   5 14657.3 1532.51   5
 -12  -6  -6 523.835 594.508   2
 -12   6  -6 889.189 511.451   2
  12   6   6 1091.26 644.487  20
 -12   6  -6-129.103 413.648  18
 -12  -6  -6 227.604 404.599  19
 -12  -6  -6-10.0854 388.819  18
 -12   6  -6 398.558 501.997   7
  12   6   6 536.155 485.476   6
  12   6   6 377.653 340.887  12
  12  -6   6-6.41271 401.837   5
 -12   6  -7 8546.35 1344.08  18
 -12  -6  -7 7064.59 1086.07  19
 -12  -6  -7 6082.49 1180.47  18
 -12   6  -7 7018.77 1274.88   7
  12   6   7 6730.70 1089.06   6
  12  -6   7 6525.66 1163.33  16
  12   6   7 7424.12 1273.54  16
 -12  -6  -7 6685.19 1246.78   2
  12  -6   7 8312.39 1260.26   5
  12  -6   8 17491.0 1950.06  16
 -12  -6  -8 16764.4 1927.33  18
  12   6   8 18487.3 1861.69   6
  12  -6   8 19898.3 1943.69   5
 -12   6  -8 20635.5 2169.34   7
  12   6   8 18764.0 1981.57  16
 -12  -6  -8 18124.3 1709.38  19
 -12  -6  -8 16863.7 1975.22   2
 -12   6  -9 8397.08 1724.83   9
 -12  -6  -9 7494.03 1393.09  18
 -12   6  -9 6297.78 1505.18  15
  12  -6   9 6088.78 1205.90  16
  12   6   9 6086.63 1210.08  16
  12  -6   9 5969.88 1106.48   5
 -12  -6  -9 5708.21 1092.80  13
  12   6   9 5319.92 1041.22   6
  12   8  -9 378.985 604.566  21
 -12   8   9-247.266 601.727   8
  12  -8  -9 43.5389 572.336  13
 -12  -8   9 597.141 436.184  10
 -12   8   9 388.505 539.457   4
 -12   8   8 4936.73 1097.00   4
  12   8  -8 6253.60 1339.98  20
  12   8  -8 5173.47 1242.60  21
 -12   8   8 2598.31 872.157   8
 -12  -8   8 3147.48 788.780   3
  12  -8  -8 5556.67 1207.83  13
  12   8  -8 2023.28 828.877  11
 -12  -8   8 3873.86 843.828  10
 -12   8   7 11719.7 1774.47   8
  12   8  -7 10303.7 1668.36  20
  12   8  -7 10234.3 1595.24  21
  12  -8  -7 10629.1 1625.55  13
  12   8  -7 7816.27 1354.79  11
  12   8  -7 8721.72 1555.00  12
 -12  -8   7 11953.3 1358.62   3
 -12  -8   6 6544.92 1041.54   3
 -12   8   6 7658.15 1456.71   8
  12   8  -6 6978.33 1334.81  20
 -12  -8   6 5149.71 814.669  19
  12   8  -6 7819.04 1413.66  21
  12  -8  -6 5930.48 1195.17  13
  12   8  -6 5894.08 1144.69  11
  12   8  -6 7488.02 1436.01  12
 -12  -8   6 6177.51 955.538   4
 -12  -8   5 1443.30 556.663   3
 -12   8   5 631.737 654.174   8
  12   8  -5 668.420 517.647  20
  12   8  -5 1205.50 667.637  21
 -12  -8   5 875.653 438.418  19
  12  -8  -5 3013.23 907.902  13
  12   8  -5 1813.47 654.713  11
  12   8  -5 2177.17 787.889  12
 -12  -8   5 1541.44 591.759   4
 -12  -8   4 23702.4 1945.34   3
 -12   8   4 27427.5 2502.37   7
 -12   8   4 24767.0 2614.07   8
 -12  -8   4 20572.1 1677.47  19
  12   8  -4 22770.5 2210.36  21
  12   8  -4 24223.3 2420.60  20
  12  -8  -4 26198.0 2245.25  13
  12   8  -4 21811.1 2009.13  11
  12   8  -4 22617.4 2294.37  12
 -12  -8   4 22557.4 1857.04   4
 -12  -8   3 18538.0 1722.31   3
 -12   8   3 19127.0 2215.05   7
 -12   8   3 20655.5 2379.61   8
 -12  -8   3 17244.9 1532.24  19
  12   8  -3 24363.3 2252.61  21
  12  -8  -3 20128.1 2047.86  19
  12   8  -3 19563.4 2144.06  20
  12  -8  -3 19251.4 1875.52  13
  12   8  -3 18325.3 1741.45  11
  12   8  -3 24664.1 2312.10  12
 -12  -8   3 17910.8 1652.62   4
  12  -8  -3 17275.3 1566.99   5
 -12  -8   2 3299.26 756.115   3
 -12   8   2 3491.82 1083.99   7
 -12   8   2 4733.70 1198.93   8
  12   8  -2 5072.65 1134.76  20
 -12  -8   2 2906.33 657.198  19
  12  -8  -2 4295.79 1027.45  19
  12  -8  -2 3004.94 760.792  13
  12   8  -2 5156.22 1103.46  12
 -12  -8   2 5638.62 957.020   4
  12  -8  -2 4588.46 829.575   5
 -12  -8   1 511.411 396.784   3
 -12   8   1 163.415 624.764   7
 -12   8   1 442.772 568.569   8
  12   8  -1 1526.05 744.914  20
 -12  -8   1 791.408 488.136  19
  12  -8  -1 1736.04 755.941  19
  12  -8  -1 550.703 472.998  13
  12   8  -1 1228.60 568.972  12
 -12  -8   1 56.0870 277.788  13
 -12  -8   1 959.598 468.944   4
  12  -8  -1 400.816 374.221   5
 -12  -8   0 13024.6 1398.92   3
 -12   8   0 14177.4 2026.45   7
 -12   8   0 15988.8 1997.65   8
  12   8   0 12261.9 1623.61  20
 -12  -8   0 12000.8 1331.57  19
  12  -8   0 14151.8 1737.87  19
  12  -8   0 12488.4 1451.17  13
 -12  -8   0 12900.2 1316.12  13
  12   8   0 12858.2 1589.57  12
 -12  -8   0 13623.5 1465.39   4
  12  -8   0 14517.4 1439.99   5
 -12  -8  -1 21782.9 1779.01   3
 -12   8  -1 24320.8 2659.61   7
 -12   8  -1 23525.3 2341.43   8
 -12  -8  -1 23629.8 1880.73  19
  12  -8   1 22231.4 2171.11  19
  12   8   1 22532.7 2197.63  20
  12  -8   1 22363.7 1879.34  13
 -12  -8  -1 22036.0 1825.97  13
  12   8   1 23395.6 2137.55  12
  12  -8   1 26133.8 1978.03   5
 -12  -8  -2 1348.85 503.141   3
 -12   8  -2 673.707 615.496   7
 -12   8  -2 2182.59 795.596   8
  12   8   2 2592.27 885.670  20
 -12  -8  -2 2974.68 757.067  19
  12  -8   2 2188.66 750.093  19
  12  -8   2 1783.06 562.129  13
  12   8   2 2699.82 750.629  12
 -12  -8  -2 2920.07 743.189  13
  12  -8   2 3362.99 784.059   5
 -12   8  -3 11287.3 1748.54   7
 -12   8  -3 13055.5 1585.58   8
  12   8   3 15653.4 1835.30  20
 -12  -8  -3 14375.6 1536.79  19
 -12  -8  -3 13397.8 1538.87  13
  12   8   3 12054.5 1514.83  12
  12  -8   3 16199.8 1609.69   5
 -12   8  -4 23059.9 2099.71   2
 -12   8  -4 25568.5 2659.57   7
 -12  -8  -4 27681.0 2191.82  19
  12   8   4 26185.6 2450.23  20
 -12  -8  -4 23374.7 2069.61  13
  12   8   4 29009.5 2320.31  12
  12  -8   4 25549.0 2081.50   5
 -12   8  -5 5777.91 1059.91   2
  12   8   5 7496.23 1372.49  20
 -12  -8  -5 8064.00 1211.40  19
 -12   8  -5 7079.66 1464.04   7
  12   8   5 5862.73 1077.67  12
 -12  -8  -5 7450.71 1219.88  13
  12  -8   5 7515.74 1157.49   5
  12   8   6-27.3090 524.556  20
 -12  -8  -6-775.446 546.048  19
 -12   8  -6-848.724 720.729   7
 -12  -8  -6 174.835 410.119  18
 -12  -8  -6-1092.44 616.158  13
  12   8   6-645.861 594.069  12
  12  -8   6 80.1846 402.925   5
 -12  -8  -7 2992.51 824.811  18
 -12  -8  -7 3468.08 783.020  19
 -12   8  -7 5381.50 1279.84   7
 -12  10   3 9390.79 1670.03   7
  12  10  -3 9366.31 1589.20  12
  12  10  -3 7522.86 1400.54  20
 -12 -10   3 5764.77 996.473  19
  12  10  -2 1651.65 786.602  20
 -12 -10   2 1115.19 542.021  19
  12 -10  -2 857.238 521.913  19
  12 -10  -2 680.506 582.698  13
 -12  10   2 1504.66 906.854   7
 -12  10   2 3194.01 1154.03   8
  12  10  -2 2290.75 801.741  12
 -12 -10   2 1420.52 650.795   3
  12  10  -1-692.661 619.550  20
 -12 -10   1-48.4364 368.647  19
  12 -10  -1 402.180 455.714  19
  12 -10  -1 246.442 453.884  13
 -12  10   1 75.8275 618.629   7
 -12  10   1-323.912 640.676   8
  12  10  -1-293.497 577.156  12
 -12 -10   1 536.183 453.145   3
 -12 -10   0 5738.79 999.545  19
  12  10   0 5468.70 1195.13  20
  12 -10   0 6219.33 1235.93  19
  12 -10   0 4114.75 900.487  13
 -12 -10   0 5422.80 896.288  13
 -12  10   0 4753.22 1383.51   7
 -12  10   0 6389.92 1454.80   8
  12  10   0 6131.07 1318.79  12
 -12 -10   0 4395.04 898.526   3
  12  10   1 9957.70 1590.58  20
  12 -10   1 7302.43 1242.32  19
 -12  10  -1 9113.01 1797.28   7
 -12  10  -1 4690.02 1217.16   8
  12  10   1 9334.16 1554.75  12
 -12 -10  -1 6121.32 1014.90   3
  12 -10   1 6414.48 1098.03  13
 -12 -10  -1 6833.77 1033.75  13
  12 -10   2 684.353 418.076  13
 -12 -10  -2 728.395 468.470  13
  12  10   2 1356.45 749.758  12
 -12  10  -2 1222.74 760.454   8
 -13  -1  13 3120.69 726.857  10
 -13   1  13 3480.62 756.474  10
  13  -1 -13 2767.49 1042.80   9
  13   1 -13 3207.86 996.924   9
  13   1 -13 2677.39 962.605  11
 -13  -1  13 5004.56 978.860   4
 -13   1  13 3566.48 917.383   4
  13  -1 -13 2394.02 924.869  17
  13   1 -13 3138.82 983.854  17
 -13  -1  12 3689.46 768.334  10
 -13   1  12 4072.69 760.825  10
  13  -1 -12 4394.14 1151.34   9
  13   1 -12 3071.07 918.938   9
  13  -1 -12 3454.36 942.399  11
  13   1 -12 3257.33 1000.02  11
 -13  -1  12 4338.27 921.256   4
 -13   1  12 3755.41 883.338   4
  13  -1 -12 4873.49 1158.36  17
  13   1 -12 3802.76 1010.81  17
  13  -1 -11 20992.8 2244.57   9
  13   1 -11 19626.9 2075.53   9
 -13  -1  11 24988.5 1808.78  10
 -13   1  11 24327.9 1780.15  10
  13  -1 -11 20007.5 2099.43  11
  13   1 -11 20722.2 2253.46  11
 -13  -1  11 23660.6 1990.59   4
 -13   1  11 23810.8 2115.10   4
  13  -1 -11 21997.3 2325.86  17
  13   1 -11 16507.9 2074.03  17
  13  -1 -10 20097.9 2074.83   9
  13   1 -10 17081.5 1782.98   9
 -13  -1  10 21292.8 1595.93  10
 -13   1  10 21404.5 1577.40  10
  13  -1 -10 19368.0 2049.71  17
  13   1 -10 20875.9 2095.17  17
  13  -1 -10 19730.2 1926.43  11
  13   1 -10 19305.5 2042.71  11
 -13  -1  10 21797.3 1871.60   4
 -13   1  10 16082.6 1717.68   4
 -13  -1   9 2734.58 561.873  10
 -13   1   9 3770.45 627.314  10
  13  -1  -9 3340.39 822.128   9
  13   1  -9 2840.25 735.169   9
  13  -1  -9 2698.39 836.118  17
  13   1  -9 4592.10 937.160  17
 -13  -1   9 3353.92 587.442   3
 -13  -1   9 3889.98 649.238   8
 -13   1   9 4164.42 662.139   8
  13  -1  -9 3029.55 774.238  11
  13   1  -9 2848.12 755.297  11
 -13  -1   9 4232.37 810.261   4
 -13   1   9 3064.80 765.177   4
 -13  -1   8 9849.89 995.046   8
  13  -1  -8 8115.52 1180.57   9
  13   1  -8 8289.85 1107.57   9
 -13  -1   8 9119.53 912.523  10
 -13   1   8 9104.92 903.357  10
  13  -1  -8 8034.24 1216.78  17
  13   1  -8 6969.81 1072.57  17
 -13  -1   8 9001.03 915.142   3
 -13   1   8 8780.92 955.567   8
  13  -1  -8 9414.79 1136.01  11
  13   1  -8 7263.55 1137.50  11
 -13  -1   8 8712.03 1086.93   4
 -13   1   8 9931.75 1245.00   4
  13  -1  -7 76915.0 3659.94   9
  13   1  -7 81170.0 3593.67   9
 -13  -1   7 76657.7 2895.84  10
 -13  -1   7 78384.7 3196.08   8
 -13   1   7 78299.1 2937.85  10
  13  -1  -7 83250.7 3913.55  17
  13   1  -7 71340.2 3617.20  17
 -13  -1   7 78234.4 3118.08   3
 -13   1   7 76917.0 3219.45   8
  13  -1  -7 74661.2 3473.03  11
  13   1  -7 76263.3 3765.48  11
 -13  -1   7 79337.6 3423.04   4
 -13   1   7 76285.1 3567.71   4
 -13  -1   6 105677. 3867.68   8
  13  -1  -6 98210.2 4207.99   9
  13   1  -6 106098. 4143.15   9
 -13  -1   6 104974. 3390.09  10
 -13   1   6 103095. 3416.69  10
  13   1  -6 104389. 4380.44  17
  13  -1  -6 106120. 4414.31  17
 -13   1   6 104260. 3908.04   8
  13  -1  -6 107438. 4175.62  11
  13   1  -6 101284. 4328.00  11
 -13  -1   6 99610.2 3972.25   4
 -13   1   6 104047. 4118.32   4
 -13  -1   5 1887.20 487.184   4
 -13   1   5 2599.61 540.359   4
  13   1  -5 2293.44 569.872  20
  13   1  -5 2275.61 518.339  17
  13  -1  -5 1675.69 518.722  17
 -13  -1   5 1527.48 320.381   2
 -13  -1   5 2085.33 480.509   8
 -13   1   5 2252.39 499.275   8
  13  -1  -5 1677.87 472.729  11
  13   1  -5 2107.14 601.409  11
 -13   1   5 2174.81 352.892  10
  13  -1  -5 2063.62 510.990   9
  13   1  -5 1287.42 392.139   9
 -13  -1   5 1963.38 333.876  10
 -13  -1   4 90344.5 3461.12   4
 -13   1   4 81434.5 3358.34   4
  13   1  -4 89101.3 3754.69  20
  13  -1  -4 88684.3 3302.49  20
  13   1  -4 87837.8 3716.35  17
  13  -1  -4 89301.8 3746.67  17
 -13  -1   4 85813.0 3108.75   2
 -13  -1   4 91340.6 3486.10   8
  13  -1  -4 91672.4 3562.85  11
  13   1  -4 93853.4 3795.04  11
 -13   1   4 90204.2 3480.76   8
 -13  -1   3 122897. 4304.58   4
 -13   1   3 124984. 4265.41   4
  13  -1  -3 129761. 4082.48  20
  13   1  -3 126984. 4556.46  20
 -13   1   3 118755. 4356.91   8
 -13   1   3 124809. 4304.60   2
 -13  -1   3 123933. 4093.52   2
  13  -1  -3 130662. 4416.60  11
  13   1  -3 127115. 4623.41  11
 -13  -1   3 131473. 4412.52   8
 -13  -1   2 60615.9 2616.14   4
 -13   1   2 61019.2 2527.90   4
  13  -1  -2 58979.8 2608.54   5
 -13   1   2 60927.5 2652.61   2
 -13  -1   2 56352.1 2472.22   2
  13  -1  -2 60581.0 2287.60  20
  13   1  -2 58246.4 2658.18  20
 -13   1   2 63112.5 2684.33   8
 -13   1   2 61758.3 2731.51  14
  13  -1  -2 57360.7 2554.84  11
  13   1  -2 62626.8 2815.65  11
 -13  -1   2 56830.1 2577.65   8
  13  -1  -1 4752.43 541.659   1
 -13  -1   1 3936.29 610.080   2
 -13   1   1 3958.83 636.944   2
  13   1  -1 4396.93 634.095  20
  13  -1  -1 4919.60 513.603  20
  13  -1  -1 4282.77 493.418  16
 -13  -1   1 4981.64 656.213   8
 -13   1   1 3897.05 613.532   8
  13   1  -1 4693.46 462.948  16
 -13   1   1 4865.77 708.596  14
  13  -1  -1 4044.81 599.133  11
  13   1  -1 4375.01 689.386  11
  13  -1  -1 3560.72 623.367   5
 -13   1   1 5004.94 620.838   4
  13   1  -1 4693.26 611.956   5
 -13  -1   1 3963.96 631.673   4
 -13   1   0 149443. 4639.61   4
  13  -1   0 147147. 4857.53   5
  13   1   0 146416. 4699.97   5
 -13  -1   0 150724. 4926.24   4
  13  -1   0 143955. 4475.06   1
 -13  -1   0 155319. 4979.87   2
 -13   1   0 152817. 5055.82   2
  13  -1   0 153798. 4267.40  20
  13   1   0 148863. 4822.06  20
  13  -1   0 150769. 4466.14  16
 -13   1   0 151503. 4835.54   8
  13   1   0 148707. 4399.51  16
  13  -1   0 150528. 4904.57  11
  13   1   0 148983. 5006.59  11
 -13  -1   0 152596. 4842.53   8
 -13   1  -1 176791. 5335.46   4
 -13  -1  -1 173365. 5618.31   4
  13  -1   1 178388. 5624.84   5
  13   1   1 184965. 5477.00   5
 -13  -1  -1 181667. 5763.80   2
  13  -1   1 170223. 5225.31   1
 -13   1  -1 180490. 5804.95   2
  13  -1   1 183209. 4936.10  20
  13   1   1 174349. 5426.28  20
  13  -1   1 175121. 5247.36  16
 -13  -1  -1 179364. 5648.31  18
 -13   1  -1 173679. 5405.96   8
  13   1   1 176544. 5951.73   6
  13  -1   1 178625. 5796.87   6
  13   1   1 176914. 5246.69  16
  13   1   1 175430. 5694.24  11
 -13  -1  -1 179403. 5504.96   8
 -13  -1  -2 20382.6 1557.94   2
 -13   1  -2 23714.1 1652.95   2
  13  -1   2 24958.3 1240.76  20
  13   1   2 22599.5 1432.66  20
  13  -1   2 23766.7 1452.19  16
 -13  -1  -2 23370.7 1605.52  18
 -13   1  -2 20959.3 1352.84   8
  13  -1   2 20263.5 1531.71   6
  13   1   2 23241.8 1722.95   6
  13   1   2 23228.7 1439.25  16
  13  -1   2 22350.1 1547.12   5
 -13  -1  -2 24337.2 1631.80   4
 -13   1  -2 22859.8 1411.41   4
  13   1   2 22413.2 1461.87   5
 -13  -1  -2 22447.8 1425.45   8
  13   1   3 64366.5 2733.07  20
  13  -1   3 66682.6 2816.33  16
 -13  -1  -3 66643.4 3096.11  18
 -13   1  -3 66091.7 3165.18  18
  13  -1   3 65144.6 3018.02   6
  13   1   3 62961.6 3112.09   6
 -13   1  -3 62025.5 2568.45   8
  13   1   3 70970.4 2885.13  16
 -13   1  -3 56444.8 2544.54   4
 -13  -1  -3 64343.1 3026.61   4
  13   1   3 66424.3 2795.39   5
  13  -1   3 65962.1 2981.75   5
 -13  -1  -3 65480.7 3098.19   2
 -13   1  -3 67128.3 3125.04   2
 -13  -1  -4 117541. 4661.11   2
 -13   1  -4 118754. 4632.17   2
  13   1   4 115547. 4170.19  20
 -13  -1  -4 116132. 4652.07  18
 -13   1  -4 122882. 4798.28  18
  13  -1   4 117884. 4299.59  16
  13  -1   4 116459. 4479.47   6
  13   1   4 119200. 4736.59   6
  13   1   4 114856. 4259.71  16
 -13  -1  -4 113005. 4246.60  15
 -13   1  -4 117075. 3887.39   8
 -13  -1  -4 114404. 4511.58   4
  13   1   4 120605. 4182.80   5
  13  -1   4 120032. 4516.85   5
  13  -1   5 55822.1 2844.34  16
 -13  -1  -5 59153.5 3251.27  18
 -13   1  -5 64057.5 3353.51  18
  13  -1   5 57992.6 2991.63   6
  13   1   5 61087.4 3200.18   6
  13   1   5 58378.3 2814.67  16
 -13  -1  -5 59456.9 2930.85  15
 -13  -1  -5 59358.5 3194.23   2
 -13   1  -5 57643.4 3095.95   2
  13   1   5 62021.3 2753.16   5
  13  -1   5 62129.7 3017.89   5
 -13  -1  -6 14341.3 1536.00   9
  13  -1   6 14006.3 1347.73  16
 -13   1  -6 11917.9 1454.30  18
 -13  -1  -6 12753.9 1508.10  18
  13  -1   6 15657.5 1509.27   6
  13   1   6 13918.1 1483.30   6
  13   1   6 11828.2 1225.16  16
 -13  -1  -6 13015.7 1355.40  15
 -13  -1  -6 13072.2 1505.32   2
 -13   1  -6 12958.7 1431.40   2
  13   1   6 13574.6 1188.52   5
  13  -1   6 15977.0 1470.89   5
 -13  -1  -7 19834.0 1947.73   9
  13  -1   7 19597.4 1687.78  16
 -13  -1  -7 17578.2 1928.13  18
 -13   1  -7 18421.6 1915.94  18
  13   1   7 19515.3 1441.44   5
  13  -1   7 22503.6 1893.24   6
  13   1   7 19859.1 1898.65   6
  13   1   7 17668.6 1598.32  16
 -13  -1  -7 22091.2 1871.95  15
 -13   1  -7 19709.4 1928.43  15
 -13  -1  -7 19829.8 1900.24   2
 -13   1  -7 19743.3 1852.86   2
  13  -1   7 22741.6 1800.41   5
 -13  -1  -8 67946.6 4191.05  18
 -13   1  -8 66459.9 4046.14  18
  13  -1   8 68452.6 3485.35  16
  13  -1   8 65682.5 3370.36   5
  13  -1   8 72865.3 3763.06   6
  13   1   8 79347.6 4104.83   6
  13   1   8 66514.3 3438.58  16
 -13  -1  -8 75214.1 3875.23  15
 -13   1  -8 68776.6 4040.23  15
 -13  -1  -8 67378.6 3921.01   2
 -13   1  -8 66638.0 3782.12   2
 -13  -1  -8 66827.5 3946.61   9
 -13   1  -8 66416.3 4159.79   9
  13  -1   9 29685.5 2260.92  16
 -13  -1  -9 30523.6 2795.71  18
 -13   1  -9 30252.5 2765.07  18
  13  -1   9 25229.5 2005.55   5
  13  -1   9 32868.6 2481.01   6
  13   1   9 29392.5 2493.98   6
  13   1   9 29999.0 2237.66  16
 -13  -1  -9 26949.1 2337.75  15
 -13   1  -9 28477.1 2646.66  15
 -13  -1  -9 26647.3 2478.69   2
 -13   1  -9 25382.1 2331.80   2
 -13  -1  -9 32610.1 2754.44   9
 -13   1  -9 28002.4 2756.91   9
 -13  -1 -10-4.07947 530.913   9
 -13   1 -10 62.9117 539.841   9
 -13  -1 -10 27.6193 545.793  18
 -13   1 -10 528.565 658.271  18
  13  -1  10-229.152 484.245   6
  13   1  10 398.675 499.275   6
  13  -1  10 86.0213 414.601  16
  13   1  10 1302.61 589.595  16
 -13   1 -10 72.8906 510.793  15
 -13  -1 -10-986.550 662.462   2
 -13   1 -10 280.561 404.015   2
  13  -1  10 234.609 382.202   5
 -13  -1 -11 14170.3 1996.10  18
 -13   1 -11 13523.4 1965.86  18
 -13  -1 -11 17120.4 2322.48  17
  13  -1  11 14798.5 1694.72  16
  13   1  11 14607.0 1663.24  16
 -13   1 -11 17322.6 2196.85  15
 -13  -1 -11 13478.9 1774.32   2
  13  -1  11 13282.2 1443.46   5
  13  -1  11 14939.1 1758.30   6
  13   1  11 17900.4 2030.89   6
 -13  -1 -11 13604.2 1913.89   9
 -13   1 -11 14912.8 2068.54   9
 -13  -3  13 2241.02 650.375   4
 -13   3  13 2790.60 729.063  10
 -13  -3  13 2788.88 730.433  10
  13  -3 -12 4476.36 1204.17  17
  13   3 -12 1748.43 765.000  17
  13   3 -12 2126.34 930.769  11
 -13  -3  12 2966.45 753.750   4
 -13   3  12 4358.57 1037.01   4
 -13   3  12 4320.32 845.794  10
  13  -3 -12 2510.66 959.721   9
 -13  -3  12 4613.32 890.293  10
  13  -3 -11 16712.6 2084.94  17
  13   3 -11 17399.1 2047.28  17
  13  -3 -11 15627.5 1991.34   9
 -13  -3  11 17756.5 1589.91  10
 -13   3  11 17054.7 1575.32  10
  13   3 -11 12079.0 1888.08  11
 -13  -3  11 17418.1 1642.96   4
 -13   3  11 14669.2 1804.82   4
  13  -3 -10 16795.8 1917.83  17
  13   3 -10 16451.3 1872.82  17
  13  -3 -10 18113.5 1987.66   9
 -13  -3  10 17320.8 1524.54  10
 -13   3  10 18531.7 1537.99  10
 -13   3  10 18518.8 1556.93   8
  13   3 -10 15182.5 1921.04  11
 -13   3  10 14950.2 1729.93   4
 -13  -3  10 18212.6 1649.92   4
 -13  -3   9 1630.18 493.538   3
 -13   3   9 2123.87 557.086  10
  13  -3  -9 2509.44 788.183   9
 -13  -3   9 1691.80 512.989  10
  13  -3  -9 2053.26 732.020  17
  13   3  -9 2610.17 785.841  17
 -13   3   9 2078.63 595.740   8
  13   3  -9 1149.76 579.636  11
 -13  -3   9 2109.08 614.446   4
 -13   3   9 2955.94 797.062   4
 -13  -3   8 7093.71 954.875   4
 -13   3   8 8343.20 1251.76   4
 -13  -3   8 7661.02 929.197   3
  13   3  -8 5830.08 1115.30  20
  13  -3  -8 8580.32 1243.95  17
  13   3  -8 6391.50 1043.93  17
 -13   3   8 7287.94 985.308   8
  13  -3  -8 7916.71 1052.97  13
  13   3  -8 7032.71 1207.35  11
 -13   3   8 7300.76 890.597  10
  13  -3  -8 8010.31 1196.77   9
 -13  -3   8 6588.60 822.387  10
 -13   3   7 60659.8 3325.55   4
 -13  -3   7 60187.7 2872.08   4
 -13  -3   7 54163.3 2668.57   3
  13   3  -7 58420.6 3451.00  20
  13   3  -7 56776.5 3073.25  17
  13  -3  -7 58875.0 3235.74  17
 -13   3   7 59282.9 2984.94   8
  13  -3  -7 57538.9 3054.92  13
  13   3  -7 52079.2 3229.19  11
  13  -3  -7 58211.8 3299.68   9
 -13  -3   7 55792.5 2487.13  10
 -13   3   7 58443.8 2598.54  10
 -13   3   6 89192.9 3983.94   4
 -13  -3   6 88251.2 3592.51   4
 -13  -3   6 87484.6 3486.13   3
 -13  -3   6 85799.3 3104.94  19
  13   3  -6 83398.8 4184.12  20
  13   3  -6 83574.8 3782.91  17
  13  -3  -6 90163.7 4063.51  17
 -13   3   6 90150.5 3852.86   8
  13  -3  -6 88676.6 3910.65  13
  13  -3  -6 92368.2 3461.96  11
  13   3  -6 85622.5 4167.49  11
  13  -3  -6 89516.4 4090.23   9
 -13  -3   6 87517.4 3209.94  10
 -13   3   6 89415.9 3291.24  10
 -13  -3   5 811.458 419.482   4
  13  -3  -5 593.276 408.586   5
 -13   3   5 241.712 311.686   4
 -13  -3   5 440.540 344.960   3
  13   3  -5 1109.85 488.307  20
  13   3  -5 41.4609 316.246  17
  13  -3  -5 110.138 369.905  17
 -13  -3   5 1744.67 399.090  19
 -13   3   5 1248.31 528.078   8
  13  -3  -5-2.16773 275.488  13
  13   3  -5 1053.57 505.281  11
  13  -3  -5 334.463 218.126  11
 -13  -3   5 371.948 200.552  10
 -13  -3   4 62063.7 2820.82   4
  13  -3  -4 66493.9 2909.35   5
 -13   3   4 62548.0 2837.79   4
 -13  -3   4 59429.5 2551.27  19
  13   3  -4 65057.5 3423.70  20
 -13   3   4 61821.3 3076.72   8
 -13  -3   4 58827.9 2370.17   2
 -13  -3   4 61288.3 2724.46   3
  13  -3  -4 62942.1 3052.69  13
  13  -3  -4 64261.6 2588.84  11
  13   3  -4 62520.2 3163.99  11
 -13  -3   4 63039.2 2396.30  10
 -13  -3   3 93404.1 3401.26   2
 -13  -3   3 99778.9 3660.17   3
  13   3  -3 99739.1 4303.18  20
 -13   3   3 94450.1 3981.49   8
 -13   3   3 93618.3 3531.93  14
  13  -3  -3 103575. 4057.67  13
  13  -3  -3 98459.1 3447.77  11
  13   3  -3 96307.1 3990.06  11
 -13  -3   3 99442.2 3800.30   4
  13  -3  -3 96273.8 3729.65   5
 -13   3   3 97981.6 3620.58   4
 -13  -3   2 52746.0 2399.83   2
 -13  -3   2 50509.5 2371.72   3
  13   3  -2 48471.5 2699.82  20
 -13  -3   2 49091.9 2065.53  18
 -13   3   2 52564.8 2717.77   8
 -13   3   2 49424.6 2314.63  14
  13  -3  -2 53122.6 2292.31  11
  13   3  -2 49116.1 2568.91  11
  13   3  -2 50588.8 2456.12  12
 -13  -3   2 50852.5 2524.91   4
  13  -3  -2 51409.9 2469.04   5
 -13   3   2 52672.1 2286.92   4
 -13  -3   1 6818.37 822.961   2
  13  -3  -1 6692.98 612.925   1
  13   3  -1 5821.12 845.772  20
 -13  -3   1 4866.24 628.474  18
 -13   3   1 4545.44 770.923   8
 -13   3   1 5869.49 724.452  14
  13   3  -1 4905.93 663.827  12
  13   3  -1 5391.24 778.007  11
  13  -3  -1 5134.60 754.318   5
  13   3  -1 4851.41 589.452   5
 -13   3   1 4499.83 571.669   4
 -13  -3   1 5909.33 781.291   4
 -13  -3   0 100217. 3946.15   2
  13  -3   0 98539.2 3335.06   1
  13   3   0 101129. 4051.08  20
  13  -3   0 95753.2 3600.31  16
 -13  -3   0 106324. 3738.82  18
 -13   3   0 99135.4 3932.34   8
  13   3   0 97389.5 3490.76  16
  13   3   0 99951.1 3901.73  11
  13   3   0 103419. 3472.25  12
 -13  -3   0 99743.2 3945.35   4
 -13   3   0 98698.9 3230.04   4
  13   3   0 100704. 3369.39   5
  13  -3   0 103530. 3883.69   5
 -13   3  -1 145576. 5318.80   2
 -13  -3  -1 147514. 5263.24   2
  13  -3   1 145644. 4601.66   1
  13   3   1 149404. 5264.82  20
  13  -3   1 142279. 4834.81  16
 -13  -3  -1 143449. 4985.10  18
 -13   3  -1 138633. 4968.21   8
  13   3   1 148302. 5292.62   6
  13  -3   1 148094. 4851.13   6
  13   3   1 147819. 4809.38  16
  13   3   1 149627. 5156.92  11
  13   3   1 148697. 4479.33  12
 -13  -3  -1 150860. 5249.49   4
  13  -3   1 152080. 5132.76   5
  13   3   1 148653. 4503.54   5
 -13   3  -2 16613.4 1498.75   2
 -13  -3  -2 18611.7 1561.67   2
  13   3   2 16127.0 1424.67  20
 -13  -3  -2 16775.9 1432.52  18
  13  -3   2 17337.1 1347.33  16
  13  -3   2 17543.4 1300.99   6
  13   3   2 17725.9 1504.29   6
 -13   3  -2 17707.9 1349.18   8
  13   3   2 17196.4 1329.13  16
  13   3   2 19286.1 1528.63  11
 -13  -3  -2 17744.7 1531.94   4
  13  -3   2 18807.1 1497.70   5
 -13  -3  -3 53507.3 2891.03   2
 -13   3  -3 51717.6 2820.71   2
  13   3   3 52465.0 2706.60  20
  13  -3   3 49537.6 2555.02  16
 -13  -3  -3 50316.0 2761.34  18
  13  -3   3 50706.6 2422.82   6
  13   3   3 49062.8 2753.89   6
 -13   3  -3 51332.0 2387.62   8
  13   3   3 46657.0 2435.50  16
 -13  -3  -3 51165.5 2867.78   4
  13  -3   3 49988.4 2644.23   5
 -13  -3  -3 48724.6 2307.10   9
 -13  -3  -4 79544.6 3872.38   2
 -13   3  -4 84767.5 3846.15   2
  13   3   4 80894.3 3618.25  20
  13  -3   4 84736.5 3607.87  16
 -13  -3  -4 78380.0 3809.87  18
  13  -3   4 83047.6 3368.16   6
  13   3   4 80388.9 3769.76   6
 -13   3  -4 78837.5 3108.34   8
  13   3   4 78023.8 3427.54  16
  13  -3   4 77261.1 3564.61   5
 -13  -3  -4 82548.4 3360.12   9
 -13  -3  -5 52809.1 3145.54   2
 -13   3  -5 56632.3 3103.69   2
  13   3   5 54949.1 2909.63  20
 -13  -3  -5 48562.9 3045.21  18
  13  -3   5 52390.6 2859.32  16
 -13   3  -5 51156.9 3053.96  18
  13   3   5 61737.0 3252.42   6
  13  -3   5 56146.2 2726.96   6
  13   3   5 48346.7 2676.15  16
  13  -3   5 58585.1 3050.66   5
 -13  -3  -5 50852.9 2714.27   9
 -13  -3  -6 8135.37 1248.35   2
 -13   3  -6 10273.8 1316.49   2
  13   3   6 8628.37 1129.98  20
 -13  -3  -6 7846.44 1235.57  18
 -13   3  -6 7078.86 1122.90  18
  13  -3   6 8406.76 1024.54   6
  13   3   6 10093.0 1343.56   6
  13  -3   6 7828.07 1145.66  16
  13   3   6 7419.82 1041.57  16
 -13  -3  -6 7708.26 1053.10   9
  13  -3   6 9976.56 1245.26   5
 -13  -3  -7 15388.6 1531.39   9
 -13   3  -7 13185.1 1611.52  18
  13  -3   7 13294.8 1510.19  16
 -13  -3  -7 14477.4 1747.56  18
  13  -3   7 16561.8 1517.07   6
  13   3   7 16112.7 1755.92   6
  13   3   7 13702.5 1448.96  16
 -13  -3  -7 16255.9 1785.95   2
 -13   3  -7 14665.6 1594.06   2
  13  -3   7 15700.8 1624.42   5
 -13  -3  -8 49457.0 3077.89   9
  13  -3   8 49065.0 3072.01  16
 -13  -3  -8 51271.5 3510.29  18
 -13   3  -8 47352.5 3391.31  18
  13  -3   8 54983.1 2981.26   6
  13   3   8 62856.8 3667.13   6
  13   3   8 45578.9 2886.86  16
 -13   3  -8 58178.4 3908.33  15
 -13  -3  -8 49020.7 3339.30   2
 -13   3  -8 51492.3 3204.12   2
  13  -3   8 55279.3 3250.81   5
  13  -3   9 26108.4 2200.37  16
 -13  -3  -9 23277.7 2388.89  18
 -13   3  -9 21518.1 2375.72  18
  13  -3   9 23548.0 2092.21   5
  13  -3   9 24609.7 1975.73   6
  13   3   9 25713.2 2389.53   6
  13   3   9 21893.4 2009.95  16
 -13   3  -9 23674.0 2583.58  15
 -13  -3  -9 24015.0 2347.11   2
 -13   3  -9 26555.2 2871.70   9
 -13  -3  -9 23526.8 2127.91   9
 -13   3 -10 1454.16 820.810   9
 -13  -3 -10 853.011 693.847  18
 -13  -3 -10-278.487 577.022  17
 -13   3 -10 785.926 599.212  18
  13   3  10 975.624 724.574   6
  13  -3  10 416.208 428.741  16
  13   3  10 103.270 465.894  16
 -13   3 -10 1450.87 819.835  15
 -13  -3 -10-86.3661 560.145   2
  13  -3  10-515.584 538.832   5
 -13  -3 -11 7929.67 1380.05   2
 -13   3 -11 10331.1 1775.70  18
 -13  -3 -11 12900.7 1849.68  17
 -13   5  11 9489.24 1512.60   4
 -13  -5  11 10842.7 1318.49   4
  13   5 -11 11595.4 1911.15  20
  13  -5 -11 10662.4 1649.47  17
  13   5 -11 11620.1 1996.85  11
  13  -5 -11 11820.8 1778.48   9
 -13   5  11 14475.9 1563.10  10
 -13  -5  11 10461.3 1314.78  10
  13  -5 -10 8613.59 1229.39   5
 -13   5  10 9141.92 1439.52   4
 -13  -5  10 9674.62 1214.06   4
  13   5 -10 9653.59 1650.44  20
  13  -5 -10 9276.76 1400.91  17
 -13  -5  10 8251.18 1064.56   3
 -13   5  10 9893.27 1300.89   8
  13   5 -10 7205.31 1483.55  11
 -13   5  10 10888.7 1345.27  10
  13  -5 -10 12130.7 1700.78   9
 -13  -5  10 8235.58 1148.10  10
  13  -5  -9 1970.82 650.571   5
 -13  -5   9 2221.43 614.585   4
 -13   5   9 1678.91 728.862   4
 -13  -5   9 2788.39 671.810   3
  13   5  -9 2626.82 961.318  20
  13  -5  -9 1016.33 530.547  17
 -13   5   9 2330.67 719.377   8
  13   5  -9 2374.67 847.569  11
 -13   5   9 1199.73 525.570  10
  13  -5  -9 1389.61 758.871   9
 -13  -5   9 1343.32 510.015  10
  13  -5  -8 3674.07 798.246   5
 -13  -5   8 4230.17 777.047   4
 -13   5   8 3915.49 940.943   4
 -13  -5   8 3956.48 739.397   3
  13   5  -8 5053.27 1156.52  20
  13  -5  -8 5459.17 1008.49  17
 -13   5   8 4843.35 962.520   8
  13  -5  -8 3337.39 930.397  13
  13   5  -8 5615.80 1182.38  11
  13  -5  -8 5939.08 1126.54   9
 -13  -5   8 4235.33 752.559  10
 -13   5   7 40013.5 2790.27   4
 -13  -5   7 42629.7 2436.00   4
  13  -5  -7 44458.7 2558.74   5
 -13  -5   7 33693.1 2203.27   3
  13   5  -7 37741.8 3009.97  20
  13  -5  -7 44444.0 2772.41  17
 -13   5   7 40215.0 2750.52   8
  13  -5  -7 39961.0 2884.94  13
 -13   5   7 39997.0 2441.92  12
  13   5  -7 38239.6 2871.29  11
 -13  -5   7 33943.1 2130.01  10
 -13   5   6 45332.9 2783.53   4
 -13  -5   6 44575.0 2485.02   4
  13  -5  -6 47787.4 2588.70   5
 -13  -5   6 41297.1 2404.20   3
 -13  -5   6 37934.2 2068.25  19
  13   5  -6 50328.0 3348.73  20
  13  -5  -6 47278.8 2815.20  17
 -13   5   6 42675.4 2870.51   8
  13  -5  -6 43255.2 2984.33  13
 -13   5   6 42835.4 2450.59  12
  13   5  -6 41041.4 2825.95  11
 -13  -5   6 42120.4 2311.80  10
  13  -5  -5 1590.27 525.365   5
 -13  -5   5 878.423 418.474   4
 -13   5   5 1002.72 549.967   4
 -13  -5   5 934.070 351.988  19
  13   5  -5 662.644 501.666  20
  13   5  -5 1646.53 559.096  21
 -13   5   5 1671.47 717.871   8
 -13  -5   5 514.735 360.025   3
  13  -5  -5 1066.01 487.762  13
  13   5  -5 1142.49 555.983  11
 -13  -5   5 1140.13 388.094  10
 -13  -5   4 41250.9 2362.24   3
 -13   5   4 43148.7 2587.89   7
 -13   5   4 43332.2 2892.75   8
  13   5  -4 39224.7 2489.66  21
 -13  -5   4 40237.7 2143.01  19
  13   5  -4 43648.2 3005.63  20
  13  -5  -4 39938.3 2689.19  13
 -13  -5   4 40513.0 2131.71  10
  13   5  -4 39342.3 2627.91  11
 -13   5   4 41694.7 2301.05   4
 -13  -5   4 40528.5 2344.30   4
  13  -5  -4 45901.5 2416.08   5
 -13  -5   3 59692.7 2931.45   3
 -13   5   3 64466.9 3403.72   7
 -13   5   3 56293.8 3416.19   8
  13   5  -3 59613.6 3008.32  21
 -13  -5   3 60561.2 2778.44  19
  13   5  -3 66010.8 3692.09  20
  13  -5  -3 64060.0 3351.30  13
  13   5  -3 57881.0 3108.40  11
  13   5  -3 62632.2 3381.07  12
 -13   5   3 60496.4 2698.65   4
 -13  -5   3 59403.5 2954.27   4
  13  -5  -3 60180.3 2897.62   5
 -13  -5   2 26800.8 1680.56   2
 -13  -5   2 27808.4 1846.15   3
  13   5  -2 26873.4 1766.33  21
 -13  -5   2 26527.6 1756.90  19
  13   5  -2 29372.8 2254.82  20
 -13   5   2 25578.0 2117.85   7
 -13   5   2 24852.8 2158.06   8
  13  -5  -2 25699.5 2003.10  13
  13   5  -2 23969.7 1828.91  11
  13   5  -2 22593.2 1863.65  12
 -13  -5   2 26906.6 1876.50   4
  13  -5  -2 26179.4 1811.47   5
 -13  -5   1 508.728 373.150   3
 -13  -5   1 1367.68 459.785   2
  13   5  -1 913.662 492.633  20
 -13  -5   1 386.304 322.763  19
  13  -5  -1 1358.40 474.470  13
 -13  -5   1 754.887 404.532   4
  13  -5  -1 396.679 372.148   5
  13   5  -1 1312.41 476.251  12
  13   5  -1 433.329 373.211  11
 -13   5   1 1179.11 522.884   7
 -13   5   1 1553.20 623.242   8
 -13  -5   0 67289.2 3263.56   2
 -13  -5   0 74549.6 3244.10   3
  13   5   0 69180.4 3581.96  20
 -13  -5   0 70443.3 3195.47  19
 -13   5   0 62733.4 3780.60   7
  13   5   0 70921.6 3298.47   6
 -13   5   0 70829.4 3718.76   8
  13  -5   0 69273.4 3364.14  13
  13   5   0 71183.9 3270.69  11
  13   5   0 71094.9 3221.17  12
 -13  -5   0 68855.9 3334.32   4
  13  -5   0 73462.1 3307.69   5
 -13  -5  -1 81297.3 3784.44   2
 -13  -5  -1 81405.5 3448.91   3
 -13  -5  -1 82189.7 3404.70  18
  13   5   1 82398.8 3935.90  20
 -13  -5  -1 80890.0 3558.57  19
 -13   5  -1 81002.2 4370.15   7
  13   5   1 81710.4 3603.36   6
 -13   5  -1 73996.5 3776.01   8
  13   5   1 80327.5 3544.08  11
  13   5   1 79277.3 3414.26  12
 -13  -5  -1 77533.2 3698.39   4
  13  -5   1 82703.5 3631.37   5
 -13  -5  -2 11143.4 1324.02   2
 -13  -5  -2 11116.1 1101.69   3
 -13  -5  -2 10293.0 1155.54  18
  13   5   2 9942.67 1280.69  20
 -13   5  -2 9849.72 1451.81   7
 -13   5  -2 9725.95 1193.91   8
  13   5   2 9834.62 1153.90   6
  13   5   2 9352.37 1113.90  11
  13   5   2 10413.7 1080.97  12
 -13  -5  -2 9393.21 1241.23   4
  13  -5   2 12221.6 1284.51   5
 -13   5  -3 22626.9 1941.82   2
 -13  -5  -3 23798.0 2040.99   2
 -13  -5  -3 25651.8 1687.67   3
 -13  -5  -3 21703.2 1782.85  18
  13   5   3 24777.3 2058.35  20
 -13   5  -3 25196.4 2320.71   7
  13   5   3 26251.1 1922.71   6
 -13   5  -3 24402.9 1829.06   8
  13   5   3 22977.1 1620.37  12
 -13  -5  -3 25825.5 2086.68   4
  13  -5   3 26423.1 1953.76   5
 -13   5  -4 57989.2 3294.15   2
 -13  -5  -4 58070.7 3382.75   2
  13   5   4 57343.8 3323.75  20
  13  -5   4 60915.3 3225.99  16
 -13  -5  -4 58879.9 3246.88  18
 -13   5  -4 56354.6 3563.99   7
  13   5   4 57518.4 3119.04   6
  13   5   4 55057.9 2678.63  12
  13  -5   4 61922.8 3187.55   5
  13   5   5 29613.9 2337.15  20
  13  -5   5 23181.8 2008.61  16
 -13  -5  -5 28473.4 2268.75  18
 -13   5  -5 27629.9 2439.01   7
  13   5   5 27097.8 2115.62   6
  13   5   5 24787.5 2045.98  16
  13  -5   5 28016.4 2143.66   5
 -13  -5  -5 27524.6 2312.60   2
 -13   5  -5 25701.0 2115.52   2
  13   5   6 6236.62 1097.42  20
 -13   5  -6 6605.14 1170.28  18
 -13  -5  -6 6672.32 1173.29  18
 -13   5  -6 6826.02 1251.99   7
  13   5   6 8079.09 1213.45   6
  13  -5   6 6434.95 1092.04  16
  13   5   6 6185.00 1085.68  16
  13  -5   6 5367.45 947.946   5
 -13  -5  -6 6189.13 1197.98   2
 -13   5  -6 6882.95 1119.33   2
 -13   5  -7 9212.43 1390.94  18
 -13  -5  -7 8879.99 1208.56  19
 -13  -5  -7 7276.98 1301.80  18
  13   5   7 8667.21 1305.85   6
  13  -5   7 8544.00 1291.87  16
  13   5   7 7429.63 1203.07  16
  13  -5   7 11673.8 1474.07   5
 -13  -5  -7 9582.16 1447.25   2
 -13   5  -7 10302.6 1388.31   2
 -13  -5  -8 34929.5 2827.86  18
  13  -5   8 28736.4 2527.42  16
 -13   5  -8 33106.3 2862.05  18
  13  -5   8 31410.7 2496.30   5
  13   5   8 35701.6 2736.15   6
  13   5   8 34765.3 2666.63  16
 -13   5  -8 34365.2 3287.34  15
 -13  -5  -8 30661.0 2342.30  19
 -13  -5  -8 31833.6 2720.05   2
 -13   5  -9 13501.2 2163.43   9
 -13   5  -9 12114.4 1818.09  18
 -13  -5  -9 11320.9 1653.36  18
  13  -5   9 10161.6 1469.55  16
  13   5   9 12095.6 1596.85  16
 -13   5  -9 11551.8 2040.67  15
  13  -5   9 10748.8 1461.31   5
 -13  -5  -9 12580.2 1697.34   2
  13   5   9 13537.1 1699.58   6
 -13  -7  10 5067.22 928.243   3
 -13   7  10 6852.60 1251.89   8
 -13   7  10 6073.04 1169.21  10
 -13  -7  10 5003.87 1025.45  10
 -13   7   9 1544.32 696.062   4
  13   7  -9 1566.63 894.047  20
  13   7  -9 1756.62 800.314  21
 -13   7   9 488.815 626.459   8
 -13  -7   9 1059.60 509.260   3
  13  -7  -9 362.474 604.666  13
  13   7  -9 601.582 593.242  11
 -13  -7   9-39.6855 424.665  10
 -13   7   8 2387.12 759.501   4
 -13  -7   8 1408.69 552.236   4
  13   7  -8 189.545 656.837  20
  13   7  -8 2964.86 942.263  21
 -13   7   8 1892.19 760.467   8
 -13  -7   8 2497.51 678.606   3
  13  -7  -8 2949.97 929.121  13
  13   7  -8 1781.33 831.894  11
 -13  -7   8 2351.99 680.670  10
 -13  -7   7 16232.7 1587.82   3
 -13   7   7 14747.6 1887.03   8
  13   7  -7 17540.9 2196.19  20
  13   7  -7 16922.7 2008.61  21
  13  -7  -7 18065.0 2020.16  13
 -13  -7   7 15100.8 1545.66  10
  13   7  -7 15254.7 1885.44  11
 -13   7   7 17935.0 1888.33   4
 -13  -7   7 17588.8 1624.94   4
 -13  -7   6 20173.9 1756.10   3
 -13   7   6 27483.7 2561.45   8
 -13  -7   6 20197.6 1600.06  19
  13   7  -6 24965.0 2358.27  21
  13   7  -6 22777.7 2451.65  20
  13  -7  -6 22561.6 2269.50  13
  13   7  -6 22841.2 2260.60  11
 -13   7   6 23312.8 2059.03   4
 -13  -7   6 21333.0 1778.12   4
  13  -7  -6 25260.0 1920.96   5
 -13  -7   5-303.182 430.604   3
 -13   7   5 903.348 507.701   7
 -13   7   5 423.840 604.330   8
 -13  -7   5 472.506 388.289  19
  13   7  -5 300.411 542.695  20
  13   7  -5-280.270 535.497  21
  13  -7  -5-561.143 526.967  13
  13   7  -5 229.756 441.194  11
  13   7  -5 539.634 635.088  12
  13  -7  -5 1093.08 524.410   5
 -13  -7   5 271.196 377.583   4
 -13  -7   4 15513.3 1517.35   3
 -13   7   4 17189.9 1857.97   7
 -13   7   4 15915.5 2033.64   8
 -13  -7   4 14480.5 1348.37  19
  13   7  -4 15572.6 1745.25  21
  13   7  -4 18211.0 2073.49  20
  13  -7  -4 17518.6 1861.83  13
  13   7  -4 16398.8 1741.74  11
  13   7  -4 19346.5 2015.20  12
 -13  -7   4 14431.4 1448.99   4
  13  -7  -4 18538.6 1650.79   5
 -13  -7   3 28835.0 2105.12   3
 -13   7   3 31544.8 2657.73   7
 -13   7   3 32717.9 2880.38   8
  13   7  -3 29214.6 2342.46  21
 -13  -7   3 26604.2 1918.47  19
  13   7  -3 33214.4 2779.16  20
  13  -7  -3 31404.4 2422.86  13
  13   7  -3 31121.1 2358.90  11
  13   7  -3 32582.7 2600.86  12
 -13  -7   3 29136.7 2107.21   4
  13  -7  -3 32027.4 2164.50   5
 -13  -7   2 15949.6 1542.25   3
 -13   7   2 13452.5 1822.84   7
 -13   7   2 15152.0 1947.86   8
  13   7  -2 15144.7 1846.31  20
 -13  -7   2 12712.1 1305.56  19
 -13  -7   2 13411.0 1218.72  13
  13  -7  -2 15330.8 1639.87  13
  13   7  -2 14358.3 1510.64  11
  13   7  -2 16028.9 1782.94  12
 -13  -7   2 12450.4 1390.01   4
  13  -7  -2 14476.9 1430.62   5
 -13  -7   1 278.815 417.832   3
 -13   7   1 865.494 718.967   7
 -13   7   1-155.089 610.735   8
  13   7  -1 1547.89 692.604  20
 -13  -7   1 766.688 418.099  19
  13  -7  -1 1402.94 608.054  13
  13   7  -1 1555.14 663.215  12
  13   7  -1 1275.91 548.737  11
 -13  -7   1 1795.94 618.370   4
  13  -7  -1 735.529 416.937   5
 -13  -7   0 25182.4 1920.12   2
 -13  -7   0 30090.2 2086.50   3
 -13   7   0 30621.9 2898.91   7
  13   7   0 27747.6 1895.42   6
 -13   7   0 30275.3 2679.25   8
 -13  -7   0 28694.5 2035.13  19
  13   7   0 26901.7 2369.56  20
  13  -7   0 25546.4 2048.45  13
  13   7   0 26313.6 1953.54  11
  13   7   0 25111.4 2107.35  12
 -13  -7   0 27108.9 2120.63   4
  13  -7   0 32144.9 2169.67   5
 -13  -7  -1 38187.3 2547.90   2
 -13  -7  -1 42756.8 2551.37   3
 -13  -7  -1 43067.6 2610.22  19
  13   7   1 41983.7 2937.79  20
 -13   7  -1 45451.3 3564.01   7
  13   7   1 45775.2 2551.32   6
 -13   7  -1 46155.7 3166.66   8
  13  -7   1 44140.7 2700.93  13
  13   7   1 42021.0 2733.75  12
 -13  -7  -1 36152.9 2579.27   4
  13  -7   1 47307.9 2739.26   5
 -13  -7  -2 4089.99 751.519   3
 -13  -7  -2 4019.37 863.392   2
 -13  -7  -2 5079.46 921.683  19
  13   7   2 4692.46 1007.54  20
 -13   7  -2 5764.99 1245.67   7
  13   7   2 4556.20 798.577   6
 -13   7  -2 4872.75 970.462   8
  13   7   2 5636.26 985.227  12
  13  -7   2 5206.45 920.665   5
 -13  -7  -3 12116.5 1546.16   2
 -13  -7  -3 12190.8 1411.43  19
  13   7   3 12721.4 1654.63  20
 -13   7  -3 11358.3 1722.46   7
 -13   7  -3 14202.1 1582.90   8
  13   7   3 13144.1 1346.22   6
  13   7   3 15494.7 1568.83  12
  13  -7   3 15157.9 1579.38   5
 -13   7  -4 20658.7 2005.05   2
 -13  -7  -4 22004.7 2146.17   2
 -13  -7  -4 23515.0 1959.32  18
  13   7   4 23052.2 2244.68  20
 -13  -7  -4 22231.4 1969.54  19
 -13   7  -4 25317.9 2564.75   7
  13   7   4 22033.5 1826.04   6
  13   7   4 22772.0 1902.37  12
  13  -7   4 27672.4 2161.33   5
  13   7   5 14688.7 1856.94  20
 -13  -7  -5 16301.2 1680.14  19
 -13   7  -5 17572.7 2133.43   7
  13   7   5 17291.9 1649.83   6
 -13  -7  -5 16929.3 1749.80  18
 -13  -7  -5 14282.9 1785.01   2
 -13   7  -5 15290.1 1693.70   2
  13  -7   5 17064.0 1770.84   5
  13   7   6 1631.23 811.570  20
 -13   7  -6 2441.56 806.639  18
 -13  -7  -6 2475.71 751.404  19
 -13  -7  -6 1944.31 675.303  18
 -13   7  -6 2785.95 870.988   7
  13   7   6 2544.18 737.830   6
  13  -7   6 2524.68 735.379   5
 -13  -7  -6 2124.25 792.294   2
 -13  -7  -7 3201.84 819.268  19
 -13  -7  -7 4405.61 981.366  18
 -13   7  -7 3835.50 1039.70   7
  13   7   7 4599.42 926.648   6
  13   7   7 4449.34 1006.88  16
 -13  -7  -7 4594.97 955.678  13
  13  -7   7 4396.11 931.985   5
 -13  -7  -8 13538.7 1754.03  18
  13   7   8 13985.0 1637.74   6
 -13   7  -8 14226.1 1900.44   7
  13   9  -7 7918.07 1491.86  21
  13   9  -6 8485.29 1582.13  12
 -13  -9   6 6734.88 1005.57  19
  13   9  -6 10221.3 1675.96  21
  13   9  -5 873.805 764.425  20
  13   9  -5 690.031 594.011  21
 -13  -9   5-50.1113 363.335  19
 -13   9   5 851.946 868.017   8
 -13  -9   5 98.2800 415.289   3
  13  -9  -5 87.4312 531.930  13
  13   9  -5 992.118 668.640  12
 -13  -9   5-20.0853 382.123   4
  13   9  -4 7864.51 1467.14  20
 -13  -9   4 6196.89 958.631  19
 -13   9   4 6831.17 1382.68   7
 -13   9   4 7279.28 1603.37   8
 -13  -9   4 6254.15 1028.31   3
  13  -9  -4 4700.63 1044.61  13
  13   9  -4 8868.25 1580.28  12
 -13  -9   4 6322.57 1027.75   4
 -13  -9   3 10793.1 1281.56  19
  13   9  -3 12135.2 1789.13  20
 -13   9   3 12498.5 1914.75   7
 -13   9   3 12956.7 2051.22   8
 -13  -9   3 11577.7 1454.15   3
  13  -9  -3 12672.1 1598.55  13
  13   9  -3 11746.7 1721.33  12
 -13  -9   3 9570.18 1290.22   4
 -13  -9   2 4668.77 894.746  19
  13   9  -2 4923.90 1192.70  20
 -13   9   2 6342.81 1435.70   7
 -13   9   2 3928.10 1182.27   8
 -13  -9   2 4303.32 929.550   3
  13  -9  -2 4883.29 1031.15  13
  13   9  -2 4254.68 1145.04  12
 -13  -9   2 3873.42 845.636   4
  13   9  -1-693.859 619.854  20
 -13  -9   1 479.499 436.464  19
 -13   9   1 344.933 673.304   7
 -13   9   1 104.744 639.099   8
 -13  -9   1-394.580 412.748   3
  13  -9  -1 789.151 534.968  13
  13   9  -1 651.544 581.032  12
 -13  -9   1 95.5463 407.596   4
  13   9   0 13313.5 1846.15  20
 -13  -9   0 11583.1 1359.54  19
 -13   9   0 14073.0 2132.67   7
 -13   9   0 9858.79 1676.03   8
 -13  -9   0 12099.6 1409.24   3
  13  -9   0 12000.8 1447.85  13
 -13  -9   0 10530.3 1233.04  13
  13   9   0 13719.1 1784.16  12
  13  -9   0 14466.0 1513.55   5
  13   9   1 15194.2 1945.16  20
 -13  -9  -1 14344.5 1569.99  19
 -13   9  -1 20496.0 2541.68   7
 -13   9  -1 19739.7 2279.98   8
 -13  -9  -1 14577.3 1528.24   3
  13  -9   1 14772.4 1594.99  13
 -13  -9  -1 16041.9 1613.79  13
  13   9   1 13854.4 1761.29  12
  13  -9   1 15662.0 1608.47   5
  13   9   2 2785.92 943.681  20
 -13  -9  -2 2644.48 761.409  19
  13   9   2 895.955 583.179  12
 -13  -9  -2 2359.29 667.652  13
  13  -9   2 2147.59 706.264   5
 -13   9  -2 2241.04 1048.78   7
 -13   9  -2 2382.82 891.944   8
  13   9   3 5081.31 1196.07  20
 -13  -9  -3 3550.47 867.264  19
 -13   9  -3 2563.48 940.285   7
  13   9   3 3027.00 827.772  12
 -13  -9  -3 2882.93 783.148  13
  13  -9   3 6078.68 1059.20   5
 -13   9  -4 8143.74 1331.44   2
  13   9   4 7328.50 1282.94  12
 -13  -9  -4 9775.77 1390.25  13
  13  -9   4 10134.4 1349.99   5
 -13  -9  -4 10628.8 1380.01  19
  13   9   4 9771.13 1591.34  20
  14   0 -13 5337.18 1290.81  11
  14   0 -13 2476.43 944.485   9
  14   0 -12 1311.22 864.228  17
  14   0 -12 305.040 588.076  11
 -14   0  12 763.994 428.996   4
 -14   0  12 549.027 416.689  10
  14   0 -12 174.597 493.383   9
  14   0 -11 11910.3 1737.47  17
  14   0 -11 12348.7 1737.58  11
 -14   0  11 12831.2 1522.68   4
  14   0 -11 14630.8 1828.98   9
 -14   0  11 13369.6 1323.85  10
  14   0 -10 14128.8 1766.61  17
  14   0 -10 13593.6 1741.77  11
 -14   0  10 14304.3 1599.43   4
  14   0 -10 16222.2 1790.97   9
 -14   0  10 16133.9 1361.19  10
  14   0  -9 10479.1 1440.44  17
 -14   0   9 9819.53 1037.49   8
  14   0  -9 8242.93 1224.66   9
 -14   0   9 9752.35 1004.20  10
  14   0  -9 8226.82 1244.56  11
 -14   0   9 11611.1 1378.06   4
  14   0  -8 3553.91 837.331  17
 -14   0   8 3244.29 548.054  10
  14   0  -8 4306.15 861.380   9
 -14   0   8 2586.26 569.680   8
  14   0  -8 2400.79 691.926  11
 -14   0   8 3553.39 768.270   4
  14   0  -7 77393.1 3886.72  17
  14   0  -7 82627.9 3803.19   9
 -14   0   7 78666.6 3303.18   8
  14   0  -7 72482.9 3640.35  11
 -14   0   7 78944.9 3597.33   4
 -14   0   6 86638.5 3710.08   4
  14   0  -6 85052.3 3808.05  20
  14   0  -6 92988.7 4183.04  17
 -14   0   6 88794.9 3595.34   8
  14   0  -6 88895.4 3936.78  11
  14   0  -6 92674.2 3949.58   9
 -14   0   5 3903.39 592.789   2
  14   0  -5 5730.28 939.457  17
  14   0  -5 3971.01 718.281  20
  14   0  -5 4415.66 742.721  11
 -14   0   5 5060.44 776.754   4
 -14   0   5 4001.51 708.879   8
 -14   0   4 57022.4 2493.99   2
  14   0  -4 56232.5 2696.80  20
  14   0  -4 61045.8 2927.60  11
 -14   0   4 56590.0 2669.78   4
 -14   0   4 58254.9 2683.74   8
 -14   0   3 112210. 4027.48   2
  14   0  -3 112400. 4067.66  20
  14   0  -3 119520. 4403.74  11
 -14   0   3 118624. 4161.31   4
 -14   0   3 117523. 4220.84   8
 -14   0   2 65767.2 2821.35   2
 -14   0   2 63036.4 2855.70   8
  14   0  -2 66346.1 2732.83  20
  14   0  -2 68378.4 3005.49  11
 -14   0   2 67786.0 2838.76   4
  14   0  -2 67756.9 2873.62   5
 -14   0   1 759.211 346.819   2
  14   0  -1 197.629 180.856  20
 -14   0   1-250.434 234.993   8
  14   0  -1 224.446 156.637  16
  14   0  -1 919.077 360.404  11
  14   0  -1-181.054 281.044   5
 -14   0   1 147.933 203.923   4
 -14   0   0 103580. 3876.20   2
  14   0   0 102462. 3440.27  20
  14   0   0 97516.5 3267.96  16
 -14   0   0 97028.8 3646.62   8
  14   0   0 104906. 3883.74  11
 -14   0   0 97576.0 3626.49   4
  14   0   0 101938. 3719.32   5
 -14   0  -1 191977. 6159.31   2
  14   0   1 192845. 5549.16  20
  14   0   1 182471. 6256.67   6
  14   0   1 187194. 5549.05  16
 -14   0  -1 192290. 5914.19   4
  14   0   1 190897. 5939.56   5
 -14   0  -1 184593. 5809.46   8
 -14   0  -2 71900.2 3231.98   2
  14   0   2 70802.6 2727.99  20
 -14   0  -2 69548.2 3204.70  18
  14   0   2 69795.9 3285.91   6
  14   0   2 71700.4 2869.18  16
 -14   0  -2 73839.4 3064.69   4
  14   0   2 67963.3 3015.28   5
 -14   0  -2 70762.9 2887.99   8
  14   0   3 1968.54 411.474  20
 -14   0  -3 1536.91 487.523  18
 -14   0  -3 939.268 334.584   8
  14   0   3 689.393 394.813   6
  14   0   3 938.739 398.529  16
 -14   0  -3 1299.91 486.460   2
 -14   0  -3 964.140 310.313   4
  14   0   3 944.172 423.511   5
 -14   0  -4 43384.0 2119.26   8
 -14   0  -4 51354.7 2842.55  18
  14   0   4 45160.0 2638.71   6
  14   0   4 43732.1 2350.94  16
 -14   0  -4 48075.9 2694.85   2
 -14   0  -4 40921.3 2261.73   4
  14   0   4 45601.4 2433.22   5
 -14   0  -5 93288.2 4311.90  18
  14   0   5 89335.3 4066.93   6
  14   0   5 85256.8 3746.24  16
 -14   0  -5 88804.4 4108.41   2
  14   0   5 91199.0 3776.33   5
 -14   0  -6 33357.7 2549.43  18
  14   0   6 34098.0 2392.41   6
  14   0   6 33996.3 2166.60  16
 -14   0  -6 32736.1 2380.89  15
 -14   0  -6 35007.9 2518.91   2
  14   0   6 33581.1 2133.57   5
 -14   0  -7 9393.64 1402.11   9
 -14   0  -7 7259.64 1270.15  18
  14   0   7 7594.29 1204.22   6
  14   0   7 8029.15 1087.07  16
 -14   0  -7 8942.84 1276.04  15
 -14   0  -7 9551.96 1371.32   2
  14   0   7 7237.76 1002.89   5
 -14   0  -8 45643.0 3374.61  18
  14   0   8 49628.4 3147.43   6
  14   0   8 44319.7 2550.54   5
  14   0   8 45639.1 2776.04  16
 -14   0  -8 47358.3 3214.47  15
 -14   0  -8 45339.4 3311.14   9
 -14   0  -8 43979.4 3169.36   2
 -14   0  -9 26592.8 2630.94  18
  14   0   9 23274.4 2025.51  16
  14   0   9 30903.8 2531.52   6
 -14   0  -9 28587.2 2529.65  15
 -14   0  -9 25952.3 2578.05   9
 -14   0  -9 25941.5 2440.32   2
 -14   0 -10 370.185 503.334  18
  14   0  10 862.557 504.824   6
  14   0  10 662.120 493.841  16
 -14   0 -10 1071.90 704.702  15
 -14   0 -10 1414.50 681.912   2
 -14   0 -10 625.261 594.082   9
 -14   0 -11 2457.36 988.200   9
 -14   2  12 374.339 334.286  10
  14  -2 -12-653.199 701.905   9
 -14  -2  12 301.046 315.872  10
  14   2 -12-148.728 603.984  11
 -14  -2  12 468.620 481.500   4
 -14   2  12-138.678 528.486   4
  14  -2 -12-99.2046 576.469  17
  14   2 -12 307.243 562.525  17
  14  -2 -11 9759.37 1621.48   9
 -14  -2  11 10097.7 1186.31  10
 -14   2  11 12666.3 1288.98  10
  14  -2 -11 10034.7 1613.62  17
  14   2 -11 9695.37 1601.81  17
  14   2 -11 6937.76 1309.81  11
 -14  -2  11 10586.5 1331.96   4
 -14   2  11 10216.5 1472.45   4
  14  -2 -10 22123.4 2239.09   9
  14   2 -10 14273.2 1605.65   9
 -14  -2  10 16393.2 1450.02  10
 -14   2  10 18163.0 1495.12  10
  14  -2 -10 13720.8 1837.76  17
  14   2 -10 17570.5 1975.39  17
 -14   2  10 18431.6 1524.34   8
  14   2 -10 15725.3 1968.96  11
 -14  -2  10 17968.6 1717.47   4
 -14   2  10 15235.8 1778.73   4
 -14   2   9 4854.64 724.105  10
  14  -2  -9 6658.87 1186.92   9
  14   2  -9 3653.78 761.164   9
 -14  -2   9 6012.80 829.637  10
  14  -2  -9 4972.78 1100.47  17
  14   2  -9 6918.40 1163.52  17
 -14  -2   9 5527.62 801.402   3
 -14   2   9 6089.15 877.246   8
  14  -2  -9 6965.35 1033.96  11
  14   2  -9 4376.44 1038.82  11
 -14  -2   9 5966.94 969.698   4
 -14   2   9 5856.18 1094.40   4
 -14  -2   8 2199.02 583.640   4
 -14   2   8 2126.74 722.017   4
  14   2  -8 3123.95 877.326  20
  14  -2  -8 1041.57 590.567  17
  14   2  -8 2034.45 676.028  17
 -14  -2   8 1430.63 386.896   3
 -14  -2   8 2199.55 515.284   8
 -14   2   8 1648.48 450.030   8
  14  -2  -8 1852.25 502.474  11
  14   2  -8 1705.05 603.403  11
 -14   2   8 1672.77 426.898  10
  14  -2  -8 1086.45 580.258   9
  14   2  -8 623.050 383.792   9
 -14  -2   8 1354.57 379.712  10
 -14  -2   7 68136.0 3203.36   4
 -14   2   7 67326.3 3488.82   4
  14   2  -7 61625.6 3609.31  20
  14   2  -7 66060.5 3480.69  17
  14  -2  -7 71176.4 3678.30  17
 -14  -2   7 66805.7 2976.85   3
 -14   2   7 68319.3 3175.17   8
  14  -2  -7 73065.9 3300.07  11
  14   2  -7 64439.7 3610.59  11
  14  -2  -7 70459.3 3615.66   9
  14   2  -7 67583.0 3179.01   9
 -14  -2   7 69477.6 3086.45   8
 -14  -2   6 87309.6 3635.12   4
 -14   2   6 84382.6 3783.54   4
  14   2  -6 84565.9 4137.02  20
  14   2  -6 83861.7 3903.47  17
  14  -2  -6 85679.9 4009.13  17
 -14  -2   6 83739.3 3390.57   3
 -14   2   6 88458.6 3683.67   8
  14  -2  -6 89372.1 3653.72  11
  14   2  -6 85740.9 4056.53  11
  14  -2  -6 85707.2 4000.48   9
  14   2  -6 84755.5 3546.64   9
 -14  -2   6 82472.2 3496.06   8
  14   2  -5 2091.45 612.208  20
  14   2  -5 1014.55 499.188  17
  14  -2  -5 1984.82 573.872  17
 -14  -2   5 928.222 363.330   8
 -14   2   5 1403.61 432.116   8
  14   2  -5 1372.51 550.703  11
  14  -2  -5 1485.09 464.356  11
 -14  -2   5 625.330 325.733   4
 -14   2   5 1376.32 459.880   4
 -14  -2   4 36177.9 2064.73   4
  14  -2  -4 35594.0 2078.16   5
 -14   2   4 36601.7 2062.92   4
 -14  -2   4 35022.3 1761.54   2
  14   2  -4 35791.4 2378.48  20
 -14   2   4 34835.6 2137.41   8
  14  -2  -4 39179.0 2064.58  11
  14   2  -4 32258.2 2172.21  11
 -14  -2   4 34713.4 2040.61   8
 -14  -2   3 112266. 4158.43   4
  14  -2  -3 115345. 4198.54   5
 -14   2   3 108824. 3982.41   4
  14   2  -3 108672. 4408.59  20
 -14  -2   3 109371. 3863.82   2
 -14   2   3 107287. 4213.29   8
  14  -2  -3 118227. 4075.50  11
  14   2  -3 108670. 4372.85  11
 -14  -2   3 109362. 4162.73   8
 -14  -2   2 58650.8 2696.21   4
  14  -2  -2 60583.4 2713.69   5
 -14   2   2 56576.1 2486.11   4
 -14  -2   2 54833.0 2516.07   2
  14  -2  -2 54075.7 2076.24   1
  14   2  -2 51510.7 2706.17  20
 -14  -2   2 52707.7 2280.78  18
 -14   2   2 56402.3 2772.17   8
  14  -2  -2 61125.3 2601.38  11
  14   2  -2 57134.8 2821.36  11
 -14  -2   2 56475.2 2659.03   8
 -14   2   1 563.502 364.134   2
 -14  -2   1 40.3928 213.899   2
  14  -2  -1 519.673 208.272   1
  14   2  -1 699.795 351.840  20
 -14  -2   1 215.107 220.274  18
 -14  -2   1 52.1574 309.636   8
 -14   2   1 647.037 288.341   8
  14  -2  -1 214.955 196.893  16
  14   2  -1 262.478 159.122  16
  14  -2  -1 550.005 288.057  11
  14   2  -1 320.426 304.403  11
  14  -2  -1 87.1463 295.946   5
  14   2  -1 35.8317 238.841   5
 -14   2   1 641.336 265.673   4
 -14  -2   1 362.466 305.504   4
 -14   2   0 64542.9 2581.94   4
 -14  -2   0 67547.4 3046.71   4
  14  -2   0 70806.2 3046.39   5
  14   2   0 65589.8 2688.41   5
 -14   2   0 69794.0 3176.05   2
  14  -2   0 68208.8 2580.31   1
 -14  -2   0 67649.1 3052.96   2
  14   2   0 66155.2 3003.72  20
 -14  -2   0 68734.2 2861.75  18
  14  -2   0 65705.1 2659.72  16
 -14   2   0 64931.8 2905.77   8
  14   2   0 69043.5 2616.59  16
  14   2   0 63649.4 2984.49  11
 -14  -2   0 65506.2 2889.73   8
  14  -2   1 187189. 5719.72   1
 -14  -2  -1 192820. 6374.70   2
 -14   2  -1 198965. 6499.41   2
  14   2   1 190430. 6186.54  20
  14  -2   1 188201. 5866.59  16
 -14  -2  -1 197018. 6183.14  18
 -14   2  -1 195534. 6076.55   8
  14   2   1 200795. 6600.60   6
  14  -2   1 199726. 6261.83   6
  14   2   1 190370. 5824.29  16
  14   2   1 194407. 6328.47  11
 -14  -2  -1 196180. 6344.16   4
  14  -2   1 193484. 6223.60   5
  14   2   1 195800. 5877.60   5
 -14   2  -1 197658. 5679.58   4
  14   2   2 51921.8 2556.75  20
  14  -2   2 47210.1 2365.46  16
 -14  -2  -2 50821.5 2640.00  18
  14  -2   2 53701.3 2607.41   6
  14   2   2 51608.5 2823.10   6
 -14   2  -2 52333.2 2432.36   8
  14   2   2 52482.6 2455.52  16
 -14  -2  -2 48204.3 2652.43   4
  14  -2   2 54497.3 2676.46   5
  14   2   2 49824.1 2300.87   5
 -14  -2  -2 53113.3 2793.55   2
 -14   2  -2 53018.2 2794.19   2
  14   2   3 625.570 315.501  20
 -14  -2  -3 1013.53 476.055  18
 -14   2  -3 1555.87 446.045   8
  14  -2   3 718.817 377.743   6
  14   2   3 634.348 384.276   6
  14  -2   3 1522.29 426.661  16
  14   2   3 1148.09 393.511  16
 -14  -2  -3 1101.98 503.739   4
  14   2   3 1364.81 376.164   5
  14  -2   3 2154.06 566.197   5
 -14  -2  -3 677.163 384.387   2
 -14   2  -3 1072.87 557.145   2
  14   2   4 32008.2 2022.16  20
 -14  -2  -4 35304.6 2386.17  18
 -14   2  -4 32699.9 2335.51  18
  14  -2   4 35120.1 2125.09  16
  14  -2   4 33599.5 2102.17   6
  14   2   4 30774.5 2238.21   6
 -14   2  -4 32659.9 1801.98   8
  14   2   4 34302.2 2066.54  16
 -14  -2  -4 31263.1 2244.14   4
  14   2   4 33487.9 1797.08   5
  14  -2   4 31780.8 2122.66   5
 -14  -2  -4 35842.4 2419.49   2
 -14   2  -4 36606.8 2379.84   2
 -14  -2  -5 83256.1 4145.29   2
 -14   2  -5 90509.8 4160.71   2
  14   2   5 84766.8 3741.61  20
  14  -2   5 88866.1 3894.31  16
 -14  -2  -5 85948.6 4242.08  18
 -14   2  -5 85823.2 4202.13  18
  14  -2   5 90669.2 3857.56   6
  14   2   5 88276.1 4135.61   6
  14   2   5 86236.7 3764.10  16
 -14  -2  -5 88534.8 3953.95   9
  14  -2   5 91199.5 4008.99   5
 -14  -2  -6 18872.6 1762.69   9
  14  -2   6 20914.6 1778.03  16
 -14  -2  -6 19761.7 1974.25  18
 -14   2  -6 20789.0 2022.89  18
  14  -2   6 20366.3 1726.99   6
  14   2   6 23881.1 2089.96   6
  14   2   6 19589.1 1685.36  16
 -14  -2  -6 24591.5 2110.51   2
 -14   2  -6 21217.0 1905.10   2
  14  -2   6 22829.5 1905.68   5
 -14  -2  -7 3722.54 848.126   9
 -14  -2  -7 3680.22 1044.79  18
 -14   2  -7 4116.51 1009.01  18
  14  -2   7 6315.28 1025.58   6
  14   2   7 6164.52 1077.66   6
 -14   2  -7 4989.53 1090.07  15
  14  -2   7 5287.33 969.956  16
  14   2   7 5676.64 929.831  16
 -14  -2  -7 4127.48 957.273   2
 -14   2  -7 6020.38 1122.85   2
  14  -2   7 6696.59 1050.74   5
 -14  -2  -8 38339.8 2862.65   9
 -14   2  -8 41300.2 3391.02   9
  14  -2   8 39270.1 2689.32  16
 -14  -2  -8 35588.1 3002.51  18
 -14   2  -8 39693.4 3105.24  18
  14  -2   8 44914.7 2798.56   6
  14   2   8 44418.7 3121.99   6
  14   2   8 39680.1 2619.75  16
 -14   2  -8 40165.4 3179.97  15
 -14  -2  -8 45776.4 3208.61   2
 -14   2  -8 43157.3 3017.58   2
  14  -2   8 38433.0 2651.03   5
 -14  -2  -9 22770.6 2484.92  18
 -14   2  -9 24863.5 2569.27  18
  14  -2   9 23268.8 2101.08  16
  14  -2   9 25551.3 2166.61   5
  14  -2   9 26934.4 2186.30   6
  14   2   9 28969.6 2561.85   6
  14   2   9 26029.1 2145.36  16
 -14   2  -9 27401.4 2733.76  15
 -14  -2  -9 24680.7 2442.64   2
 -14   2  -9 25975.1 2335.79   2
 -14   2  -9 25906.7 2758.37   9
 -14  -2  -9 24983.4 2330.10   9
 -14  -2 -10 1437.00 726.596   9
 -14   2 -10 94.8682 649.676   9
 -14  -2 -10 256.803 620.732  18
 -14   2 -10 22.0398 562.881  18
  14  -2  10 631.323 471.854  16
  14   2  10 646.917 539.184  16
 -14   2 -10 1339.24 807.318  15
  14  -2  10 876.725 502.256   5
 -14  -2 -10 1233.55 738.290   2
  14  -2  10 219.708 475.128   6
  14   2  10 1627.83 825.992   6
  14  -2  11 1435.84 637.850   6
 -14  -2 -11 1133.68 733.970   9
 -14  -4  12-651.348 525.891   4
 -14  -4  11 8668.12 1203.62   4
 -14   4  11 7330.62 1297.90   4
  14   4 -11 7430.96 1510.34  20
  14  -4 -11 8870.91 1568.16  17
  14   4 -11 6455.91 1488.25  11
  14  -4 -11 7165.34 1413.65   9
 -14  -4  10 14157.1 1484.26   4
 -14   4  10 10816.5 1551.41   4
  14   4 -10 12479.8 1826.72  20
  14  -4 -10 11215.8 1591.27  17
  14   4 -10 9785.99 1465.15  17
 -14  -4  10 11334.6 1224.99   3
 -14   4  10 10295.2 1277.63   8
  14   4 -10 11400.9 1745.23  11
  14  -4 -10 13676.0 1820.51   9
 -14  -4   9 5420.52 943.918   4
 -14   4   9 3530.11 918.642   4
 -14  -4   9 6445.41 944.283   3
  14   4  -9 5612.84 1209.98  20
  14   4  -9 5207.81 1032.84  17
  14  -4  -9 6828.95 1200.88  17
 -14   4   9 4857.68 894.025   8
  14   4  -9 4777.11 1052.98  11
  14  -4  -9 5442.19 1099.05   9
 -14  -4   9 5773.64 848.826  10
 -14  -4   8 2047.70 584.666   4
 -14   4   8 1452.49 593.462   4
 -14  -4   8 2792.79 641.248   3
  14   4  -8 2322.30 790.764  20
  14   4  -8 2285.59 674.045  17
  14  -4  -8 3490.92 930.377  17
 -14   4   8 1483.09 545.124   8
  14  -4  -8 2203.78 708.213  13
  14   4  -8 2299.00 791.235  11
  14  -4  -8 1812.95 766.597   9
 -14   4   7 54212.8 3176.53   4
 -14  -4   7 44370.7 2561.78   4
  14  -4  -7 50764.4 2814.38   5
 -14  -4   7 45450.5 2523.75   3
  14   4  -7 50694.2 3424.94  20
  14   4  -7 43954.4 2728.67  17
  14  -4  -7 45585.0 2917.66  17
 -14   4   7 48115.8 2867.21   8
  14  -4  -7 43927.4 2965.67  13
  14   4  -7 41002.8 2932.98  11
  14  -4  -7 44663.4 2998.58   9
 -14  -4   6 54996.9 2807.90   3
 -14  -4   6 54787.2 2471.43  19
  14   4  -6 57450.8 3563.66  20
  14   4  -6 51708.4 2917.29  17
  14  -4  -6 61060.7 3327.79  17
  14  -4  -6 57010.5 3333.69  13
 -14   4   6 54554.1 3087.83   4
 -14  -4   6 58593.7 2895.14   4
  14  -4  -6 57404.5 2951.80   5
  14   4  -6 57426.5 3387.90  11
 -14   4   6 56027.7 3169.26   8
 -14  -4   5 1669.35 522.744   3
 -14   4   5 2419.22 688.515   8
  14   4  -5 2695.96 760.716  20
 -14  -4   5 1923.66 450.811  19
  14  -4  -5 1835.39 617.725  13
  14   4  -5 1899.93 631.567  11
  14  -4  -5 551.075 352.236   5
 -14   4   5 2850.02 644.602   4
 -14  -4   5 1579.08 514.801   4
 -14  -4   4 29672.5 1886.00   3
 -14   4   4 30211.7 2247.78   8
 -14  -4   4 25259.6 1647.02  19
  14   4  -4 30022.5 2401.08  20
  14  -4  -4 29020.2 2183.39  13
  14   4  -4 29612.9 2186.57  11
 -14  -4   4 27680.9 1908.08   4
  14  -4  -4 29624.5 1947.53   5
 -14   4   4 26751.6 1795.18   4
 -14  -4   3 65485.5 2781.47   2
 -14  -4   3 67894.9 3027.17   3
 -14   4   3 63579.7 3438.00   8
 -14  -4   3 62505.6 2842.25  19
  14   4  -3 69457.0 3694.02  20
  14  -4  -3 68703.3 3435.47  13
  14   4  -3 61102.4 3237.28  11
 -14  -4   3 65059.6 3118.33   4
  14  -4  -3 69489.5 3111.40   5
 -14   4   3 68413.7 2894.95   4
 -14  -4   2 39057.0 2146.28   2
 -14  -4   2 40682.1 2240.47   3
 -14   4   2 36908.6 2532.04   8
  14   4  -2 40945.5 2621.09  20
 -14  -4   2 39577.2 2152.30  19
  14  -4  -2 41292.7 2514.07  13
  14   4  -2 39089.2 2395.64  11
  14   4  -2 40026.8 2335.15  12
 -14  -4   2 42016.0 2387.43   4
  14  -4  -2 42074.0 2309.62   5
 -14   4   2 41047.9 2011.64   4
 -14  -4   1 1053.57 385.490   3
 -14  -4   1 391.615 338.605   2
  14   4  -1 1187.49 510.107  20
 -14   4   1 210.969 378.090   7
 -14   4   1 1117.69 494.688   8
  14   4  -1 51.8368 217.537  12
  14   4  -1 211.025 334.428  11
  14  -4  -1 468.169 396.757   5
 -14  -4   1-50.5860 308.410   4
 -14  -4   0 55176.8 2884.04   2
 -14  -4   0 55519.6 2690.21   3
 -14  -4   0 50579.0 2519.74  18
  14   4   0 54990.1 2995.28  20
 -14   4   0 56624.5 3265.10   7
 -14   4   0 53713.8 2982.91   8
  14   4   0 55329.2 2925.40   6
  14  -4   0 56660.1 2520.45   6
  14   4   0 56576.4 2886.45  11
  14   4   0 53241.0 2479.40  12
 -14  -4   0 51752.5 2845.52   4
  14  -4   0 58571.6 2857.11   5
 -14  -4  -1 112864. 4641.87   2
 -14  -4  -1 110165. 4202.03   3
  14   4   1 115650. 4719.37  20
 -14  -4  -1 114590. 4396.82  18
 -14   4  -1 119015. 5159.02   7
  14  -4   1 114754. 4034.72   6
  14   4   1 116154. 4626.87   6
 -14   4  -1 111159. 4545.43   8
  14   4   1 114870. 4517.44  11
 -14  -4  -1 112773. 4597.90   4
  14  -4   1 117234. 4498.65   5
  14   4   2 35897.7 2398.33  20
  14  -4   2 34604.0 2168.46  16
 -14  -4  -2 39789.4 2403.38  18
  14  -4   2 38478.5 2037.19   6
  14   4   2 41234.1 2473.04   6
 -14   4  -2 35586.5 2219.61   8
 -14   4  -2 39094.1 2747.86   7
  14   4   2 36120.2 2167.34  16
 -14  -4  -2 33089.4 2320.18   4
  14  -4   2 39584.2 2357.74   5
 -14   4  -2 36767.0 2472.47   2
 -14  -4  -2 35433.1 2416.92   2
 -14  -4  -2 38501.2 2117.03   3
  14   4   3 1089.27 516.540  20
 -14  -4  -3 726.911 367.154  18
 -14   4  -3-369.774 505.937   7
  14   4   3 933.412 413.256   6
 -14   4  -3 1199.09 444.290   8
  14  -4   3 518.641 295.894  16
  14   4   3 509.902 313.241  16
 -14  -4  -3 1726.69 612.544   4
  14  -4   3 248.004 420.212   5
 -14  -4  -3 799.807 323.310   3
 -14  -4  -3 721.684 515.040   2
 -14   4  -3 1165.52 506.256   2
  14   4   4 28587.2 2139.18  20
 -14  -4  -4 29921.9 2248.09  18
  14  -4   4 25339.4 1951.47  16
  14   4   4 27758.2 2139.30   6
  14  -4   4 27919.8 1749.45   6
  14   4   4 27837.2 1991.10  16
  14  -4   4 26681.9 2020.72   5
 -14  -4  -4 25805.9 2196.48   2
 -14  -4  -4 27266.2 1700.10   3
 -14   4  -4 29612.9 2236.19   2
  14   4   5 51533.2 3040.86  20
 -14  -4  -5 51969.3 3217.03  18
  14  -4   5 50533.8 2981.98  16
 -14   4  -5 45827.7 3035.99  18
  14   4   5 56980.1 3206.06   6
  14   4   5 52028.3 2925.07  16
  14  -4   5 53672.8 3043.62   5
 -14  -4  -5 53176.2 3309.34   2
 -14   4  -5 51585.4 3162.12   2
  14   4   6 16834.8 1730.38  20
 -14  -4  -6 18576.7 1933.95  18
 -14   4  -6 16159.0 1839.67  18
  14  -4   6 14388.6 1618.53  16
  14   4   6 17244.5 1788.20   6
  14   4   6 14871.9 1570.15  16
 -14  -4  -6 15137.4 1763.55   2
 -14   4  -6 16739.2 1732.51   2
  14  -4   6 14684.4 1601.53   5
 -14  -4  -7 3974.84 1021.31  18
 -14   4  -7 3690.58 988.257  18
  14   4   7 3544.81 871.655   6
  14  -4   7 3464.81 881.855  16
  14   4   7 4901.09 974.251  16
 -14  -4  -7 2227.98 764.786   2
 -14   4  -7 4315.41 936.953   2
  14  -4   7 3852.95 884.913   5
 -14  -4  -8 28399.8 2562.34  18
 -14   4  -8 29728.3 2682.75  18
  14  -4   8 28027.5 2384.29  16
  14   4   8 30419.8 2546.56   6
  14   4   8 28460.3 2358.96  16
 -14   4  -8 30708.9 2975.88  15
 -14  -4  -8 26112.7 2477.69   2
 -14   4  -8 23647.0 2206.09   2
  14  -4   8 27356.8 2315.42   5
 -14   4  -9 14286.5 2002.62  18
 -14  -4  -9 15834.7 1895.67  17
 -14  -4  -9 16666.3 2021.88  18
  14   4   9 14784.7 1808.08   6
  14  -4   9 17362.5 1848.40   5
 -14   4  -9 16028.7 2328.26   9
 -14  -4  -9 15844.7 1964.76   2
  14   4   9 15437.5 1752.59  16
  14  -4   9 13965.0 1712.31  16
 -14   4  -9 19163.7 2493.72  15
 -14   4 -10 380.573 494.457  18
 -14  -4 -10 301.229 474.363  17
 -14  -6  10 6532.34 1018.34   3
  14   6 -10 8171.23 1666.79  20
  14  -6 -10 8753.39 1416.22  17
 -14   6  10 6494.47 1170.41   8
  14   6 -10 5842.47 1359.62  11
 -14  -6  10 7129.49 1101.15   4
 -14   6  10 6210.47 1253.97   4
 -14  -6   9 2274.43 635.373   3
  14   6  -9 2966.03 1004.44  20
  14  -6  -9 2378.31 789.514  17
 -14   6   9 3035.55 882.345   8
  14  -6  -9 3499.03 987.332  13
  14   6  -9 2952.38 1025.83  11
  14  -6  -9 1991.28 732.904   5
 -14  -6   9 3034.49 733.538   4
 -14   6   9 2226.39 797.751   4
 -14  -6   8 915.612 481.041   3
  14   6  -8 147.018 550.643  20
  14  -6  -8 883.726 508.609  17
  14  -6  -8 1002.54 656.108  13
  14  -6  -8 1839.31 551.203   5
 -14  -6   8 142.398 337.222   4
 -14   6   8 1201.32 621.256   4
  14   6  -8 738.295 700.437  11
 -14   6   8 866.394 652.560   8
 -14  -6   7 23544.8 1872.40   3
 -14   6   7 27224.5 2455.48   8
  14   6  -7 28311.7 2743.07  20
  14  -6  -7 29199.1 2613.59  13
  14   6  -7 21467.7 2231.13  11
 -14   6   7 28970.3 2388.62   4
 -14  -6   7 27219.8 2036.29   4
  14  -6  -7 26487.8 2028.04   5
 -14  -6   6 29955.4 2106.72   3
 -14   6   6 28011.9 2532.09   8
 -14  -6   6 27285.6 1789.46  19
  14   6  -6 30116.6 2748.92  20
  14  -6  -6 29476.2 2588.38  13
  14   6  -6 26715.4 2432.11  11
 -14   6   6 30341.8 2249.96   4
 -14  -6   6 29412.3 2106.09   4
  14  -6  -6 32736.1 2215.29   5
 -14  -6   5 1334.63 549.634   3
 -14   6   5 592.352 485.154   8
  14   6  -5 1035.91 608.172  20
 -14  -6   5 1071.60 425.470  19
  14  -6  -5 578.404 509.395  13
  14   6  -5 1792.49 665.043  11
  14  -6  -5 1562.57 538.859   5
 -14  -6   5 2288.85 594.947   4
 -14   6   5 975.310 486.165   4
 -14  -6   4 12362.7 1328.01   3
 -14   6   4 12752.0 1536.64   7
 -14   6   4 13678.2 1794.35   8
  14   6  -4 13488.5 1785.96  20
 -14  -6   4 13420.8 1265.70  19
  14  -6  -4 13669.1 1621.31  13
  14   6  -4 13537.0 1629.71  12
  14   6  -4 13802.6 1608.07  11
 -14  -6   4 13858.4 1408.84   4
  14  -6  -4 14384.1 1400.86   5
 -14  -6   3 34232.4 2243.60   3
 -14   6   3 33938.3 2631.96   7
 -14   6   3 30422.5 2700.19   8
 -14  -6   3 31336.3 2028.33  19
  14   6  -3 38624.9 2919.69  20
  14  -6  -3 35665.1 2597.93  13
  14   6  -3 39075.3 2623.56  11
  14   6  -3 33121.3 2552.75  12
 -14  -6   3 32311.4 2220.87   4
  14  -6  -3 36688.0 2297.74   5
 -14  -6   2 18426.3 1631.55   3
 -14  -6   2 19776.2 1617.07  19
  14   6  -2 21726.6 2115.70  20
 -14   6   2 23737.3 2247.04   7
 -14   6   2 17881.5 2016.50   8
  14  -6  -2 20749.8 1920.93  13
  14   6  -2 21012.6 1820.75  11
  14   6  -2 18943.4 1824.04  12
 -14  -6   2 20182.9 1735.25   4
  14  -6  -2 20767.4 1692.53   5
 -14  -6   1 556.350 435.338   3
 -14  -6   1 91.9685 283.108   2
  14   6  -1 257.053 494.659  20
 -14  -6   1-93.1158 329.318  19
  14  -6  -1 160.482 394.952  13
 -14  -6   1-236.179 490.401   4
  14  -6  -1 332.968 401.989   5
  14   6  -1-150.452 335.322  12
  14   6  -1 76.8702 335.627  11
 -14   6   1 938.284 604.334   7
  14   6  -1 305.047 342.426   6
 -14   6   1-150.960 515.800   8
 -14  -6   0 30188.8 2091.97   2
 -14  -6   0 25983.6 1919.77   3
 -14   6   0 28837.5 2650.06   7
  14   6   0 28216.3 2027.93   6
 -14   6   0 28492.0 2446.52   8
 -14  -6   0 27546.3 1990.85  19
  14   6   0 25847.7 2239.99  20
  14  -6   0 28424.8 2136.13  13
  14   6   0 26056.5 1977.10  11
  14   6   0 26591.3 1993.71  12
 -14  -6   0 25744.7 2051.57   4
  14  -6   0 26766.6 2004.40   5
 -14  -6  -1 60150.8 3338.47   2
 -14  -6  -1 66155.3 3168.35   3
 -14   6  -1 57047.6 3952.26   7
  14   6   1 64444.9 3222.10   6
 -14   6  -1 62010.8 3636.70   8
  14   6   1 58823.6 3504.49  20
 -14  -6  -1 62159.1 3202.84  19
  14   6   1 63691.0 3222.93  11
  14   6   1 60304.0 3116.88  12
 -14  -6  -1 59750.6 3331.87   4
  14  -6   1 66191.4 3296.86   5
 -14  -6  -2 17027.3 1763.69   2
 -14  -6  -2 19648.7 1592.62   3
  14   6   2 19870.7 1979.56  20
 -14  -6  -2 19797.1 1740.16  19
 -14   6  -2 22551.1 2438.24   7
  14   6   2 20314.4 1716.76   6
 -14   6  -2 18961.5 1840.87   8
  14   6   2 17160.1 1538.87  12
 -14  -6  -2 19884.3 1857.35   4
  14  -6   2 21556.8 1821.26   5
  14   6   3 827.379 523.467  20
 -14   6  -3 663.701 573.645   7
  14   6   3 755.755 425.942   6
 -14   6  -3 439.332 366.750   8
 -14  -6  -3 494.997 429.776  19
 -14  -6  -3 952.795 456.296  18
 -14   6  -3 294.196 378.137   2
 -14  -6  -3 824.362 413.128   3
 -14  -6  -3 756.710 487.929   2
  14  -6   3 508.357 521.902   5
  14   6   4 13465.1 1664.23  20
 -14  -6  -4 13282.0 1522.73  19
 -14  -6  -4 14629.7 1546.79  18
  14   6   4 13871.5 1495.17   6
 -14   6  -4 15043.1 1953.50   7
 -14   6  -4 14401.7 1663.30   2
 -14  -6  -4 11889.3 1607.32   2
  14  -6   4 16926.9 1664.34   5
  14   6   5 28947.2 2497.24  20
 -14  -6  -5 28466.8 2247.95  19
 -14  -6  -5 23729.9 2148.82  18
 -14   6  -5 27633.2 2630.84   7
  14   6   5 26452.9 2112.35   6
  14   6   5 22713.8 2091.88  16
 -14  -6  -5 28186.9 2452.65   2
 -14   6  -5 26212.4 2257.08   2
  14  -6   5 29704.8 2290.84   5
  14   6   6 8469.93 1425.12  20
 -14   6  -6 8307.05 1382.36  18
 -14  -6  -6 7689.42 1173.95  19
 -14  -6  -6 8529.23 1320.95  18
 -14   6  -6 8776.80 1491.76   7
  14   6   6 7447.01 1170.97   6
  14   6   6 6347.69 1160.61  16
 -14  -6  -6 7497.86 1336.06   2
 -14   6  -6 8648.68 1314.60   2
  14  -6   6 9299.30 1316.15   5
 -14   6  -7 2994.69 914.802  18
 -14  -6  -7 2518.91 674.761  19
 -14  -6  -7 1459.49 712.584  18
  14   6   7 1890.06 718.590   6
  14   6   7 2493.67 774.818  16
 -14  -6  -7 2507.36 863.352   2
  14  -6   7 2247.16 719.730   5
 -14  -6  -8 14795.4 1638.94  19
 -14   6  -8 15573.3 2000.69  18
 -14  -6  -8 16633.2 1985.87  18
  14   6   8 16014.7 1894.35  16
  14  -6   8 12645.4 1716.46  16
  14  -6   8 13603.6 1627.43   5
 -14  -6  -8 16109.4 1978.30   2
  14   6   8 17552.0 1859.99   6
 -14  -8   7 10728.2 1331.69   3
 -14   8   7 13106.2 1936.03   8
  14   8  -7 8195.61 1633.16  20
  14  -8  -7 8549.01 1493.09  13
  14   8  -7 9632.25 1610.94  11
  14   8  -7 8297.07 1538.46  12
 -14  -8   7 9526.55 1253.32   4
 -14  -8   6 13373.0 1502.34   3
 -14   8   6 16757.7 2191.95   8
 -14  -8   6 11563.2 1267.44  19
  14   8  -6 12458.2 1883.82  20
  14  -8  -6 16196.4 1973.20  13
  14   8  -6 12661.1 1738.85  11
  14   8  -6 14780.6 1993.21  12
 -14  -8   6 13780.9 1508.91   4
 -14  -8   5 356.208 423.595   3
 -14   8   5 1405.34 770.407   8
  14   8  -5-233.732 606.865  20
 -14  -8   5 240.511 323.714  19
  14  -8  -5-336.873 510.995  13
  14   8  -5 764.736 627.476  11
  14   8  -5 337.556 544.283  12
 -14  -8   5-115.114 367.777   4
 -14  -8   4 4900.93 936.323   3
 -14   8   4 4981.88 1149.06   7
 -14   8   4 5831.55 1391.34   8
 -14  -8   4 4145.86 782.120  19
  14   8  -4 5182.88 1289.68  20
  14  -8  -4 4367.91 1076.84  13
  14   8  -4 5554.30 1168.62  12
  14   8  -4 4890.69 1009.73  11
 -14  -8   4 3416.35 813.798   4
  14  -8  -4 4781.00 884.411   5
 -14  -8   3 11306.0 1390.15   3
 -14   8   3 14362.6 1971.49   7
 -14   8   3 14377.6 2091.87   8
  14   8  -3 14786.1 1937.90  20
 -14  -8   3 14112.5 1437.51  19
  14  -8  -3 14602.6 1714.20  13
  14   8  -3 13756.0 1796.43  12
  14   8  -3 15630.7 1725.72  11
 -14  -8   3 13437.9 1500.95   4
  14  -8  -3 17522.7 1670.74   5
 -14  -8   2 7216.61 1090.62   3
 -14   8   2 6518.18 1419.05   7
 -14   8   2 7914.24 1547.13   8
  14   8  -2 11712.1 1757.28  20
 -14  -8   2 6272.03 999.742  19
  14  -8  -2 7475.63 1268.77  13
  14   8  -2 8723.05 1393.91  12
 -14  -8   2 7568.11 1163.73   4
  14  -8  -2 9484.89 1252.79   5
 -14  -8   1-707.514 602.438   3
 -14   8   1 1617.61 830.785   7
 -14   8   1-827.853 721.314   8
  14   8  -1-749.548 722.126  20
 -14  -8   1 496.180 456.661  19
  14  -8  -1-27.9089 472.056  13
  14   8  -1-355.370 566.337  12
 -14  -8   1 612.225 379.891  13
 -14  -8   1 321.654 448.085   4
  14  -8  -1-191.120 476.486   5
 -14  -8   0 9594.21 1249.89   3
 -14   8   0 12142.2 1997.50   7
 -14   8   0 12107.7 1793.52   8
  14   8   0 11813.6 1714.00  20
 -14  -8   0 9951.94 1253.15  19
  14  -8   0 10961.3 1455.61  13
  14   8   0 12628.2 1602.81  12
 -14  -8   0 9181.62 1165.67  13
 -14  -8   0 9581.99 1333.30   4
  14  -8   0 13138.3 1461.76   5
 -14  -8  -1 24965.5 1997.48   3
 -14   8  -1 29583.8 3061.10   7
 -14   8  -1 27157.0 2541.38   8
 -14  -8  -1 24666.4 2070.52  19
  14   8   1 22040.8 2275.52  20
  14  -8   1 25951.0 2125.98  13
 -14  -8  -1 24577.1 2021.06  13
  14   8   1 26822.3 2279.73  12
  14  -8   1 26529.6 2126.20   5
  14   8   2 8210.59 1463.58  20
 -14  -8  -2 6586.44 1066.43  19
 -14   8  -2 6757.14 1482.56   7
 -14   8  -2 7588.50 1315.06   8
 -14  -8  -2 6051.49 974.863   3
  14   8   2 7732.32 1227.00  12
 -14  -8  -2 7639.89 1174.95  13
  14  -8   2 9696.49 1278.69   5
  14   8   3-259.684 623.584  20
 -14  -8  -3 469.403 539.341  19
 -14   8  -3 1845.07 940.323   7
  14   8   3 275.262 495.561  12
 -14  -8  -3-305.414 442.571  13
  14  -8   3 660.655 529.064   5
  14   8   4 7653.79 1391.51  20
 -14  -8  -4 6783.92 1120.53  19
 -14   8  -4 6679.74 1452.31   7
 -14   8  -4 6261.90 1190.52   2
 -14  -8  -4 4923.46 988.185  13
  14  -8   4 7416.84 1192.26   5
  14   8   5 12277.9 1776.73  20
 -14  -8  -5 9677.05 1352.11  19
 -14   8  -5 11773.4 1540.62   2
 -14   8  -5 12198.0 1889.80   7
 -14  -8  -5 12112.3 1573.36  13
  14  -8   5 12068.6 1485.40   5
  15  -1 -12-499.162 701.008   9
  15   1 -12-13.4859 507.973   9
  15   1 -12-27.6013 564.043  11
 -15  -1  12 66.7570 424.554   4
 -15   1  12 28.1222 451.992   4
  15  -1 -12-506.767 499.050  17
  15   1 -12 201.240 592.678  17
  15  -1 -11 5203.90 1205.49   9
  15   1 -11 3635.65 894.159   9
  15  -1 -11 7028.31 1255.54  11
  15   1 -11 6586.22 1326.27  11
 -15  -1  11 4542.55 960.634   4
 -15   1  11 4738.60 1048.26   4
  15  -1 -11 4540.77 1141.62  17
  15   1 -11 4499.19 1095.29  17
  15  -1 -10 20707.3 2160.57   9
 -15   1  10 25117.0 1790.16   8
  15   1 -10 21600.1 2064.85   9
  15  -1 -10 17541.4 2058.61  17
  15   1 -10 23552.2 2306.43  17
  15  -1 -10 21427.2 2090.03  11
  15   1 -10 19990.1 2160.59  11
 -15  -1  10 26832.0 2157.74   4
 -15   1  10 19715.5 1965.02   4
  15  -1  -9 22445.0 2140.94   9
  15   1  -9 20457.2 1912.72   9
 -15  -1   9 22344.8 1680.51   8
  15  -1  -9 19923.9 2104.62  17
  15   1  -9 23428.0 2210.16  17
 -15  -1   9 23419.0 1652.66   3
 -15   1   9 23455.4 1736.39   8
  15  -1  -9 23076.3 2011.01  11
  15   1  -9 20877.5 2121.58  11
 -15  -1   9 25146.3 2044.05   4
 -15   1   9 22927.2 2086.76   4
 -15  -1   8 858.779 557.769   4
 -15   1   8 364.884 381.045   4
  15   1  -8 892.575 519.343  20
  15   1  -8 1199.67 626.596  17
  15  -1  -8 510.033 521.426  17
 -15  -1   8 348.543 275.234   3
 -15  -1   8 842.051 411.056   8
 -15   1   8 1791.36 555.181   8
  15  -1  -8 690.500 442.388  11
  15   1  -8 565.967 492.190  11
  15  -1  -8 421.618 378.614   9
  15   1  -8 352.664 386.523   9
 -15  -1   7 51801.2 2843.44   4
 -15   1   7 53460.0 3000.69   4
  15   1  -7 52152.1 3165.05  20
  15   1  -7 53733.9 3210.49  17
  15  -1  -7 55111.6 3305.08  17
 -15  -1   7 51319.1 2564.69   3
 -15   1   7 59839.5 2857.15   8
  15  -1  -7 53153.6 2933.41  11
  15   1  -7 57397.6 3264.67  11
  15  -1  -7 54111.0 3155.11   9
  15   1  -7 54178.9 2972.01   9
 -15  -1   7 55433.6 2741.86   8
 -15  -1   6 62617.3 3054.03   4
 -15   1   6 62249.8 3127.44   4
  15   1  -6 62388.2 3370.70  20
  15  -1  -6 61099.9 3014.46  20
  15   1  -6 63921.0 3446.91  17
  15  -1  -6 63602.9 3424.02  17
 -15   1   6 60538.2 2807.17   2
 -15   1   6 60403.8 2972.59   8
  15  -1  -6 66713.0 3243.97  11
  15   1  -6 61733.6 3338.30  11
 -15  -1   6 63365.9 2978.52   8
 -15  -1   5 17560.4 1443.44   4
 -15   1   5 17963.3 1516.12   4
  15   1  -5 22182.5 1833.03  20
  15  -1  -5 20472.7 1512.46  20
  15   1  -5 24824.0 1951.73  17
  15  -1  -5 19894.2 1780.44  17
 -15   1   5 19850.4 1576.39   8
 -15  -1   5 18782.7 1482.08   8
  15  -1  -5 21356.2 1666.40  11
  15   1  -5 18624.0 1644.63  11
 -15   1   5 18093.6 1410.83   2
 -15  -1   5 17619.4 1237.50   2
 -15  -1   4 1875.06 426.621   2
 -15   1   4 1587.41 445.907   2
  15  -1  -4 1994.08 438.929  20
  15   1  -4 2239.50 567.666  20
 -15  -1   4 2122.65 510.373   8
 -15   1   4 2158.37 521.633   8
  15  -1  -4 2437.74 600.370  11
  15   1  -4 2420.87 611.294  11
 -15  -1   4 2436.22 554.215   4
 -15   1   4 2017.41 499.135   4
 -15  -1   3 63326.9 2927.56   4
 -15   1   3 63087.6 2841.30   4
  15  -1  -3 67120.0 3012.98   5
 -15   1   3 62472.9 2900.27   2
 -15  -1   3 60776.0 2721.46   2
  15   1  -3 61753.1 2980.46  20
 -15   1   3 63342.9 2991.96   8
  15  -1  -3 65355.4 2971.85  11
  15   1  -3 65003.3 3145.43  11
 -15  -1   3 62232.2 2933.91   8
 -15  -1   2 152105. 5180.41   4
 -15   1   2 156778. 5074.01   4
  15  -1  -2 156971. 5235.01   5
  15   1  -2 152219. 5071.29   5
  15  -1  -2 140393. 4509.52   1
 -15  -1   2 151448. 5084.09   2
 -15   1   2 153228. 5243.56   2
  15   1  -2 149364. 5166.61  20
 -15   1   2 153593. 5229.02   8
  15  -1  -2 154499. 5194.78  11
  15   1  -2 155750. 5431.78  11
 -15  -1   2 154450. 5221.45   8
 -15  -1   1 56815.1 2692.08   4
 -15   1   1 56747.7 2510.13   4
  15  -1  -1 60153.8 2732.07   5
  15   1  -1 51465.2 2474.16   5
  15  -1  -1 50390.7 2208.70   1
 -15  -1   1 54114.1 2622.44   2
 -15   1   1 54602.9 2726.29   2
  15   1  -1 52480.6 2526.11  20
 -15   1   1 55889.1 2635.58   8
  15  -1  -1 54821.2 2630.06  11
  15   1  -1 53872.7 2744.61  11
 -15  -1   1 55868.3 2637.08   8
 -15  -1   0 40792.8 2218.42   4
 -15   1   0 40304.0 2036.50   4
  15  -1   0 41895.3 2240.85   5
  15   1   0 41180.6 2124.43   5
  15  -1   0 37755.9 1881.23   1
 -15  -1   0 40174.4 2268.46   2
 -15   1   0 39463.0 2279.84   2
  15   1   0 40713.8 2113.75  20
  15  -1   0 41706.1 1909.75  16
 -15  -1   0 40273.9 2176.88  18
 -15   1   0 39032.7 2142.24   8
  15   1   0 41049.8 1836.15  16
  15  -1   0 39546.7 2228.03  11
  15   1   0 44128.4 2390.07  11
 -15  -1   0 43399.4 2224.13   8
 -15  -1  -1 141409. 5041.74   4
 -15   1  -1 145284. 4803.43   4
  15  -1   1 149295. 5107.33   5
  15   1   1 146066. 4898.20   5
 -15  -1  -1 149300. 5263.61   2
 -15   1  -1 143788. 5283.93   2
  15   1   1 147074. 4841.28  20
 -15  -1  -1 146893. 5132.90  18
  15  -1   1 142282. 4636.85  16
 -15   1  -1 139228. 4880.84   8
  15   1   1 146385. 5424.41   6
  15  -1   1 142903. 5218.20   6
  15   1   1 142999. 4604.82  16
  15   1   1 141637. 5158.55  11
 -15  -1  -1 141714. 4924.47   8
 -15  -1  -2 56170.1 2870.46   2
 -15   1  -2 57821.6 2942.36   2
  15   1   2 51665.4 2469.28  20
  15  -1   2 51290.9 2433.71  16
 -15  -1  -2 55091.8 2806.69  18
 -15   1  -2 50537.9 2460.53   8
  15  -1   2 53030.9 2795.79   6
  15   1   2 54295.7 2938.92   6
  15   1   2 51916.9 2443.42  16
 -15  -1  -2 52456.0 2718.37   4
 -15   1  -2 55871.8 2506.92   4
  15  -1   2 53084.5 2715.04   5
  15   1   2 49664.3 2516.77   5
 -15  -1  -2 51733.2 2516.58   8
  15   1   3 3739.57 631.597  20
 -15  -1  -3 2792.40 676.111  18
 -15   1  -3 4029.65 777.957  18
 -15   1  -3 3530.39 612.151   8
  15  -1   3 3226.29 677.891   6
  15   1   3 2939.14 695.408   6
  15  -1   3 4018.54 676.564  16
  15   1   3 2426.23 522.786  16
 -15  -1  -3 4353.58 764.794   4
  15   1   3 4250.62 697.538   5
  15  -1   3 3066.32 635.525   5
 -15  -1  -3 3039.48 696.959   2
 -15   1  -3 4419.27 821.046   2
 -15  -1  -4 14981.9 1560.83   2
 -15   1  -4 17413.7 1641.89   2
  15   1   4 14307.5 1273.99  20
  15  -1   4 13459.5 1301.74  16
 -15  -1  -4 15689.3 1567.02  18
 -15   1  -4 14451.2 1558.37  18
  15  -1   4 15433.0 1471.03   6
  15   1   4 13749.5 1496.12   6
  15   1   4 14455.0 1335.52  16
 -15  -1  -4 13593.1 1262.45  15
 -15  -1  -4 14267.9 1417.96   4
  15   1   4 14932.2 1289.15   5
  15  -1   4 15140.3 1402.58   5
 -15   1  -4 16183.0 1235.93   8
  15  -1   5 58283.5 3064.89  16
 -15  -1  -5 59153.2 3435.22  18
 -15   1  -5 61710.3 3496.61  18
  15  -1   5 55985.3 3099.01   6
  15   1   5 59457.3 3364.59   6
  15   1   5 61762.1 3077.75  16
 -15  -1  -5 60607.0 3074.66  15
  15   1   5 60934.8 2884.48   5
  15  -1   5 62219.9 3192.48   5
 -15  -1  -5 65535.6 3530.06   2
 -15   1  -5 64482.5 3472.12   2
 -15  -1  -6 45423.4 2996.80   9
  15  -1   6 44638.0 2712.75  16
 -15  -1  -6 39889.3 2948.17  18
 -15   1  -6 43493.5 3089.94  18
  15  -1   6 46895.6 2828.74   6
  15   1   6 50642.7 3100.56   6
  15   1   6 44885.3 2671.62  16
 -15  -1  -6 42368.4 2646.67  15
  15   1   6 44158.0 2376.21   5
  15  -1   6 46236.1 2729.11   5
 -15  -1  -6 44080.5 2992.55   2
 -15   1  -6 41990.9 2879.25   2
 -15  -1  -7 798.063 544.936   9
 -15  -1  -7 700.425 574.506  18
 -15   1  -7 111.434 443.326  18
  15  -1   7 453.569 408.856   6
  15   1   7 2027.44 715.182   6
  15  -1   7-28.6715 383.218  16
  15   1   7 456.502 424.801  16
 -15  -1  -7 714.149 458.314  15
 -15   1  -7 707.087 546.803  15
  15  -1   7 632.287 466.887   5
 -15  -1  -7 1005.16 635.068   2
 -15   1  -7 74.3646 389.813   2
 -15  -1  -8 25349.4 2472.76   9
 -15   1  -8 24598.8 2586.92   9
  15  -1   8 27624.1 2203.78  16
 -15  -1  -8 29930.9 2759.27  18
 -15   1  -8 25007.3 2532.19  18
  15  -1   8 28897.6 2340.51   6
  15   1   8 34097.8 2670.02   6
  15   1   8 28068.1 2184.68  16
 -15   1  -8 30506.7 2704.31  15
  15  -1   8 28633.3 2174.13   5
 -15  -1  -8 27470.9 2532.98   2
 -15   1  -8 30800.3 2647.14   2
 -15  -1  -9 27624.0 2804.35  18
 -15   1  -9 22451.6 2478.46  18
  15  -1   9 23708.1 2115.68  16
  15  -1   9 26590.7 2317.09   6
  15   1   9 28009.3 2521.73   6
  15  -1   9 23048.2 1961.77   5
  15   1   9 25386.9 2137.99  16
 -15   1  -9 28883.3 2710.39  15
 -15  -1  -9 30900.9 2796.53   9
 -15   1  -9 27228.1 2785.14   9
 -15  -1  -9 23533.2 2434.90   2
 -15   1  -9 25717.5 2459.04   2
 -15  -1 -10 7144.47 1474.89  18
 -15   1 -10 4961.80 1246.49  18
  15  -1  10 4611.33 1045.05   6
  15   1  10 7553.22 1336.06   6
  15  -1  10 5166.67 1026.33  16
  15   1  10 5753.11 1095.29  16
 -15   1 -10 6613.62 1368.83  15
 -15  -1 -10 6522.44 1297.75   2
 -15   1 -10 5390.37 1141.96   2
 -15  -1 -10 4143.01 1154.27   9
 -15   1 -10 5580.41 1301.29   9
  15   3 -12 555.559 675.558  20
 -15  -3  12 149.967 401.069   4
  15   3 -12 1326.30 797.815  17
 -15  -3  11 4135.86 889.515   4
 -15   3  11 4207.80 987.959   4
  15   3 -11 3035.02 1016.01  20
  15  -3 -11 4619.21 1086.85  17
  15   3 -11 3310.45 1026.12  17
  15   3 -11 3401.43 1079.46  11
  15  -3 -11 4213.25 1115.02   9
 -15  -3  10 18165.5 1753.43   4
 -15   3  10 16899.9 1918.28   4
  15   3 -10 16750.2 2248.65  20
  15   3 -10 17742.3 2030.39  17
  15  -3 -10 17833.9 2064.18  17
 -15  -3  10 19669.2 1610.93   3
 -15   3  10 19387.4 1696.88   8
  15   3 -10 17375.1 2109.47  11
  15  -3 -10 19819.3 2195.55   9
 -15  -3   9 15484.7 1553.73   4
 -15   3   9 13095.6 1682.63   4
  15   3  -9 16497.8 2061.31  20
  15   3  -9 13079.8 1674.02  17
  15  -3  -9 16901.6 1879.85  17
 -15  -3   9 15714.1 1431.80   3
 -15   3   9 16689.9 1579.42   8
  15   3  -9 13078.8 1808.09  11
  15  -3  -9 17883.6 1980.01   9
 -15  -3   8 468.080 462.846   4
 -15   3   8-234.611 478.057   4
  15   3  -8 156.006 468.069  20
  15   3  -8 549.814 447.521  17
  15  -3  -8 1313.74 627.757  17
 -15  -3   8 394.706 358.821   3
 -15   3   8 8.86326 354.638   8
  15   3  -8 442.017 552.188  11
  15  -3  -8 200.591 428.607   9
 -15  -3   7 43114.0 2408.67   3
  15   3  -7 43012.0 2786.72  17
  15  -3  -7 44889.8 2950.75  17
  15   3  -7 41070.1 3035.47  20
 -15   3   7 43739.9 2656.02   8
  15   3  -7 44530.0 3037.44  11
 -15  -3   7 47147.3 2610.68   4
 -15   3   7 42302.2 2793.60   4
 -15  -3   6 50687.9 2577.49   3
  15   3  -6 41587.2 2735.28  17
  15  -3  -6 49287.4 3050.83  17
 -15   3   6 50366.9 2853.20   8
  15   3  -6 43393.1 3071.33  20
  15  -3  -6 52405.5 2540.35  11
  15   3  -6 47147.7 3086.37  11
 -15  -3   6 47374.6 2646.06   4
  15  -3  -6 52041.7 2834.54   5
 -15   3   6 47357.3 2796.06   4
 -15  -3   5 12780.6 1218.02   3
 -15  -3   5 11560.2 1040.47  19
  15   3  -5 14479.4 1649.14  20
 -15   3   5 13636.0 1428.80   8
  15  -3  -5 12578.8 1130.39  11
  15   3  -5 12608.6 1488.31  11
 -15  -3   5 12911.4 1302.71   4
  15  -3  -5 12691.8 1310.52   5
 -15   3   5 12731.5 1307.29   4
 -15  -3   4 408.225 320.008   3
 -15  -3   4 1372.40 383.992  19
 -15   3   4 1469.34 534.640   8
  15   3  -4 1446.75 612.147  20
  15   3  -4 1181.91 451.839  11
  15  -3  -4 525.259 305.584  11
  15  -3  -4 973.414 421.093   5
 -15   3   4 673.526 365.067   4
 -15  -3   4-114.660 333.074   4
 -15  -3   3 56196.6 2586.32   2
 -15  -3   3 59440.1 2754.82   3
 -15   3   3 53547.1 2982.89   8
  15   3  -3 52258.9 3043.09  20
  15  -3  -3 56142.1 2559.91  11
  15   3  -3 55062.2 3002.02  11
  15  -3  -3 59432.0 2885.76   5
 -15   3   3 55211.1 2640.73   4
 -15  -3   3 60175.7 2907.86   4
 -15  -3   2 102356. 4000.30   2
  15   3  -2 99726.8 4334.83  20
 -15   3   2 103597. 4376.87   8
  15  -3  -2 107781. 3906.61  11
  15   3  -2 103551. 4291.18  11
 -15  -3   2 109156. 4240.16   4
  15  -3  -2 108148. 4170.02   5
 -15   3   2 105812. 3832.84   4
  15   3  -2 95728.7 3675.58   5
 -15  -3   1 40214.1 2301.36   2
  15   3  -1 42222.0 2501.47  20
 -15  -3   1 41689.2 2114.92  18
 -15   3   1 38701.0 2412.05   8
  15   3  -1 40117.3 2392.82  11
 -15  -3   1 40451.6 2376.98   4
 -15   3   1 39650.1 1932.50   4
  15  -3  -1 41781.4 2326.81   5
  15   3  -1 39681.8 1992.02   5
 -15   3   0 29090.7 2095.46   2
 -15  -3   0 28296.6 1968.49   2
  15   3   0 26474.4 1934.78  20
  15  -3   0 23982.2 1615.20  16
 -15  -3   0 28329.0 1783.00  18
 -15   3   0 29656.7 1988.99   8
  15   3   0 28048.9 2038.87   6
  15   3   0 25448.6 1575.10  16
  15   3   0 30086.3 2025.35  11
 -15  -3   0 26419.6 1901.08   4
  15  -3   0 28365.2 1911.99   5
  15   3   0 28659.4 1596.56   5
 -15   3  -1 116173. 4876.81   2
 -15  -3  -1 126855. 4886.23   2
  15   3   1 117010. 4685.97  20
  15  -3   1 117279. 4349.38  16
 -15  -3  -1 126329. 4654.17  18
 -15   3  -1 117968. 4569.87   8
  15  -3   1 123167. 4470.28   6
  15   3   1 120518. 4871.37   6
  15   3   1 119868. 4308.29  16
  15   3   1 123702. 4745.78  11
 -15  -3  -1 119564. 4735.64   4
  15  -3   1 120646. 4648.22   5
  15   3   2 36707.9 2299.89  20
 -15  -3  -2 38820.6 2396.69  18
  15  -3   2 37323.7 2154.78  16
  15  -3   2 34936.2 2085.50   6
  15   3   2 35542.7 2391.30   6
 -15   3  -2 35054.6 2121.06   8
  15   3   2 38425.7 2162.85  16
 -15  -3  -2 37609.1 2413.33   4
  15  -3   2 37771.3 2322.52   5
 -15  -3  -2 39228.2 2520.84   2
 -15   3  -2 35999.2 2449.16   2
  15   3   3 3948.90 802.343  20
 -15  -3  -3 3480.94 769.707  18
 -15   3  -3 4226.69 689.886   8
  15  -3   3 5205.46 765.353   6
  15   3   3 4577.91 912.230   6
  15  -3   3 4850.00 817.932  16
  15   3   3 3947.51 734.188  16
 -15  -3  -3 4039.26 867.683   4
  15  -3   3 3944.11 767.066   5
 -15  -3  -3 4955.25 936.801   2
 -15   3  -3 5169.13 956.407   2
  15   3   4 10994.2 1279.94  20
 -15  -3  -4 13913.8 1541.67  18
  15  -3   4 12277.2 1241.94   6
  15   3   4 12286.2 1473.70   6
  15   3   4 11230.2 1218.38  16
  15  -3   4 10522.6 1217.87  16
 -15  -3  -4 12014.5 1442.22   4
  15  -3   4 13011.7 1395.41   5
 -15  -3  -4 14888.2 1632.02   2
 -15   3  -4 13232.6 1496.11   2
  15   3   5 49196.4 2864.21  20
  15  -3   5 51304.7 2935.10  16
 -15  -3  -5 50674.6 3226.00  18
 -15   3  -5 46222.6 3091.22  18
  15   3   5 51287.6 3124.62   6
  15  -3   5 50889.5 2732.19   6
  15   3   5 46987.2 2727.36  16
 -15  -3  -5 48846.1 3170.71   2
 -15   3  -5 51882.8 3168.58   2
  15  -3   5 48542.2 2889.65   5
  15  -3   6 32926.3 2413.09  16
 -15  -3  -6 31446.3 2617.33  18
 -15   3  -6 29373.5 2492.47  18
  15  -3   6 34879.0 2228.11   6
  15   3   6 34259.7 2609.59   6
  15   3   6 31328.9 2249.97  16
 -15  -3  -6 28511.3 2490.55   2
 -15   3  -6 33608.7 2564.56   2
  15  -3   6 32744.9 2420.00   5
 -15  -3  -7 951.250 658.428  18
 -15   3  -7-28.5256 536.806  18
  15  -3   7 1593.44 564.737   6
  15   3   7 1394.41 664.929   6
  15  -3   7 774.015 485.174  16
  15   3   7 703.552 538.814  16
 -15  -3  -7-157.773 546.402   2
 -15   3  -7 656.194 465.278   2
  15  -3   7 764.685 478.591   5
  15  -3   8 18686.9 1948.54  16
 -15  -3  -8 25017.1 2486.78  18
 -15   3  -8 21491.6 2346.40  18
  15  -3   8 20880.8 1836.96   6
  15   3   8 24730.4 2339.19   6
  15   3   8 22332.5 2019.66  16
 -15   3  -8 22847.5 2539.99  15
 -15  -3  -8 23767.1 2413.67   2
 -15   3  -8 22384.8 2219.26   2
  15  -3   8 23556.9 2148.78   5
  15  -3   9 22416.4 2132.30  16
 -15  -3  -9 19882.5 2328.75  18
 -15   3  -9 19294.9 2342.64  18
  15  -3   9 19311.1 1945.01   5
  15   3   9 20050.1 2224.95   6
  15   3   9 21126.3 1989.12  16
 -15   3  -9 17230.9 2277.69  15
 -15   3  -9 17912.0 2426.71   9
 -15  -3  -9 17392.3 2096.69   2
 -15  -3 -10 5681.36 1274.44  17
  15  -5 -11 2685.68 866.270  17
  15  -5 -11 1873.01 637.699   5
 -15  -5  11 3223.00 784.009   4
  15  -5 -10 12104.6 1544.68   5
 -15   5  10 9359.02 1516.54   4
 -15  -5  10 11961.2 1423.08   4
  15   5 -10 13784.1 2098.11  20
  15  -5 -10 11167.5 1627.89  17
 -15  -5  10 8467.88 1149.02   3
 -15   5  10 11132.3 1464.42   8
  15   5 -10 9749.80 1684.77  11
  15  -5 -10 11869.8 1750.16   9
 -15  -5   9 11216.4 1290.80   3
  15   5  -9 11058.1 1832.61  20
  15  -5  -9 13753.3 1746.07  17
 -15   5   9 10839.4 1458.01   8
  15   5  -9 9013.32 1537.35  11
  15  -5  -9 12868.4 1535.17   5
 -15   5   9 11756.7 1626.53   4
 -15  -5   9 12038.2 1401.10   4
 -15  -5   8 508.538 419.743   3
  15   5  -8 1547.05 775.444  20
  15  -5  -8 74.3863 548.107  17
  15  -5  -8 148.746 432.771  13
  15  -5  -8 500.733 482.435   5
 -15   5   8-354.565 513.474   4
 -15  -5   8 249.196 368.309   4
  15   5  -8 1465.54 698.252  11
 -15   5   8 136.203 501.994   8
 -15  -5   7 21775.1 1800.18   3
 -15   5   7 24360.2 2208.02   8
  15   5  -7 22340.2 2400.75  20
  15  -5  -7 21812.8 2220.15  13
  15   5  -7 18865.9 2102.85  11
 -15   5   7 22026.9 2062.07   4
 -15  -5   7 22482.4 1849.15   4
  15  -5  -7 27327.7 2071.20   5
 -15  -5   6 30998.5 2116.93   3
 -15   5   6 29884.0 2495.93   8
 -15  -5   6 28933.8 1807.15  19
  15   5  -6 30750.1 2782.01  20
  15  -5  -6 33219.7 2692.22  13
  15   5  -6 28970.6 2465.78  11
 -15   5   6 30280.6 2271.75   4
 -15  -5   6 29890.3 2139.00   4
  15  -5  -6 33224.0 2274.25   5
 -15  -5   5 7790.78 1078.96   3
 -15  -5   5 7415.28 921.709  19
  15   5  -5 9109.59 1456.01  20
 -15   5   5 9046.27 1355.70   8
  15  -5  -5 10011.1 1431.94  13
  15   5  -5 9509.46 1384.48  11
  15  -5  -5 8466.88 1098.29   5
 -15   5   5 7161.02 996.006   4
 -15  -5   5 7149.05 1035.71   4
 -15  -5   4 2498.56 586.510   3
  15   5  -4 982.297 591.924  20
 -15  -5   4 1885.81 476.669  19
  15  -5  -4 2683.74 789.624  13
  15  -5  -4 2620.00 693.316   5
 -15   5   4 1524.90 466.798   4
 -15  -5   4 1963.76 586.107   4
  15   5  -4 3150.56 849.064  11
  15   5  -4 2443.66 720.872  12
 -15   5   4 1990.91 731.761   8
 -15  -5   3 27932.5 1967.10   3
 -15   5   3 24456.1 2278.17   8
 -15  -5   3 26281.1 1833.82  19
  15   5  -3 24832.2 2271.94  20
  15  -5  -3 28507.8 2269.72  13
  15   5  -3 26265.6 2126.59  11
  15   5  -3 25624.5 2127.78  12
 -15  -5   3 27347.1 2000.27   4
  15  -5  -3 30379.9 2065.41   5
 -15  -5   2 66061.2 3083.86   2
 -15  -5   2 68450.3 3271.24   3
 -15   5   2 60657.6 3744.06   8
 -15   5   2 74680.2 3992.67   7
 -15  -5   2 73642.0 3283.98  19
  15   5  -2 66735.0 3755.85  20
  15  -5  -2 71622.8 3710.57  13
  15   5  -2 68240.0 3474.58  11
  15   5  -2 68702.5 3446.80  12
 -15  -5   2 64628.9 3330.96   4
  15  -5  -2 74463.9 3440.43   5
 -15  -5   1 18137.0 1570.58   2
 -15  -5   1 21713.8 1702.22   3
 -15   5   1 19521.3 2043.90   7
 -15   5   1 22496.0 2125.73   8
  15   5  -1 19981.2 1766.96   6
  15   5  -1 21762.8 1967.36  20
 -15  -5   1 21528.0 1677.19  19
  15   5  -1 19178.5 1669.21  11
  15   5  -1 19030.5 1593.52  12
 -15  -5   1 20267.2 1747.91   4
  15  -5  -1 21657.2 1748.85   5
 -15  -5   0 18713.4 1661.60   2
 -15  -5   0 19189.4 1569.99   3
 -15   5   0 14213.0 1772.24   7
 -15   5   0 14274.9 1654.10   8
  15   5   0 18371.0 1673.05   6
  15   5   0 19404.8 1822.50  20
 -15  -5   0 17300.4 1546.16  19
  15   5   0 15455.8 1514.34  11
 -15  -5   0 18796.0 1707.88   4
  15  -5   0 20256.4 1684.83   5
 -15  -5  -1 63766.5 3411.94   2
 -15  -5  -1 63442.2 3090.67   3
  15   5   1 63306.9 3522.99  20
 -15   5  -1 59983.6 3884.46   7
  15   5   1 63205.3 3326.98   6
 -15   5  -1 58100.5 3385.61   8
  15   5   1 67051.3 3345.20  11
 -15  -5  -1 62372.2 3379.01   4
  15  -5   1 71550.7 3425.22   5
  15   5   2 30373.3 2365.91  20
 -15  -5  -2 31287.5 2169.00  18
 -15   5  -2 31522.3 2766.64   7
  15   5   2 31551.0 2261.60   6
 -15   5  -2 30330.9 2229.29   8
 -15   5  -2 30481.8 2431.12   2
 -15  -5  -2 31158.2 2369.68   2
 -15  -5  -2 32920.0 2080.56   3
 -15  -5  -2 29967.7 2326.63   4
  15  -5   2 36818.1 2375.64   5
  15   5   3 1851.65 701.202  20
 -15  -5  -3 1698.77 565.517  18
 -15   5  -3 970.318 694.771   7
  15   5   3 1056.08 496.452   6
 -15   5  -3 1035.09 461.580   8
  15   5   3 1582.91 546.862  16
 -15  -5  -3 1663.00 485.264   3
 -15  -5  -3 1593.92 668.918   2
 -15   5  -3 1237.57 621.188   2
 -15  -5  -3 2047.26 715.812   4
  15  -5   3 1581.66 555.105   5
  15   5   4 7559.83 1235.09  20
 -15  -5  -4 7345.06 1179.42  18
  15   5   4 6978.80 1081.84   6
  15  -5   4 7483.24 1110.21  16
  15   5   4 6783.79 1091.42  16
 -15  -5  -4 6885.08 1202.52   2
 -15   5  -4 7878.76 1256.03   2
  15  -5   4 8350.92 1163.01   5
  15   5   5 28812.7 2404.20  20
  15  -5   5 25914.2 2210.63  16
 -15  -5  -5 32512.3 2544.66  18
 -15   5  -5 28553.8 2444.68  18
  15   5   5 28498.2 2307.31   6
  15   5   5 28440.1 2243.43  16
 -15  -5  -5 27749.4 2486.89   2
 -15   5  -5 28399.1 2367.95   2
  15  -5   5 29653.1 2285.77   5
  15   5   6 22558.3 2184.13  20
 -15  -5  -6 20171.8 2066.43  18
  15  -5   6 21639.7 2050.20  16
 -15   5  -6 22765.9 2236.76  18
  15   5   6 24635.4 2157.90   6
  15   5   6 19164.5 1924.31  16
  15  -5   6 21601.2 1982.48   5
 -15  -5  -6 19072.4 2091.74   2
 -15   5  -6 22177.0 2119.61   2
 -15   5  -7-239.932 541.794  18
 -15  -5  -7 274.181 465.268  18
  15   5   7-169.416 514.221   6
  15  -5   7 288.677 447.410  16
  15   5   7 256.540 475.787  16
  15  -5   7 997.226 589.813   5
 -15  -5  -7-487.136 593.939   2
 -15   5  -7 352.910 468.726   2
 -15   5  -8 12138.7 1793.71  18
 -15  -5  -8 10997.3 1449.18  19
 -15  -5  -8 12703.6 1765.47  18
 -15   5  -8 11856.9 1980.52  15
  15  -5   8 12335.8 1610.20  16
  15   5   8 12423.9 1574.76  16
  15  -5   8 15497.0 1746.95   5
  15   5   8 8413.17 1346.53   6
 -15  -5  -8 12137.5 1732.88   2
  15  -7  -9 3930.13 1114.95  13
 -15  -7   9 5980.95 1060.95   4
 -15   7   9 4309.51 1041.73   4
 -15   7   9 4244.34 1083.00   8
 -15  -7   8 21.0874 368.971   3
 -15   7   8-279.071 514.274   8
  15   7  -8-104.614 715.754  20
  15  -7  -8-1021.85 751.694  13
  15   7  -8 1.51814 516.105  11
 -15  -7   8-135.343 372.451   4
 -15   7   8 687.536 561.306   4
 -15  -7   7 11999.6 1405.40   3
 -15   7   7 11850.5 1747.53   8
  15   7  -7 10849.6 1792.80  20
  15  -7  -7 10763.5 1662.19  13
  15   7  -7 10009.9 1618.66  11
 -15  -7   7 12633.1 1446.63   4
 -15  -7   6 10830.9 1360.48   3
 -15   7   6 12893.9 1845.93   8
 -15  -7   6 11703.0 1239.18  19
  15   7  -6 15842.7 2086.58  20
  15  -7  -6 14086.3 1865.65  13
  15   7  -6 11985.4 1707.11  11
  15   7  -6 15282.2 1947.62  12
 -15  -7   6 14962.5 1578.18   4
  15  -7  -6 17592.1 1661.33   5
 -15  -7   5 3457.21 769.267   3
 -15   7   5 3360.54 1016.60   8
  15   7  -5 3552.55 1097.92  20
 -15  -7   5 3449.07 690.361  19
  15  -7  -5 2930.99 853.624  13
  15   7  -5 2939.08 899.751  11
  15   7  -5 4714.07 1119.86  12
  15  -7  -5 4189.94 873.641   5
 -15  -7   5 2982.01 722.247   4
 -15  -7   4 449.807 492.931   3
 -15   7   4 473.680 466.638   7
 -15   7   4 898.681 756.722   8
  15   7  -4 632.087 561.054  20
 -15  -7   4 445.871 402.013  19
  15  -7  -4 29.3026 487.875  13
  15   7  -4 237.670 503.147  12
  15   7  -4-246.989 456.983  11
 -15  -7   4 428.165 410.675   4
  15  -7  -4 1018.96 522.444   5
 -15  -7   3 12150.9 1418.63   3
 -15   7   3 17418.2 2034.13   7
 -15   7   3 17178.4 2167.22   8
  15   7  -3 16372.1 2021.99  20
 -15  -7   3 15240.4 1463.12  19
  15  -7  -3 17128.7 1853.38  13
  15   7  -3 14910.1 1727.71  11
  15   7  -3 16373.0 1869.92  12
 -15  -7   3 16211.7 1645.57   4
  15  -7  -3 20800.7 1811.71   5
 -15  -7   2 25852.7 2047.96   3
 -15   7   2 28222.5 2735.34   7
 -15   7   2 23503.9 2516.10   8
 -15  -7   2 23268.7 1895.55  19
  15   7  -2 28756.3 2644.40  20
  15  -7  -2 26286.8 2264.68  13
  15   7  -2 29940.8 2335.18  11
  15   7  -2 29051.2 2443.24  12
 -15  -7   2 25822.6 2094.87   4
  15  -7  -2 33339.4 2331.62   5
 -15  -7   1 8265.98 1157.82   3
  15   7  -1 7760.58 1054.56   6
 -15   7   1 8159.47 1494.52   7
 -15   7   1 10516.6 1771.04   8
 -15  -7   1 8737.62 1156.44  19
  15   7  -1 8411.99 1413.82  20
  15  -7  -1 9686.22 1336.28  13
  15   7  -1 6925.16 1151.17  12
  15   7  -1 10664.5 1360.45  11
 -15  -7   1 8002.44 1207.64   4
  15  -7  -1 10740.3 1325.40   5
 -15  -7   0 5369.68 925.728   3
 -15  -7   0 7854.45 1100.22   2
 -15   7   0 5831.22 1384.64   7
 -15   7   0 6827.09 1337.19   8
  15   7   0 7994.52 1071.93   6
  15   7   0 6915.51 1223.80  20
 -15  -7   0 8081.46 1124.42  19
  15  -7   0 6973.01 1130.17  13
  15   7   0 5695.73 1008.28  12
  15   7   0 5610.31 979.908  11
 -15  -7   0 5538.69 1009.96   4
  15  -7   0 8573.39 1194.28   5
 -15  -7  -1 30768.8 2362.77   2
 -15  -7  -1 32395.0 2262.41   3
 -15   7  -1 38290.1 3382.55   7
  15   7   1 34028.7 2325.53   6
 -15   7  -1 34735.6 2810.68   8
 -15  -7  -1 35094.4 2426.87  19
  15   7   1 32344.1 2653.14  20
  15   7   1 32564.1 2349.25  12
 -15  -7  -1 31763.6 2467.05   4
  15  -7   1 37388.5 2521.85   5
  15   7   2 14313.7 1787.23  20
 -15  -7  -2 14228.1 1571.68  19
  15   7   2 13972.1 1507.52   6
 -15   7  -2 13740.2 2071.08   7
 -15   7  -2 13341.5 1670.15   8
 -15  -7  -2 14447.8 1654.26   2
 -15  -7  -2 12813.2 1377.78   3
  15  -7   2 12051.9 1420.25   5
  15   7   3 1181.56 632.217  20
 -15   7  -3 1463.91 840.555   7
  15   7   3 1778.33 630.026   6
 -15  -7  -3 1206.99 543.002  19
 -15   7  -3 1188.70 612.652   2
 -15  -7  -3 1326.31 640.377   2
  15  -7   3 2130.88 728.651   5
  15   7   4 2997.16 902.698  20
 -15  -7  -4 2823.18 805.791  19
 -15   7  -4 5050.41 1309.40   7
  15   7   4 3931.32 866.280   6
 -15  -7  -4 3226.62 887.406   2
 -15   7  -4 4171.99 917.577   2
  15  -7   4 4893.38 990.094   5
  15   7   5 16769.5 2044.73  20
 -15  -7  -5 15919.2 1748.37  19
 -15   7  -5 16378.1 2111.16   7
  15   7   5 15547.4 1636.41   6
  15   7   5 15571.8 1808.21  16
 -15  -7  -5 14933.9 1849.64   2
 -15   7  -5 12310.0 1627.29   2
  15  -7   5 17960.1 1854.48   5
  15   7   6 8449.90 1548.79  20
 -15   7  -6 9194.92 1488.15  18
 -15  -7  -6 8476.54 1287.69  19
 -15  -7  -6 6022.94 1159.26  18
 -15   7  -6 9278.89 1677.48   7
  15   7   6 9056.76 1314.68   6
  15   7   6 7764.03 1336.49  16
 -15  -7  -6 10378.1 1584.35   2
 -15   7  -6 9743.01 1459.66   2
  15  -7   6 8744.63 1322.44   5
 -15  -7  -7 876.397 639.741  18
 -15  -9   5 1638.59 593.250   4
 -15  -9   5 1221.92 563.789  19
 -15  -9   4 489.830 468.080  19
  15   9  -4 296.181 652.595  12
 -15  -9   4 978.605 548.275   4
 -15  -9   3 6322.32 1091.11   3
 -15   9   3 4837.85 1249.36   7
 -15   9   3 8908.94 1742.94   8
 -15  -9   3 4371.29 873.676  19
  15   9  -3 7606.50 1501.21  20
  15  -9  -3 4310.35 1009.92  13
  15   9  -3 5036.01 1173.68  12
 -15  -9   3 4365.19 908.969   4
 -15  -9   2 11075.8 1455.48   3
 -15   9   2 11486.7 1942.79   7
 -15   9   2 11933.5 1992.53   8
  15   9  -2 9177.78 1617.35  20
 -15  -9   2 10582.8 1320.02  19
  15  -9  -2 11407.1 1554.69  13
  15   9  -2 11564.9 1680.64  12
 -15  -9   2 7792.23 1203.65   4
 -15  -9   1 4301.77 927.681   3
 -15   9   1 2610.79 1125.42   7
 -15   9   1 3291.16 1097.08   8
  15   9  -1 3329.65 1026.74  20
 -15  -9   1 2345.80 706.337  19
  15  -9  -1 2378.69 779.341  13
  15   9  -1 881.098 601.495  12
 -15  -9   1 1700.62 643.858   4
  15  -9  -1 3480.65 841.312   5
 -15  -9   0 2565.23 738.307   3
 -15   9   0 3285.15 1209.90   7
 -15   9   0 2704.75 917.225   8
  15   9   0 2158.51 891.060  20
 -15  -9   0 3486.64 827.616  19
  15  -9   0 3016.72 855.122  13
  15   9   0 3316.74 896.271  12
 -15  -9   0 1651.38 548.447  13
  15  -9   0 3996.45 938.672   5
 -15  -9  -1 11719.4 1450.89  19
  15   9   1 12272.3 1775.65  20
 -15  -9  -1 9204.85 1243.64   3
 -15   9  -1 14078.1 2180.66   7
 -15   9  -1 12533.3 1826.83   8
  15   9   1 11667.6 1597.29  12
 -15  -9  -1 9613.69 1295.19  13
  15  -9   1 9748.12 1336.87   5
 -15  -9  -2 4883.04 978.096  13
  15  -9   2 6184.86 1082.20   5
  16   0 -12 2282.88 907.811   9
  16   0 -12 748.803 618.675  11
 -16   0  12 1482.12 618.921   4
  16   0 -12 2347.37 874.115  17
  16   0 -11 1956.37 831.904   9
  16   0 -11 728.431 667.332  11
 -16   0  11 326.784 458.274   4
  16   0 -11 231.160 521.030  17
  16   0 -10 20274.4 2059.60   9
 -16   0  10 22550.0 1734.80   8
  16   0 -10 22528.7 2314.45  17
  16   0 -10 25009.6 2395.66  11
 -16   0  10 21009.8 2044.05   4
  16   0  -9 32397.8 2577.17   9
 -16   0   9 36297.8 2227.22   8
  16   0  -9 30476.9 2622.37  17
 -16   0   9 34145.5 2059.55   3
  16   0  -9 32587.2 2626.37  11
 -16   0   9 32746.5 2505.03   4
 -16   0   8 1514.13 618.198   4
  16   0  -8 1004.94 562.905  17
  16   0  -8 774.454 498.490  20
 -16   0   8 1481.74 555.130   8
  16   0  -8 226.965 450.016  11
  16   0  -8 975.260 496.076   9
 -16   0   7 21705.9 1838.54   4
  16   0  -7 24899.6 2034.81  20
  16   0  -7 25494.9 2082.32  11
 -16   0   7 24680.3 1829.99   8
  16   0  -7 27884.7 2209.52   9
  16   0  -7 25365.5 2224.54  17
 -16   0   6 62612.8 3147.77   4
  16   0  -6 59886.3 3216.06  20
  16   0  -6 61343.5 3501.80  17
  16   0  -6 57011.8 3247.30  11
 -16   0   6 63715.0 3054.10   8
 -16   0   5 29744.2 1811.44   2
  16   0  -5 31443.9 2101.40  20
 -16   0   5 30496.2 2003.02   8
  16   0  -5 30551.9 2180.58  11
 -16   0   5 29518.9 1996.04   4
  16   0  -4 940.474 386.133  20
 -16   0   4 1243.21 473.745   8
  16   0  -4 400.552 314.306  11
 -16   0   4 718.452 353.531   4
 -16   0   3 23242.7 1639.32   2
  16   0  -3 25467.6 1662.16  20
 -16   0   3 25814.7 1801.89   8
  16   0  -3 27070.2 1912.93  11
 -16   0   3 23922.9 1706.29   4
  16   0  -3 25033.2 1757.65   5
 -16   0   2 135520. 4964.90   2
  16   0  -2 143719. 4743.95  20
 -16   0   2 140359. 5060.64   8
  16   0  -2 145001. 5198.30  11
 -16   0   2 144014. 4993.32   4
  16   0  -2 139577. 5004.74   5
 -16   0   1 43118.4 2304.41   4
  16   0  -1 43589.9 2325.25   5
  16   0  -1 44694.7 2124.44  20
 -16   0   1 41842.3 2370.55   2
  16   0  -1 43275.1 2437.10  11
 -16   0   1 44535.4 2374.75   8
 -16   0   0 11616.3 1129.40   4
  16   0   0 12951.7 1190.82   5
  16   0   0 12450.0 1017.89  20
  16   0   0 11339.3 919.334  16
 -16   0   0 13062.5 1278.82   2
  16   0   0 15209.0 1364.17  11
 -16   0   0 14845.0 1268.98   8
 -16   0  -1 74777.4 3419.38   2
  16   0   1 70202.5 2842.39  16
 -16   0  -1 72525.1 3378.71  18
  16   0   1 69299.3 2779.39  20
  16   0   1 73462.8 3512.35   6
 -16   0  -1 69949.4 3141.07   4
  16   0   1 68728.7 3158.00   5
 -16   0  -1 72152.3 3161.55   8
 -16   0  -2 89886.1 3968.82   2
  16   0   2 84673.8 3231.42  20
  16   0   2 84975.6 3410.72  16
 -16   0  -2 88499.6 3940.51  18
  16   0   2 88779.9 3991.02   6
 -16   0  -2 85858.5 3615.21   4
  16   0   2 87186.0 3693.00   5
 -16   0  -2 88806.3 3569.03   8
 -16   0  -3 17657.2 1659.54   2
  16   0   3 17471.4 1288.76  20
 -16   0  -3 19395.0 1733.84  18
  16   0   3 20008.2 1741.02   6
  16   0   3 18591.4 1465.89  16
 -16   0  -3 18096.6 1424.15   8
 -16   0  -3 18544.0 1502.69   4
  16   0   3 19318.8 1581.01   5
 -16   0  -4 4682.06 912.365  18
 -16   0  -4 3190.61 603.454   8
  16   0   4 4799.41 920.146   6
  16   0   4 3481.88 687.572  16
 -16   0  -4 2428.04 639.294   2
  16   0   4 3421.37 732.654   5
 -16   0  -5 58676.2 3539.55  18
  16   0   5 57894.2 3271.41   6
  16   0   5 58111.6 3049.52  16
 -16   0  -5 54299.4 3318.13   2
  16   0   5 55258.9 2948.17   5
 -16   0  -6 59572.3 3743.29  18
  16   0   6 62399.3 3508.52   6
  16   0   6 56806.9 3136.84  16
 -16   0  -6 55311.8 3338.62  15
 -16   0  -6 62752.2 3662.49   2
  16   0   6 56408.2 3012.75   5
 -16   0  -7 930.442 667.925   9
 -16   0  -7 49.4417 546.965  18
  16   0   7 1397.82 638.580   6
  16   0   7 521.687 481.690  16
 -16   0  -7 356.539 431.514  15
 -16   0  -7 500.027 459.170   2
  16   0   7 1529.87 486.535   5
 -16   0  -8 13220.8 1921.30  18
  16   0   8 12108.7 1613.21   6
  16   0   8 13062.3 1524.43  16
 -16   0  -8 11376.3 1633.20  15
 -16   0  -8 12248.9 1778.14   9
 -16   0  -8 13175.1 1772.79   2
  16   0   9 20840.2 2007.26  16
 -16   0  -9 21862.5 2521.75  18
  16   0   9 18209.0 2006.61   6
 -16   0  -9 18283.4 2090.10  15
 -16   0  -9 19302.2 2243.61   2
 -16   0  -9 16018.7 2118.07   9
 -16   0 -10 11827.8 1728.73   2
 -16   0 -10 10840.4 1795.45   9
  16   2 -12 1926.97 1014.00  20
  16   2 -12 794.382 631.870  11
 -16  -2  12 2725.48 768.737   4
  16   2 -12 2177.00 996.780  17
 -16  -2  11 1434.95 594.826   4
 -16   2  11 327.144 423.586   4
  16   2 -11 1095.75 756.250  17
  16  -2 -11 174.768 526.699  17
  16   2 -11 739.298 727.638  20
  16   2 -11-115.148 541.964  11
  16  -2 -11 1458.74 736.006   9
 -16  -2  10 19951.0 1895.41   4
 -16   2  10 15786.9 1860.96   4
  16   2 -10 15136.0 2089.54  20
  16   2 -10 16675.6 1987.97  17
  16  -2 -10 14865.6 1969.99  17
 -16   2  10 20209.0 1703.96   8
  16   2 -10 15587.8 2009.86  11
  16  -2 -10 19934.2 2197.18   9
 -16  -2   9 29296.4 2240.88   4
 -16   2   9 28516.5 2496.34   4
  16   2  -9 25316.6 2535.62  20
  16   2  -9 24690.3 2362.25  17
  16  -2  -9 29855.5 2619.34  17
 -16  -2   9 27401.8 1929.01   3
 -16   2   9 28963.9 2076.64   8
  16   2  -9 24777.4 2425.20  11
  16  -2  -9 27045.7 2483.77   9
 -16  -2   8 1163.18 605.123   4
 -16   2   8 205.699 529.450   4
  16   2  -8 530.887 621.088  20
  16   2  -8 1959.31 745.224  17
  16  -2  -8 360.316 529.610  17
 -16  -2   8 846.251 418.381   3
 -16  -2   8 824.545 421.672   8
 -16   2   8 529.121 372.916   8
  16  -2  -8 79.3940 330.549  11
  16   2  -8 1499.46 664.418  11
  16  -2  -8 2400.71 733.065   9
 -16  -2   7 25778.8 1963.31   4
 -16   2   7 25563.2 2093.22   4
  16   2  -7 24989.2 2283.56  20
  16   2  -7 26620.4 2238.65  17
  16  -2  -7 26845.1 2330.24  17
 -16  -2   7 29082.6 1907.89   3
 -16   2   7 24882.6 1922.54   8
  16  -2  -7 28806.4 2049.96  11
  16   2  -7 24324.7 2229.41  11
 -16  -2   7 25881.0 1888.94   8
 -16  -2   6 44292.4 2592.76   4
 -16   2   6 44895.8 2703.02   4
  16   2  -6 42503.8 2934.96  20
  16  -2  -6 46046.2 2990.59  17
 -16   2   6 46637.1 2680.23   8
 -16  -2   6 43013.9 2494.88   8
  16  -2  -6 48447.4 2652.37  11
  16   2  -6 47110.8 2979.18  11
 -16  -2   6 46974.7 2496.09   3
 -16  -2   5 25399.3 1873.63   4
  16  -2  -5 30109.0 2101.48   5
 -16   2   5 28665.9 1999.79   4
  16   2  -5 31002.2 2399.25  20
 -16   2   5 30708.9 2117.90   8
  16  -2  -5 29201.1 1970.96  11
  16   2  -5 28637.0 2224.64  11
 -16  -2   5 28273.6 1979.07   8
 -16   2   4 1385.01 478.694   2
 -16  -2   4 1242.25 391.021   2
  16   2  -4 1359.04 541.122  20
 -16  -2   4 2113.38 539.724   8
 -16   2   4 1063.89 503.414   8
  16  -2  -4 1252.57 412.239  11
  16   2  -4 1646.69 628.506  11
  16  -2  -4 1356.70 431.265   5
 -16   2   4 1918.66 537.000   4
 -16  -2   4 1386.39 483.472   4
  16  -2  -3 32411.5 2067.83   5
 -16   2   3 29368.6 1880.25   4
 -16  -2   3 29075.0 1983.94   4
  16   2  -3 30599.3 2120.14  20
 -16   2   3 28860.7 2026.25   2
 -16  -2   3 28582.4 1803.84   2
 -16   2   3 27731.9 2001.69   8
  16  -2  -3 30704.8 1910.76  11
  16   2  -3 28403.8 2081.36  11
 -16  -2   3 28955.1 1982.77   8
 -16  -2   2 102742. 4188.19   4
 -16   2   2 106734. 3984.12   4
  16  -2  -2 109833. 4236.48   5
  16   2  -2 103255. 3925.88   5
  16   2  -2 103193. 4245.20  20
 -16  -2   2 98395.9 3706.22  18
 -16   2   2 103880. 4327.87   2
 -16  -2   2 102093. 4039.63   2
 -16   2   2 102973. 4309.23   8
  16  -2  -2 111000. 4121.40  11
  16   2  -2 102071. 4348.18  11
 -16  -2   2 106435. 4212.26   8
 -16  -2   1 49822.4 2665.13   4
 -16   2   1 47543.4 2301.35   4
  16  -2  -1 48266.8 2568.26   5
  16   2  -1 45653.5 2311.09   5
  16   2  -1 46267.9 2557.50  20
 -16  -2   1 46855.7 2342.43  18
 -16   2   1 44965.6 2633.89   2
 -16  -2   1 44824.2 2510.42   2
 -16   2   1 45869.9 2574.79   8
  16  -2  -1 48865.4 2514.13  11
  16   2  -1 49083.6 2720.90  11
 -16  -2   1 49993.9 2583.45   8
 -16  -2   0 13366.7 1314.41   4
 -16   2   0 12115.1 1036.15   4
  16  -2   0 14497.8 1332.14   5
  16   2   0 13507.9 1159.57   5
 -16  -2   0 13127.5 1329.37   2
 -16   2   0 16079.5 1499.37   2
  16   2   0 13651.4 1292.12  20
  16  -2   0 12682.5 1103.10  16
 -16  -2   0 12374.5 1177.63  18
 -16   2   0 12821.9 1265.86   8
  16   2   0 12845.9 1330.05  11
 -16  -2   0 12226.7 1214.96   8
 -16  -2  -1 71131.5 3400.57   2
 -16   2  -1 69455.4 3451.54   2
  16   2   1 66923.3 3123.86  20
  16  -2   1 65096.1 2890.85  16
 -16  -2  -1 69066.5 3226.83  18
 -16   2  -1 66490.3 3084.68   8
  16   2   1 72101.2 3546.75   6
  16  -2   1 68142.3 3222.16   6
  16   2   1 64360.4 2811.33  16
  16   2   1 66737.2 3313.46  11
 -16  -2  -1 65374.2 3227.38   4
  16  -2   1 66991.6 3223.28   5
  16   2   1 70029.1 2992.94   5
  16   2   2 61838.3 3006.80  20
  16  -2   2 66384.3 2973.81  16
 -16  -2  -2 59679.2 3118.17  18
 -16   2  -2 63499.7 2958.57   8
  16   2   2 61230.3 3337.68   6
  16  -2   2 63973.4 3106.84   6
  16   2   2 61264.8 2871.79  16
 -16  -2  -2 61328.6 3198.79   4
  16  -2   2 64595.8 3166.88   5
  16   2   2 61794.5 2811.27   5
 -16  -2  -2 63978.4 3332.58   2
 -16   2  -2 68030.6 3459.33   2
  16   2   3 25273.5 1802.37  20
  16  -2   3 23632.1 1738.22  16
 -16  -2  -3 21183.6 1853.72  18
  16  -2   3 25977.2 1875.31   6
  16   2   3 22081.0 1910.72   6
 -16   2  -3 23140.5 1630.49   8
  16   2   3 23723.3 1729.95  16
 -16  -2  -3 23145.8 1916.97   4
  16   2   3 22809.7 1565.40   5
  16  -2   3 25620.1 1925.37   5
 -16  -2  -3 23470.6 1994.62   2
 -16   2  -3 22830.3 1950.20   2
  16   2   4 5748.07 883.535  20
 -16  -2  -4 4388.20 922.952  18
 -16   2  -4 4919.93 998.016  18
  16  -2   4 5816.35 912.783   6
  16   2   4 5898.18 1044.96   6
  16  -2   4 4862.84 845.781  16
  16   2   4 4924.96 821.799  16
 -16  -2  -4 4841.23 925.890   4
  16  -2   4 4872.66 883.326   5
 -16  -2  -4 7006.89 1082.21   2
 -16   2  -4 4179.64 850.029   2
 -16  -2  -5 44981.3 3102.67   2
 -16   2  -5 49782.0 3183.38   2
  16   2   5 48193.3 2777.36  20
 -16  -2  -5 45716.6 3144.58  18
 -16   2  -5 52867.4 3338.98  18
  16  -2   5 49210.0 2862.04  16
  16  -2   5 49147.8 2817.77   6
  16   2   5 50688.9 3183.67   6
  16   2   5 47984.7 2775.81  16
  16  -2   5 55451.4 3085.43   5
 -16  -2  -5 48399.0 2877.77   9
 -16  -2  -6 48412.5 3034.07   9
 -16  -2  -6 49432.4 3392.69  18
 -16   2  -6 46991.3 3303.72  18
  16  -2   6 48340.2 2965.26  16
  16  -2   6 51214.6 2958.50   6
  16   2   6 53199.6 3353.00   6
  16   2   6 51215.4 2933.38  16
  16  -2   6 47279.9 2964.09   5
 -16  -2  -6 47185.8 3255.42   2
 -16   2  -6 46750.4 3211.20   2
 -16  -2  -7 1928.86 689.737   9
 -16  -2  -7 2890.38 987.410  18
 -16   2  -7 1024.51 687.112  18
  16  -2   7 1254.72 521.537   6
  16   2   7 2298.71 838.302   6
 -16   2  -7 1439.28 692.823  15
  16  -2   7 1697.29 653.598  16
  16   2   7 2010.55 698.925  16
  16  -2   7 1937.46 686.533   5
 -16  -2  -7 2020.94 799.298   2
 -16   2  -7 896.153 521.508   2
 -16   2  -8 11843.7 1891.10   9
 -16  -2  -8 11492.9 1605.21   9
 -16  -2  -8 12038.6 1793.32  18
 -16   2  -8 10715.4 1657.68  18
  16   2   8 12421.0 1724.27   6
  16  -2   8 13938.3 1606.59   6
  16  -2   8 10661.2 1449.37  16
  16   2   8 10997.6 1433.63  16
 -16   2  -8 12572.3 1740.78  15
  16  -2   8 12657.1 1524.30   5
 -16  -2  -8 13230.6 1809.65   2
 -16   2  -8 13092.6 1747.33   2
 -16   2  -9 16087.4 2207.76   9
 -16  -2  -9 16922.2 2156.32  18
 -16   2  -9 17188.3 2220.78  18
  16  -2   9 16900.8 1816.27  16
  16   2   9 16606.2 1997.46   6
  16  -2   9 15961.5 1752.22   6
 -16  -2  -9 13911.9 1913.04   2
 -16   2  -9 13634.1 1818.57   2
  16   2   9 16072.3 1738.87  16
 -16   2  -9 14544.0 2039.67  15
  16  -2   9 13890.0 1582.28   5
  16  -2  10 11073.3 1468.01   6
  16  -4 -11 471.696 562.838  17
  16   4 -11-447.278 734.262  20
 -16  -4  11-315.240 479.835   4
 -16   4  11 290.905 536.136   4
 -16  -4  10 13963.0 1596.59   4
 -16   4  10 9726.72 1539.19   4
  16   4 -10 14396.8 2161.23  20
  16  -4 -10 13491.5 1852.93  17
 -16  -4  10 10404.9 1266.87   3
 -16   4  10 14009.9 1565.56   8
  16   4 -10 11030.2 1768.59  11
  16  -4 -10 14597.1 1959.36   9
 -16  -4   9 16996.6 1587.65   3
  16  -4  -9 18832.4 2107.30  17
  16   4  -9 22060.3 2546.61  20
 -16   4   9 20946.7 1942.46   8
  16   4  -9 18101.4 2201.44  11
 -16  -4   9 19163.4 1821.32   4
  16  -4  -9 20697.2 1984.94   5
 -16   4   9 19476.8 2078.19   4
 -16  -4   8 844.446 501.844   3
  16   4  -8 139.880 523.687  20
  16   4  -8-507.829 528.280  17
  16  -4  -8 601.066 554.137  17
 -16   4   8 873.251 531.011   8
  16   4  -8 3.84139 523.477  11
  16  -4  -8 390.403 474.030   5
 -16   4   8 1524.05 709.921   4
 -16  -4   8-308.463 429.273   4
 -16  -4   7 16023.3 1506.77   3
  16   4  -7 13224.2 1811.40  20
  16  -4  -7 18354.7 1928.63  17
  16  -4  -7 17259.6 1853.03  13
 -16  -4   7 14698.4 1506.78   4
 -16   4   7 12795.1 1539.08   4
  16  -4  -7 16306.3 1638.55   5
  16   4  -7 13293.8 1745.81  11
 -16   4   7 14803.9 1643.07   8
 -16  -4   6 34916.7 2248.15   3
 -16   4   6 38984.6 2697.86   8
  16   4  -6 38616.4 3039.16  20
  16  -4  -6 30344.7 2498.14  13
  16   4  -6 35575.6 2757.87  11
 -16  -4   6 30758.2 2204.37   4
  16  -4  -6 38235.9 2472.43   5
 -16   4   6 33870.6 2385.66   4
 -16  -4   5 20619.5 1649.31   3
 -16  -4   5 19143.2 1450.10  19
  16   4  -5 20747.5 2097.94  20
 -16   4   5 17575.6 1818.79   8
  16   4  -5 20253.5 1994.08  11
 -16  -4   5 19375.2 1680.83   4
  16  -4  -5 19178.1 1689.48   5
 -16   4   5 20016.7 1683.66   4
 -16  -4   4 1415.86 534.452   3
 -16  -4   4 908.556 455.691  19
 -16   4   4 1073.90 562.051   8
  16   4  -4 1878.92 778.727  20
  16   4  -4 1054.24 509.089  11
  16  -4  -4 773.735 470.132   5
 -16   4   4 892.651 371.920   4
 -16  -4   4 1115.33 500.839   4
 -16  -4   3 17708.4 1524.91   3
 -16   4   3 15466.9 1691.73   8
  16   4  -3 16153.3 1793.63  20
 -16  -4   3 19800.3 1516.83  19
  16   4  -3 15047.0 1575.70  11
 -16  -4   3 19661.4 1657.76   4
  16  -4  -3 18744.3 1605.73   5
 -16   4   3 18340.5 1425.08   4
 -16  -4   2 80422.6 3545.29   2
 -16  -4   2 82565.9 3630.65   3
 -16   4   2 76792.2 4062.07   8
  16   4  -2 84021.4 4104.09  20
  16   4  -2 79958.8 3874.77  11
 -16  -4   2 80291.7 3775.18   4
  16  -4  -2 86428.9 3800.94   5
 -16  -4   1 25805.2 1952.15   2
 -16  -4   1 28935.0 1959.96   3
 -16   4   1 31620.5 2352.32   8
  16   4  -1 28107.1 2174.44  20
  16   4  -1 26371.9 2031.78  11
 -16  -4   1 28310.4 2109.81   4
  16  -4  -1 31970.2 2118.40   5
 -16   4   0 8456.47 1252.93   2
 -16  -4   0 8451.86 1029.82   3
 -16  -4   0 6966.54 1021.59   2
  16   4   0 6971.42 1094.07  20
  16   4   0 7631.47 1108.64   6
  16  -4   0 6140.44 839.663   6
 -16   4   0 6725.05 1048.73   8
  16   4   0 6166.79 976.305  11
 -16  -4   0 7137.13 1069.50   4
  16  -4   0 7057.69 1012.48   5
 -16   4  -1 49993.7 3048.10   2
 -16  -4  -1 43737.5 2777.53   2
 -16  -4  -1 44713.0 2492.05   3
  16   4   1 45157.7 2784.47  20
 -16  -4  -1 45764.7 2592.50  18
  16  -4   1 44439.5 2350.50   6
  16   4   1 41732.5 2703.33   6
 -16   4  -1 41721.2 2627.91   8
  16   4   1 41792.0 2373.26  16
  16   4   1 42447.3 2647.33  11
 -16  -4  -1 43727.5 2730.53   4
  16  -4   1 44971.8 2671.40   5
  16   4   2 50196.1 2985.42  20
  16  -4   2 48611.0 2716.75  16
 -16  -4  -2 49835.3 2905.00  18
  16  -4   2 52054.1 2564.68   6
  16   4   2 47414.6 2913.46   6
 -16   4  -2 44486.6 2688.38   8
  16   4   2 46912.7 2632.85  16
 -16   4  -2 50430.3 3153.80   2
 -16  -4  -2 54750.5 3198.96   2
 -16  -4  -2 48243.9 2605.35   3
 -16  -4  -2 47246.1 2933.63   4
  16  -4   2 56683.4 3011.66   5
  16   4   3 13695.6 1540.47  20
  16  -4   3 10254.3 1235.89  16
 -16  -4  -3 12579.4 1449.44  18
  16   4   3 13980.0 1541.84   6
 -16   4  -3 11762.2 1250.72   8
  16   4   3 12431.2 1324.16  16
 -16  -4  -3 14367.4 1644.59   2
 -16  -4  -3 13426.0 1269.08   3
 -16   4  -3 12225.0 1528.14   2
 -16  -4  -3 12378.6 1515.95   4
  16  -4   3 13877.6 1499.76   5
  16   4   4 2816.73 753.899  20
 -16  -4  -4 2085.59 714.365  18
  16   4   4 3692.40 862.706   6
  16  -4   4 2646.73 685.657  16
  16   4   4 1703.74 590.203  16
 -16  -4  -4 1879.10 669.246   2
 -16   4  -4 1987.40 693.349   2
  16  -4   4 1875.38 704.724   5
  16   4   5 34085.8 2521.24  20
 -16  -4  -5 33033.6 2611.50  18
  16  -4   5 31922.5 2423.63  16
 -16   4  -5 30141.9 2553.35  18
  16   4   5 36370.4 2655.60   6
  16   4   5 31253.9 2328.89  16
 -16  -4  -5 30574.6 2674.77   2
 -16   4  -5 34345.2 2710.87   2
  16  -4   5 34922.0 2469.61   5
  16   4   6 35007.4 2652.59  20
 -16  -4  -6 32986.3 2760.07  18
 -16   4  -6 33364.0 2802.86  18
  16  -4   6 34954.0 2629.41  16
  16   4   6 35274.2 2722.08   6
  16   4   6 31744.9 2393.55  16
  16  -4   6 37586.5 2662.38   5
 -16  -4  -6 32639.8 2776.67   2
 -16   4  -6 33480.5 2696.66   2
 -16  -4  -7 388.204 498.470  18
 -16   4  -7 476.650 459.711  18
  16   4   7 445.841 517.363   6
  16  -4   7-57.5169 557.600  16
  16   4   7 979.114 561.719  16
  16  -4   7 763.698 464.820   5
 -16  -4  -7 652.778 462.068   2
 -16   4  -7 941.910 569.671   2
 -16  -4  -8 7135.69 1343.18  18
 -16   4  -8 5194.16 1214.70  18
 -16   4  -8 6285.00 1415.23  15
  16  -4   8 6532.70 1236.26  16
  16   4   8 7055.30 1234.77  16
  16  -4   8 6911.00 1225.19   5
 -16  -4  -8 4830.60 1171.48   2
 -16   4  -8 9203.73 1444.70   2
  16   4   8 7177.34 1314.04   6
 -16  -6   9 7972.98 1124.15   3
 -16   6   9 10804.9 1606.22   8
  16   6  -9 8297.98 1676.94  20
  16   6  -9 9807.61 1753.62  11
  16  -6  -9 11710.8 1507.72   5
 -16   6   9 11882.8 1665.08   4
 -16  -6   9 10658.5 1379.89   4
 -16  -6   8 757.537 516.077   3
 -16   6   8 680.085 582.102   8
  16   6  -8 667.544 647.735  20
  16  -6  -8 1436.45 820.236  13
  16   6  -8 540.419 591.288  11
  16  -6  -8-541.587 504.192   5
 -16   6   8-162.877 443.500   4
 -16  -6   8 1279.51 650.208   4
 -16  -6   7 7992.75 1150.56   3
 -16   6   7 9928.95 1578.66   8
  16   6  -7 5591.13 1365.15  20
  16  -6  -7 7803.28 1420.07  13
  16   6  -7 8207.42 1464.53  11
  16  -6  -7 11445.7 1418.46   5
 -16   6   7 9948.32 1419.88   4
 -16  -6   7 9493.48 1261.45   4
 -16  -6   6 16594.9 1631.94   3
 -16   6   6 16469.6 1983.35   8
  16   6  -6 18838.3 2295.45  20
  16  -6  -6 19374.0 2214.57  13
  16   6  -6 16440.5 1998.78  11
 -16  -6   6 17667.2 1711.77   4
  16  -6  -6 20685.4 1847.88   5
 -16  -6   5 11640.7 1343.25   3
 -16   6   5 12022.0 1742.45   8
  16   6  -5 11592.9 1726.06  20
 -16  -6   5 11302.6 1192.42  19
  16  -6  -5 11040.6 1640.81  13
  16   6  -5 10666.1 1536.18  11
  16   6  -5 11133.3 1613.21  12
  16  -6  -5 11584.8 1389.90   5
 -16  -6   5 11559.3 1364.78   4
 -16  -6   4 497.799 451.538   3
 -16   6   4 1558.40 736.283   8
 -16  -6   4 931.272 433.542  19
  16   6  -4 461.969 532.230  20
  16  -6  -4 1445.65 756.265  13
  16   6  -4 1057.61 613.541  12
  16   6  -4 294.801 459.302  11
  16  -6  -4 1537.54 635.309   5
 -16  -6   4 288.669 454.942   4
 -16  -6   3 10174.2 1256.08   3
 -16   6   3 11662.7 1733.87   8
 -16  -6   3 9124.03 1127.49  19
  16   6  -3 9491.65 1550.21  20
  16  -6  -3 12298.3 1565.08  13
  16   6  -3 11580.4 1492.62  12
  16   6  -3 10393.5 1429.76  11
 -16  -6   3 10420.8 1345.98   4
  16  -6  -3 12683.8 1406.04   5
 -16  -6   2 46454.4 2769.58   3
 -16   6   2 41395.4 3274.04   8
  16   6  -2 45105.3 2808.48   6
 -16   6   2 40962.5 3243.01   7
 -16  -6   2 43507.0 2579.73  19
  16   6  -2 44182.6 3208.52  20
  16  -6  -2 46870.2 3126.69  13
  16   6  -2 44955.4 2913.49  11
  16   6  -2 43387.6 2824.10  12
 -16  -6   2 40652.7 2718.48   4
  16  -6  -2 48520.8 2865.29   5
 -16  -6   1 16664.2 1551.68   2
 -16  -6   1 17445.2 1634.65   3
 -16  -6   1 15906.8 1524.35  19
  16   6  -1 17324.5 1926.68  20
 -16   6   1 16298.1 2038.05   7
 -16   6   1 16064.0 1998.82   8
  16   6  -1 19245.5 1780.61   6
  16   6  -1 15222.1 1614.29  11
 -16  -6   1 16785.6 1680.49   4
  16  -6  -1 18172.1 1713.66   5
 -16  -6   0 3082.88 715.259   3
 -16  -6   0 3449.06 811.696   2
 -16  -6   0 2071.96 612.518  19
  16   6   0 3016.79 762.474   6
 -16   6   0 2746.73 937.091   7
 -16   6   0 4377.45 1027.55   8
  16   6   0 3260.71 842.831  20
  16   6   0 2954.36 771.508  11
 -16  -6   0 2751.46 794.174   4
  16  -6   0 3745.10 788.200   5
 -16  -6  -1 25135.5 2153.56   2
 -16  -6  -1 24235.2 1924.68   3
 -16   6  -1 23818.3 2587.57   7
  16   6   1 26236.2 2110.67   6
 -16   6  -1 22513.9 2197.93   8
  16   6   1 23927.8 2224.19  20
 -16  -6  -1 24993.7 2018.34  19
  16   6   1 24729.4 2048.05  11
 -16  -6  -1 22874.9 2095.95   4
  16  -6   1 23135.6 1978.53   5
  16   6   2 27898.3 2401.53  20
 -16  -6  -2 25307.6 2104.02  19
 -16   6  -2 25078.1 2689.84   7
  16   6   2 27404.6 2159.11   6
 -16   6  -2 25435.9 2206.61   8
 -16   6  -2 21689.7 2231.85   2
 -16  -6  -2 25163.4 2235.00   2
 -16  -6  -2 25559.3 1963.00   3
 -16  -6  -2 22600.0 2139.04   4
  16  -6   2 28627.2 2215.88   5
  16   6   3 6699.55 1228.88  20
 -16  -6  -3 7684.05 1190.12  19
 -16   6  -3 7849.69 1536.02   7
  16   6   3 8592.27 1236.09   6
  16   6   3 6162.15 1066.79  16
 -16  -6  -3 7282.76 1275.77   2
 -16   6  -3 8748.91 1404.98   2
  16  -6   3 9285.78 1289.23   5
  16   6   4 1684.19 788.491  20
 -16  -6  -4 1155.63 592.823  19
 -16  -6  -4 1851.31 612.341  18
  16   6   4 836.911 532.178   6
  16   6   4 778.594 487.198  16
 -16  -6  -4 1006.92 577.010   2
 -16   6  -4 166.060 439.956   2
  16  -6   4 2187.46 727.303   5
  16   6   5 22734.8 2299.08  20
 -16  -6  -5 17327.4 1867.54  19
 -16  -6  -5 19192.3 1967.44  18
 -16   6  -5 18588.3 2047.31  18
  16   6   5 17312.7 1828.98   6
  16   6   5 17113.9 1852.84  16
 -16  -6  -5 18161.9 2035.05   2
 -16   6  -5 18423.7 1978.62   2
  16  -6   5 19723.5 1934.26   5
  16   6   6 19924.9 2220.71  20
 -16  -6  -6 16196.8 1799.76  19
 -16   6  -6 16435.6 2049.54  18
 -16  -6  -6 17541.3 1964.11  18
  16   6   6 16285.6 1791.44   6
  16   6   6 15290.9 1808.09  16
  16  -6   6 17910.4 1876.63   5
 -16  -6  -6 17986.6 2113.67   2
 -16   6  -6 15526.6 1841.62   2
  16   6   7 665.671 613.480  16
  16   6   7-14.5144 537.793   6
 -16   6  -7 1589.80 785.204  18
 -16  -6  -7 776.532 435.561  19
 -16  -6  -7 997.577 716.472  18
  16  -8  -6 6376.38 1341.19  13
  16   8  -6 11465.6 1801.30  12
  16   8  -6 9152.79 1546.24  11
 -16  -8   6 7972.76 1240.84   4
 -16  -8   5 4385.59 917.979   3
 -16   8   5 4842.34 1351.98   8
 -16  -8   5 4775.65 852.871  19
  16   8  -5 6786.19 1462.97  20
  16  -8  -5 3847.66 1038.64  13
  16   8  -5 5871.33 1259.09  12
  16   8  -5 3913.58 1037.69  11
 -16  -8   5 6160.46 1075.19   4
 -16  -8   4 1096.81 604.602   3
 -16   8   4 179.523 473.692   7
 -16   8   4 1337.14 793.786   8
  16   8  -4 1088.60 745.442  20
 -16  -8   4-205.163 324.490  19
  16  -8  -4 76.9863 556.999  13
  16   8  -4 1311.07 743.698  12
  16   8  -4 157.272 508.349  11
 -16  -8   4 635.263 495.379   4
  16  -8  -4-312.794 448.604   5
 -16  -8   3 4284.53 898.935   3
 -16   8   3 7080.87 1465.78   7
 -16   8   3 4160.56 1209.30   8
  16   8  -3 3866.17 1178.60  20
 -16  -8   3 4184.16 818.751  19
  16  -8  -3 7259.55 1263.65  13
  16   8  -3 6026.61 1221.37  12
  16   8  -3 5825.70 1134.43  11
 -16  -8   3 4337.85 963.306   4
  16  -8  -3 4205.85 908.438   5
 -16  -8   2 18900.9 1864.51   3
 -16   8   2 20243.3 2491.31   7
 -16   8   2 17043.5 2309.42   8
  16   8  -2 17816.0 2203.46  20
 -16  -8   2 19415.5 1770.47  19
  16  -8  -2 13978.7 1728.82  13
  16   8  -2 20138.9 2143.18  12
 -16  -8   2 17587.2 1798.26   4
  16  -8  -2 20586.1 1899.99   5
 -16   8   1 5638.51 1414.39   7
 -16   8   1 8695.47 1637.53   8
  16   8  -1 8640.34 1524.16  20
 -16  -8   1 6774.28 1072.82  19
  16  -8  -1 7255.58 1226.10  13
 -16  -8   1 4870.40 969.267   3
 -16  -8   1 6005.96 1087.21   4
  16  -8  -1 7412.93 1149.52   5
  16   8   0 1108.33 565.331  20
 -16  -8   0 858.716 524.132  19
 -16   8   0 518.914 621.545   7
 -16   8   0 974.135 728.533   8
 -16  -8   0 1000.77 508.986   3
 -16  -8   0 1245.95 509.836  13
 -16  -8   0 245.598 447.984   4
  16  -8   0 282.308 435.511   5
  16   8   1 11709.0 1685.48  20
 -16  -8  -1 11787.2 1475.60  19
 -16   8  -1 10636.2 1906.82   7
 -16   8  -1 13386.6 1826.08   8
 -16  -8  -1 8511.76 1223.56   3
 -16  -8  -1 9077.43 1270.68  13
  16  -8   1 10562.7 1399.94   5
  16   8   2 9266.35 1567.79  20
 -16  -8  -2 11459.4 1451.20  19
 -16   8  -2 12919.1 2120.51   7
 -16   8  -2 8887.17 1465.99   8
 -16   8  -2 10822.2 1649.35   2
 -16  -8  -2 9320.06 1356.11  13
  16  -8   2 11407.5 1476.88   5
  16   8   3 2408.51 906.670  20
 -16  -8  -3 4542.94 963.300  19
 -16   8  -3 3260.93 1180.41   7
 -16  -8  -3 2964.00 850.690  13
  16  -8   3 4789.91 1008.65   5
 -16   8  -3 3685.31 1013.03   2
 -16   8  -4 112.465 479.314   2
  17   1 -12 3783.65 1211.65  11
  17   1 -12 4000.76 1279.93  20
 -17  -1  11 649.731 592.761   4
 -17   1  11 475.746 500.801   4
  17   1 -11-1141.97 910.743  20
  17   1 -11 193.549 547.941  11
  17  -1 -11 381.714 629.452   9
  17   1 -11 862.389 762.001  17
  17  -1 -11 1195.88 663.436  17
 -17   1  10 14093.3 1713.43   4
 -17  -1  10 14438.4 1698.94   4
  17   1 -10 12013.6 1746.39  17
  17  -1 -10 13325.8 1914.62  17
  17   1 -10 15995.8 2057.17  20
  17  -1 -10 14217.9 1720.08  11
  17   1 -10 13017.3 1806.86  11
  17  -1 -10 13092.3 1789.30   9
  17   1 -10 11502.1 1543.90   9
 -17  -1  10 16912.9 1523.05   8
 -17   1  10 14781.7 1468.99   8
 -17  -1   9 27917.3 2266.24   4
 -17   1   9 27897.9 2416.52   4
  17   1  -9 26662.4 2518.76  20
  17   1  -9 26208.3 2435.06  17
  17  -1  -9 27586.0 2554.49  17
 -17  -1   9 30138.0 2000.02   3
  17  -1  -9 28933.1 2365.05  11
  17   1  -9 29218.8 2638.32  11
  17  -1  -9 28051.0 2482.04   9
  17   1  -9 21876.7 2083.61   9
 -17   1   9 27729.1 2053.76   8
 -17  -1   9 27466.6 2013.70   8
  17   1  -8 3742.24 900.251  20
  17   1  -8 5292.09 1092.71  17
  17  -1  -8 7025.97 1274.30  17
 -17  -1   8 7994.94 1007.24   3
 -17  -1   8 6952.33 994.054   8
 -17   1   8 5315.18 900.967   8
  17  -1  -8 8076.40 1201.46  11
  17   1  -8 6129.14 1132.45  11
 -17  -1   8 7980.98 1200.81   4
 -17   1   8 6539.77 1101.50   4
  17   1  -7 6304.56 1105.79  20
  17   1  -7 3813.28 1031.95  17
  17  -1  -7 4777.04 1043.39  17
 -17  -1   7 5343.30 899.502   8
 -17   1   7 5919.16 945.796   8
  17   1  -7 5919.87 1131.92  11
  17  -1  -7 5935.91 979.431  11
 -17  -1   7 4806.75 876.256   4
 -17   1   7 5499.74 993.018   4
 -17  -1   6 41990.5 2551.52   4
 -17   1   6 37214.3 2463.28   4
 -17   1   6 31586.6 2086.72   2
  17   1  -6 38175.7 2656.02  20
 -17   1   6 39208.6 2439.88   8
  17  -1  -6 41683.1 2625.59  11
  17   1  -6 38495.3 2675.87  11
 -17  -1   6 41838.0 2483.75   8
 -17  -1   5 46548.1 2656.94   4
 -17   1   5 45891.4 2666.37   4
  17  -1  -5 48350.3 2821.83   5
 -17   1   5 43680.6 2511.65   2
  17   1  -5 48018.4 2891.57  20
 -17   1   5 49002.7 2746.63   8
  17  -1  -5 49287.7 2824.41  11
  17   1  -5 46337.9 2895.85  11
 -17  -1   5 45670.8 2629.11   8
 -17  -1   4 17051.6 1522.68   4
 -17   1   4 15195.4 1425.84   4
  17  -1  -4 20433.9 1735.21   5
 -17  -1   4 16606.5 1365.92   2
 -17   1   4 17252.6 1515.77   2
  17   1  -4 18286.7 1609.81  20
 -17   1   4 17138.8 1566.17   8
  17  -1  -4 21052.2 1708.18  11
  17   1  -4 17626.0 1684.61  11
 -17  -1   4 19118.0 1650.37   8
 -17  -1   3 17515.3 1508.06   4
 -17   1   3 17700.0 1473.40   4
  17  -1  -3 16521.9 1504.00   5
  17   1  -3 16793.3 1462.51   5
 -17  -1   3 15217.4 1345.13   2
 -17   1   3 14516.1 1394.99   2
  17   1  -3 16518.3 1465.52  20
 -17   1   3 15906.6 1523.81   8
  17  -1  -3 18596.9 1586.99  11
  17   1  -3 16190.0 1560.27  11
 -17  -1   3 16182.9 1472.26   8
 -17  -1   2 120796. 4688.14   4
 -17   1   2 122747. 4572.79   4
  17  -1  -2 124072. 4741.04   5
  17   1  -2 122251. 4597.38   5
  17   1  -2 120996. 4574.24  20
 -17  -1   2 122402. 4630.07   2
 -17   1   2 118920. 4729.18   2
 -17   1   2 125150. 4770.65   8
  17  -1  -2 123007. 4710.93  11
  17   1  -2 128603. 5013.57  11
 -17  -1   2 117966. 4694.36   8
 -17  -1   1 66282.7 3148.02   4
 -17   1   1 60630.8 2860.63   4
  17  -1  -1 63508.7 3108.96   5
  17   1  -1 64231.3 2964.06   5
  17   1  -1 61470.6 2907.64  20
 -17  -1   1 62971.1 2970.90  18
 -17  -1   1 61983.1 3064.88   2
 -17   1   1 60393.4 3130.20   2
 -17   1   1 61237.9 3057.17   8
  17  -1  -1 64506.4 3132.67  11
  17   1  -1 68477.0 3338.65  11
 -17  -1   1 64837.0 3092.42   8
 -17  -1   0 2120.84 607.678   2
 -17   1   0 2367.24 634.176   2
  17   1   0 3020.05 575.765  20
 -17  -1   0 2324.88 536.947  18
 -17  -1   0 2928.61 634.238   8
 -17   1   0 2134.55 552.640   8
  17   1   0 2348.51 614.240  11
  17  -1   0 1414.89 499.447   5
  17   1   0 4056.38 677.336   5
 -17  -1   0 2367.22 579.902   4
 -17   1   0 2370.50 519.127   4
 -17  -1  -1 25294.4 1981.51   2
 -17   1  -1 28435.5 2096.42   2
  17   1   1 29170.3 1811.97  20
  17  -1   1 26715.7 1663.40  16
 -17  -1  -1 29017.0 2020.11  18
 -17   1  -1 27264.3 1870.02   8
  17   1   1 27876.9 2131.03   6
  17  -1   1 29724.1 2111.48   6
  17   1   1 26150.9 1614.37  16
 -17  -1  -1 26385.4 1910.10   4
 -17   1  -1 27073.4 1759.16   4
  17  -1   1 24567.8 1862.09   5
  17   1   1 26382.9 1819.93   5
 -17  -1  -1 28714.8 1942.63   8
 -17  -1  -2 75584.9 3731.26   2
 -17   1  -2 75760.7 3760.24   2
  17   1   2 72191.0 3179.58  20
 -17  -1  -2 75931.3 3668.39  18
 -17   1  -2 76626.7 3808.61  18
  17  -1   2 72434.9 3191.67  16
  17  -1   2 73010.4 3581.67   6
  17   1   2 75902.8 3814.62   6
  17   1   2 73750.2 3188.91  16
 -17  -1  -2 76266.2 3557.39   4
  17   1   2 75445.1 3378.86   5
  17  -1   2 75667.6 3538.72   5
 -17  -1  -2 74419.8 3366.21   8
 -17   1  -2 75214.0 3339.51   8
 -17  -1  -3 44209.1 2884.44   2
 -17   1  -3 47422.3 2971.97   2
  17   1   3 42681.8 2364.40  20
  17  -1   3 44552.6 2483.78  16
 -17  -1  -3 43670.0 2825.54  18
 -17   1  -3 48191.5 2996.13  18
  17  -1   3 45173.2 2737.39   6
  17   1   3 42647.8 2821.22   6
  17   1   3 45864.4 2502.36  16
 -17  -1  -3 44873.3 2685.37   4
  17   1   3 50896.0 2614.85   5
  17  -1   3 45019.9 2642.85   5
 -17   1  -3 46571.3 2482.58   8
  17   1   4 813.709 366.034  20
 -17  -1  -4 688.520 483.657  18
 -17   1  -4 1149.07 623.125  18
  17  -1   4 873.334 441.009   6
  17   1   4 1194.42 624.778   6
  17  -1   4 1413.39 484.268  16
  17   1   4 775.292 445.289  16
 -17  -1  -4 1053.83 564.320   2
 -17   1  -4 213.684 386.612   2
 -17  -1  -4 151.335 264.981   4
  17   1   4 1332.43 456.773   5
  17  -1   4 1272.79 508.819   5
  17  -1   5 40614.0 2613.55  16
 -17  -1  -5 36693.6 2859.73  18
 -17   1  -5 44689.8 3119.49  18
  17  -1   5 45287.2 2820.65   6
  17   1   5 42107.3 2933.11   6
  17   1   5 42145.0 2620.14  16
 -17  -1  -5 44881.5 3111.26   2
 -17   1  -5 42207.8 2970.42   2
  17  -1   5 48492.8 2862.45   5
 -17  -1  -6 45084.6 3144.45   9
  17  -1   6 43373.9 2823.26  16
 -17  -1  -6 47116.9 3358.67  18
 -17   1  -6 46919.2 3396.37  18
  17  -1   6 45822.7 2960.03   6
  17   1   6 48670.5 3235.01   6
  17   1   6 48659.8 2913.57  16
 -17   1  -6 46580.9 3198.20  15
 -17  -1  -6 44943.5 3226.31   2
 -17   1  -6 47148.1 3278.38   2
  17  -1   6 44940.3 2851.94   5
 -17  -1  -7 4629.11 1044.47   9
 -17  -1  -7 6555.99 1349.44  18
 -17   1  -7 5260.98 1242.62  18
  17  -1   7 5041.73 1001.09   6
  17   1   7 6910.82 1268.01   6
  17  -1   7 6588.85 1129.26  16
  17   1   7 5966.68 1032.23  16
 -17   1  -7 5306.50 1107.15  15
 -17  -1  -7 4941.87 1100.91   2
 -17   1  -7 5352.89 1182.91   2
  17  -1   7 6626.61 1098.31   5
 -17   1  -8-136.268 697.698   9
 -17  -1  -8 1000.70 656.280   9
 -17  -1  -8 949.454 755.754  18
 -17   1  -8 1497.72 767.109  18
  17  -1   8 846.997 512.531   6
  17   1   8 1185.26 594.512   6
  17  -1   8 1064.73 581.463  16
  17   1   8 1770.90 631.393  16
 -17   1  -8 1418.74 795.267  15
 -17  -1  -8 787.959 611.775   2
 -17   1  -8 1124.91 788.667   2
  17  -1   8 1417.16 573.351   5
 -17  -1  -9 17417.0 2292.74  18
 -17   1  -9 14463.0 2115.72  18
  17   1   9 15209.0 1940.87   6
  17  -1   9 15610.4 1840.33   6
  17  -1   9 13324.9 1663.30  16
  17   1   9 14029.3 1681.14  16
 -17   1  -9 15098.9 2036.39  15
 -17  -1  -9 16915.4 2157.61   2
 -17   1  -9 13639.9 1898.91   2
 -17  -1  -9 13692.9 1914.27   9
 -17   1  -9 15543.2 2161.21   9
 -17  -3  11-359.072 524.731   4
 -17   3  11 97.4549 420.885   4
  17   3 -11 907.076 660.366  20
  17   3 -11 498.381 550.339  17
  17  -3 -11 583.443 636.275  17
  17   3 -11 1056.21 717.644  11
  17  -3 -11-79.1364 653.672   9
 -17  -3  10 9503.31 1356.43   4
 -17   3  10 10752.0 1595.19   4
  17   3 -10 9651.56 1749.27  20
  17   3 -10 9388.15 1549.68  17
  17  -3 -10 10088.0 1673.07  17
 -17  -3  10 9381.37 1173.96   3
 -17   3  10 10504.5 1331.85   8
  17   3 -10 9855.23 1696.75  11
  17  -3 -10 10007.5 1613.73   9
 -17  -3   9 22610.5 1837.90   3
  17   3  -9 21529.2 2251.48  17
  17  -3  -9 23448.8 2364.24  17
  17   3  -9 20985.0 2479.50  20
 -17   3   9 23268.8 2001.56   8
  17   3  -9 18341.0 2191.05  11
 -17  -3   9 23822.4 2052.49   4
 -17   3   9 20461.0 2190.39   4
 -17  -3   8 6242.08 965.376   3
  17   3  -8 5651.05 1121.42  17
  17  -3  -8 5109.58 1149.30  17
 -17   3   8 7271.91 1119.87   8
  17   3  -8 5642.21 1285.92  20
  17   3  -8 4796.88 1133.23  11
 -17  -3   8 7364.60 1103.44   4
  17  -3  -8 7393.66 1172.53   5
 -17   3   8 6643.88 1212.53   4
 -17  -3   7 4214.28 804.980   3
 -17   3   7 5729.70 987.269   8
  17   3  -7 3170.30 982.853  20
  17   3  -7 4629.37 1011.18  11
 -17  -3   7 3950.28 819.899   4
  17  -3  -7 5379.32 1026.83   5
 -17   3   7 3867.37 845.992   4
 -17  -3   6 26103.7 1912.98   3
 -17   3   6 26810.9 2159.60   8
  17   3  -6 25898.4 2419.69  20
  17   3  -6 26892.2 2384.21  11
 -17  -3   6 27447.0 2053.39   4
  17  -3  -6 29982.8 2217.10   5
 -17   3   6 25462.7 2060.43   4
 -17  -3   5 40906.6 2423.99   3
 -17   3   5 42437.8 2787.03   8
 -17  -3   5 39658.4 2180.52  19
  17   3  -5 39669.6 2967.08  20
  17  -3  -5 41958.1 2346.75  11
  17   3  -5 36262.9 2740.60  11
 -17  -3   5 38544.2 2484.46   4
  17  -3  -5 47429.2 2784.23   5
 -17   3   5 41471.8 2540.87   4
 -17  -3   4 14852.3 1377.16   3
 -17   3   4 15176.2 1608.19   8
  17   3  -4 15153.0 1686.99  20
  17  -3  -4 12509.9 1213.23  11
  17   3  -4 13628.6 1570.65  11
 -17  -3   4 13542.4 1432.01   4
  17  -3  -4 15110.6 1498.39   5
 -17   3   4 14205.6 1360.53   4
 -17  -3   3 14064.9 1281.71   2
 -17  -3   3 12950.1 1296.40   3
 -17   3   3 12753.5 1450.73   8
  17   3  -3 14263.1 1568.11  20
  17  -3  -3 14762.6 1308.19  11
  17   3  -3 16589.8 1652.11  11
 -17  -3   3 13816.4 1411.79   4
  17  -3  -3 13652.1 1411.30   5
 -17   3   3 14292.1 1319.93   4
  17   3  -3 12188.4 1198.70   5
 -17   3   2 82659.0 4093.82   2
 -17  -3   2 85589.0 3755.14   2
 -17   3   2 91091.8 4176.03   8
  17   3  -2 85953.9 4009.62  20
  17   3  -2 78523.2 3894.71  11
 -17  -3   2 81189.5 3831.07   4
 -17   3   2 82380.0 3403.76   4
  17  -3  -2 84802.6 3853.07   5
  17   3  -2 83277.1 3451.47   5
 -17   3   1 49827.0 3035.63   2
 -17  -3   1 52708.7 2914.50   2
  17   3  -1 49882.3 2918.58  20
 -17   3   1 52807.5 3028.31   8
  17   3  -1 53894.8 3011.26  11
 -17  -3   1 56421.1 3063.14   4
  17  -3  -1 53205.4 2904.50   5
  17   3  -1 52636.9 2501.77   5
 -17  -3   0 1707.60 585.181   2
 -17   3   0 1126.28 509.115   2
 -17  -3   0 1361.47 454.766  18
  17   3   0 1460.96 555.244  20
  17   3   0 1983.99 637.733   6
  17  -3   0 1090.71 486.198   6
 -17   3   0 759.017 425.144   8
  17   3   0 587.052 414.268  11
 -17  -3   0 416.228 446.162   4
  17  -3   0 1289.58 538.373   5
 -17  -3  -1 18641.4 1782.32   2
 -17   3  -1 18540.2 1831.65   2
  17   3   1 17720.3 1623.06  20
  17  -3   1 18149.1 1491.77  16
 -17  -3  -1 19774.1 1665.70  18
 -17   3  -1 19940.0 1698.50   8
  17  -3   1 17083.6 1504.43   6
  17   3   1 19349.1 1813.28   6
  17   3   1 19111.0 1759.07  11
 -17  -3  -1 17596.2 1646.92   4
  17  -3   1 18755.6 1680.13   5
  17   3   2 49168.8 2898.82  20
 -17  -3  -2 57805.9 3168.72  18
  17  -3   2 54017.5 2815.74  16
  17  -3   2 53337.9 2819.19   6
  17   3   2 53586.1 3202.44   6
 -17   3  -2 51825.6 2851.91   8
  17   3   2 54711.8 2818.27  16
 -17  -3  -2 59294.9 3360.66   2
 -17   3  -2 55901.3 3323.08   2
 -17  -3  -2 51969.4 3064.56   4
  17  -3   2 57296.0 3104.13   5
  17   3   3 39852.5 2547.92  20
 -17  -3  -3 38906.1 2658.70  18
  17  -3   3 36972.8 2380.62  16
  17  -3   3 37744.4 2329.52   6
  17   3   3 36835.4 2613.78   6
 -17   3  -3 38965.0 2338.66   8
  17   3   3 35535.0 2301.11  16
 -17  -3  -3 40344.8 2808.33   2
 -17   3  -3 40762.5 2840.41   2
 -17  -3  -3 36565.0 2604.85   4
  17  -3   3 38385.7 2517.92   5
  17   3   4 569.729 421.592  20
 -17  -3  -4 1057.18 609.335  18
 -17   3  -4 576.947 527.705  18
  17  -3   4 602.752 386.617   6
  17   3   4 751.787 536.308   6
  17  -3   4 28.7161 316.884  16
  17   3   4 361.676 345.780  16
 -17  -3  -4 1359.34 736.589   2
 -17   3  -4 644.964 489.715   2
  17  -3   4 979.398 512.171   5
  17   3   5 30015.7 2276.65  20
  17  -3   5 30226.2 2316.00  16
 -17  -3  -5 29269.6 2546.75  18
 -17   3  -5 28694.8 2554.66  18
  17   3   5 29025.5 2459.44   6
  17  -3   5 31306.7 2187.60   6
  17   3   5 28060.2 2177.00  16
  17  -3   5 34219.3 2472.29   5
 -17  -3  -5 28673.8 2535.17   2
 -17   3  -5 34515.6 2738.68   2
  17  -3   6 37707.0 2709.64  16
 -17  -3  -6 32274.5 2800.44  18
 -17   3  -6 34743.8 2887.55  18
  17  -3   6 40267.2 2552.58   6
  17   3   6 37823.3 2867.15   6
  17   3   6 34156.1 2502.85  16
  17  -3   6 37105.2 2670.13   5
 -17  -3  -6 35290.5 2928.87   2
 -17   3  -6 41560.4 3100.36   2
 -17  -3  -7 5527.87 1187.13  18
 -17   3  -7 3995.04 1051.94  18
  17  -3   7 3874.16 811.131   6
  17   3   7 2826.44 933.873   6
  17  -3   7 4756.38 1083.43  16
  17   3   7 4606.62 979.210  16
  17  -3   7 5150.15 1042.33   5
 -17  -3  -7 5499.92 1196.43   2
 -17   3  -7 4709.06 1047.71   2
 -17  -3  -8 1880.79 761.255  18
 -17   3  -8 2251.10 946.346  18
  17   3   8 457.802 506.656   6
 -17   3  -8 836.273 677.024  15
  17  -3   8 1082.00 569.414  16
  17   3   8 1584.31 693.533  16
  17  -3   8 2401.92 859.891   5
 -17  -3  -8 893.496 608.508   2
 -17   3  -8 1961.34 782.051   2
 -17   5  10 7699.24 1288.07   8
  17  -5 -10 9255.27 1457.26   5
 -17  -5  10 6729.78 1148.13   4
 -17  -5  10 7991.12 1140.03   3
  17  -5 -10 7422.17 1433.08  17
 -17  -5   9 11977.2 1381.81   3
  17   5  -9 13218.2 2119.54  20
  17   5  -9 13294.7 1925.27  11
  17  -5  -9 14602.5 1732.21   5
 -17  -5   9 14508.4 1629.55   4
 -17   5   9 12717.8 1776.37   4
 -17   5   9 11260.8 1552.53   8
 -17  -5   8 4627.89 908.745   3
 -17   5   8 2615.13 851.965   8
  17   5  -8 3316.33 1129.88  20
  17   5  -8 2600.51 924.275  11
  17  -5  -8 3473.54 846.410   5
 -17   5   8 3742.14 989.859   4
 -17  -5   8 4201.79 910.818   4
 -17  -5   7 881.699 463.078   3
 -17   5   7 2223.92 815.005   8
  17   5  -7 1597.70 814.293  20
  17  -5  -7 2096.57 814.269  13
  17   5  -7 1246.03 654.022  11
  17  -5  -7 1925.81 698.920   5
 -17   5   7 1187.45 540.653   4
 -17  -5   7 2533.87 740.212   4
 -17  -5   6 16103.2 1581.50   3
 -17   5   6 20185.9 2089.39   8
  17   5  -6 21590.5 2391.96  20
  17  -5  -6 18575.6 2107.38  13
  17   5  -6 16998.7 1987.52  11
 -17  -5   6 18719.9 1780.89   4
  17  -5  -6 19699.5 1860.32   5
 -17   5   6 18766.4 1754.44   4
 -17  -5   5 23409.8 1928.98   3
 -17   5   5 22341.4 2261.74   8
 -17  -5   5 21761.6 1648.38  19
  17   5  -5 22399.5 2373.31  20
  17   5  -5 19774.7 2110.02  11
 -17  -5   5 21770.2 1915.23   4
  17  -5  -5 24116.3 1998.16   5
 -17   5   5 21141.3 1777.26   4
 -17  -5   4 8472.48 1159.57   3
  17   5  -4 7807.87 1473.45  20
 -17  -5   4 10395.9 1140.75  19
 -17   5   4 7134.00 1272.99   8
  17   5  -4 9949.01 1451.78  11
  17  -5  -4 11561.5 1383.06   5
 -17  -5   4 9516.81 1273.97   4
 -17  -5   3 7798.65 1133.90   3
 -17  -5   3 6376.74 963.986  19
 -17   5   3 8327.11 1376.44   8
  17   5  -3 6636.78 1263.52  20
  17   5  -3 7663.46 1210.11  11
  17  -5  -3 7783.99 1136.84   5
 -17  -5   3 6576.63 1048.72   4
 -17  -5   2 59069.5 3145.24   3
 -17   5   2 57322.1 3703.59   8
  17   5  -2 62161.9 3694.89  20
 -17  -5   2 54554.9 2975.56  19
  17   5  -2 57757.8 3338.91  11
 -17  -5   2 56705.7 3267.39   4
  17  -5  -2 61812.4 3299.91   5
 -17  -5   1 25386.5 1993.49   2
 -17  -5   1 28398.2 2079.46   3
  17   5  -1 27240.1 2306.20  20
 -17  -5   1 25121.0 1976.03  19
 -17   5   1 27312.4 2459.27   8
  17   5  -1 27874.8 2286.88   6
  17   5  -1 25653.5 2101.40  11
 -17  -5   1 26490.7 2156.46   4
  17  -5  -1 25757.1 2080.34   5
 -17   5   0 1982.76 809.925   2
 -17  -5   0 1314.48 548.394   3
 -17  -5   0 1428.03 552.445   2
 -17  -5   0 805.342 515.709  19
  17   5   0 1141.81 598.237  20
  17   5   0 1017.95 514.390  11
 -17  -5   0 851.880 482.601   4
  17  -5   0 1837.60 679.051   5
  17   5   0 669.361 416.890   6
 -17   5   0 1181.13 585.163   8
 -17   5  -1 12041.3 1590.70   2
 -17  -5  -1 10711.6 1436.23   2
 -17  -5  -1 13259.5 1389.27   3
 -17   5  -1 13458.3 1611.13   8
  17   5   1 11719.9 1488.33   6
  17   5   1 12020.6 1551.56  20
  17   5   1 13735.9 1527.33  11
 -17  -5  -1 12538.5 1531.07   4
  17  -5   1 11019.2 1363.01   5
  17   5   2 34046.9 2621.45  20
  17   5   2 35310.8 2538.55   6
 -17   5  -2 32049.7 2417.58   8
  17   5   2 29247.5 2159.77  16
 -17   5  -2 32948.5 2715.82   2
 -17  -5  -2 29539.0 2469.99   2
 -17  -5  -2 34965.5 2263.70   3
 -17  -5  -2 32508.0 2538.62   4
  17  -5   2 36402.3 2503.10   5
  17   5   3 21562.8 2090.29  20
 -17  -5  -3 20751.1 1914.98  18
  17   5   3 22010.9 2029.20   6
  17   5   3 17291.6 1688.66  16
 -17  -5  -3 18562.5 1999.29   2
 -17  -5  -3 19987.1 1638.88   3
 -17   5  -3 20864.8 2156.90   2
 -17  -5  -3 19241.4 1978.68   4
  17  -5   3 17080.7 1746.93   5
  17   5   4 776.452 616.513  20
 -17  -5  -4 970.812 558.710  18
  17   5   4 129.274 502.941   6
  17   5   4 562.937 388.095  16
 -17  -5  -4 1504.72 700.113   2
 -17   5  -4 1135.86 626.789   2
  17  -5   4 1081.73 586.524   5
  17   5   5 21866.6 2148.45  20
  17  -5   5 22168.9 2083.83  16
 -17  -5  -5 23309.1 2229.80  18
 -17   5  -5 23399.7 2358.62  18
  17   5   5 22025.4 2121.51   6
  17   5   5 21397.6 2004.57  16
 -17  -5  -5 21698.7 2285.02   2
 -17   5  -5 22706.0 2268.26   2
  17  -5   5 25862.7 2195.48   5
  17   5   6 21681.5 2209.17  20
  17  -5   6 19459.1 2000.47  16
 -17  -5  -6 22337.6 2255.15  18
 -17   5  -6 18287.9 2153.71  18
  17   5   6 25492.9 2316.63   6
  17   5   6 20603.0 2020.50  16
  17  -5   6 21883.0 2110.23   5
 -17  -5  -6 21851.3 2375.34   2
 -17   5  -6 20965.0 2197.45   2
 -17   5  -7 2201.78 783.421  18
 -17  -5  -7 1567.45 787.712  18
  17  -5   7 3496.52 1001.70  16
  17   5   7 2926.58 860.496  16
  17   5   7 2842.09 931.970   6
 -17  -5  -7 4029.39 1087.29   2
 -17   5  -7 2945.54 892.020   2
  17  -5   7 3799.60 924.211   5
  17   7  -8 2297.00 954.133  12
 -17  -7   7 30.9176 449.039   3
 -17   7   7 614.865 585.798   8
  17   7  -7 1267.63 771.792  20
  17  -7  -7 2266.27 974.350  13
  17   7  -7 585.046 558.964  11
  17   7  -7 166.124 581.303  12
  17  -7  -7 1372.21 624.775   5
 -17  -7   7 1582.27 661.990   4
 -17  -7   6 6531.80 1097.29   3
 -17   7   6 8504.21 1571.85   8
  17   7  -6 7005.44 1538.99  20
  17  -7  -6 9362.60 1578.18  13
  17   7  -6 7165.47 1392.79  12
  17   7  -6 5179.93 1176.10  11
  17  -7  -6 6488.57 1140.14   5
 -17  -7   6 6003.44 1074.07   4
 -17  -7   5 11451.1 1441.17   3
 -17   7   5 14046.8 2062.54   8
  17   7  -5 11062.0 1863.98  20
 -17  -7   5 12466.8 1313.19  19
  17  -7  -5 13626.4 1880.27  13
  17   7  -5 12355.5 1766.94  12
  17   7  -5 10806.6 1622.14  11
  17  -7  -5 16042.9 1720.62   5
 -17  -7   5 12118.4 1498.59   4
 -17  -7   4 4479.06 859.383   3
 -17   7   4 4420.54 1260.58   8
 -17  -7   4 3446.40 778.613  19
  17   7  -4 4985.61 1295.74  20
  17  -7  -4 2369.03 845.640  13
  17   7  -4 4714.32 1135.84  11
 -17  -7   4 3230.42 809.781   4
  17  -7  -4 4916.75 966.557   5
 -17  -7   3 4341.95 924.059   3
 -17   7   3 2565.66 969.043   8
  17   7  -3 5147.39 1223.12  20
 -17  -7   3 3762.41 778.926  19
  17  -7  -3 3823.69 957.972  13
  17   7  -3 4823.78 1129.24  11
 -17  -7   3 2760.45 739.951   4
  17  -7  -3 4372.60 949.029   5
 -17  -7   2 21524.1 1949.85   3
 -17   7   2 22625.0 2540.24   8
 -17   7   2 25342.5 2676.88   7
 -17  -7   2 24982.4 1983.69  19
  17   7  -2 26116.6 2625.96  20
  17   7  -2 26915.6 2362.86  11
 -17  -7   2 21986.6 2056.53   4
  17  -7  -2 25783.5 2168.28   5
 -17  -7   1 15834.9 1679.88   3
  17   7  -1 16361.1 2031.60  20
 -17  -7   1 14664.9 1558.98  19
 -17   7   1 17645.3 2314.20   7
  17   7  -1 15308.8 1594.08   6
 -17   7   1 19020.1 2284.44   8
  17   7  -1 15005.4 1714.87  11
 -17  -7   1 14026.5 1654.76   4
  17  -7  -1 15884.8 1704.77   5
 -17  -7   0 518.507 473.373   3
 -17  -7   0 488.858 362.776   2
 -17  -7   0 799.874 564.597  19
  17   7   0 30.0013 537.716  20
 -17   7   0 761.716 773.458   7
 -17   7   0 484.892 587.683   8
  17   7   0 190.873 365.766   6
  17   7   0 762.328 551.848  11
 -17  -7   0 220.529 439.385   4
  17  -7   0 247.018 483.322   5
  17   7   1 5124.24 1175.77  20
 -17   7  -1 7101.47 1530.83   7
  17   7   1 5621.85 1016.76   6
 -17   7  -1 5140.21 1100.33   8
 -17  -7  -1 5709.45 1023.11  19
 -17  -7  -1 4166.36 817.849   3
 -17   7  -1 6174.14 1271.62   2
 -17  -7  -1 4300.88 948.400   2
 -17  -7  -1 4535.88 1044.32   4
  17  -7   1 6692.03 1155.23   5
  17   7   2 15310.3 1947.83  20
 -17  -7  -2 13642.1 1606.61  19
  17   7   2 16213.4 1705.65   6
 -17   7  -2 18812.9 2440.92   7
 -17   7  -2 13521.2 1682.41   8
 -17   7  -2 13930.0 1845.32   2
 -17  -7  -2 15090.6 1762.83   2
 -17  -7  -2 15628.6 1566.43   3
  17  -7   2 15092.5 1696.15   5
  17   7   3 8180.56 1454.88  20
 -17  -7  -3 12688.1 1582.54  19
  17   7   3 11412.0 1438.12   6
  17   7   3 8793.73 1343.56  16
 -17  -7  -3 9295.22 1454.80   2
 -17   7  -3 9496.60 1514.82   2
  17  -7   3 11018.3 1461.03   5
  17   7   4 782.361 632.804  20
 -17  -7  -4 508.059 574.018  19
  17   7   4-734.816 510.334   6
  17   7   4-525.139 557.025  16
  17  -7   4 1227.90 659.152   5
 -17  -7  -4-87.9852 487.437   2
 -17   7  -4 703.150 660.217   2
  17   7   5 9449.62 1441.09  16
  17   7   5 11326.0 1478.70   6
 -17   7  -5 6583.61 1257.42   2
 -17   7  -5 5773.64 1196.04  18
  18   0 -11 81.8824 615.099  17
  18   0 -11-105.895 506.302   9
  18   0 -11-436.764 704.347  11
 -18   0  11 124.346 461.700   4
  18   0 -10 9309.56 1581.96  17
  18   0 -10 9090.84 1486.44   9
 -18   0  10 8584.99 1145.47   8
  18   0 -10 8137.38 1420.42  11
 -18   0  10 9290.89 1420.38   4
 -18   0   9 28950.9 1999.19   3
  18   0  -9 28810.1 2686.44  17
  18   0  -9 26419.6 2404.12  11
 -18   0   9 28944.2 2468.84   4
 -18   0   9 28538.2 2104.74   8
  18   0  -8 23349.6 2318.87  17
 -18   0   8 23027.8 1896.53   8
  18   0  -8 27005.1 2351.91  11
 -18   0   8 26334.1 2228.82   4
  18   0  -7 1255.69 663.911  11
 -18   0   7 212.226 363.311   8
 -18   0   7 2049.57 694.127   4
  18   0  -6 19892.0 1907.71  11
 -18   0   6 19602.7 1756.19   4
 -18   0   6 22392.9 1845.15   8
 -18   0   5 61738.1 3023.97   2
  18   0  -5 70092.4 3642.98  11
 -18   0   5 63716.6 3311.93   4
 -18   0   5 69215.7 3414.78   8
 -18   0   4 33028.1 2142.49   2
  18   0  -4 37592.9 2489.84  11
 -18   0   4 35513.5 2294.11   4
  18   0  -4 34140.4 2352.94   5
 -18   0   4 36415.6 2369.08   8
 -18   0   3 14279.8 1384.29   2
  18   0  -3 18930.0 1692.23  11
 -18   0   3 15923.4 1465.44   4
  18   0  -3 16234.4 1509.18   5
 -18   0   3 15818.1 1508.78   8
 -18   0   2 71767.2 3451.15   2
  18   0  -2 74232.4 3624.90  11
 -18   0   2 75104.0 3472.48   4
  18   0  -2 75104.7 3491.49   5
 -18   0   2 74214.7 3509.87   8
 -18   0   1 48035.8 2761.35   2
  18   0  -1 49030.4 2821.86  11
 -18   0   1 48514.2 2648.05   4
  18   0  -1 50528.1 2693.98   5
 -18   0   1 46462.8 2651.26   8
 -18   0   0 17249.3 1598.27   2
 -18   0   0 17887.1 1546.66   8
  18   0   0 19207.9 1714.59  11
 -18   0   0 15379.2 1419.93   4
  18   0   0 15093.4 1421.58   5
  18   0   1 3952.31 804.230   6
 -18   0  -1 4227.55 785.804   8
 -18   0  -1 3616.35 707.518  18
 -18   0  -1 4665.82 894.236   2
 -18   0  -1 3886.37 725.100   4
  18   0   1 2696.77 645.138   5
 -18   0  -2 42745.9 2479.08   8
  18   0   2 44894.3 2820.25   6
 -18   0  -2 45091.6 2831.56  18
  18   0   2 42266.4 2306.20  16
 -18   0  -2 41287.3 2762.50   2
 -18   0  -2 39133.2 2396.74   4
  18   0   2 43985.8 2585.98   5
 -18   0  -3 63728.4 3136.93   8
  18   0   3 63490.7 3123.22  16
 -18   0  -3 66708.4 3697.55  18
  18   0   3 64197.1 3537.73   6
 -18   0  -3 63552.2 3641.57   2
  18   0   3 69791.0 3380.89   5
 -18   0  -4 673.843 448.800  18
  18   0   4 774.113 522.064   6
  18   0   4 1071.96 491.913  16
 -18   0  -4 2024.50 761.087   2
  18   0   4 1357.43 599.858   5
  18   0   5 51453.1 3269.81   6
  18   0   5 49674.1 2986.91  16
 -18   0  -5 59924.9 3750.72  18
 -18   0  -5 54877.1 3544.32   2
  18   0   5 53098.4 2999.07   5
  18   0   6 42912.8 2986.62   6
  18   0   6 43171.7 2857.40  16
 -18   0  -6 43184.6 3335.03  18
 -18   0  -6 42497.4 3204.63   2
  18   0   6 41546.2 2632.48   5
 -18   0  -7 11736.5 1804.53  18
  18   0   7 13374.2 1575.90  16
  18   0   7 14167.1 1716.55   6
 -18   0  -7 14870.7 1876.49   9
 -18   0  -7 12419.7 1784.38   2
 -18   0  -8-1247.74 910.300  18
  18   0   8 543.204 487.672   6
  18   0   8-148.758 476.214  16
 -18   0  -8-673.620 655.482   2
 -18   0  -8 168.710 555.405   9
 -18   0  -9 7457.94 1505.34   9
 -18  -2  11 1229.97 698.842   4
  18   2 -11 561.965 511.179  17
  18   2 -11 435.678 713.734  20
  18   2 -11 1786.97 838.630  11
  18  -2 -11 210.420 616.357   9
  18   2 -10 7202.42 1580.59  20
  18   2 -10 5491.41 1243.90  17
  18  -2 -10 7486.77 1470.80  17
 -18   2  10 6130.86 1041.09   8
  18   2 -10 7071.15 1427.08  11
 -18  -2  10 7127.46 1218.65   4
 -18   2  10 6937.40 1253.50   4
  18   2  -9 23739.6 2568.48  20
  18   2  -9 25699.8 2480.02  17
  18  -2  -9 31046.5 2830.06  17
 -18  -2   9 25925.0 1965.68   3
 -18   2   9 26424.0 2148.63   8
  18   2  -9 30348.5 2756.20  11
 -18  -2   9 26481.1 2261.76   4
 -18   2   9 29622.8 2594.37   4
 -18  -2   8 18486.8 1833.50   4
 -18   2   8 18554.5 1956.77   4
  18   2  -8 20298.2 2253.72  20
  18   2  -8 21133.1 2229.05  17
  18  -2  -8 17533.3 2061.27  17
 -18   2   8 22188.7 1934.75   8
 -18  -2   8 20215.5 1776.27   8
  18  -2  -8 21034.3 1906.46  11
  18   2  -8 20380.6 2213.88  11
 -18  -2   8 20915.8 1743.93   3
 -18  -2   7 1688.30 601.637   3
  18   2  -7 1049.18 558.754  20
 -18  -2   7 1531.97 538.031   8
 -18   2   7 1607.03 629.142   8
  18   2  -7 2169.85 806.435  11
  18  -2  -7 462.549 436.171  11
 -18  -2   7 804.223 418.460   4
  18  -2  -7 928.857 549.374   5
 -18   2   7 627.429 522.186   4
 -18  -2   6 15459.2 1567.95   4
  18  -2  -6 14313.1 1575.89   5
 -18   2   6 16090.8 1630.16   4
 -18   2   6 15648.1 1557.66   2
 -18  -2   6 15138.5 1448.21   3
  18   2  -6 14930.4 1757.05  20
 -18   2   6 16196.8 1641.45   8
  18  -2  -6 14327.5 1499.55  11
  18   2  -6 14193.4 1695.61  11
 -18  -2   6 14753.7 1513.09   8
 -18  -2   5 72301.8 3585.13   4
  18  -2  -5 75037.3 3750.10   5
 -18   2   5 69769.7 3511.68   4
 -18   2   5 67595.2 3569.60   2
  18   2  -5 65051.7 3765.97  20
 -18   2   5 69778.5 3627.31   8
  18  -2  -5 76587.1 3568.38  11
  18   2  -5 68281.2 3819.57  11
 -18  -2   5 67936.8 3468.10   8
 -18  -2   4 25353.3 1959.50   4
 -18   2   4 25939.5 1941.68   4
  18  -2  -4 27445.8 2071.34   5
 -18   2   4 23706.7 1987.89   2
  18   2  -4 23496.9 2017.63  20
 -18   2   4 24241.3 2036.87   8
  18  -2  -4 26082.6 1933.13  11
  18   2  -4 24823.5 2128.39  11
 -18  -2   4 25486.5 1982.98   8
  18   2  -3 12193.5 1368.17  20
 -18   2   3 11446.8 1351.06   2
 -18  -2   3 11335.4 1215.23   2
 -18   2   3 12285.3 1451.04   8
 -18  -2   3 10816.4 1293.66   8
  18  -2  -3 12619.4 1292.10  11
  18   2  -3 13227.5 1464.13  11
 -18  -2   3 11911.5 1329.80   4
 -18   2   3 13261.8 1287.18   4
  18  -2  -3 14757.8 1507.01   5
  18   2  -3 12389.9 1282.01   5
 -18  -2   2 62969.4 3284.16   4
 -18   2   2 62398.7 2990.62   4
  18  -2  -2 67541.4 3345.59   5
  18   2  -2 58913.7 2958.04   5
  18   2  -2 61122.7 3203.28  20
 -18  -2   2 58756.5 2837.75  18
 -18  -2   2 63675.3 3192.16   2
 -18   2   2 62817.6 3384.89   2
 -18   2   2 68131.9 3435.54   8
  18  -2  -2 68148.2 3239.97  11
  18   2  -2 64392.4 3444.80  11
 -18  -2   2 66923.1 3332.18   8
 -18  -2   1 50247.0 2884.34   4
 -18   2   1 53417.0 2590.22   4
  18  -2  -1 55281.2 2983.75   5
  18   2  -1 49760.3 2595.29   5
  18   2  -1 47627.1 2730.74  20
 -18  -2   1 50270.7 2637.13  18
 -18  -2   1 50865.3 2903.56   2
 -18   2   1 48568.4 2980.45   2
 -18   2   1 51513.7 2900.19   8
  18   2  -1 49341.9 2934.82  11
 -18  -2   1 51140.0 2867.07   8
 -18  -2   0 9468.09 1207.19   2
 -18   2   0 8930.29 1227.46   2
 -18  -2   0 9717.36 1142.40  18
  18   2   0 7722.17 1031.23  20
  18  -2   0 8560.68 1134.53   6
  18   2   0 12041.7 1470.07   6
 -18   2   0 7716.97 1044.96   8
  18   2   0 8985.17 1202.30  11
  18   2   0 8978.44 1028.62   5
 -18  -2   0 8225.99 1127.59   4
  18  -2   0 8673.03 1153.70   5
  18   2   1 1909.09 563.766  20
 -18  -2  -1 2137.93 580.358  18
  18  -2   1 1086.82 453.243   6
  18   2   1 1712.86 595.397   6
 -18   2  -1 1058.71 440.082   8
 -18  -2  -1 2104.95 618.590   4
  18  -2   1 2735.13 688.884   5
  18   2   1 1928.99 519.110   5
 -18  -2  -1 2726.10 741.254   2
 -18   2  -1 1119.11 501.346   2
  18   2   2 39415.0 2417.14  20
  18  -2   2 41660.0 2385.00  16
 -18  -2  -2 42835.9 2743.14  18
  18  -2   2 40599.2 2552.38   6
 -18   2  -2 42151.4 2494.76   8
  18   2   2 37077.0 2693.40   6
  18   2   2 40500.4 2312.03  16
 -18  -2  -2 39211.4 2579.85   4
  18  -2   2 42093.7 2622.36   5
 -18  -2  -2 40449.0 2773.71   2
 -18   2  -2 42402.4 2904.24   2
 -18  -2  -3 60716.8 3607.53   2
 -18   2  -3 62785.3 3646.19   2
  18   2   3 57697.5 3076.41  20
  18  -2   3 57835.9 3056.26  16
 -18  -2  -3 56932.0 3400.94  18
 -18   2  -3 62753.8 3692.63  18
  18  -2   3 61344.6 3238.66   6
  18   2   3 58867.8 3479.99   6
  18   2   3 56435.6 3009.88  16
 -18  -2  -3 58504.2 3338.06   4
  18  -2   3 63783.3 3342.53   5
 -18   2  -3 60269.2 3044.62   8
  18   2   4 450.515 345.013  20
 -18  -2  -4 565.922 441.692  18
 -18   2  -4 1518.13 752.832  18
  18  -2   4 31.5513 354.248   6
  18   2   4 744.768 545.631   6
  18  -2   4 1339.70 464.227  16
  18   2   4 711.661 414.022  16
 -18  -2  -4 188.116 405.588   4
  18  -2   4 472.670 410.992   5
 -18  -2  -4 168.173 486.578   2
 -18   2  -4 372.888 455.162   2
  18  -2   5 33885.9 2479.40  16
 -18  -2  -5 36845.8 2938.45  18
 -18   2  -5 37412.9 3026.61  18
  18  -2   5 39418.3 2636.77   6
  18   2   5 41530.6 2956.67   6
  18   2   5 37970.6 2534.93  16
  18  -2   5 37437.1 2641.45   5
 -18  -2  -5 40359.3 3050.25   2
 -18   2  -5 41929.1 3068.11   2
  18  -2   6 39498.9 2780.21  16
 -18  -2  -6 39428.9 3153.48  18
 -18   2  -6 41326.8 3286.71  18
  18  -2   6 40871.3 2770.00   6
  18   2   6 43252.5 3118.72   6
  18   2   6 42160.7 2795.44  16
  18  -2   6 41999.1 2853.66   5
 -18  -2  -6 43102.5 3256.02   2
 -18   2  -6 42020.2 3250.78   2
 -18  -2  -7 8337.70 1567.82  18
 -18   2  -7 10335.0 1636.41  18
  18  -2   7 9639.55 1326.55   6
  18   2   7 11287.8 1662.23   6
 -18   2  -7 11432.7 1681.25  15
  18  -2   7 9767.42 1416.38  16
  18   2   7 9201.79 1336.97  16
  18  -2   7 9337.18 1356.77   5
 -18  -2  -7 10527.1 1619.13   2
 -18   2  -7 10926.1 1683.54   2
 -18   2  -8 118.513 582.851   9
 -18  -2  -8 239.277 633.842  18
 -18   2  -8-120.659 618.429  18
  18  -2   8-227.130 489.391   6
  18   2   8 594.829 719.114   6
  18  -2   8-48.4867 517.251  16
  18   2   8 98.5709 400.022  16
 -18   2  -8-751.320 611.998  15
 -18  -2  -8 271.691 568.833   2
 -18   2  -8-118.093 476.291   2
  18  -2   8-80.3416 508.797   5
  18  -4 -10 6846.91 1461.54  17
 -18   4  10 6958.04 1195.30   8
  18   4 -10 5573.12 1556.05  20
  18  -4 -10 5304.58 1096.22   5
 -18   4  10 5055.78 1140.40   4
 -18  -4  10 6316.73 1118.31   4
 -18  -4  10 5558.60 975.703   3
 -18  -4   9 15635.5 1615.19   3
 -18   4   9 16143.9 1842.65   8
  18   4  -9 19010.0 2459.09  20
  18   4  -9 19599.7 2293.00  11
 -18  -4   9 19866.2 1926.68   4
  18  -4  -9 20919.8 2114.00   5
 -18   4   9 17555.3 2077.57   4
 -18  -4   8 15370.2 1582.47   3
 -18   4   8 17897.4 1888.71   8
  18   4  -8 13921.5 2043.49  20
  18   4  -8 13376.7 1901.33  11
 -18  -4   8 13954.0 1584.13   4
  18  -4  -8 16337.9 1814.45   5
 -18   4   8 16481.6 1871.33   4
 -18  -4   7 851.918 530.603   3
 -18   4   7 542.498 574.522   8
  18   4  -7 289.985 511.658  20
  18   4  -7 293.928 560.685  11
  18  -4  -7 65.3867 429.661   5
 -18   4   7 421.707 440.581   4
 -18  -4   7 609.827 503.715   4
 -18  -4   6 11587.7 1334.40   3
 -18   4   6 11844.0 1548.38   8
  18   4  -6 9187.88 1615.03  20
  18   4  -6 9899.60 1557.62  11
 -18   4   6 11140.6 1377.88   4
  18  -4  -6 13729.4 1556.24   5
 -18  -4   6 12098.9 1425.40   4
 -18  -4   5 40289.6 2562.40   3
 -18   4   5 39690.0 2930.93   8
 -18  -4   5 40382.1 2316.37  19
  18   4  -5 38356.7 3109.29  20
  18   4  -5 44383.5 3118.78  11
 -18  -4   5 37035.9 2583.57   4
  18  -4  -5 40788.4 2694.65   5
 -18   4   5 40894.2 2571.69   4
 -18  -4   4 18347.2 1661.63   3
 -18  -4   4 17623.0 1530.92  19
  18   4  -4 17630.8 2028.01  20
 -18   4   4 18735.3 1980.19   8
  18   4  -4 17913.8 1915.94  11
 -18  -4   4 19047.6 1779.74   4
  18  -4  -4 20488.5 1822.67   5
 -18   4   4 20367.7 1683.34   4
 -18  -4   3 7441.44 1075.24   3
 -18  -4   3 8588.08 1085.39  19
 -18   4   3 7739.22 1271.56   8
  18   4  -3 8218.56 1286.07  20
  18   4  -3 8064.29 1281.84  11
  18  -4  -3 7237.36 1138.67   5
 -18  -4   3 9197.81 1266.33   4
 -18   4   2 44987.6 3142.38   2
 -18  -4   2 48173.4 2764.93   2
 -18  -4   2 47429.7 2734.44   3
 -18   4   2 44240.0 3099.46   8
  18   4  -2 46679.5 3074.01  20
  18   4  -2 45036.5 2919.07  11
 -18  -4   2 48656.3 2951.53   4
  18  -4  -2 49145.9 2923.51   5
 -18   4   1 30788.6 2557.62   2
 -18  -4   1 34201.8 2403.82   2
 -18  -4   1 36708.7 2356.85   3
 -18   4   1 32580.9 2573.36   8
  18   4  -1 33565.0 2581.16   6
  18   4  -1 34254.4 2517.52  20
  18   4  -1 32843.6 2463.48  11
 -18  -4   1 34876.2 2484.67   4
  18  -4  -1 33448.9 2386.26   5
 -18  -4   0 10298.0 1201.47   3
 -18  -4   0 9249.52 1250.10   2
 -18   4   0 7849.13 1271.90   2
  18   4   0 11445.5 1480.69   6
  18  -4   0 9495.82 1129.30   6
 -18   4   0 6823.27 1156.89   8
  18   4   0 8591.90 1231.95  20
  18   4   0 9940.24 1335.65  11
 -18  -4   0 7724.50 1196.51   4
  18  -4   0 7808.12 1148.06   5
 -18  -4  -1 1801.23 557.647   3
 -18  -4  -1 2128.92 667.075   2
 -18   4  -1 2286.22 754.595   2
  18   4   1 2562.26 747.154  20
  18   4   1 2308.38 740.319   6
 -18   4  -1 2805.10 710.322   8
  18   4   1 2996.79 781.042  11
 -18  -4  -1 3255.81 774.879   4
  18  -4   1 2858.44 760.273   5
  18   4   2 28171.5 2266.16  20
 -18  -4  -2 28555.2 2245.81  18
  18   4   2 28997.8 2346.03   6
 -18   4  -2 29198.2 2201.93   8
 -18  -4  -2 27318.9 2372.07   2
 -18  -4  -2 29223.1 2071.98   3
 -18   4  -2 26505.9 2384.27   2
 -18  -4  -2 26527.5 2283.57   4
  18  -4   2 32826.2 2365.78   5
  18   4   3 36567.7 2659.27  20
  18  -4   3 36916.1 2518.90  16
 -18  -4  -3 38292.5 2760.70  18
  18   4   3 39663.0 2802.06   6
  18   4   3 38315.8 2511.86  16
 -18  -4  -3 39908.7 2959.20   2
 -18  -4  -3 40053.0 2415.49   3
 -18   4  -3 36615.0 2885.35   2
 -18  -4  -3 35624.8 2691.39   4
  18  -4   3 39959.5 2668.94   5
  18   4   4 572.688 550.088  20
 -18  -4  -4 314.362 464.938  18
 -18   4  -4 479.322 527.573  18
  18   4   4 473.656 462.399   6
  18  -4   4 1077.04 569.128  16
  18   4   4 197.991 362.860  16
 -18  -4  -4 977.112 626.742   2
 -18   4  -4 1182.08 674.178   2
  18  -4   4 998.953 619.666   5
  18   4   5 28976.3 2424.28  20
 -18  -4  -5 29969.9 2608.96  18
  18  -4   5 27527.2 2315.30  16
 -18   4  -5 33350.8 2842.18  18
  18   4   5 28392.7 2460.71   6
  18   4   5 27747.2 2242.58  16
  18  -4   5 27962.8 2311.15   5
 -18  -4  -5 23227.6 2368.12   2
 -18   4  -5 27786.4 2568.69   2
 -18  -4  -6 25012.5 2516.03  18
  18  -4   6 25106.9 2315.69  16
 -18   4  -6 26692.9 2624.50  18
  18   4   6 31302.6 2682.00   6
  18   4   6 28121.0 2345.93  16
  18  -4   6 28897.7 2418.20   5
 -18  -4  -6 27333.4 2646.13   2
 -18   4  -6 27550.3 2626.72   2
 -18  -4  -7 9485.51 1588.63  18
 -18   4  -7 7067.93 1378.77  18
  18  -4   7 6313.00 1187.97  16
  18   4   7 7560.23 1285.41  16
  18   4   7 6799.60 1293.66   6
  18  -4   7 6548.77 1199.50   5
 -18  -4  -7 7889.08 1499.32   2
 -18   4  -7 8317.28 1397.01   2
 -18   6   8 7101.07 1380.02   8
  18  -6  -8 7279.59 1249.10   5
 -18  -6   8 6718.93 1172.61   4
 -18  -6   8 5641.69 1012.74   3
 -18  -6   7-399.407 506.096   3
 -18   6   7 414.067 554.334   8
  18   6  -7-41.4690 568.840  20
  18   6  -7-100.774 547.046  11
  18  -6  -7 1159.55 640.853   5
 -18  -6   7 447.691 514.165   4
 -18  -6   6 5154.90 959.264   3
 -18   6   6 6123.31 1343.28   8
  18   6  -6 5973.90 1456.39  20
  18   6  -6 4541.35 1150.18  11
  18  -6  -6 6320.87 1135.70   5
 -18  -6   6 6393.63 1088.18   4
 -18  -6   5 21427.9 1944.57   3
 -18   6   5 22914.8 2443.26   8
 -18  -6   5 19615.6 1683.02  19
  18   6  -5 22353.8 2508.99  20
  18   6  -5 22049.1 2371.05  11
 -18  -6   5 20825.5 1979.28   4
  18  -6  -5 26542.8 2192.99   5
 -18  -6   4 9622.61 1300.13   3
 -18   6   4 8835.02 1606.14   8
  18   6  -4 9989.09 1672.98  20
 -18  -6   4 9995.50 1197.35  19
  18   6  -4 11019.7 1617.93  11
  18  -6  -4 8031.91 1276.15   5
 -18  -6   4 7437.88 1183.98   4
 -18  -6   3 3957.71 902.150   3
 -18   6   3 3607.60 1015.97   8
 -18  -6   3 4922.81 910.778  19
  18   6  -3 3856.51 1118.85  20
  18   6  -3 3737.24 968.111  11
 -18  -6   3 5283.80 1032.50   4
  18  -6  -3 4950.05 1011.97   5
 -18  -6   2 22079.6 1964.06   3
 -18   6   2 22748.6 2503.20   8
  18   6  -2 27826.1 2325.49   6
 -18  -6   2 24153.9 1989.24  19
  18   6  -2 22907.0 2388.60  20
  18   6  -2 23996.7 2202.34  11
 -18  -6   2 24758.6 2171.54   4
  18  -6  -2 28275.9 2257.96   5
 -18  -6   1 18564.9 1810.01   3
 -18  -6   1 20377.9 1855.27  19
  18   6  -1 21009.4 2230.88  20
  18   6  -1 20209.1 1963.17   6
 -18   6   1 17205.9 2142.57   8
  18   6  -1 19510.7 1958.35  11
 -18  -6   1 18716.0 1918.58   4
  18  -6  -1 20195.9 1925.02   5
 -18   6   0 4352.76 1073.47   2
 -18  -6   0 4733.22 953.810   3
 -18  -6   0 4581.80 958.222   2
 -18  -6   0 5467.15 990.677  19
  18   6   0 5368.86 1133.86  20
  18   6   0 4890.40 995.989   6
 -18   6   0 4097.91 1027.90   8
  18   6   0 4033.50 919.010  11
 -18  -6   0 3169.40 860.361   4
  18  -6   0 5061.50 946.531   5
  18   6   1 1271.00 684.937  20
 -18   6  -1 686.801 451.463   8
  18   6   1 2420.61 721.180   6
 -18  -6  -1 1095.69 536.643  19
 -18   6  -1 2097.78 877.211   2
 -18  -6  -1 1626.22 613.538   3
 -18  -6  -1 1277.44 552.602   2
 -18  -6  -1 1874.71 710.140   4
  18  -6   1 2742.84 839.135   5
  18   6   2 17406.2 1992.56  20
 -18  -6  -2 18567.9 1884.94  19
 -18   6  -2 17191.3 2060.97   2
 -18  -6  -2 15498.4 1854.10   2
 -18  -6  -2 15715.7 1600.28   3
 -18  -6  -2 13989.3 1749.85   4
  18  -6   2 18909.5 1869.66   5
  18   6   2 16686.4 1799.67   6
 -18   6  -2 17488.1 1882.93   8
  18   6   3 20164.7 2149.65  20
 -18  -6  -3 23420.8 2177.63  19
  18   6   3 21494.1 2054.90   6
 -18  -6  -3 21029.6 2208.66   2
 -18   6  -3 21602.9 2322.82   2
  18  -6   3 24552.4 2171.25   5
  18   6   4 1129.50 659.634  20
 -18  -6  -4 735.061 650.004  19
  18   6   4 1302.13 729.030   6
  18   6   4 328.889 434.094  16
 -18  -6  -4 6.46529 521.325   2
 -18   6  -4 89.8033 543.130   2
  18  -6   4-83.4327 500.969   5
  18   6   5 15852.2 1946.26  20
 -18   6  -5 15668.6 1988.00  18
 -18  -6  -5 13905.5 1718.78  19
  18   6   5 13160.1 1641.05   6
  18   6   5 11417.2 1549.70  16
 -18  -6  -5 15425.3 2004.90   2
 -18   6  -5 13846.0 1799.24   2
  18  -6   5 15845.2 1776.21   5
 -18  -6  -6 17047.8 1988.51  18
 -18  -8   4 2866.81 793.468  19
  18  -8  -4 3914.34 938.629   5
  18   8  -4 3728.19 1012.64  11
 -18  -8   3 1333.93 569.807  19
  18  -8  -3 2406.14 832.872   5
 -18   8   2 11930.5 1950.50   8
 -18  -8   2 10074.5 1371.78   3
 -18  -8   2 9569.45 1293.00  19
 -18  -8   2 11163.0 1525.72   4
  18  -8  -2 11545.4 1495.16   5
 -18   8   1 11800.4 1921.47   8
 -18  -8   1 7752.84 1246.55   3
 -18  -8   1 9596.72 1331.73  19
 -18  -8   1 8391.49 1299.11   4
  18  -8  -1 8160.72 1275.15   5
 -18  -8   0 1380.94 590.067   3
 -18  -8   0 1211.56 517.126  13
  18  -8   0 1794.56 707.455   5
 -18   8   0 2399.52 930.767   8
 -18   8  -1 1421.58 771.909   8
 -18  -8  -1 1112.91 516.307   3
  19   1 -10 3060.28 985.169  17
  19  -1 -10 3078.29 989.397  17
 -19  -1  10 2243.62 662.816   8
 -19   1  10 3677.79 797.113   8
  19   1 -10 2383.17 863.395  11
  19  -1 -10 2465.63 748.931  11
 -19  -1  10 2253.14 831.765   4
 -19   1  10 2258.39 819.204   4
 -19  -1   9 13055.7 1459.16   8
 -19   1   9 13735.6 1499.90   8
  19   1  -9 13782.6 1859.97  17
  19  -1  -9 15067.2 2051.63  17
 -19  -1   9 13252.7 1624.29   4
 -19   1   9 13204.9 1710.27   4
  19   1  -9 15687.1 2016.50  11
  19  -1  -9 14668.3 1763.54  11
 -19  -1   9 14296.3 1461.49   3
 -19  -1   8 10323.1 1313.50   8
 -19   1   8 10910.5 1379.84   8
 -19  -1   8 12852.4 1554.20   4
 -19   1   8 10865.0 1480.41   4
  19   1  -8 11195.1 1630.87  11
  19  -1  -8 11972.4 1541.72  11
 -19  -1   8 12190.0 1326.18   3
 -19  -1   7 2292.42 638.581   8
 -19   1   7 1935.32 668.902   8
 -19  -1   7 1814.30 647.079   4
 -19   1   7 1360.26 620.365   4
  19  -1  -7 3047.61 869.140  11
  19   1  -7 3412.68 929.884  11
 -19  -1   7 2341.01 636.115   3
  19   1  -6 6055.43 1079.10  20
 -19  -1   6 5737.50 968.677   8
 -19   1   6 8051.14 1187.47   8
  19  -1  -6 7344.84 1140.59  11
  19   1  -6 6204.58 1137.02  11
 -19  -1   6 7749.83 1164.64   4
  19  -1  -6 6653.50 1154.06   5
 -19   1   6 6113.75 1033.56   4
 -19  -1   5 44320.3 2807.45   4
 -19   1   5 43904.2 2747.84   4
  19  -1  -5 44969.0 2885.12   5
  19   1  -5 47063.9 2899.10   5
 -19   1   5 46153.2 2730.60   2
  19   1  -5 42850.9 2818.65  20
  19  -1  -5 44523.7 2826.81  11
  19   1  -5 45517.1 3049.35  11
 -19   1   5 43881.3 2843.88   8
 -19  -1   5 47304.5 2836.28   8
 -19  -1   4 27492.4 1945.69   2
 -19   1   4 28024.6 2106.59   2
 -19   1   4 25991.4 2106.04   8
 -19  -1   4 29183.1 2189.81   8
  19  -1  -4 31454.1 2275.55  11
  19   1  -4 29356.6 2329.74  11
 -19  -1   4 26457.2 2074.98   4
 -19   1   4 25225.9 1987.93   4
  19  -1  -4 28711.3 2212.35   5
  19   1  -4 29558.1 2185.77   5
 -19   1   3 1316.81 507.832   4
  19  -1  -3 284.549 438.394   5
  19   1  -3 1119.11 468.020   5
 -19  -1   3 375.423 328.839   4
 -19  -1   3 1409.99 508.494   8
 -19   1   3 609.952 485.922   8
  19  -1  -3 1178.18 570.455  11
  19   1  -3 294.881 557.814  11
 -19  -1   3 1093.10 481.310   2
 -19   1   3 602.590 497.338   2
 -19  -1   2 32038.7 2237.20   2
 -19   1   2 33020.4 2353.13   2
 -19  -1   2 30957.7 2066.02  18
 -19  -1   2 36954.8 2438.54   8
 -19   1   2 34325.2 2384.25   8
  19  -1  -2 39629.7 2529.43  11
  19   1  -2 31398.5 2376.14  11
 -19  -1   2 29570.0 2195.47   4
 -19   1   2 34923.6 2246.62   4
  19  -1  -2 35623.6 2402.50   5
  19   1  -2 33911.0 2240.15   5
 -19  -1   1 50380.2 2907.87   2
 -19   1   1 48923.8 2973.37   2
 -19  -1   1 49373.0 2735.57  18
 -19  -1   1 45391.5 2769.18   8
 -19   1   1 49428.8 2901.54   8
  19  -1  -1 52139.3 2957.14  11
  19   1  -1 51446.4 3042.65  11
 -19  -1   1 53235.5 2964.62   4
 -19   1   1 45732.3 2605.38   4
  19  -1  -1 51221.8 2926.79   5
  19   1  -1 49286.8 2738.75   5
 -19  -1   0 17720.9 1724.13   2
 -19   1   0 17695.0 1750.57   2
 -19  -1   0 16036.3 1549.96  18
 -19   1   0 16941.6 1586.03   8
 -19  -1   0 17225.9 1586.65   8
  19   1   0 18124.0 1817.89   6
  19  -1   0 16755.8 1691.50   6
  19   1   0 16986.9 1690.37  11
 -19  -1   0 13824.3 1446.05   4
 -19   1   0 16845.3 1452.62   4
  19  -1   0 17991.0 1683.84   5
  19   1   0 16386.9 1490.55   5
  19  -1   1 1448.10 571.806   6
  19   1   1 591.432 428.108   6
 -19  -1  -1 1071.48 459.751   8
 -19   1  -1 1364.90 493.059   8
 -19  -1  -1 1716.89 586.585  18
 -19  -1  -1 2192.65 569.842   4
  19  -1   1 1289.07 502.157   5
  19   1   1 1188.55 448.556   5
 -19  -1  -1 2370.51 730.259   2
 -19   1  -1 283.154 471.942   2
 -19   1  -2 49198.2 2761.40   8
 -19  -1  -2 48357.0 3008.99  18
 -19   1  -2 48721.0 3138.46  18
  19  -1   2 48392.1 2984.00   6
  19   1   2 46469.5 3046.95   6
 -19  -1  -2 43463.4 2770.65   4
  19  -1   2 45893.1 2812.32   5
  19   1   2 44357.7 2622.14   5
 -19  -1  -2 48218.1 3097.52   2
 -19   1  -2 47364.3 3071.88   2
 -19   1  -3 56795.3 3026.81   8
 -19  -1  -3 61222.2 3571.27  18
  19  -1   3 56416.2 3006.57  16
 -19   1  -3 59207.5 3633.62  18
  19  -1   3 55013.4 3274.33   6
  19   1   3 60454.8 3546.14   6
  19   1   3 52759.8 2924.31  16
 -19  -1  -3 54380.7 3159.60   4
  19   1   3 62966.5 3152.32   5
  19  -1   3 62040.1 3320.14   5
 -19  -1  -3 58478.1 3534.16   2
 -19   1  -3 58223.7 3531.15   2
 -19  -1  -4 4273.25 1028.03  18
 -19   1  -4 3558.49 951.917  18
  19  -1   4 4055.73 846.422   6
  19   1   4 4804.29 1008.24   6
  19  -1   4 2929.45 705.146  16
  19   1   4 2893.10 703.762  16
  19  -1   4 5294.77 960.529   5
 -19  -1  -4 3119.06 872.651   2
 -19   1  -4 5188.13 1144.53   2
 -19  -1  -5 7735.37 1399.19  18
 -19   1  -5 6366.70 1265.14  18
  19  -1   5 5623.52 1041.03   6
  19   1   5 6505.47 1219.90   6
  19  -1   5 5631.35 996.224  16
  19   1   5 6089.98 1048.55  16
  19  -1   5 5264.52 987.456   5
 -19  -1  -5 6111.68 1250.93   2
 -19   1  -5 5902.91 1195.99   2
 -19  -1  -6 18189.0 2035.99   9
  19  -1   6 17698.1 1826.39  16
 -19  -1  -6 16721.6 2109.58  18
 -19   1  -6 15342.5 2029.46  18
  19  -1   6 17292.5 1858.43   6
  19   1   6 18241.9 2035.17   6
  19   1   6 16325.0 1725.47  16
 -19   1  -6 17135.1 1971.71  15
  19  -1   6 19384.6 1866.13   5
 -19  -1  -6 18113.5 2156.67   2
 -19   1  -6 15441.2 2003.39   2
 -19  -1  -7 19798.5 2354.28  18
 -19   1  -7 19907.9 2449.95  18
  19   1   7 19543.7 1966.99  16
  19  -1   7 18681.0 1974.67  16
 -19  -1  -7 18313.0 2232.40   2
 -19   1  -7 19296.4 2237.83   2
  19  -1   7 18961.9 1868.36   5
  19  -1   7 22626.2 2119.49   6
  19   1   7 20886.7 2229.81   6
  19  -1   8 5130.27 1092.10  16
  19   1   8 4408.60 1004.73  16
  19  -1   8 3554.27 905.712   6
 -19   1  -8 4763.95 1266.10   9
 -19   1  -8 4757.90 1153.33   2
 -19   3  10 2110.79 720.129   8
  19   3 -10 2491.83 1012.72  20
 -19   3  10 863.383 578.661   4
 -19  -3  10 2090.56 629.854   3
 -19  -3   9 11673.9 1389.95   3
 -19   3   9 13720.0 1626.40   8
  19   3  -9 10433.5 1811.75  20
  19   3  -9 10704.8 1756.87  11
 -19  -3   9 12959.0 1579.61   4
  19  -3  -9 12802.4 1699.32   5
 -19   3   9 10776.2 1634.22   4
 -19  -3   8 8093.34 1150.05   3
 -19   3   8 6014.36 1122.48   8
  19   3  -8 8772.22 1573.84  20
  19   3  -8 7114.10 1429.57  11
  19  -3  -8 8353.97 1363.84   5
 -19   3   8 6282.76 1219.52   4
 -19  -3   8 8506.02 1300.29   4
 -19  -3   7 570.228 502.716   3
 -19   3   7 1574.12 661.808   8
  19   3  -7 1040.92 635.218  20
  19   3  -7 2502.97 923.669  11
  19  -3  -7 1676.37 667.345   5
 -19   3   7 2134.33 722.606   4
 -19  -3   7 772.309 558.029   4
 -19   3   6 4170.45 976.392   2
 -19  -3   6 5807.38 984.790   3
 -19   3   6 5429.65 1084.72   8
  19   3  -6 4502.38 1078.21  20
  19   3  -6 4583.71 1090.86  11
  19  -3  -6 5688.52 1057.75   5
 -19   3   6 6056.33 1058.97   4
 -19  -3   6 4473.43 936.379   4
 -19   3   5 32655.0 2637.06   2
 -19  -3   5 40732.2 2523.21   3
 -19   3   5 37036.9 2718.22   8
  19   3  -5 39135.5 3009.28  20
  19   3  -5 38210.0 2908.80  11
 -19  -3   5 35146.8 2511.82   4
  19  -3  -5 44203.5 2876.39   5
 -19   3   5 36865.2 2481.77   4
 -19   3   4 18742.8 1934.63   2
 -19  -3   4 17425.2 1609.26   3
 -19   3   4 17599.9 1861.06   8
  19   3  -4 16187.7 1797.58  20
  19  -3  -4 18944.2 1622.56  11
  19   3  -4 20587.8 2025.62  11
 -19  -3   4 18237.1 1831.12   4
  19  -3  -4 17460.3 1774.83   5
 -19   3   4 16993.2 1563.54   4
  19   3  -4 18839.8 1688.15   5
 -19  -3   3 423.547 424.528   3
 -19   3   3 912.541 557.122   2
 -19   3   3 422.722 438.654   8
  19   3  -3 1498.78 596.840  20
  19   3  -3 790.060 578.937  11
  19  -3  -3 883.059 572.613   5
 -19   3   3-32.3836 291.279   4
  19   3  -3 127.275 275.727   5
 -19  -3   3 559.323 377.609   4
 -19   3   2 24801.2 2246.57   2
 -19  -3   2 27087.7 2074.69   2
 -19   3   2 26127.4 2225.39   8
  19   3  -2 26459.8 2145.45  20
  19   3  -2 26366.1 2227.04  11
 -19  -3   2 29812.7 2249.73   4
  19  -3  -2 26949.3 2138.91   5
  19   3  -2 26455.9 1856.55   5
 -19  -3   1 39067.7 2628.68   2
 -19   3   1 40314.2 2865.56   2
 -19   3   1 44053.0 2846.97   8
  19   3  -1 36640.9 2544.87  20
  19   3  -1 40004.3 2736.05  11
 -19  -3   1 37418.0 2619.97   4
  19  -3  -1 39132.7 2626.02   5
 -19  -3   0 11535.1 1423.01   2
 -19   3   0 11515.4 1541.85   2
  19   3   0 11841.5 1385.99  20
  19   3   0 11772.3 1500.87   6
  19  -3   0 12048.4 1379.60   6
 -19   3   0 11136.8 1366.77   8
  19   3   0 10655.4 1399.34  11
  19  -3   0 13293.5 1514.64   5
 -19  -3   0 10965.8 1400.57   4
  19   3   1 455.524 436.747  20
  19  -3   1 561.364 421.040   6
  19   3   1 2020.01 705.871   6
 -19   3  -1 1354.41 585.407   8
 -19  -3  -1 560.675 426.988  18
 -19  -3  -1 155.985 481.277   2
 -19   3  -1-389.637 522.202   2
 -19  -3  -1 739.734 488.693   4
  19  -3   1 485.914 446.024   5
  19   3   2 38718.6 2611.22  20
  19  -3   2 41424.2 2578.50   6
  19   3   2 42289.5 2981.24   6
 -19   3  -2 38892.2 2557.02   8
 -19  -3  -2 38768.4 2697.35  18
 -19  -3  -2 40700.2 2910.93   2
 -19   3  -2 38727.2 2960.56   2
 -19  -3  -2 38423.3 2722.32   4
  19  -3   2 43778.8 2815.35   5
  19   3   3 42866.2 2758.82  20
 -19  -3  -3 41562.7 2933.32  18
  19  -3   3 41926.7 2651.41  16
 -19   3  -3 43234.2 3197.21  18
  19  -3   3 41009.1 2609.16   6
  19   3   3 42370.8 2987.99   6
 -19  -3  -3 40471.6 3046.16   2
 -19   3  -3 42390.3 3140.32   2
 -19  -3  -3 37125.9 2763.47   4
  19  -3   3 41674.1 2794.23   5
  19   3   4 2428.59 688.140  20
 -19  -3  -4 4325.87 1011.37  18
 -19   3  -4 2358.66 826.711  18
  19  -3   4 3073.05 728.209   6
  19   3   4 1731.04 537.963   6
  19  -3   4 1414.75 575.386  16
  19   3   4 1668.89 593.774  16
 -19  -3  -4 2970.77 897.976   2
 -19   3  -4 1358.05 635.093   2
  19  -3   4 1676.80 607.003   5
  19   3   5 2759.28 783.123  20
 -19  -3  -5 3312.47 988.519  18
 -19   3  -5 3363.34 1000.27  18
  19  -3   5 4402.65 918.136   6
  19   3   5 3731.94 971.922   6
  19  -3   5 3339.06 849.690  16
  19   3   5 4206.66 879.291  16
  19  -3   5 3947.27 929.640   5
 -19  -3  -5 3669.33 1057.92   2
 -19   3  -5 4866.59 1159.44   2
 -19  -3  -6 15079.1 1992.78  18
 -19   3  -6 12842.8 1846.25  18
  19  -3   6 14525.8 1701.47  16
  19   3   6 15866.1 1921.55   6
  19   3   6 13244.7 1574.94  16
  19  -3   6 17455.4 1868.42   5
 -19  -3  -6 12842.1 1862.41   2
 -19   3  -6 12865.9 1815.96   2
 -19  -3  -7 12924.0 1860.92  18
 -19   3  -7 13951.1 1970.65  18
 -19   3  -7 11233.1 1782.85  15
  19   3   7 14901.7 1697.14  16
  19  -3   7 13780.0 1757.05  16
  19   3   7 13099.5 1823.56   6
  19  -3   7 11002.8 1483.86   5
 -19  -3  -7 17148.3 2179.73   2
 -19   3  -7 11465.1 1756.63   2
 -19  -5   8 5878.17 1041.39   3
 -19   5   8 5678.64 1195.18   8
  19   5  -8 4515.86 1311.86  20
  19   5  -8 4459.63 1218.57  11
  19  -5  -8 7586.54 1287.61   5
 -19   5   8 6726.20 1233.06   4
 -19  -5   8 5998.62 1132.79   4
 -19  -5   7 1126.99 600.514   3
 -19   5   7 610.549 620.109   8
  19   5  -7 563.169 651.745  20
  19   5  -7 1746.60 862.721  11
  19  -5  -7 778.648 575.789   5
 -19   5   7 237.167 438.219   4
 -19  -5   7-237.712 501.535   4
 -19  -5   6 3446.41 822.819   3
 -19   5   6 3521.40 1010.19   8
  19   5  -6 3570.66 1087.19  20
  19   5  -6 3690.48 1052.47  11
  19  -5  -6 3320.44 857.061   5
 -19  -5   6 2526.59 715.566   4
 -19  -5   5 21555.3 1929.35   3
 -19   5   5 16423.2 2044.13   8
 -19  -5   5 21951.3 1753.21  19
  19   5  -5 20139.0 2346.98  20
  19   5  -5 22439.2 2336.96  11
 -19  -5   5 21310.3 2022.02   4
  19  -5  -5 25316.0 2196.79   5
 -19  -5   4 13367.0 1501.26   3
  19   5  -4 14388.6 1918.86  20
 -19  -5   4 11603.2 1313.12  19
 -19   5   4 12529.2 1811.10   8
  19   5  -4 15729.8 1909.29  11
  19  -5  -4 14995.6 1630.30   5
 -19  -5   4 14591.5 1648.26   4
 -19  -5   3 759.478 555.794   3
 -19  -5   3 268.833 339.168  19
 -19   5   3 373.770 467.088   8
  19   5  -3 491.445 562.145  20
  19   5  -3-274.147 546.407  11
  19  -5  -3 295.499 475.517   5
 -19  -5   3 1593.80 734.429   4
 -19   5   2 16340.9 2009.41   2
 -19  -5   2 16076.0 1670.03   3
  19   5  -2 17232.6 1907.87   6
 -19   5   2 13957.8 1887.92   8
  19   5  -2 16765.4 1920.87  20
 -19  -5   2 14370.2 1523.99  19
  19   5  -2 16054.6 1777.98  11
  19  -5  -2 16116.3 1725.64   5
 -19  -5   2 11709.1 1493.91   4
 -19   5   1 23984.8 2437.77   2
 -19  -5   1 21862.5 1981.15   2
 -19  -5   1 23938.4 2038.40   3
  19   5  -1 20643.4 2105.72  20
 -19  -5   1 23715.2 2026.90  19
 -19   5   1 24481.7 2428.58   8
  19   5  -1 23627.2 2257.93   6
  19   5  -1 24609.5 2174.49  11
 -19  -5   1 19035.0 1947.63   4
  19  -5  -1 26513.9 2175.74   5
 -19  -5   0 7385.47 1121.13   3
 -19  -5   0 8384.73 1230.97   2
 -19   5   0 8520.51 1476.01   2
 -19  -5   0 9989.89 1363.95  19
  19   5   0 9178.75 1399.81   6
 -19   5   0 11453.4 1576.88   8
  19   5   0 8004.24 1331.54  20
  19   5   0 8720.19 1302.79  11
 -19  -5   0 9341.86 1386.99   4
  19  -5   0 9644.30 1367.91   5
  19   5   1 1541.81 650.190  20
 -19  -5  -1 963.418 572.195   3
 -19  -5  -1 1085.12 555.566   2
 -19   5  -1 296.210 584.570   2
 -19  -5  -1 326.637 493.594   4
  19  -5   1 356.423 502.861   5
 -19   5  -1 691.834 452.897   8
  19   5   1 862.032 545.931   6
  19   5   2 20844.8 2118.81  20
 -19  -5  -2 21358.5 2196.53   2
 -19  -5  -2 20561.9 1807.22   3
 -19   5  -2 18748.1 2129.27   2
 -19  -5  -2 19839.8 2064.05   4
  19  -5   2 22327.1 2055.72   5
  19   5   2 23596.9 2189.50   6
 -19   5  -2 18931.4 1899.70   8
  19   5   3 24413.3 2308.22  20
  19   5   3 28528.2 2449.22   6
 -19  -5  -3 26459.8 2497.70   2
 -19   5  -3 29329.5 2701.56   2
 -19  -5  -3 22547.0 2237.89   4
  19  -5   3 25250.2 2229.85   5
  19   5   4 1200.29 637.726  20
 -19  -5  -4 1082.90 555.336  18
 -19   5  -4 1818.12 836.437  18
  19   5   4 2613.89 817.604   6
  19   5   4 1505.03 590.455  16
 -19  -5  -4 1698.39 771.330   2
 -19   5  -4 2495.48 943.806   2
  19  -5   4 2112.96 757.861   5
  19   5   5 3376.85 946.387  20
 -19  -5  -5 2471.91 868.181  18
 -19   5  -5 2842.73 933.011  18
  19   5   5 4080.49 1026.78   6
  19   5   5 3029.11 873.723  16
  19  -5   5 2863.67 813.668   5
 -19  -5  -5 2291.30 827.196   2
 -19   5  -5 3315.32 1016.23   2
  19  -5   6 6809.93 1256.21  16
  19   5   6 5404.04 1089.95  16
 -19  -5  -6 8679.67 1466.25  18
 -19  -7   5 8007.23 1133.01  19
  19   7  -5 10379.1 1687.09  11
 -19  -7   5 9942.52 1444.64   4
  19   7  -4 5593.73 1402.62  20
 -19  -7   4 5634.64 967.749  19
 -19   7   4 4897.34 1304.21   8
 -19  -7   4 7050.03 1179.92   3
  19   7  -4 4344.56 1115.04  11
 -19  -7   4 7738.28 1257.90   4
  19  -7  -4 5374.96 1088.50   5
  19   7  -3 528.054 628.149  20
 -19  -7   3 1127.00 568.744  19
 -19   7   3-121.722 576.164   8
 -19  -7   3 505.407 527.494   3
  19   7  -3-583.045 686.569  11
 -19  -7   3 289.322 554.521   4
  19  -7  -3 17.0467 429.180   5
  19   7  -2 6484.31 1379.48  20
 -19  -7   2 8823.21 1230.64  19
 -19   7   2 7064.23 1509.36   8
 -19  -7   2 7345.68 1190.89   3
  19   7  -2 8475.26 1440.10  11
 -19  -7   2 7650.60 1268.65   4
  19  -7  -2 9094.68 1361.83   5
  19   7  -1 12279.5 1828.02  20
 -19  -7   1 11379.3 1453.59  19
 -19  -7   1 10450.6 1429.42   3
 -19   7   1 12636.4 1912.29   8
  19   7  -1 11598.5 1488.04   6
  19   7  -1 9990.69 1488.06  11
 -19  -7   1 9979.51 1474.54   4
  19  -7  -1 11458.1 1516.63   5
  19   7   0 2240.33 926.266  20
 -19  -7   0 4167.21 935.505  19
 -19  -7   0 3490.56 888.000   3
 -19   7   0 5626.14 1240.38   2
 -19   7   0 4491.43 1119.50   8
  19   7   0 3837.67 878.894   6
  19   7   0 4109.86 1002.47  11
 -19  -7   0 4771.10 1155.74   4
  19  -7   0 4306.93 972.802   5
 -19  -7  -1-440.747 469.957  19
 -19  -7  -1 679.382 565.189   3
 -19  -7  -1-209.506 445.804   2
 -19   7  -1 492.387 615.144   2
  19   7   1 42.6034 615.047  20
 -19  -7  -1-237.394 452.322   4
  19  -7   1 406.692 566.627   5
  19   7   1 558.171 569.181   6
 -19   7  -1 243.751 477.305   8
 -19  -7  -2 11207.0 1581.34   2
 -19   7  -2 13497.5 1915.15   2
  19   7   2 12269.3 1522.18   6
  19  -7   2 14735.5 1745.24   5
  19   7   2 12850.7 1844.56  20
  19   7   3 11418.1 1562.69   6
 -20   0  10-325.535 508.601   8
 -20   0  10-1115.83 697.737   4
  20   0 -10 153.116 675.243  17
 -20   0   9 6431.28 1081.57   8
 -20   0   9 6737.49 1289.51   4
  20   0  -9 5338.27 1154.46  11
 -20   0   9 6016.48 1016.19   3
  20   0  -8 12852.0 1691.41  11
 -20   0   8 12583.1 1486.06   8
 -20   0   8 11583.3 1553.89   4
  20   0  -7 6650.36 1205.23  11
 -20   0   7 5146.14 1033.66   8
 -20   0   7 6178.59 1136.41   4
  20   0  -6 2799.73 785.998  11
 -20   0   6 2454.47 744.942   8
 -20   0   6 3192.51 751.277   4
  20   0  -6 2416.31 820.489   5
  20   0  -5 45212.4 3052.30  11
 -20   0   5 43950.7 2816.04   4
  20   0  -5 45522.3 2959.31   5
 -20   0   5 43740.9 2852.03   8
 -20   0   4 53290.5 3008.71   2
 -20   0   4 49162.4 3074.42   8
  20   0  -4 58964.5 3394.63  11
 -20   0   4 49753.1 3026.70   4
  20   0  -4 51544.0 3126.69   5
 -20   0   3 5973.92 1021.73   8
  20   0  -3 4790.19 914.240   5
 -20   0   3 3545.85 771.051   4
  20   0  -3 4586.95 910.226  11
 -20   0   3 4128.89 813.615   2
 -20   0   2 10572.7 1335.39   8
  20   0  -2 10613.5 1385.80  11
 -20   0   2 10082.8 1280.99   2
  20   0  -2 11717.9 1353.38   5
 -20   0   2 8137.73 1154.30   4
 -20   0   1 43698.7 2799.09   2
 -20   0   1 41605.2 2698.28   8
  20   0  -1 37623.8 2650.45  11
 -20   0   1 38599.8 2500.14   4
  20   0  -1 40717.4 2591.80   5
 -20   0   0 41110.5 2615.88   8
  20   0   0 35172.3 2642.51   6
 -20   0   0 42882.2 2748.24  18
 -20   0   0 38466.9 2689.05   2
 -20   0   0 36471.3 2404.83   4
  20   0   0 40439.8 2589.90   5
  20   0   1 3064.72 822.270   6
 -20   0  -1 4121.02 838.258   8
 -20   0  -1 3744.86 923.828  18
 -20   0  -1 3177.87 808.617   2
 -20   0  -1 3479.41 718.486   4
  20   0   1 3868.86 831.375   5
 -20   0  -2 16110.4 1602.47   8
  20   0   2 17277.7 1850.45   6
 -20   0  -2 22051.3 2075.32  18
 -20   0  -2 20010.4 2030.85   2
  20   0   2 18099.3 1703.83   5
 -20   0  -3 47436.2 2837.53   8
 -20   0  -3 53297.4 3478.88  18
 -20   0  -3 53077.4 3494.37   2
  20   0   3 50366.4 2977.19   5
  20   0   3 49583.6 3235.67   6
  20   0   4 22857.6 1937.51  16
 -20   0  -4 23893.8 2404.46  18
  20   0   4 25171.6 2268.56   6
 -20   0  -4 22115.8 2294.45   2
  20   0   4 22842.8 1962.80   5
 -20   0  -5 1506.96 607.098  18
  20   0   5 911.691 662.869   6
  20   0   5 1259.00 553.468  16
 -20   0  -5 1350.51 657.146   2
  20   0   5 1576.57 593.398   5
  20   0   6 8659.97 1332.60  16
 -20   0  -6 10585.5 1720.45  18
 -20   0  -6 9173.74 1599.09   2
  20   0   6 9607.11 1467.21   6
  20   0   7 24870.6 2380.47   6
 -20   0  -7 25772.4 2697.48   2
 -20   0  -7 21565.3 2427.16   9
  20   0   7 26527.9 2354.16  16
 -20   0  -7 23354.4 2665.11  18
 -20   2  10 348.115 456.138   8
 -20  -2   9 6190.86 1025.76   3
  20   2  -9 3609.24 1071.20  20
 -20   2   9 5976.10 1111.01   8
  20   2  -9 3673.96 1178.12  11
 -20  -2   9 5992.52 1169.08   4
  20  -2  -9 6067.90 1235.46   5
 -20   2   9 4602.32 1146.43   4
 -20  -2   8 9140.75 1236.72   3
  20   2  -8 7577.10 1412.97  20
 -20   2   8 8054.52 1270.02   8
  20   2  -8 9943.99 1688.16  11
 -20  -2   8 9475.91 1408.73   4
  20  -2  -8 9729.78 1470.03   5
 -20   2   8 12208.5 1646.37   4
 -20  -2   7 7174.01 1100.04   3
  20   2  -7 7449.58 1370.06  20
 -20  -2   7 5753.08 1060.32   8
 -20   2   7 6550.28 1174.54   8
  20  -2  -7 6546.86 1111.78  11
  20   2  -7 6049.38 1202.42  11
  20  -2  -7 6711.91 1224.42   5
 -20   2   7 6210.11 1141.37   4
 -20  -2   7 7009.98 1193.25   4
 -20  -2   6 3746.74 839.999   3
  20   2  -6 3185.23 914.097  20
 -20  -2   6 4072.98 924.240   8
 -20   2   6 3139.02 840.879   8
  20  -2  -6 3990.99 835.551  11
  20   2  -6 4464.02 1102.40  11
  20  -2  -6 2615.15 780.979   5
 -20   2   6 3816.26 907.099   4
 -20  -2   6 3678.58 877.507   4
 -20  -2   5 38591.0 2675.58   4
 -20   2   5 40438.9 2696.42   4
  20  -2  -5 41262.4 2876.06   5
  20   2  -5 39074.8 2654.54   5
 -20   2   5 37072.1 2685.15   2
  20   2  -5 38478.7 2823.16  20
 -20   2   5 38072.8 2770.58   8
  20  -2  -5 39292.9 2642.13  11
  20   2  -5 40886.8 2992.18  11
 -20  -2   5 36817.8 2635.18   8
 -20  -2   4 43525.1 2828.80   4
 -20   2   4 37791.7 2552.45   4
  20  -2  -4 44804.6 2951.34   5
  20   2  -4 41814.1 2684.76   5
 -20   2   4 41219.8 2844.81   2
  20   2  -4 40621.4 2774.06  20
 -20   2   4 42365.9 2889.03   8
  20  -2  -4 42068.6 2686.58  11
  20   2  -4 39981.8 2910.46  11
 -20  -2   4 38619.9 2717.05   8
 -20  -2   3 5653.43 950.251   2
 -20   2   3 5864.92 1063.48   2
  20   2  -3 4916.60 924.111  20
 -20  -2   3 4264.78 890.757   8
 -20   2   3 5332.72 1047.69   8
  20  -2  -3 5703.49 1006.73  11
  20   2  -3 6675.75 1175.78  11
  20  -2  -3 7751.39 1196.75   5
  20   2  -3 4445.30 853.087   5
 -20  -2   3 4703.42 961.014   4
 -20   2   3 6254.23 975.763   4
 -20  -2   2 13884.0 1548.68   4
 -20   2   2 10026.2 1187.22   4
  20  -2  -2 14332.0 1576.28   5
  20   2  -2 10330.8 1236.65   5
  20   2  -2 11907.5 1383.68  20
 -20  -2   2 10865.5 1334.95   2
 -20   2   2 11744.5 1511.03   2
 -20   2   2 12809.8 1526.12   8
  20   2  -2 9732.46 1386.95  11
 -20  -2   2 12604.6 1470.73   8
  20   2  -1 31658.3 2233.21  20
 -20  -2   1 29027.1 2088.44  18
 -20  -2   1 32208.4 2424.91   2
 -20   2   1 32427.1 2568.93   2
 -20   2   1 34960.5 2493.14   8
  20   2  -1 31656.4 2461.60  11
 -20  -2   1 32084.9 2393.08   4
  20  -2  -1 33590.0 2447.79   5
  20   2  -1 32136.1 2168.76   5
  20   2   0 33367.7 2296.67  20
 -20  -2   0 34643.8 2386.63  18
 -20  -2   0 32545.6 2481.59   2
 -20   2   0 36798.7 2750.20   2
 -20   2   0 32814.5 2414.21   8
  20   2   0 32328.9 2610.84   6
  20  -2   0 35940.0 2552.40   6
  20   2   0 32202.9 2509.88  11
 -20  -2   0 34296.4 2454.49   4
  20  -2   0 34247.1 2481.88   5
  20   2   0 32548.3 2174.27   5
 -20  -2  -1 3923.39 811.871  18
  20   2   1 4974.82 893.757  20
  20  -2   1 3393.53 811.531   6
  20   2   1 3025.97 808.005   6
 -20   2  -1 3290.98 731.825   8
 -20  -2  -1 2474.92 725.812   4
  20  -2   1 3042.67 792.141   5
 -20  -2  -1 3608.92 881.164   2
 -20   2  -1 3241.88 882.882   2
 -20   2  -2 20487.4 1825.11   8
 -20  -2  -2 21194.2 2022.41  18
 -20   2  -2 18400.3 2025.46  18
 -20  -2  -2 22550.7 2167.98   2
 -20   2  -2 22271.6 2227.60   2
 -20  -2  -2 20580.8 1912.02   4
  20  -2   2 21680.5 1949.02   5
  20  -2   2 24052.0 2036.07   6
  20   2   2 20978.7 2125.50   6
 -20  -2  -3 42546.7 3011.57  18
 -20   2  -3 37816.8 3000.22  18
  20  -2   3 37212.3 2625.36   6
  20   2   3 40161.8 2936.95   6
 -20  -2  -3 38472.9 2975.42   2
 -20   2  -3 41946.5 3115.48   2
 -20  -2  -3 31782.8 2522.75   4
  20  -2   3 37420.4 2643.13   5
  20  -2   4 23326.8 2026.61  16
 -20  -2  -4 20960.6 2209.01  18
 -20   2  -4 23621.1 2394.17  18
  20  -2   4 23413.5 2069.35   6
  20   2   4 24148.9 2335.59   6
  20   2   4 23687.4 2016.52  16
 -20  -2  -4 21775.1 2339.25   2
 -20   2  -4 21763.4 2307.87   2
  20  -2   4 23604.4 2098.99   5
 -20  -2  -5 250.293 512.663  18
 -20   2  -5 724.431 693.015  18
  20  -2   5 850.874 431.321   6
  20   2   5 1873.72 800.626   6
  20  -2   5 2426.22 752.356  16
  20   2   5 1139.73 522.599  16
 -20  -2  -5 665.474 686.497   2
 -20   2  -5 2995.87 966.194   2
  20  -2   5 612.669 516.394   5
 -20  -2  -6 8359.31 1499.91  18
 -20   2  -6 11221.7 1791.82  18
  20  -2   6 10453.8 1427.63   6
  20   2   6 10835.0 1647.48   6
  20  -2   6 10975.9 1498.10  16
  20   2   6 7846.89 1260.80  16
 -20  -2  -6 8928.57 1564.47   2
 -20   2  -6 9585.74 1609.61   2
  20  -2   6 9274.84 1383.99   5
  20   2   7 16354.7 1808.42  16
 -20   2  -7 17688.5 2195.22  15
  20  -2   7 18677.9 1919.12   6
  20  -2   7 16698.6 1923.11  16
  20  -2   7 16009.7 1814.41   5
  20   4  -9 5679.78 1443.68  20
 -20  -4   9 3445.12 869.188   3
 -20  -4   8 7363.36 1169.13   3
 -20   4   8 7245.10 1352.47   8
  20   4  -8 6674.15 1480.69  20
  20   4  -8 6778.26 1437.19  11
  20  -4  -8 10571.1 1531.27   5
 -20   4   8 7564.33 1337.18   4
 -20  -4   8 7026.87 1133.24   4
 -20  -4   7 4602.26 974.979   3
 -20   4   7 1975.28 753.784   8
  20   4  -7 3264.19 1070.80  20
  20   4  -7 3764.91 1112.47  11
  20  -4  -7 5127.51 1110.22   5
 -20   4   7 3845.53 939.003   4
 -20  -4   7 5146.36 1053.52   4
 -20   4   6 883.491 593.695   2
 -20  -4   6 1902.14 625.088   3
 -20   4   6 2609.50 792.356   8
  20   4  -6 1870.39 837.996  20
  20   4  -6 1473.17 836.987  11
  20  -4  -6 2117.48 802.843   5
 -20   4   6 493.318 400.528   4
 -20  -4   6 2095.64 720.372   4
 -20   4   5 28492.8 2681.99   2
 -20  -4   5 27024.8 2199.00   3
 -20   4   5 29199.5 2664.57   8
  20   4  -5 27143.3 2651.88  20
  20   4  -5 31206.2 2727.47  11
 -20  -4   5 27274.6 2309.79   4
  20  -4  -5 31296.1 2491.18   5
 -20   4   4 27569.1 2617.46   2
 -20  -4   4 27759.7 2213.30   3
 -20  -4   4 26992.7 2014.31  19
  20   4  -4 26437.7 2543.96  20
 -20   4   4 27192.8 2557.27   8
  20   4  -4 29265.2 2567.28  11
 -20  -4   4 27996.9 2376.05   4
  20  -4  -4 30666.4 2451.23   5
 -20   4   3 3466.63 952.885   2
 -20  -4   3 4143.00 908.630   3
 -20  -4   3 2831.00 733.571  19
 -20   4   3 4183.85 1060.57   8
  20   4  -3 3117.75 895.364  20
  20   4  -3 3715.90 959.990  11
  20  -4  -3 3946.71 931.255   5
 -20  -4   3 1619.08 615.447   4
 -20  -4   2 5643.56 1020.29   3
 -20   4   2 7263.93 1339.59   2
 -20   4   2 5444.50 1156.21   8
  20   4  -2 6161.19 1132.12  20
  20   4  -2 6281.88 1181.45  11
 -20  -4   2 6802.42 1228.48   4
  20  -4  -2 6498.43 1180.02   5
 -20   4   1 20776.7 2234.20   2
 -20  -4   1 24391.2 2128.68   2
 -20  -4   1 21025.1 1876.06   3
 -20   4   1 22483.7 2228.15   8
  20   4  -1 25701.9 2393.40   6
  20   4  -1 21582.6 2080.87  20
  20   4  -1 24012.9 2177.16  11
 -20  -4   1 20548.0 2037.07   4
  20  -4  -1 25515.8 2189.24   5
 -20  -4   0 25480.4 2252.96   2
 -20  -4   0 24930.6 2056.66   3
 -20   4   0 20778.8 2249.75   2
 -20   4   0 20911.8 2096.50   8
  20   4   0 24118.4 2317.54   6
  20   4   0 24607.0 2166.60  20
  20   4   0 19651.8 2020.86  11
 -20  -4   0 24456.9 2243.45   4
  20  -4   0 23017.3 2085.63   5
  20   4   1 1131.05 608.446  20
 -20  -4  -1 2163.61 671.577   3
 -20  -4  -1 2229.13 802.221   2
 -20   4  -1 727.841 476.386   2
 -20  -4  -1 1565.35 687.951   4
  20  -4   1 2219.86 760.143   5
  20   4   1 517.767 493.620   6
 -20   4  -1 2259.16 701.242   8
  20   4   2 11367.5 1513.66  20
 -20   4  -2 9018.96 1295.67   8
  20   4   2 13620.0 1740.88   6
 -20  -4  -2 12672.0 1694.66   2
 -20  -4  -2 13994.2 1485.65   3
 -20   4  -2 10950.2 1708.54   2
 -20  -4  -2 12359.7 1592.53   4
  20  -4   2 13408.1 1607.59   5
  20   4   3 30004.3 2463.60  20
 -20  -4  -3 27201.7 2420.55  18
  20   4   3 30297.2 2624.54   6
 -20  -4  -3 29226.2 2667.52   2
 -20  -4  -3 28579.3 2141.39   3
 -20   4  -3 29518.7 2721.93   2
 -20  -4  -3 22357.7 2216.92   4
  20  -4   3 32029.5 2498.50   5
  20   4   4 13219.9 1641.50  20
 -20  -4  -4 13556.1 1763.20  18
 -20   4  -4 12683.4 1790.71  18
  20   4   4 15718.0 1885.39   6
  20  -4   4 12638.0 1558.35  16
 -20  -4  -4 17336.7 2089.98   2
 -20   4  -4 16060.2 2048.51   2
  20  -4   4 15417.6 1757.35   5
  20   4   5 292.123 488.741  20
 -20  -4  -5 241.404 492.860  18
 -20   4  -5 1013.62 661.557  18
  20   4   5 1269.92 724.324   6
  20  -4   5 825.860 523.782  16
  20   4   5 271.954 425.341  16
 -20  -4  -5 1137.92 716.116   2
 -20   4  -5 439.328 528.225   2
  20  -4   5 97.9476 465.437   5
 -20  -4  -6 4587.85 1187.28  18
  20  -4   6 5987.99 1164.58  16
  20   4   6 4960.04 1050.04  16
  20   6  -6 403.306 627.194  20
  20  -6  -6 2146.44 812.264   5
  20   6  -5 17870.9 2320.05  20
 -20   6   5 14682.4 2084.37   8
 -20  -6   5 16198.7 1736.16   3
  20   6  -5 15578.7 2036.07  11
  20  -6  -5 16854.3 1847.38   5
 -20  -6   5 13960.2 1727.46   4
  20   6  -4 15365.3 2085.95  20
 -20  -6   4 16036.8 1584.64  19
 -20  -6   4 12938.2 1590.68   3
 -20   6   4 14062.9 2039.51   8
  20   6  -4 16641.8 2001.68  11
  20  -6  -4 17864.0 1892.45   5
 -20  -6   4 12663.3 1626.05   4
  20   6  -3 2303.25 922.796  20
 -20  -6   3 2177.26 655.320  19
 -20  -6   3 1657.18 636.623   3
  20   6  -3 1211.90 633.666   6
 -20   6   3 1139.99 685.606   8
  20   6  -3 1692.72 714.091  11
 -20  -6   3 1625.14 696.262   4
  20  -6  -3 1676.67 717.645   5
  20   6  -2 3695.43 1051.88  20
 -20  -6   2 3222.94 800.183  19
 -20   6   2 3481.07 1046.71   2
 -20  -6   2 3894.02 916.106   3
  20   6  -2 2164.56 777.048   6
 -20   6   2 2937.41 1063.91   8
  20   6  -2 3271.43 957.073  11
 -20  -6   2 3213.21 935.103   4
  20  -6  -2 3177.06 847.599   5
  20   6  -1 15130.7 1934.93  20
 -20  -6   1 11851.9 1475.59  19
 -20   6   1 13045.2 1885.11   2
 -20  -6   1 11709.6 1518.65   3
  20   6  -1 10235.9 1510.82   6
 -20   6   1 12418.3 1840.10   8
  20   6  -1 14485.5 1795.29  11
 -20  -6   1 12065.7 1621.68   4
  20  -6  -1 15505.5 1750.50   5
  20   6   0 8585.12 1510.05  20
 -20  -6   0 13139.7 1584.17  19
 -20  -6   0 12815.8 1541.80   3
 -20  -6   0 12921.5 1631.88   2
 -20   6   0 13498.2 1975.35   2
 -20   6   0 10309.2 1656.87   8
  20   6   0 13004.6 1687.03   6
  20   6   0 12082.8 1604.68  11
 -20  -6   0 11206.6 1588.85   4
  20  -6   0 13779.1 1674.21   5
 -20  -6  -1 1230.54 694.775  19
 -20  -6  -1 1343.55 608.330   3
 -20  -6  -1 1039.63 647.487   2
 -20   6  -1 1056.11 746.549   2
 -20   6  -1 1901.24 740.867   8
  20   6   1 1839.99 707.906   6
  20   6   1 579.965 518.092  20
 -20  -6  -1 1140.70 615.139   4
  20  -6   1 1092.10 698.333   5
 -20  -6  -2 7558.65 1285.11  19
  20   6   2 8264.69 1393.23   6
  20   6   2 7187.75 1329.69  20
 -20  -6  -2 6643.29 1109.15   3
 -20  -6  -2 7049.52 1322.43   2
 -20   6  -2 6555.15 1394.16   2
 -20  -6  -2 5888.05 1164.04   4
  20  -6   2 8214.84 1306.17   5
  20   6   3 18058.7 2003.09   6
  20   6   3 15070.0 1935.04  20
 -20  -6  -3 15193.7 1946.36   2
 -21  -1   9 4255.38 939.253   8
 -21   1   9 2655.95 817.884   8
  21  -1  -9 3938.88 984.825  11
  21   1  -9 2708.14 906.112  11
 -21  -1   9 4375.81 899.360   3
 -21  -1   9 5490.57 1165.74   4
  21  -1  -9 3290.10 996.150   5
 -21   1   9 3111.01 1005.33   4
 -21  -1   8 22524.5 1957.48   3
  21  -1  -8 21475.2 2184.92  11
  21   1  -8 24837.4 2500.28  11
 -21  -1   8 20110.9 2086.99   4
 -21   1   8 20427.1 2098.40   4
  21  -1  -8 20525.9 2193.93   5
 -21   1   8 24119.3 2155.11   8
 -21  -1   8 23290.8 2094.30   8
 -21  -1   7 16055.5 1653.82   3
 -21   1   7 20306.8 2015.38   8
 -21  -1   7 17738.8 1824.23   8
  21  -1  -7 16351.9 1797.45  11
  21   1  -7 17101.1 1995.03  11
 -21  -1   7 14581.2 1754.83   4
 -21   1   7 16789.4 1854.17   4
  21  -1  -7 16597.3 1913.55   5
  21  -1  -6 806.600 568.461  11
  21   1  -6 159.779 554.595  11
 -21  -1   6 554.890 516.184   8
 -21   1   6 843.503 529.747   8
  21  -1  -6-189.849 456.313   5
 -21   1   6-242.559 500.684   4
  21   1  -6-551.796 613.229   5
 -21  -1   6-228.085 499.021   4
 -21   1   5 17765.7 1768.84   2
  21  -1  -5 24365.3 2160.18  11
  21   1  -5 22771.7 2224.46  11
 -21  -1   5 21736.5 2035.70   4
 -21   1   5 22093.5 2026.02   4
  21  -1  -5 24124.8 2224.05   5
  21   1  -5 22926.5 2104.17   5
 -21  -1   5 21317.3 2042.58   8
 -21   1   5 19796.5 1987.27   8
 -21   1   4 30138.8 2380.23   2
 -21   1   4 30521.7 2460.76   8
 -21  -1   4 28893.3 2415.61   8
  21  -1  -4 31199.0 2427.70  11
  21   1  -4 32199.0 2584.26  11
 -21  -1   4 25437.9 2207.36   4
 -21   1   4 31336.1 2352.89   4
  21  -1  -4 33271.1 2528.39   5
  21   1  -4 30985.3 2375.70   5
  21  -1  -3 10019.5 1394.41   5
  21   1  -3 12085.6 1427.74   5
 -21  -1   3 11279.9 1409.52   4
 -21   1   3 11028.3 1365.80   4
 -21  -1   3 11334.9 1442.65   8
 -21   1   3 10861.4 1458.20   8
  21  -1  -3 11635.0 1483.44  11
  21   1  -3 13482.7 1670.03  11
 -21  -1   3 10621.1 1333.79   2
 -21   1   3 10669.2 1421.27   2
 -21  -1   2 483.799 455.601  18
  21  -1  -2-99.3696 443.056   5
  21   1  -2 87.6705 382.973   5
 -21  -1   2 17.3061 412.448   4
 -21   1   2-27.0860 363.656   4
 -21  -1   2 21.2391 398.799   8
 -21   1   2 286.494 466.393   8
  21  -1  -2 1576.12 659.131  11
  21   1  -2-17.2101 466.505  11
 -21  -1   2-681.416 577.979   2
 -21   1   2 517.803 497.517   2
 -21  -1   1 26145.4 2192.38   2
 -21   1   1 24461.4 2223.48   2
 -21  -1   1 24273.9 1988.19  18
 -21  -1   1 22199.5 1996.72   8
 -21   1   1 23726.9 2069.12   8
  21   1  -1 26725.7 2318.74  11
 -21  -1   1 20532.6 1919.57   4
 -21   1   1 25381.7 1944.84   4
  21  -1  -1 23303.7 2057.45   5
  21   1  -1 24059.7 1939.29   5
 -21   1   0 56545.6 3302.00   8
 -21  -1   0 61691.9 3426.97   8
 -21  -1   0 57297.5 3321.14  18
 -21  -1   0 58134.5 3486.32   2
 -21   1   0 57864.8 3565.39   2
 -21  -1   0 55353.7 3228.04   4
  21  -1   0 58301.7 3346.72   5
  21   1   0 56232.7 3149.84   5
  21   1   0 57835.3 3588.84   6
  21  -1   0 61612.4 3572.58   6
 -21  -1  -1 8385.00 1289.32  18
 -21   1  -1 9179.86 1423.34  18
 -21  -1  -1 9373.28 1363.17   2
 -21   1  -1 11342.2 1545.16   2
 -21  -1  -1 7674.05 1149.27   4
  21  -1   1 9423.37 1282.22   5
  21   1   1 8317.70 1146.64   5
  21  -1   1 9352.19 1345.28   6
  21   1   1 8694.20 1385.57   6
 -21   1  -1 8658.31 1243.69   8
 -21  -1  -2 11705.0 1547.99  18
 -21   1  -2 11206.5 1621.28  18
 -21  -1  -2 12790.7 1667.18   2
 -21   1  -2 10028.5 1535.96   2
 -21  -1  -2 9695.62 1290.05   4
  21   1   2 10829.9 1307.63   5
  21  -1   2 12317.6 1473.48   5
 -21   1  -2 10390.3 1371.52   8
  21  -1   2 12578.7 1574.77   6
  21   1   2 10936.0 1553.28   6
 -21  -1  -3 34200.5 2792.85  18
 -21   1  -3 35255.7 2927.16  18
 -21  -1  -3 33137.1 2794.81   2
 -21   1  -3 34669.8 2894.53   2
  21  -1   3 36102.5 2585.65   5
  21  -1   3 38227.7 2761.85   6
  21   1   3 33370.1 2737.28   6
 -21  -1  -4 17831.3 2100.30  18
 -21   1  -4 17149.0 2132.10  18
  21  -1   4 15505.5 1779.00   6
  21   1   4 16703.1 1918.82   6
 -21  -1  -4 12976.5 1813.88   2
 -21   1  -4 17688.7 2102.49   2
  21  -1   4 13818.2 1622.77   5
 -21  -1  -5 955.780 599.603  18
 -21   1  -5 1242.71 677.024  18
  21  -1   5 611.313 558.639   6
  21   1   5 87.8089 519.554   6
  21  -1   5 265.888 486.454  16
 -21  -1  -5 1181.91 718.045   2
 -21   1  -5 755.567 623.597   2
  21  -1   5 1236.56 619.565   5
 -21  -1  -6 3085.89 1048.13  18
 -21   1  -6 6658.34 1465.37  18
  21  -1   6 3872.74 945.211  16
  21   1   6 3277.15 878.202  16
 -21  -1  -6 3817.63 1100.64   2
 -21   1  -6 4810.90 1281.46   2
  21  -1   6 3105.97 833.170   6
  21   1   6 5402.03 1193.63   6
  21  -1   6 4802.71 983.483   5
  21   3  -9 4058.20 1186.19  20
 -21  -3   8 15671.6 1670.57   3
 -21   3   8 17434.4 1979.89   8
  21   3  -8 14080.9 2021.91  20
  21   3  -8 16661.5 2113.17  11
  21  -3  -8 17365.0 2007.34   5
 -21   3   8 15843.9 1867.51   4
 -21  -3   8 17919.3 1934.39   4
 -21  -3   7 14355.5 1611.42   3
 -21   3   7 13849.5 1779.26   8
  21   3  -7 16134.1 2047.22  20
  21   3  -7 11570.0 1786.01  11
  21  -3  -7 12656.6 1654.85   5
 -21   3   7 12752.6 1620.36   4
 -21  -3   7 12647.0 1649.01   4
 -21  -3   6-118.894 491.752   3
 -21   3   6 27.6498 524.619   2
 -21   3   6 64.5783 536.022   8
  21   3  -6 1797.97 858.850  20
  21   3  -6 56.6548 614.359  11
  21  -3  -6 1155.57 695.922   5
  21   3  -6-137.676 437.193   5
 -21   3   6 784.346 549.365   4
 -21  -3   6 205.880 452.601   4
 -21  -3   5 16389.6 1672.02   3
 -21   3   5 15716.3 1903.19   2
 -21   3   5 15539.1 1856.24   8
  21   3  -5 17232.1 2011.75  20
  21   3  -5 14233.3 1853.16  11
 -21  -3   5 16899.3 1845.64   4
 -21   3   5 16663.3 1732.18   4
  21  -3  -5 19631.4 2031.34   5
  21   3  -5 14789.9 1678.55   5
 -21  -3   4 23771.6 2017.80   3
 -21   3   4 22793.3 2299.42   2
 -21   3   4 21931.8 2211.94   8
  21   3  -4 23269.1 2220.20  20
  21   3  -4 19623.7 2121.21  11
 -21  -3   4 24644.7 2207.78   4
  21  -3  -4 21852.0 2073.49   5
  21   3  -4 23053.6 1969.28   5
 -21  -3   3 10728.0 1368.15   3
 -21   3   3 9464.35 1467.63   2
 -21   3   3 6497.78 1227.82   8
  21   3  -3 8797.68 1338.77  20
  21   3  -3 9796.46 1442.78  11
  21  -3  -3 10551.1 1448.75   5
 -21  -3   3 8660.51 1340.24   4
 -21  -3   2 233.303 487.832   3
 -21  -3   2 45.8828 328.816   2
 -21   3   2-416.204 577.621   2
 -21   3   2 288.483 532.429   8
  21   3  -2-183.544 428.261  20
  21   3  -2-70.8909 501.478  11
  21  -3  -2 305.564 596.345   5
 -21  -3   2 275.075 440.163   4
 -21  -3   1 17068.5 1826.61   2
 -21   3   1 18363.3 2055.67   2
 -21   3   1 20833.4 2069.42   8
  21   3  -1 16957.9 1966.21   6
  21  -3  -1 19154.0 1874.16   6
  21   3  -1 15180.2 1666.30  20
  21   3  -1 17723.6 1919.36  11
 -21  -3   1 16468.4 1804.92   4
  21  -3  -1 15808.4 1773.36   5
 -21  -3   0 50660.5 3295.30   2
 -21   3   0 49228.8 3480.00   2
 -21   3   0 50172.0 3222.42   8
  21  -3   0 48397.4 3004.02   6
  21   3   0 45661.9 3253.05   6
  21   3   0 44305.9 2918.24  20
  21   3   0 41990.1 3097.88  11
 -21  -3   0 43183.0 3022.89   4
  21  -3   0 50729.8 3186.40   5
  21   3   1 8558.97 1245.68  20
  21   3   1 7544.65 1346.75   6
 -21   3  -1 7130.76 1184.32   8
  21  -3   1 9127.10 1269.10   6
 -21  -3  -1 7584.46 1271.70   2
 -21   3  -1 5518.94 1180.76   2
 -21  -3  -1 5798.72 1106.70   4
  21  -3   1 7862.80 1297.77   5
  21   3   2 8566.08 1259.05  20
 -21   3  -2 8172.07 1199.36   8
  21  -3   2 8034.65 1181.16   6
  21   3   2 8066.25 1343.50   6
 -21  -3  -2 8395.31 1282.50  18
 -21  -3  -2 10518.5 1606.64   2
 -21   3  -2 7768.05 1390.57   2
 -21  -3  -2 8605.05 1322.26   4
  21  -3   2 8957.75 1351.13   5
  21   3   3 23335.8 2107.12  20
 -21  -3  -3 25552.4 2368.59  18
 -21   3  -3 26030.4 2588.50  18
 -21  -3  -3 22336.8 2150.88   4
  21  -3   3 22287.6 2099.29   5
 -21  -3  -3 24247.8 2432.03   2
 -21  -3  -3 24214.1 1990.01   3
 -21   3  -3 28201.8 2711.32   2
  21  -3   3 23548.5 2028.07   6
  21   3   3 28367.7 2536.37   6
 -21  -3  -4 13157.3 1772.02  18
 -21   3  -4 13943.1 1970.64  18
  21   3   4 15134.3 1884.89   6
  21  -3   4 15181.6 1758.74   5
 -21  -3  -4 16024.2 2024.58   2
 -21   3  -4 13719.5 1922.92   2
 -21  -3  -5 344.110 553.513  18
 -21   3  -5 913.601 709.714  18
  21  -3   5 56.3656 453.995  16
  21  -3   5 98.6210 474.062   5
 -21  -3  -5 674.948 644.193   2
 -21   3  -5 696.640 695.927   2
  21   3   5 205.663 503.598   6
  21  -3   6 1279.73 634.081  16
  21   3   6 3484.96 904.622  16
  21   5  -6 213.898 598.521  20
 -21   5   6 388.032 528.321   8
 -21   5   6 727.862 815.199   2
 -21  -5   6-490.950 495.300   3
  21   5  -6-506.159 728.047  11
  21  -5  -6 257.330 561.610   5
 -21  -5   6-256.252 474.009   4
  21   5  -5 9601.35 1688.53  20
 -21   5   5 10226.3 1742.67   8
 -21   5   5 10892.3 1824.93   2
 -21  -5   5 13250.7 1571.73   3
  21   5  -5 10026.2 1639.73  11
  21  -5  -5 11404.3 1547.53   5
 -21  -5   5 10954.7 1548.12   4
  21   5  -4 16890.4 2155.44  20
 -21  -5   4 15354.7 1543.79  19
 -21   5   4 12556.9 1900.89   2
 -21  -5   4 14864.6 1679.25   3
 -21   5   4 13708.6 1982.98   8
  21   5  -4 17963.6 2103.72  11
  21  -5  -4 16441.9 1835.88   5
 -21  -5   4 14211.8 1787.33   4
  21   5  -3 2821.66 997.246  20
 -21  -5   3 5066.47 925.364  19
 -21   5   3 5928.62 1404.22   2
 -21  -5   3 7178.04 1175.26   3
  21   5  -3 3559.76 938.897   6
 -21   5   3 4161.94 1124.42   8
  21   5  -3 5358.96 1200.58  11
 -21  -5   3 4734.65 1021.09   4
  21  -5  -3 5614.98 1156.16   5
  21   5  -2 259.953 502.051  20
 -21  -5   2-275.368 467.701  19
 -21  -5   2 8.10479 422.346   3
 -21   5   2-180.480 512.954   2
  21   5  -2 16.6593 521.793   6
 -21   5   2 410.146 721.106   8
  21   5  -2 408.178 511.559  11
 -21  -5   2 409.545 520.416   4
  21  -5  -2-193.828 570.871   5
  21   5  -1 10917.6 1603.16  20
 -21  -5   1 11972.6 1504.88  19
  21   5  -1 12294.0 1705.59   6
 -21   5   1 9975.88 1635.47   8
 -21  -5   1 12789.8 1558.78   3
 -21   5   1 10107.7 1685.88   2
  21   5  -1 10294.5 1523.45  11
 -21  -5   1 8936.07 1400.58   4
  21  -5  -1 12137.4 1625.27   5
  21   5   0 26807.9 2445.05  20
 -21  -5   0 26288.1 2305.44  19
 -21  -5   0 23798.7 2268.46   2
 -21  -5   0 26816.5 2264.03   3
 -21   5   0 28519.4 2836.11   2
  21   5   0 29278.4 2646.79   6
 -21   5   0 28378.9 2614.92   8
  21   5   0 24327.5 2357.17  11
 -21  -5   0 25854.8 2423.09   4
  21  -5   0 29534.0 2483.14   5
 -21  -5  -1 5157.61 1079.70  19
 -21   5  -1 4652.79 1054.39   8
  21   5   1 6159.13 1250.33   6
  21   5   1 4125.20 1046.38  20
 -21  -5  -1 4506.05 927.276   3
 -21  -5  -1 3878.37 984.685   2
 -21   5  -1 5315.54 1254.15   2
 -21  -5  -1 3793.26 1011.62   4
  21  -5   1 3630.42 899.479   5
  21   5   2 4691.51 1104.15   6
  21   5   2 4747.26 1101.07  20
 -21  -5  -2 4271.19 914.170   3
 -21  -5  -2 4500.54 1117.45   2
 -21   5  -2 4322.36 1106.13   2
 -21  -5  -2 4632.33 1106.00   4
  21  -5   2 4693.90 1066.29   5
  21   5   3 17916.9 2060.22   6
  21   5   3 12900.3 1749.91  20
  21  -5   3 17811.7 1957.11   5
 -21  -5  -3 16501.0 2040.73   2
 -21   5  -3 15932.0 2057.19   2
  21   5   4 11180.1 1667.93  20
  22   0  -9 260.214 578.107  11
 -22   0   8 15909.5 1789.58   8
 -22   0   8 13631.3 1542.92   3
 -22   0   8 13463.7 1775.37   4
  22   0  -8 13665.1 1818.03   5
  22   0  -8 13544.3 1830.62  11
 -22   0   7 14019.3 1715.08   8
  22   0  -7 16018.7 1906.01   5
 -22   0   7 16443.2 1895.88   4
  22   0  -7 14334.2 1842.97  11
 -22   0   6 927.923 518.359   8
 -22   0   6 236.212 429.830   4
  22   0  -6 1501.56 751.778   5
  22   0  -6 1297.38 705.090  11
 -22   0   5 12204.6 1536.28   8
  22   0  -5 10739.2 1595.05  11
  22   0  -5 9589.02 1430.52   5
 -22   0   5 10436.7 1436.64   4
 -22   0   4 22176.8 2163.30   8
  22   0  -4 22088.6 2151.21  11
 -22   0   4 20628.2 2010.05   4
  22   0  -4 20625.7 2011.16   5
 -22   0   4 22475.6 2013.60   2
 -22   0   3 16044.1 1842.78   8
 -22   0   3 18043.3 1849.98   2
  22   0  -3 15934.5 1840.16  11
 -22   0   3 16670.1 1752.46   4
  22   0  -3 18069.8 1882.96   5
 -22   0   2 1627.81 562.949  18
 -22   0   2 2205.29 679.493   2
 -22   0   2 3542.71 937.471   8
  22   0  -2 2448.21 846.534  11
  22   0  -2 879.632 474.387   5
 -22   0   2 3364.87 785.961   4
 -22   0   1 17055.1 1798.69  18
 -22   0   1 18832.5 1955.36   2
  22   0  -1 16581.7 1888.55   6
 -22   0   1 17334.5 1822.59   8
 -22   0   1 17933.0 1753.35   4
  22   0  -1 19200.7 1860.38   5
 -22   0   0 39794.6 2860.76  18
 -22   0   0 40990.3 2976.22   2
  22   0   0 40493.1 2943.89   6
 -22   0   0 34629.3 2629.21   8
  22   0   0 40171.0 2739.43   5
  22   0   1 12960.7 1641.27   6
 -22   0  -1 8755.65 1283.03   8
 -22   0  -1 13804.2 1773.98   2
 -22   0  -1 14980.0 1773.12  18
  22   0   1 12308.7 1474.29   5
 -22   0  -2 1683.45 668.812   8
  22   0   2 974.442 618.441   6
 -22   0  -2 2991.47 899.955   2
 -22   0  -2 1356.13 691.894  18
  22   0   2 1708.17 646.634   5
  22   0   3 18757.1 2013.43   6
 -22   0  -3 18974.0 2195.49   2
 -22   0  -3 19791.4 2229.80  18
  22   0   3 18294.8 1813.87   5
  22   0   4 16438.7 1906.60   6
 -22   0  -4 20208.0 2326.74   2
 -22   0  -4 16902.8 2124.20  18
  22   0   5 8400.58 1390.81   6
 -22   0  -5 7309.33 1480.31   2
 -22   0  -5 7340.44 1539.26  18
 -22   2   8 15499.0 1867.51   8
 -22  -2   8 12529.8 1492.73   3
  22   2  -8 16332.8 2142.73  11
 -22   2   8 13546.7 1783.68   4
 -22   2   7 16730.7 1918.79   8
 -22  -2   7 14945.0 1634.70   3
  22   2  -7 11650.0 1737.77  11
  22  -2  -7 16859.3 1954.22   5
  22   2  -7 15478.1 1877.17   5
 -22   2   7 14442.2 1761.21   4
 -22  -2   7 16535.6 1869.91   4
 -22   2   6 311.702 520.566   8
 -22  -2   6 580.978 450.264   3
  22  -2  -6 616.010 495.494  11
  22   2  -6 170.868 563.143  11
  22  -2  -6 243.438 528.341   5
 -22   2   6 170.152 399.585   4
  22   2  -6 729.346 559.629   5
 -22  -2   6 866.724 593.596   4
 -22   2   5 6154.99 1221.98   8
 -22  -2   5 7198.78 1168.25   3
 -22   2   5 8526.38 1374.11   2
  22  -2  -5 9171.47 1332.48  11
  22   2  -5 6661.56 1352.28  11
 -22   2   5 8823.47 1290.78   4
  22  -2  -5 8390.46 1387.20   5
  22   2  -5 8699.68 1316.47   5
 -22  -2   5 6647.32 1199.91   4
 -22   2   4 20798.6 2172.00   8
 -22   2   4 17512.4 1951.73   2
  22  -2  -4 19732.4 1940.52  11
  22   2  -4 18680.1 2079.92  11
 -22  -2   4 22031.4 2124.58   4
 -22   2   4 19116.3 1850.30   4
  22  -2  -4 21252.5 2138.61   5
  22   2  -4 19141.5 1860.75   5
 -22   2   3 14471.0 1785.16   8
 -22   2   3 17340.1 1940.21   2
  22   2  -3 15834.0 1902.63  11
 -22  -2   3 14558.6 1703.28   4
  22  -2  -3 18727.0 1946.96   5
  22   2  -3 16288.2 1677.18   5
 -22   2   2 1259.50 712.628   8
 -22  -2   2 2042.23 697.020   2
 -22   2   2 1495.09 631.198   2
  22   2  -2 2114.57 746.644  11
  22  -2  -2 2491.55 873.019   5
  22   2  -2 1376.06 574.769   5
 -22  -2   2 371.069 451.974   4
  22   2  -1 11827.1 1664.46   6
  22  -2  -1 13033.8 1655.25   6
 -22   2   1 13276.2 1646.47   8
 -22  -2   1 13552.6 1658.19   2
 -22   2   1 14071.0 1790.74   2
  22   2  -1 13794.3 1699.73  11
 -22  -2   1 14487.9 1678.86   4
  22  -2  -1 14814.1 1693.92   5
 -22  -2   0 41032.0 2993.94   2
 -22   2   0 41586.5 3179.29   2
  22  -2   0 39688.7 2824.77   6
  22   2   0 38097.5 3020.52   6
 -22  -2   0 37821.9 2765.30   4
  22  -2   0 36721.2 2782.05   5
 -22   2   0 39869.5 2846.06   8
  22  -2   1 9111.38 1336.36   6
  22   2   1 10986.0 1559.33   6
 -22   2  -1 9349.49 1355.70   8
 -22  -2  -1 10821.0 1528.59   2
 -22   2  -1 7696.75 1387.83   2
 -22  -2  -1 7634.35 1238.19   4
  22  -2   1 11260.2 1496.98   5
 -22  -2  -1 9972.65 1400.12  18
 -22   2  -1 9515.85 1509.75  18
 -22   2  -2 1209.09 572.727   8
  22  -2   2 1592.24 634.459   6
  22   2   2 1719.12 782.556   6
 -22  -2  -2 1550.49 752.944   2
 -22   2  -2 1290.60 725.695   2
 -22  -2  -2 694.663 453.433   4
  22  -2   2 3035.56 887.358   5
 -22  -2  -2 750.652 510.691  18
 -22   2  -2 1144.64 645.611  18
  22  -2   3 17775.8 1874.59   6
  22   2   3 13393.3 1806.51   6
 -22  -2  -3 14644.9 1914.09   2
 -22   2  -3 16812.3 2112.54   2
  22  -2   3 15485.2 1751.69   5
 -22  -2  -3 15076.1 1891.34  18
 -22   2  -3 17410.7 2182.57  18
  22  -2   4 17169.7 1863.61   6
  22   2   4 18917.7 2124.12   6
 -22  -2  -4 15680.8 2067.76   2
 -22   2  -4 16287.4 2150.34   2
  22  -2   4 16788.2 1850.72   5
 -22   2  -4 17221.1 2167.83  18
 -22  -2  -4 20095.5 2257.52  18
  22  -2   5 5315.57 1084.61   5
  22  -2   5 5826.71 1132.61   6
 -22  -2  -5 4399.92 1134.36  18
  22   4  -7 9322.17 1659.10  20
  22   4  -6 886.664 688.217  20
 -22   4   6 230.221 629.642   8
 -22  -4   6 705.483 549.570   3
 -22   4   6 691.013 607.142   2
  22   4  -6 568.213 600.084  11
  22  -4  -6 679.192 646.415   5
 -22  -4   6 847.760 537.028   4
  22   4  -5 6902.52 1369.88  20
 -22  -4   5 5662.75 1068.87   3
 -22   4   5 5265.23 1250.11   2
 -22   4   5 5810.98 1320.00   8
  22   4  -5 4492.57 1200.29  11
  22  -4  -5 6206.30 1207.65   5
 -22  -4   5 6760.93 1249.13   4
  22   4  -4 13521.5 1813.05  20
 -22  -4   4 11677.6 1378.53  19
 -22  -4   4 13852.1 1639.30   3
 -22   4   4 10796.3 1751.95   2
 -22   4   4 12183.7 1802.23   8
  22   4  -4 13802.6 1832.92  11
  22  -4  -4 14657.3 1844.88   5
 -22  -4   4 16215.0 1900.99   4
  22   4  -3 12173.9 1685.49  20
 -22  -4   3 10552.6 1357.32  19
 -22   4   3 8963.34 1582.12   8
  22  -4  -3 12471.8 1658.51   5
 -22  -4   3 11294.8 1552.13   4
  22   4  -3 11466.1 1646.84  11
 -22  -4   3 13913.2 1620.24   3
 -22   4   3 10929.1 1785.19   2
 -22  -4   2 1090.14 486.830   3
 -22   4   2 2647.92 963.328   2
  22   4  -2 826.564 584.942  20
  22   4  -2 2143.46 967.316   6
 -22   4   2 706.027 622.561   8
  22   4  -2 1036.03 676.420  11
 -22  -4   2 1068.08 571.800   4
  22  -4  -2 1910.85 710.768   5
 -22  -4   1 11118.9 1447.83   3
 -22  -4   1 8961.90 1388.09   2
 -22   4   1 10235.1 1664.72   2
  22   4  -1 11809.8 1584.13  20
  22   4  -1 11549.9 1678.00   6
 -22   4   1 8437.18 1460.00   8
  22   4  -1 9675.96 1465.00  11
 -22  -4   1 12835.3 1656.27   4
  22  -4  -1 13164.3 1657.32   5
 -22   4   0 26210.1 2449.36   8
  22   4   0 26036.9 2522.86   6
  22   4   0 26696.2 2371.19  20
 -22  -4   0 24656.3 2377.23   2
 -22  -4   0 26440.8 2273.34   3
 -22   4   0 27917.8 2741.82   2
 -22  -4   0 23264.4 2288.37   4
  22  -4   0 27190.6 2436.17   5
 -22   4  -1 7153.39 1277.63   8
  22   4   1 7179.80 1333.40   6
  22   4   1 7399.67 1279.47  20
 -22  -4  -1 8601.49 1281.69   3
 -22  -4  -1 7240.85 1379.18   2
 -22   4  -1 8653.27 1554.64   2
 -22  -4  -1 6300.66 1224.12   4
  22  -4   1 7218.42 1260.69   5
  22   4   2 348.668 566.572   6
  22   4   2 1570.66 710.911  20
 -22  -4  -2 266.697 526.580   3
 -22  -4  -2 1166.94 734.207   2
 -22   4  -2 1227.73 720.605   2
 -22  -4  -2 820.625 530.163   4
  22  -4   2 1550.70 655.101   5
  22   4   3 12684.4 1766.25   6
  22   4   3 10124.4 1458.82  20
 -22  -4  -3 9902.16 1496.22   4
  22  -4   3 14296.6 1710.94   5
 -22  -4  -3 10715.6 1680.46   2
 -22   4  -3 10536.9 1717.58   2
  23  -1  -8 9706.35 1563.39  11
 -23  -1   7 18174.5 1967.80   8
 -23   1   7 18222.7 2047.03   8
 -23  -1   7 17113.0 1734.64   3
  23  -1  -7 18432.8 2085.72   5
  23   1  -7 17039.3 1998.28   5
 -23  -1   7 17823.1 2043.50   4
 -23   1   7 17984.9 2053.09   4
  23   1  -7 19546.7 2238.50  11
  23  -1  -7 16807.6 1980.61  11
 -23  -1   6 3718.05 940.276   8
 -23   1   6 5259.46 1123.98   8
 -23   1   6 3273.44 871.803   4
  23  -1  -6 5409.77 1215.44   5
  23   1  -6 2847.62 895.906   5
 -23  -1   6 4140.68 972.292   4
  23  -1  -6 3394.87 982.472  11
  23   1  -6 2107.98 864.772  11
 -23  -1   5 1170.79 693.367   8
 -23   1   5 2168.61 811.900   8
  23  -1  -5 2715.38 832.538  11
  23   1  -5 2191.07 737.430  11
  23  -1  -5 1488.72 655.247   5
  23   1  -5 3276.15 878.774   5
 -23  -1   5 1152.79 622.825   4
 -23   1   5 1494.62 663.404   4
 -23  -1   4 13508.6 1711.95   8
 -23   1   4 14351.5 1808.82   8
  23  -1  -4 16068.3 1845.61  11
  23   1  -4 16552.1 1961.78  11
  23  -1  -4 13732.9 1704.18   5
 -23   1   4 17058.7 1815.46   4
  23   1  -4 16389.3 1809.54   5
 -23  -1   4 11524.6 1552.60   4
 -23   1   4 17078.4 1919.71   2
 -23   1   3 27576.9 2486.36   8
 -23  -1   3 28377.6 2461.04   8
 -23  -1   3 28989.6 2416.18   2
 -23   1   3 27525.6 2440.88   2
  23  -1  -3 31977.6 2625.19  11
  23   1  -3 28186.8 2587.15  11
 -23  -1   3 26575.6 2365.78   4
 -23   1   3 28619.0 2329.17   4
  23  -1  -3 28226.8 2494.16   5
  23   1  -3 28151.0 2340.52   5
 -23  -1   2 6227.20 1137.63   2
 -23   1   2 5455.22 1125.29   2
  23   1  -2 3867.92 1025.62  11
 -23  -1   2 4989.70 1043.27   8
 -23   1   2 6265.44 1198.62   8
  23  -1  -2 5783.45 1131.67   5
  23   1  -2 6783.18 1156.84   5
 -23  -1   2 4907.80 1095.97   4
  23   1  -1 7405.13 1368.42   6
  23  -1  -1 6022.34 1208.47   6
 -23  -1   1 6074.02 1160.04   8
 -23   1   1 6142.79 1152.53   8
 -23  -1   1 7153.83 1212.18   4
  23  -1  -1 8027.17 1279.48   5
  23   1  -1 6643.56 1094.77   5
 -23  -1   1 10554.7 1504.17   2
 -23   1   1 8427.24 1428.98   2
 -23  -1   0 27493.2 2344.13  18
 -23   1   0 32277.2 2678.78  18
 -23  -1   0 28813.9 2566.16   2
 -23   1   0 30019.5 2618.91   2
  23  -1   0 24587.3 2315.76   6
  23   1   0 28767.6 2540.21   6
 -23   1   0 28861.6 2443.24   8
 -23  -1   0 26472.0 2259.67   4
  23  -1   0 28492.6 2394.19   5
  23   1   0 25165.9 2148.07   5
 -23   1  -1 16116.4 1989.98  18
 -23  -1  -1 17638.9 1968.25  18
 -23  -1  -1 19404.8 2150.43   2
 -23   1  -1 18625.9 2143.46   2
  23  -1   1 19420.4 2040.08   6
  23   1   1 18372.9 2058.27   6
 -23   1  -1 15616.2 1796.47   8
  23  -1   1 18398.5 1897.34   5
 -23   1  -2 440.378 451.797   8
  23  -1   2 587.438 560.365   6
  23   1   2 50.9789 470.238   6
 -23  -1  -2 215.957 614.119   2
 -23   1  -2 801.506 647.099   2
 -23  -1  -2 652.430 606.146  18
 -23   1  -2 108.943 528.477  18
  23  -1   2-233.183 541.124   5
  23  -1   3 7391.44 1307.44   6
  23   1   3 6264.00 1250.13   6
 -23  -1  -3 4698.49 1175.06   2
 -23   1  -3 8087.78 1493.71   2
  23  -1   3 5249.21 1045.23   5
 -23  -1  -3 6443.06 1337.32  18
 -23   1  -3 7331.17 1448.11  18
  23  -1   4 18821.7 2069.20   6
 -23  -1  -4 17450.7 2179.36  18
  23  -1   4 17565.4 1864.85   5
  23   3  -6 2200.80 772.101   5
 -23  -3   5 884.671 641.873   3
 -23   3   5 583.224 512.775   2
  23   3  -5 1181.71 671.850  11
  23  -3  -5 335.999 568.357   5
 -23  -3   5 937.410 708.190   4
 -23   3   5 240.797 504.137   8
 -23  -3   4 14544.3 1660.89   3
 -23   3   4 8794.28 1479.26   2
  23   3  -4 13722.0 1856.49  11
  23  -3  -4 14779.5 1857.47   5
 -23  -3   4 10205.2 1551.88   4
 -23   3   4 10939.0 1694.35   8
 -23  -3   3 21644.6 2037.26   3
 -23   3   3 20022.0 2299.04   2
  23   3  -3 20787.6 2240.10  11
 -23  -3   3 18695.5 2034.48   4
  23  -3  -3 24724.8 2379.38   5
 -23   3   3 23026.9 2430.14   8
 -23  -3   2 4971.49 1016.77   3
 -23   3   2 3384.63 948.723   2
  23   3  -2 3805.45 1080.31  11
 -23  -3   2 3181.38 891.340   4
  23  -3  -2 4409.93 1032.67   5
  23   3  -2 5383.46 1258.09   6
  23  -3  -2 3773.29 893.773   6
 -23   3   2 6039.57 1279.87   8
 -23  -3   1 5940.23 1076.92   3
 -23  -3   1 7783.59 1340.41   2
 -23   3   1 4647.09 1203.43   2
  23   3  -1 4179.66 1026.59  11
  23  -3  -1 3785.45 915.118   6
  23   3  -1 6838.49 1386.64   6
 -23   3   1 6429.74 1270.10   8
 -23  -3   1 4540.78 1029.79   4
  23  -3  -1 5273.82 1187.12   5
 -23   3   0 28567.4 2513.73   8
  23  -3   0 25763.8 2259.15   6
  23   3   0 20152.1 2263.96   6
 -23  -3   0 23514.6 2359.57   2
 -23  -3   0 29821.0 2412.53   3
 -23   3   0 24475.6 2567.58   2
 -23  -3   0 18946.7 2048.50   4
  23  -3   0 24314.8 2334.39   5
 -23   3  -1 13397.7 1693.01   8
  23  -3   1 13180.3 1627.38   6
  23   3   1 13408.9 1853.80   6
 -23  -3  -1 9969.42 1509.18   4
  23  -3   1 10883.5 1534.61   5
 -23  -3  -1 13727.7 1603.06   3
 -23  -3  -1 11691.7 1723.74   2
 -23   3  -1 13958.4 1957.51   2
  23   3   2-342.156 609.875   6
 -23  -3  -2 320.373 481.961   4
  23  -3   2 242.983 453.896   5
 -23  -3  -2 1007.35 588.802   3
 -23  -3  -2 23.6670 546.564   2
 -23   3  -2-345.120 579.142   2
 -23   3  -2 1089.87 598.263  18
 -23  -3  -3 5393.65 1122.66   4
 -23  -3  -3 6315.28 1279.48  18
  23   5  -3 13902.2 1863.14  20
 -23  -5   3 12395.7 1532.62  19
  23   5  -2 2081.06 803.309  20
  23   5  -1 5001.99 1139.76  20
  23   5   0 11426.3 1633.20  20
  24   0  -6 9275.39 1539.78  11
  24   0  -6 8322.27 1448.38   5
 -24   0   6 8176.14 1389.65   4
  24   0  -5 742.345 649.158  11
 -24   0   5 1084.64 683.007   8
  24   0  -5 233.765 527.477   5
 -24   0   5 449.288 553.550   4
  24   0  -4 5763.05 1262.82  11
 -24   0   4 5841.39 1204.87   8
  24   0  -4 6782.99 1250.15   5
 -24   0   4 6009.60 1180.98   4
 -24   0   3 18541.4 2005.84   2
 -24   0   3 20427.0 2170.05   8
  24   0  -3 22042.2 2274.61  11
 -24   0   3 17657.7 1962.11   4
  24   0  -3 21524.9 2148.32   5
  24   0  -2 3604.54 1063.47   6
 -24   0   2 3728.40 955.061   8
 -24   0   2 2236.56 800.686   2
  24   0  -2 3427.27 917.126   5
 -24   0   2 3707.40 916.551   4
  24   0  -1 4722.11 1142.43   6
 -24   0   1 5100.55 1025.16   8
  24   0  -1 4478.99 960.119   5
 -24   0   1 2650.88 885.535   2
 -24   0   1 4810.30 1098.06  18
 -24   0   0 17156.9 1992.98  18
 -24   0   0 18288.8 1952.45   8
  24   0   0 18699.3 2120.09   6
  24   0   0 17374.2 1846.31   5
 -24   0   0 19050.7 2159.71   2
 -24   0  -1 11551.5 1562.10   8
  24   0   1 11447.2 1632.35   6
  24   0   1 12365.8 1536.96   5
 -24   0  -1 13048.1 1770.12  18
 -24   0  -1 12032.5 1760.69   2
 -24   0  -2 4574.39 1154.99  18
 -24   0  -2 3082.04 1029.04   2
  24   0   2 3287.84 950.652   6
 -24   2   6 5937.38 1165.61   4
  24  -2  -5-35.9190 514.143  11
  24   2  -5 509.007 634.304  11
  24   2  -5 235.414 517.668   5
 -24  -2   5 500.147 521.831   4
  24  -2  -4 9056.77 1539.20   5
  24   2  -4 3665.73 918.300   5
 -24  -2   4 6931.15 1306.07   4
  24   2  -4 7855.91 1430.03  11
 -24  -2   4 7827.59 1260.87   3
 -24   2   4 6485.55 1277.25   2
 -24   2   4 6012.70 1297.09   8
  24  -2  -3 15266.6 1882.54   5
 -24  -2   3 16104.8 1940.24   4
  24   2  -3 17612.9 2118.63  11
 -24   2   3 15025.7 1959.84   2
 -24   2   3 16584.8 2062.42   8
 -24  -2   2 2643.89 899.094   4
  24  -2  -2 4037.32 1074.76   5
  24   2  -2 4393.00 1101.96  11
  24   2  -2 3089.22 982.506   6
  24  -2  -2 2426.95 891.160   6
 -24   2   2 3211.10 932.145   8
 -24   2   2 4482.30 1021.32   2
  24  -2  -1 3580.91 964.815   6
  24   2  -1 4015.89 1131.51   6
 -24   2   1 3068.74 918.629   8
 -24  -2   1 3003.24 933.560   2
 -24   2   1 5738.47 1244.36   2
 -24  -2   1 4519.94 1044.39   4
  24  -2  -1 3857.93 924.872   5
 -24   2   0 16328.2 2087.31  18
 -24   2   0 17085.2 1971.80   8
  24  -2   0 14886.4 1810.43   6
  24   2   0 16696.1 2044.68   6
 -24  -2   0 14941.9 1790.29   4
  24  -2   0 18117.0 1940.90   5
 -24  -2   0 15867.5 1979.78   2
 -24   2   0 17030.5 2135.20   2
 -24   2  -1 10733.2 1525.85   8
  24  -2   1 9910.35 1511.07   6
  24   2   1 9399.15 1571.83   6
 -24  -2  -1 7863.96 1300.13   4
  24  -2   1 8775.07 1414.11   5
 -24   2  -1 6778.09 1392.40  18
 -24  -2  -1 6222.19 1255.09   2
 -24   2  -1 7517.64 1442.67   2
 -24  -2  -2 5017.83 1142.31  18
  24  -2   2 3724.27 978.433   5
  24  -2   2 3348.99 916.104   6
 -24  -4   3 10707.9 1433.95  19
 -24  -4   0 9122.42 1513.83   2
  25   1  -4 2066.51 689.179   5
  25  -1  -4 2134.55 759.917  11
 -25   1   3 15168.3 1918.58   2
  25   1  -3 14588.3 1778.53   5
 -25  -1   3 16841.1 1960.75   4
  25  -1  -2 11520.8 1659.14   6
 -25   1   2 12921.9 1778.92   8
 -25   1   2 9218.62 1448.80  18
 -25  -1   2 10771.3 1593.13   2
 -25   1   2 10966.4 1655.20   2
 -25  -1   2 12838.6 1682.24   4
  25  -1  -2 13019.2 1715.29   5
  25   1  -2 11227.9 1528.14   5
  25  -1  -1 985.981 666.785   6
 -25   1   1-303.474 627.567   8
 -25   1   1-5.28338 484.317  18
 -25  -1   1 322.063 500.889   2
 -25   1   1 387.668 513.515   2
  25  -1  -1-339.563 683.373   5
  25  -1   0 8271.13 1384.35   6
 -25   1   0 6473.29 1266.30   8
 -25  -1   0 9239.40 1567.26   2
 -25   1   0 7094.79 1345.19  18
  25  -1   0 5523.33 1133.57   5
 -25  -1  -1 15773.1 1989.96  18
 -25   1  -1 18703.9 2063.34   8
   0   0   0    0.00    0.00   0

TITL Mueller01_1_200_00 in C2/m
REM C2/m (#12 in standard setting)
CELL 0.71073  15.168373   6.991456   8.762198  90.0000  97.2703  90.0000
ZERR    2.00   0.000192   0.000102   0.000111   0.0000   0.0012   0.0000
LATT  7
SYMM -x, y,-z
SFAC C H F P Au
UNIT 32.00 24.00 16.00 4.00 4.00
TREF
HKLF 4
END
;
_shelx_hkl_checksum              99229
_olex2_date_sample_data_collection 2019-05-10
_olex2_submission_special_instructions 'No special instructions were received'
_oxdiff_exptl_absorpt_empirical_details
;
Empirical correction (ABSPACK) includes:
- Absorption correction using spherical harmonics
- Frame scaling
- Detector area scaling
;
_oxdiff_exptl_absorpt_empirical_full_max 1.893
_oxdiff_exptl_absorpt_empirical_full_min 0.655
loop_
_space_group_symop_operation_xyz
'x, y, z'
'-x, y, -z'
'x+1/2, y+1/2, z'
'-x+1/2, y+1/2, -z'
'-x, -y, -z'
'x, -y, z'
'-x+1/2, -y+1/2, -z'
'x+1/2, -y+1/2, z'
loop_
_atom_site_label
_atom_site_type_symbol
_atom_site_fract_x
_atom_site_fract_y
_atom_site_fract_z
_atom_site_U_iso_or_equiv
_atom_site_adp_type
_atom_site_occupancy
_atom_site_site_symmetry_order
_atom_site_calc_flag
_atom_site_refinement_flags_posn
_atom_site_refinement_flags_adp
_atom_site_refinement_flags_occupancy
_atom_site_disorder_assembly
_atom_site_disorder_group
Au1 Au 0.54536(2) 0.500000 0.86710(2) 0.02428(3) Uani 1 2 d S T P . .
P1 P 0.40773(4) 0.500000 0.72795(7) 0.02593(11) Uani 1 2 d S T P . .
F1 F 0.78721(11) 0.500000 1.38517(19) 0.0384(4) Uani 1 2 d S T P . .
F2 F 0.92617(10) 0.500000 1.2277(2) 0.0427(4) Uani 1 2 d S T P . .
F3 F 0.90047(11) 0.500000 0.9142(2) 0.0492(5) Uani 1 2 d S T P . .
F4 F 0.73656(11) 0.500000 0.7624(2) 0.0405(4) Uani 1 2 d S T P . .
C1 C 0.66971(15) 0.500000 0.9929(3) 0.0241(4) Uani 1 2 d S T P . .
C2 C 0.68395(14) 0.500000 1.1552(3) 0.0251(4) Uani 1 2 d S T P . .
C3 C 0.77104(16) 0.500000 1.2291(3) 0.0285(4) Uani 1 2 d S T P . .
C4 C 0.84377(15) 0.500000 1.1516(3) 0.0312(5) Uani 1 2 d S T P . .
C5 C 0.83048(16) 0.500000 0.9931(3) 0.0317(5) Uani 1 2 d S T P . .
C6 C 0.74502(15) 0.500000 0.9181(3) 0.0283(4) Uani 1 2 d S T P . .
C7 C 0.38831(13) 0.2960(3) 0.6004(2) 0.0400(4) Uani 1 1 d . . . . .
H7A H 0.434110 0.291805 0.531017 0.060 Uiso 1 1 calc GR . . . .
H7B H 0.329636 0.307675 0.539946 0.060 Uiso 1 1 calc GR . . . .
H7C H 0.390694 0.178173 0.661429 0.060 Uiso 1 1 calc GR . . . .
loop_
_atom_site_aniso_label
_atom_site_aniso_U_11
_atom_site_aniso_U_22
_atom_site_aniso_U_33
_atom_site_aniso_U_23
_atom_site_aniso_U_13
_atom_site_aniso_U_12
Au1 0.01917(4) 0.02929(5) 0.02376(5) 0.000 0.00031(3) 0.000
P1 0.0213(2) 0.0316(3) 0.0240(3) 0.000 -0.00083(19) 0.000
F1 0.0281(7) 0.0534(10) 0.0308(7) 0.000 -0.0077(6) 0.000
F2 0.0200(7) 0.0516(10) 0.0532(10) 0.000 -0.0079(7) 0.000
F3 0.0226(7) 0.0738(14) 0.0529(11) 0.000 0.0118(7) 0.000
F4 0.0287(8) 0.0622(12) 0.0310(8) 0.000 0.0060(6) 0.000
C1 0.0203(9) 0.0252(9) 0.0264(9) 0.000 0.0017(7) 0.000
C2 0.0197(9) 0.0253(9) 0.0295(10) 0.000 -0.0006(7) 0.000
C3 0.0232(10) 0.0288(11) 0.0319(11) 0.000 -0.0032(8) 0.000
C4 0.0174(9) 0.0301(11) 0.0444(14) 0.000 -0.0030(9) 0.000
C5 0.0209(10) 0.0348(12) 0.0400(13) 0.000 0.0062(9) 0.000
C6 0.0230(10) 0.0295(11) 0.0320(11) 0.000 0.0025(8) 0.000
C7 0.0349(9) 0.0463(11) 0.0382(10) -0.0142(8) 0.0020(7) -0.0016(8)
loop_
_atom_type_symbol
_atom_type_description
_atom_type_scat_dispersion_real
_atom_type_scat_dispersion_imag
_atom_type_scat_source
C C 0.0033 0.0016 'International Tables Vol C Tables 4.2.6.8 and 6.1.1.4'
H H 0.0000 0.0000 'International Tables Vol C Tables 4.2.6.8 and 6.1.1.4'
Au Au -2.0133 8.8022 'International Tables Vol C Tables 4.2.6.8 and 6.1.1.4'
F F 0.0171 0.0103 'International Tables Vol C Tables 4.2.6.8 and 6.1.1.4'
P P 0.1023 0.0942 'International Tables Vol C Tables 4.2.6.8 and 6.1.1.4'
loop_
_exptl_crystal_face_index_h
_exptl_crystal_face_index_k
_exptl_crystal_face_index_l
_exptl_crystal_face_perp_dist
1 -1 0 0.0641
-1 1 0 0.0582
-1 -1 1 0.0636
1 1 -1 0.0341
1 -1 1 0.0610
-1 -1 0 0.0696
1 1 0 0.0600
-1 0 5 0.0397
-1 -1 -1 0.0858
1 0 0 0.0809
-1 0 0 0.1311
-5 0 -2 0.1096
0 -1 0 0.0581
0 0 -1 0.0725
loop_
_geom_angle_atom_site_label_1
_geom_angle_atom_site_label_2
_geom_angle_atom_site_label_3
_geom_angle
_geom_angle_site_symmetry_1
_geom_angle_site_symmetry_3
_geom_angle_publ_flag
P1 Au1 Au1 86.154(17) . 5_667 ?
C1 Au1 Au1 93.84(7) . 5_667 ?
C1 Au1 P1 179.99(6) . . ?
C2 P1 Au1 114.22(8) 5_667 . ?
C7 P1 Au1 113.32(7) 6_565 . ?
C7 P1 Au1 113.32(7) . . ?
C7 P1 C2 105.63(8) . 5_667 ?
C7 P1 C2 105.63(8) 6_565 5_667 ?
C7 P1 C7 103.78(15) 6_565 . ?
C2 C1 Au1 123.50(17) . . ?
C6 C1 Au1 120.03(18) . . ?
C6 C1 C2 116.5(2) . . ?
C1 C2 P1 122.29(17) . 5_667 ?
C3 C2 P1 118.84(19) . 5_667 ?
C3 C2 C1 118.9(2) . . ?
F1 C3 C2 120.5(2) . . ?
F1 C3 C4 116.5(2) . . ?
C4 C3 C2 123.0(2) . . ?
F2 C4 C3 120.9(3) . . ?
F2 C4 C5 120.6(2) . . ?
C3 C4 C5 118.5(2) . . ?
F3 C5 C4 119.8(2) . . ?
F3 C5 C6 120.9(3) . . ?
C6 C5 C4 119.3(2) . . ?
F4 C6 C1 119.8(2) . . ?
F4 C6 C5 116.4(2) . . ?
C5 C6 C1 123.8(2) . . ?
P1 C7 H7A 109.5 . . ?
P1 C7 H7B 109.5 . . ?
P1 C7 H7C 109.5 . . ?
H7A C7 H7B 109.5 . . ?
H7A C7 H7C 109.5 . . ?
H7B C7 H7C 109.5 . . ?
loop_
_geom_bond_atom_site_label_1
_geom_bond_atom_site_label_2
_geom_bond_distance
_geom_bond_site_symmetry_2
_geom_bond_publ_flag
Au1 Au1 2.85113(16) 5_667 ?
Au1 P1 2.2805(6) . ?
Au1 C1 2.060(2) . ?
P1 C2 1.828(2) 5_667 ?
P1 C7 1.813(2) . ?
P1 C7 1.813(2) 6_565 ?
F1 C3 1.358(3) . ?
F2 C4 1.340(3) . ?
F3 C5 1.338(3) . ?
F4 C6 1.354(3) . ?
C1 C2 1.411(3) . ?
C1 C6 1.387(3) . ?
C2 C3 1.396(3) . ?
C3 C4 1.367(4) . ?
C4 C5 1.378(4) . ?
C5 C6 1.377(3) . ?
C7 H7A 0.9800 . ?
C7 H7B 0.9800 . ?
C7 H7C 0.9800 . ?
loop_
_geom_torsion_atom_site_label_1
_geom_torsion_atom_site_label_2
_geom_torsion_atom_site_label_3
_geom_torsion_atom_site_label_4
_geom_torsion
_geom_torsion_site_symmetry_1
_geom_torsion_site_symmetry_2
_geom_torsion_site_symmetry_3
_geom_torsion_site_symmetry_4
_geom_torsion_publ_flag
Au1 C1 C2 P1 0.000(1) . . . 5_667 ?
Au1 C1 C2 C3 180.000(1) . . . . ?
Au1 C1 C6 F4 0.000(1) . . . . ?
Au1 C1 C6 C5 180.000(1) . . . . ?
P1 C2 C3 F1 0.000(1) 5_667 . . . ?
P1 C2 C3 C4 180.000(1) 5_667 . . . ?
F1 C3 C4 F2 0.000(1) . . . . ?
F1 C3 C4 C5 180.000(1) . . . . ?
F2 C4 C5 F3 0.000(1) . . . . ?
F2 C4 C5 C6 180.000(1) . . . . ?
F3 C5 C6 F4 0.000(1) . . . . ?
F3 C5 C6 C1 180.000(1) . . . . ?
C1 C2 C3 F1 180.000(1) . . . . ?
C1 C2 C3 C4 0.000(1) . . . . ?
C2 C1 C6 F4 180.000(1) . . . . ?
C2 C1 C6 C5 0.000(1) . . . . ?
C2 C3 C4 F2 180.000(1) . . . . ?
C2 C3 C4 C5 0.000(1) . . . . ?
C3 C4 C5 F3 180.000(1) . . . . ?
C3 C4 C5 C6 0.000(1) . . . . ?
C4 C5 C6 F4 180.000(1) . . . . ?
C4 C5 C6 C1 0.000(1) . . . . ?
C6 C1 C2 P1 180.000(0) . . . 5_667 ?
C6 C1 C2 C3 0.000(1) . . . . ?
loop_
_exptl_oxdiff_crystal_face_indexfrac_h
_exptl_oxdiff_crystal_face_indexfrac_k
_exptl_oxdiff_crystal_face_indexfrac_l
_exptl_oxdiff_crystal_face_x
_exptl_oxdiff_crystal_face_y
_exptl_oxdiff_crystal_face_z
0.9999 -0.9989 -0.0001 0.0444 -0.0437 0.0928
-0.9999 0.9989 0.0001 -0.0444 0.0437 -0.0928
-0.9969 -0.9990 0.9993 -0.0699 -0.0307 0.1111
0.9969 0.9990 -0.9993 0.0699 0.0307 -0.1111
1.0004 -0.9989 0.9990 0.0088 0.0115 0.1411
-0.9973 -0.9989 0.0001 -0.0342 -0.0858 0.0628
0.9973 0.9989 -0.0001 0.0342 0.0858 -0.0628
-0.9966 -0.0002 4.9957 -0.2174 0.2549 0.2266
-0.9978 -0.9989 -0.9990 0.0014 -0.1410 0.0144
0.9986 0.0000 -0.0001 0.0393 0.0211 0.0150
-0.9986 -0.0000 0.0001 -0.0393 -0.0211 -0.0150
-4.9940 -0.0001 -1.9977 -0.1254 -0.2157 -0.1716
0.0013 -0.9989 0.0000 0.0051 -0.0648 0.0778
-0.0004 0.0000 -0.9991 0.0356 -0.0552 -0.0483
