#------------------------------------------------------------------------------
#$Date: 2022-03-13 01:47:58 +0200 (Sun, 13 Mar 2022) $
#$Revision: 273678 $
#$URL: file:///home/coder/svn-repositories/cod/cif/7/70/97/7709746.cif $
#------------------------------------------------------------------------------
#
# This file is available in the Crystallography Open Database (COD),
# http://www.crystallography.net/
#
# All data on this site have been placed in the public domain by the
# contributors.
#
data_7709746
loop_
_publ_author_name
'Yan, Qiu-Nan'
'Liu, Bin-Wen'
'Jiang, Xiao-Ming'
'Zhao, Jin-Xu'
'Pei, Shao-Min'
'Chen, Wen-Fa'
'Guo, Guo-Cong'
_publ_section_title
;
 Photocurrent, Humidity Sensitive and Proton Conductive Properties of a
 New Sulfide Semiconductor CsCuS4
;
_journal_name_full               'Dalton Transactions'
_journal_paper_doi               10.1039/D2DT00143H
_journal_year                    2022
_chemical_formula_moiety         'not measured'
_chemical_formula_sum            'Cs Cu S4'
_chemical_formula_weight         324.69
_chemical_melting_point          ?
_chemical_name_common            CsCuS4
_space_group_crystal_system      triclinic
_space_group_IT_number           2
_space_group_name_Hall           '-P 1'
_space_group_name_H-M_alt        'P -1'
_audit_creation_method           SHELXL-2013
_cell_angle_alpha                105.097(10)
_cell_angle_beta                 96.953(11)
_cell_angle_gamma                110.347(10)
_cell_formula_units_Z            2
_cell_length_a                   5.4472(7)
_cell_length_b                   7.2597(6)
_cell_length_c                   9.1804(13)
_cell_measurement_reflns_used    1770
_cell_measurement_temperature    293(2)
_cell_measurement_theta_max      27.3390
_cell_measurement_theta_min      2.3860
_cell_volume                     319.53(8)
_computing_cell_refinement       'CrysAlisPro 1.171.39.23b (Rigaku OD, 2015)'
_computing_data_collection       'CrysAlisPro 1.171.39.23b (Rigaku OD, 2015)'
_computing_data_reduction        'CrysAlisPro 1.171.39.23b (Rigaku OD, 2015)'
_computing_structure_refinement  'SHELXL-2013 (Sheldrick, 2013)'
_diffrn_ambient_temperature      293(2)
_diffrn_measured_fraction_theta_full 0.992
_diffrn_measured_fraction_theta_max 0.991
_diffrn_measurement_device_type  'XtaLAB AFC10 (RCD3): fixed-chi single'
_diffrn_radiation_type           MoK\a
_diffrn_radiation_wavelength     0.71073
_diffrn_reflns_av_R_equivalents  0.0390
_diffrn_reflns_av_unetI/netI     0.0344
_diffrn_reflns_Laue_measured_fraction_full 0.992
_diffrn_reflns_Laue_measured_fraction_max 0.991
_diffrn_reflns_limit_h_max       6
_diffrn_reflns_limit_h_min       -6
_diffrn_reflns_limit_k_max       8
_diffrn_reflns_limit_k_min       -8
_diffrn_reflns_limit_l_max       10
_diffrn_reflns_limit_l_min       -11
_diffrn_reflns_number            4219
_diffrn_reflns_point_group_measured_fraction_full 0.992
_diffrn_reflns_point_group_measured_fraction_max 0.991
_diffrn_reflns_theta_full        25.242
_diffrn_reflns_theta_max         25.495
_diffrn_reflns_theta_min         3.277
_diffrn_source                   'fine-focus sealed X-ray tube'
_exptl_absorpt_coefficient_mu    10.195
_exptl_absorpt_correction_T_max  0.350
_exptl_absorpt_correction_T_min  0.291
_exptl_absorpt_correction_type   multi-scan
_exptl_crystal_colour            Red
_exptl_crystal_density_diffrn    3.375
_exptl_crystal_density_meas      ?
_exptl_crystal_description       pin
_exptl_crystal_F_000             296
_exptl_crystal_size_max          0.125
_exptl_crystal_size_mid          0.117
_exptl_crystal_size_min          0.103
_refine_diff_density_max         1.850
_refine_diff_density_min         -1.799
_refine_diff_density_rms         0.309
_refine_ls_extinction_method     none
_refine_ls_goodness_of_fit_ref   1.096
_refine_ls_hydrogen_treatment    undef
_refine_ls_matrix_type           full
_refine_ls_number_parameters     56
_refine_ls_number_reflns         1181
_refine_ls_number_restraints     0
_refine_ls_restrained_S_all      1.096
_refine_ls_R_factor_all          0.0612
_refine_ls_R_factor_gt           0.0568
_refine_ls_shift/su_max          0.000
_refine_ls_shift/su_mean         0.000
_refine_ls_structure_factor_coef Fsqd
_refine_ls_weighting_details
;
 w=1/[\s^2^(Fo^2^)+(0.1020P)^2^+9.8952P]
 where P=(Fo^2^+2Fc^2^)/3
;
_refine_ls_weighting_scheme      calc
_refine_ls_wR_factor_gt          0.1856
_refine_ls_wR_factor_ref         0.1883
_reflns_Friedel_coverage         0.000
_reflns_number_gt                1073
_reflns_number_total             1181
_reflns_threshold_expression     'I > 2\s(I)'
_cod_data_source_file            d2dt00143h1.cif
_cod_data_source_block           CsCuS4
_cod_depositor_comments
;
The following automatic conversions were performed:

data item '_chemical_melting_point' value 'not measured' was changed
to '?' -- the value is undefined or not given.

data item '_exptl_crystal_density_meas' value 'not measured' was
changed to '?' -- the value is perceived as not measured.

Automatic conversion script
Id: cif_fix_values 7556 2019-12-06 15:28:31Z antanas 
;
_cod_original_cell_volume        319.53(7)
_cod_database_code               7709746
_shelx_space_group_comment
;
The symmetry employed for this shelxl refinement is uniquely defined
by the following loop, which should always be used as a source of
symmetry information in preference to the above space-group names.
They are only intended as comments.
;
_shelxl_version_number           2013-2
_shelx_res_file
;
TITL a         P 1          R = 0.06  New: P-1
CELL  0.71073    5.4472    7.2597    9.1804   105.097    96.953   110.347
ZERR        2    0.0007    0.0006    0.0013     0.010     0.011     0.010
LATT   1
SFAC Cs Cu  S
UNIT     2    2   8
acta
L.S. 4
BOND
FMAP 2
PLAN 20
omit -3 51.0
omit -4 -3 1
omit 0 0 1
omit -3 4 1
omit -2 3 2

twin
WGHT    0.102000    9.895205
BASF   0.67165
FVAR       0.52424
CS1   1    0.375170    0.643481    0.258531    11.00000    0.03466    0.02796 =
         0.05519    0.02037    0.01582    0.01360
CU1   2    0.253694    0.008375    0.009941    11.00000    0.02804    0.03222 =
         0.03717    0.00666    0.00540    0.01393
S1    3    0.011782    0.082530    0.817621    11.00000    0.02477    0.01958 =
         0.05005    0.01644    0.00999    0.00626
S2    3    0.674195    0.281142    0.136381    11.00000    0.02528    0.01397 =
         0.04809    0.00500    0.00722    0.00512
S3    3    0.085807    0.186048    0.368214    11.00000    0.02668    0.03454 =
         0.03731    0.01040    0.00357    0.00503
S4    3    0.740349    0.242188    0.351743    11.00000    0.03422    0.04031 =
         0.03770    0.00201    0.01095    0.01282

HKLF 4

REM  a         P 1          R = 0.06  New: P-1
REM R1 =  0.0568 for    1073 Fo > 4sig(Fo)  and  0.0612 for all    1181 data
REM     56 parameters refined using      0 restraints

END

WGHT      0.0329     10.8052

REM Highest difference peak  1.850,  deepest hole -1.799,  1-sigma level  0.309
Q1    1   0.3254  0.6046  0.1572  11.00000  0.05    1.85
Q2    1   0.5818  0.7765  0.2606  11.00000  0.05    1.51
Q3    1   0.3830  0.6675  0.3774  11.00000  0.05    1.47
Q4    1   0.5270  0.6745  0.2678  11.00000  0.05    1.43
Q5    1   0.1641  0.5012  0.2598  11.00000  0.05    1.42
Q6    1   0.2406  0.0333  0.1297  11.00000  0.05    1.39
Q7    1   0.5336  0.6842  0.3552  11.00000  0.05    1.07
Q8    1   0.7300  0.2585  0.2297  11.00000  0.05    1.05
Q9    1   0.0638 -0.0202 -0.0197  11.00000  0.05    0.98
Q10   1   0.8272  0.1862  0.4194  11.00000  0.05    0.94
Q11   1   0.5478  0.7862  0.4947  11.00000  0.05    0.92
Q12   1   0.2250  0.1040  0.7533  11.00000  0.05    0.91
Q13   1   0.2692  0.6987  0.2979  11.00000  0.05    0.86
Q14   1   0.4878  0.1752  0.0092  11.00000  0.05    0.86
Q15   1   0.1089  0.5834  0.1799  11.00000  0.05    0.82
Q16   1   0.9866  0.3880  0.2611  11.00000  0.05    0.80
Q17   1  -0.0278  0.2130  0.5267  11.00000  0.05    0.76
Q18   1   0.2423  0.2606  0.3756  11.00000  0.05    0.75
Q19   1   0.4516  0.0580  0.0946  11.00000  0.05    0.75
Q20   1   0.2104 -0.0804 -0.1163  11.00000  0.05    0.75
;
_shelx_res_checksum              31882
_shelx_hkl_file
;
  -6   2  -5    0.90    9.02
  -6   2  -4   11.65    8.89
  -6   2  -3   15.48    8.01
  -6   3  -5   34.86   10.83
  -6   3  -4   59.69   10.71
  -6   3  -3    7.16    7.14
  -6   3   2   43.93    8.34
  -6   3   3  464.37   25.88
  -6   3   4  312.07   20.34
  -6   4  -6    8.51    9.42
  -6   4   0  141.76   12.18
  -6   4   1  223.74   15.69
  -6   4   2   10.10    6.58
  -6   4   3   16.23    7.49
  -6   4   4  228.02   17.19
  -6   5  -2  202.40   14.09
  -6   5  -1  136.19   11.68
  -6   5   0    2.44    5.91
  -6   5   1   14.38    7.00
  -6   5   2  323.53   20.48
  -6   5   3   50.94    9.52
  -6   6  -2    5.13    5.72
  -6   6  -1  368.61   21.47
  -6   6   0  353.61   21.58
  -6   6   1   20.92    8.08
  -6   7  -1   19.85    7.25
  -6   7   0   25.35    8.09
  -5  -1   3   19.56    5.21
  -5  -1   4   90.34    8.45
  -5   0  -5   14.27    9.94
  -5   0  -3  205.51   12.85
  -5   0  -2  243.63   13.24
  -5   0  -1  127.63    8.20
  -5   0   0   54.55    4.68
  -5   0   2   57.36    5.80
  -5   0   3  121.67    8.87
  -5   0   4  228.71   13.47
  -5   0   5   69.35    8.19
  -5   1  -6   10.16    9.95
  -5   1  -5    9.94    8.86
  -5   1  -4   17.19    6.27
  -5   1  -4   17.04    7.94
  -5   1  -3    5.02    7.36
  -5   1  -3    3.97    6.18
  -5   1  -3   -9.22    5.97
  -5   1  -2   13.22    4.36
  -5   1  -2    9.08    5.53
  -5   1  -1  212.97   10.60
  -5   1  -1  260.94   14.78
  -5   1   0   69.58    7.98
  -5   1   0   43.37    3.47
  -5   1   1  990.35   40.76
  -5   1   1  843.43   36.48
  -5   1   2  113.62    8.01
  -5   1   3  524.25   24.19
  -5   1   4   46.35    6.87
  -5   1   5  126.79   10.70
  -5   2  -6   -2.27    8.88
  -5   2  -5   83.35    9.40
  -5   2  -5   70.81   10.76
  -5   2  -4  227.51   13.39
  -5   2  -4  226.83   15.99
  -5   2  -3   75.14    6.87
  -5   2  -3   71.38    9.27
  -5   2  -3   83.00    8.14
  -5   2  -2  199.12   12.67
  -5   2  -2  206.90   12.74
  -5   2  -2  187.89   10.06
  -5   2  -1    8.26    1.75
  -5   2  -1   14.62    5.33
  -5   2   0   10.58    3.04
  -5   2   0   37.61    5.74
  -5   2   1   18.18    5.68
  -5   2   1   20.92    4.30
  -5   2   2   34.61    6.69
  -5   2   2   45.16    7.10
  -5   2   2   27.24    5.30
  -5   2   3   33.45    6.25
  -5   2   3   40.06    7.02
  -5   2   4  310.24   17.28
  -5   2   5   12.03    6.04
  -5   2   6  711.28   34.92
  -5   2   7   31.87    7.52
  -5   2   8   91.96   11.12
  -5   3  -7   59.42   11.88
  -5   3  -6   30.59    9.23
  -5   3  -6   28.91    7.97
  -5   3  -5   -4.31    6.23
  -5   3  -5    0.37    7.27
  -5   3  -4  155.42   10.17
  -5   3  -4  124.66   11.69
  -5   3  -3   29.99    5.21
  -5   3  -3   30.53    5.68
  -5   3  -3   25.37    6.66
  -5   3  -2  554.90   22.49
  -5   3  -2  466.66   21.15
  -5   3  -1    8.95    4.85
  -5   3  -1    9.33    4.98
  -5   3  -1    9.45    3.04
  -5   3   0  480.33   23.66
  -5   3   0  441.78   21.03
  -5   3   0  509.67   23.86
  -5   3   1  145.56   10.03
  -5   3   1  161.60   11.69
  -5   3   1  169.82   11.81
  -5   3   2   98.80    9.70
  -5   3   2  116.48    9.03
  -5   3   3  220.62   13.67
  -5   3   3  216.14   14.71
  -5   3   4   76.43    9.03
  -5   3   5    5.36    6.10
  -5   3   6    9.51    6.21
  -5   3   7   27.05    7.60
  -5   4  -6   44.72    8.74
  -5   4  -5  108.11    9.92
  -5   4  -4    3.29    5.43
  -5   4  -3  123.58    8.98
  -5   4  -3  169.32   10.55
  -5   4  -2   65.59    6.54
  -5   4  -2   51.93    4.56
  -5   4  -2   48.20    6.53
  -5   4  -1  272.63   13.70
  -5   4  -1  205.07   10.66
  -5   4  -1  250.22   13.42
  -5   4  -1  228.11   11.39
  -5   4   0   50.31    6.25
  -5   4   0   41.93    4.04
  -5   4   0   34.91    6.49
  -5   4   0   46.64    6.99
  -5   4   1  478.41   22.95
  -5   4   1  459.12   24.17
  -5   4   2  442.25   23.81
  -5   4   2  459.79   22.72
  -5   4   3  241.23   15.79
  -5   4   3  235.47   15.11
  -5   4   5  207.24   15.43
  -5   4   6    8.80    6.70
  -5   5  -6    8.80    7.09
  -5   5  -5   21.43    6.87
  -5   5  -4    2.37    5.26
  -5   5  -4    2.53    4.00
  -5   5  -3  342.45   15.44
  -5   5  -3  287.41   15.85
  -5   5  -3  304.42   16.82
  -5   5  -3  319.76   16.82
  -5   5  -2   67.29    6.67
  -5   5  -2   70.98    7.75
  -5   5  -2   84.04    8.12
  -5   5  -2   75.47    6.62
  -5   5  -1  305.37   17.21
  -5   5  -1  325.52   16.35
  -5   5  -1  313.56   17.45
  -5   5  -1  278.72   14.08
  -5   5   0  157.41   12.00
  -5   5   0  155.13   11.28
  -5   5   1   40.71    6.96
  -5   5   1   23.80    6.97
  -5   5   2  203.52   15.20
  -5   5   2  242.30   14.88
  -5   5   3   33.87    7.85
  -5   5   5   80.36   10.45
  -5   6  -6  274.23   18.01
  -5   6  -5   39.98    8.21
  -5   6  -4  135.22   11.02
  -5   6  -4  145.66   11.26
  -5   6  -3   59.28    7.50
  -5   6  -3   57.67    7.25
  -5   6  -3   48.82    6.95
  -5   6  -3   55.32    6.78
  -5   6  -2    7.90    5.23
  -5   6  -2   14.39    5.72
  -5   6  -2    7.76    4.76
  -5   6  -1   45.81    7.59
  -5   6  -1   41.67    7.13
  -5   6   0  101.10    9.74
  -5   6   0   96.55   10.23
  -5   6   1    7.14    6.31
  -5   6   2  214.46   16.23
  -5   6   3   52.74    9.24
  -5   7  -7    3.53    8.21
  -5   7  -6   27.83    8.52
  -5   7  -3  212.53   14.45
  -5   7  -3  211.41   13.38
  -5   7  -2  137.61   12.53
  -5   7  -2  163.49   11.48
  -5   7  -1  255.93   18.45
  -5   7  -1  296.90   16.57
  -5   7   0   85.28   11.03
  -5   7   1   58.79   10.12
  -5   7   2   75.25   11.47
  -5   8  -3   62.26    8.67
  -5   8  -2   12.20    6.56
  -5   8  -2    8.95    7.26
  -5   8  -1  154.38   12.54
  -5   8   0   10.64    7.01
  -5   9  -3   34.25    8.25
  -5   9  -2    5.33    6.82
  -4  -5   0    3.12    6.39
  -4  -5   1    4.72    6.40
  -4  -5   2   24.91    7.77
  -4  -4  -3  119.86   12.62
  -4  -4  -2    2.82    7.62
  -4  -4  -1   25.74    7.82
  -4  -4   0  352.39   19.65
  -4  -4   1   -0.92    5.65
  -4  -4   2  151.51   11.37
  -4  -3  -4   17.26    8.30
  -4  -3  -3  154.64   13.05
  -4  -3  -2  227.29   15.04
  -4  -3  -1   30.99    7.21
  -4  -3   0   90.94    8.65
  -4  -3   1   98.24    8.68
  -4  -3   2  562.45   26.61
  -4  -3   2  578.83   26.33
  -4  -3   3   13.41    5.23
  -4  -3   4   67.76    7.76
  -4  -2  -5   99.60   11.80
  -4  -2  -4   86.97   10.35
  -4  -2  -3   70.88    8.97
  -4  -2  -2   69.11    8.18
  -4  -2  -1  772.01   34.47
  -4  -2   0   82.39    7.36
  -4  -2   1   96.65    7.62
  -4  -2   1   99.23    7.20
  -4  -2   2  241.86   12.98
  -4  -2   3  670.64   29.99
  -4  -2   4  282.90   15.44
  -4  -2   5   77.94    8.24
  -4  -1  -6    9.73    8.42
  -4  -1  -5    8.11    8.86
  -4  -1  -5   14.66    7.99
  -4  -1  -4   38.45    9.13
  -4  -1  -4   41.13    8.30
  -4  -1  -3   70.48    9.69
  -4  -1  -3   84.79    8.60
  -4  -1  -2   23.70    7.07
  -4  -1  -2   13.83    5.18
  -4  -1  -1   40.85    5.49
  -4  -1  -1   35.08    7.60
  -4  -1   0  932.43   39.16
  -4  -1   0  927.64   42.04
  -4  -1   1 1112.80   47.31
  -4  -1   1 1143.07   44.13
  -4  -1   1  987.57   43.79
  -4  -1   2  242.07   12.80
  -4  -1   2  250.73   15.14
  -4  -1   3  247.54   13.37
  -4  -1   4  968.95   43.42
  -4  -1   4 1090.92   45.67
  -4  -1   5  349.04   18.93
  -4  -1   5  315.12   17.36
  -4  -1   6    1.46    5.28
  -4   0  -7    1.28    8.43
  -4   0  -6  119.65   11.91
  -4   0  -6  102.21   12.63
  -4   0  -5   73.22    9.37
  -4   0  -5   79.85   10.95
  -4   0  -4   26.47    7.64
  -4   0  -4   39.23    6.97
  -4   0  -4   30.94    7.08
  -4   0  -3   58.98    7.21
  -4   0  -3   52.77    8.48
  -4   0  -3   52.61    8.19
  -4   0  -2 1117.07   46.07
  -4   0  -2 1143.60   47.96
  -4   0  -2 1021.37   47.35
  -4   0  -1  234.75   12.23
  -4   0  -1  258.57   14.59
  -4   0   0   13.50    5.13
  -4   0   0   12.25    2.68
  -4   0   0   13.90    3.30
  -4   0   1  111.24    5.76
  -4   0   1  118.89    9.35
  -4   0   1  102.88    6.71
  -4   0   2  389.80   18.82
  -4   0   2  459.45   21.56
  -4   0   3   53.35    5.93
  -4   0   4   58.37    6.66
  -4   0   4   69.57    7.91
  -4   0   5  463.45   23.40
  -4   0   5  503.44   24.61
  -4   0   6 1190.00   51.44
  -4   1  -8   19.38    9.15
  -4   1  -7   -0.40    7.71
  -4   1  -7    0.94    8.62
  -4   1  -6   -2.07    7.00
  -4   1  -6    4.98    7.86
  -4   1  -5  441.68   22.04
  -4   1  -5  388.17   22.91
  -4   1  -4  582.14   26.01
  -4   1  -4  551.09   25.85
  -4   1  -4  497.74   26.95
  -4   1  -3    6.83    4.87
  -4   1  -3    4.51    5.03
  -4   1  -3    2.23    6.51
  -4   1  -2   67.52    7.73
  -4   1  -2   66.94    6.06
  -4   1  -2   69.80    6.99
  -4   1  -1  596.79   26.98
  -4   1  -1  584.52   24.55
  -4   1  -1  563.85   26.32
  -4   1   0  958.43   31.23
  -4   1   0  771.42   26.57
  -4   1   1   50.72    5.91
  -4   1   1   46.20    4.51
  -4   1   2    8.28    4.10
  -4   1   2    9.62    4.70
  -4   1   3 1165.55   48.87
  -4   1   4  360.42   18.98
  -4   1   4  318.39   17.59
  -4   1   4  363.60   18.73
  -4   1   5   -2.47    5.46
  -4   1   5   10.49    4.62
  -4   1   5   -2.89    4.93
  -4   1   6    2.70    5.16
  -4   1   6   -0.93    6.35
  -4   1   7  191.90   13.47
  -4   1   8   56.89    8.34
  -4   1   9   45.90    8.10
  -4   1  10   11.39    6.67
  -4   2  -8   -0.49    9.32
  -4   2  -8    5.04    8.40
  -4   2  -7  152.12   12.93
  -4   2  -7  131.75   13.56
  -4   2  -6  105.20   10.61
  -4   2  -6   84.23   11.03
  -4   2  -5   -4.10    6.12
  -4   2  -5   -4.47    6.69
  -4   2  -4   68.43    6.35
  -4   2  -4   69.11    7.23
  -4   2  -4   57.66    8.21
  -4   2  -3  466.83   20.57
  -4   2  -3  457.73   20.68
  -4   2  -2    1.99    4.90
  -4   2  -2   -1.92    4.03
  -4   2  -2    4.91    3.76
  -4   2  -1  124.63    6.72
  -4   2  -1  135.95    8.88
  -4   2  -1  129.16    6.50
  -4   2   0  742.50   32.74
  -4   2   0  843.87   35.18
  -4   2   0  846.73   35.06
  -4   2   0  779.12   32.65
  -4   2   1 2415.21   97.55
  -4   2   1 2399.25   95.66
  -4   2   1 2395.08   97.46
  -4   2   2  132.28    9.63
  -4   2   2  140.26    8.97
  -4   2   2  112.72    9.20
  -4   2   3  260.18   14.47
  -4   2   4  146.57   10.62
  -4   2   4  134.39   10.43
  -4   2   5  584.44   28.44
  -4   2   5  563.27   28.32
  -4   2   5  616.52   28.40
  -4   2   6    1.38    4.75
  -4   2   7    4.36    5.35
  -4   2   8  171.09   13.31
  -4   2   9   46.70    8.12
  -4   2  10    0.83    6.18
  -4   3  -9  102.29   13.43
  -4   3  -8   -1.67    8.32
  -4   3  -7   25.38    8.45
  -4   3  -6  222.79   14.91
  -4   3  -5  288.52   15.61
  -4   3  -5  256.11   12.99
  -4   3  -4   28.05    4.30
  -4   3  -4   18.78    5.75
  -4   3  -3    3.83    1.40
  -4   3  -3   13.49    3.96
  -4   3  -3    7.66    4.65
  -4   3  -3    6.02    1.34
  -4   3  -2  749.65   30.90
  -4   3  -2  751.75   30.69
  -4   3  -2  698.26   31.49
  -4   3  -2  824.50   33.26
  -4   3  -2  798.49   33.07
  -4   3  -1  596.61   24.65
  -4   3  -1  549.22   22.60
  -4   3  -1  488.20   21.48
  -4   3  -1  562.35   24.38
  -4   3  -1  490.09   21.60
  -4   3   0    1.07    1.10
  -4   3   0    3.18    3.57
  -4   3   0    0.98    3.58
  -4   3   0    2.92    3.11
  -4   3   0   -0.35    1.07
  -4   3   0    4.67    3.79
  -4   3   1   64.62    6.31
  -4   3   1   70.41    6.92
  -4   3   1   70.09    6.93
  -4   3   2  971.23   42.74
  -4   3   2  982.69   42.73
  -4   3   2  946.51   41.57
  -4   3   3  114.29    9.15
  -4   3   3   89.76    5.23
  -4   3   4  194.62   12.76
  -4   3   4  162.32    9.09
  -4   3   4  196.03   12.53
  -4   3   5   38.28    6.82
  -4   3   5   47.02    7.29
  -4   3   5   30.43    5.09
  -4   3   6  724.43   32.38
  -4   3   6  783.14   35.75
  -4   3   7  148.05   12.57
  -4   3   8   37.31    7.73
  -4   3   9    8.92    6.58
  -4   4  -9   48.35   11.01
  -4   4  -8   65.54   10.29
  -4   4  -7    2.86    7.17
  -4   4  -6   36.69    7.67
  -4   4  -5   62.87    4.95
  -4   4  -5   80.05    8.39
  -4   4  -5   82.46    8.15
  -4   4  -4 1288.67   48.97
  -4   4  -4 1199.81   49.84
  -4   4  -4 1250.44   51.30
  -4   4  -4 1213.82   49.14
  -4   4  -4 1129.97   49.65
  -4   4  -4 1149.69   51.40
  -4   4  -3  205.04   11.12
  -4   4  -3  189.67   12.17
  -4   4  -3  199.55   11.52
  -4   4  -3  221.00   12.44
  -4   4  -3  218.23   11.74
  -4   4  -3  232.88   11.05
  -4   4  -2  182.18   10.11
  -4   4  -2  143.60    8.48
  -4   4  -2  151.27    8.86
  -4   4  -2  141.50    9.11
  -4   4  -2  133.32    8.95
  -4   4  -2  152.24    9.03
  -4   4  -2  166.18    9.95
  -4   4  -1  289.59   15.38
  -4   4  -1  266.06   13.03
  -4   4  -1  277.97   14.18
  -4   4  -1  288.31   15.32
  -4   4   0  775.91   36.08
  -4   4   0  809.60   35.05
  -4   4   0  782.90   36.25
  -4   4   0  823.74   33.12
  -4   4   1   16.64    5.39
  -4   4   1   13.88    4.07
  -4   4   1   27.07    5.77
  -4   4   1   26.02    5.64
  -4   4   2   19.81    5.67
  -4   4   2   20.87    4.22
  -4   4   2   12.00    5.15
  -4   4   2   22.68    5.72
  -4   4   3  547.68   24.05
  -4   4   3  570.51   26.82
  -4   4   4  534.19   25.87
  -4   4   4  499.10   22.85
  -4   4   5   -1.91    4.70
  -4   4   5    2.79    5.56
  -4   4   6    1.67    5.67
  -4   4   7  129.23   12.34
  -4   4   8   41.03    8.26
  -4   5  -9   -7.27    9.77
  -4   5  -8   14.41    7.87
  -4   5  -8    4.47    7.70
  -4   5  -7  242.76   16.77
  -4   5  -7  246.76   16.49
  -4   5  -6  118.27   11.35
  -4   5  -6  118.60   11.32
  -4   5  -5   31.21    7.07
  -4   5  -5   25.31    4.63
  -4   5  -5   17.36    6.24
  -4   5  -5   22.13    3.75
  -4   5  -4  174.94   11.54
  -4   5  -4  146.48    9.40
  -4   5  -4  170.22    9.86
  -4   5  -4  150.42   10.15
  -4   5  -4  165.69   10.17
  -4   5  -4  169.78    9.68
  -4   5  -4  146.17   10.79
  -4   5  -3  808.88   33.78
  -4   5  -3  764.51   34.21
  -4   5  -3  760.96   34.17
  -4   5  -3  837.64   33.84
  -4   5  -3  707.82   34.24
  -4   5  -3  780.76   34.10
  -4   5  -2  226.93   13.02
  -4   5  -2  232.61   12.99
  -4   5  -2  228.22   13.83
  -4   5  -2  262.95   12.83
  -4   5  -2  219.21   13.22
  -4   5  -2  224.29   13.72
  -4   5  -1  202.90   11.54
  -4   5  -1  232.65   14.09
  -4   5  -1  230.02   14.07
  -4   5  -1  236.42   12.19
  -4   5  -1  250.98   13.37
  -4   5   0   33.24    4.06
  -4   5   0   32.62    6.21
  -4   5   0   33.04    6.35
  -4   5   0   19.13    5.49
  -4   5   0   26.95    6.24
  -4   5   1 1368.60   42.08
  -4   5   1 1333.23   44.68
  -4   5   2  691.92   32.44
  -4   5   2  697.91   30.12
  -4   5   3   42.83    6.25
  -4   5   4   25.31    5.92
  -4   5   5  188.77   14.86
  -4   5   6   29.12    7.73
  -4   6  -9   75.97   12.08
  -4   6  -8   52.57   10.41
  -4   6  -8   42.57    9.89
  -4   6  -7   -6.32    7.38
  -4   6  -7    7.04    7.33
  -4   6  -6   15.13    5.12
  -4   6  -6   22.61    7.71
  -4   6  -6   23.26    7.22
  -4   6  -5  347.14   17.52
  -4   6  -5  380.34   20.18
  -4   6  -5  353.60   19.05
  -4   6  -5  358.42   20.35
  -4   6  -5  408.30   18.97
  -4   6  -4   35.88    6.73
  -4   6  -4   50.04    6.64
  -4   6  -4   43.33    6.34
  -4   6  -4   40.97    7.39
  -4   6  -4   37.19    5.67
  -4   6  -4   39.38    5.71
  -4   6  -3   90.44    8.45
  -4   6  -3  105.06    8.36
  -4   6  -3   91.31    8.63
  -4   6  -3   91.43    8.67
  -4   6  -3  104.31    8.39
  -4   6  -3   90.47    8.68
  -4   6  -2  629.90   27.40
  -4   6  -2  544.11   27.57
  -4   6  -2  616.66   28.42
  -4   6  -2  602.79   28.95
  -4   6  -1  528.45   28.48
  -4   6  -1  581.66   27.88
  -4   6  -1  624.66   26.86
  -4   6   0  125.59    9.57
  -4   6   0  108.63    9.90
  -4   6   1   12.66    5.64
  -4   6   2  444.66   21.53
  -4   6   3  280.36   15.75
  -4   7  -8  275.22   19.62
  -4   7  -8  260.65   18.96
  -4   7  -7   34.73    9.08
  -4   7  -7   39.29    9.06
  -4   7  -6  177.41   12.01
  -4   7  -6  126.99   12.79
  -4   7  -5    7.28    5.74
  -4   7  -5    4.99    6.85
  -4   7  -4  276.44   16.14
  -4   7  -3  288.98   16.70
  -4   7  -3  269.60   17.52
  -4   7  -3  302.49   16.69
  -4   7  -2    2.80    5.52
  -4   7  -2    2.60    6.02
  -4   7  -1   16.30    6.06
  -4   7  -1   20.05    6.38
  -4   7   0  462.86   23.15
  -4   8  -7   30.81    9.18
  -4   8  -6  207.33   14.86
  -4   8  -5   30.32    7.29
  -4   8  -4   17.65    7.80
  -4   8  -4   28.41    7.40
  -4   8  -3  507.48   26.07
  -4   8  -2  242.06   16.03
  -4   8  -1   65.96    9.60
  -4   8   0   30.40    7.69
  -4   9  -6   50.72    9.39
  -4   9  -5   80.51   10.59
  -4   9  -4    7.56    7.37
  -4   9  -3   58.72    9.48
  -4   9  -3   57.61   11.42
  -4   9  -2   25.74   10.10
  -4   9  -2    6.47    7.26
  -3  -6   0   25.76    7.72
  -3  -6   1    6.78    6.62
  -3  -6   2   73.27    9.55
  -3  -5  -2  165.89   14.47
  -3  -5  -1  150.38   12.73
  -3  -5   0  183.11   13.70
  -3  -5   1  159.99   12.37
  -3  -5   2   58.40    7.99
  -3  -4  -4   25.88    8.80
  -3  -4  -3   32.02    7.82
  -3  -4  -2   49.41    8.36
  -3  -4  -1   92.45    9.57
  -3  -4   0    9.51    5.72
  -3  -4   1  261.39   15.55
  -3  -4   2   72.48    7.92
  -3  -4   3  847.78   37.68
  -3  -4   4  172.87   11.94
  -3  -3  -5   82.06   11.13
  -3  -3  -4   11.83    6.93
  -3  -3  -3  254.04   15.98
  -3  -3  -2   82.00    8.50
  -3  -3  -1  110.09   11.76
  -3  -3  -1   88.44    8.60
  -3  -3   0  966.74   43.81
  -3  -3   0  922.37   40.93
  -3  -3   1  121.35   11.52
  -3  -3   1  102.38    8.43
  -3  -3   2  558.97   25.69
  -3  -3   2  566.44   25.88
  -3  -3   3   75.96    7.58
  -3  -3   3  100.60   10.43
  -3  -3   4  378.71   20.71
  -3  -3   4  352.15   18.55
  -3  -3   5  207.72   13.22
  -3  -3   5  211.33   14.51
  -3  -3   6  503.73   24.97
  -3  -3   6  452.87   23.50
  -3  -2  -7   13.02    9.43
  -3  -2  -6  145.62   13.99
  -3  -2  -5   33.18    9.37
  -3  -2  -5   44.09    8.95
  -3  -2  -4    3.77    6.97
  -3  -2  -3  128.56   11.83
  -3  -2  -3  136.38   10.91
  -3  -2  -2  321.66   18.75
  -3  -2  -2  312.76   16.89
  -3  -2  -1   97.34    7.92
  -3  -2  -1   74.09    9.66
  -3  -2   0  749.53   33.08
  -3  -2   0  795.08   36.13
  -3  -2   1   24.65    4.61
  -3  -2   1   15.06    4.24
  -3  -2   1   12.03    6.81
  -3  -2   2  550.80   24.13
  -3  -2   2  535.53   24.34
  -3  -2   3  599.61   27.55
  -3  -2   3  551.73   25.66
  -3  -2   4   71.95    8.02
  -3  -2   4   57.50    6.86
  -3  -2   5  820.66   37.16
  -3  -2   5  875.10   38.19
  -3  -2   6    9.34    5.34
  -3  -2   6   13.10    5.71
  -3  -2   7  370.99   19.79
  -3  -2   8  201.78   13.55
  -3  -1  -7    1.71    8.46
  -3  -1  -6   -1.91    7.20
  -3  -1  -6   -1.69    8.18
  -3  -1  -5  271.08   18.31
  -3  -1  -5  322.63   18.12
  -3  -1  -4  221.15   14.00
  -3  -1  -4  222.12   13.90
  -3  -1  -4  203.80   14.52
  -3  -1  -3  883.12   37.89
  -3  -1  -3  870.64   38.66
  -3  -1  -3  815.08   38.67
  -3  -1  -2    3.47    5.77
  -3  -1  -2    2.10    4.99
  -3  -1  -2    6.54    5.96
  -3  -1  -1 1012.84   42.16
  -3  -1  -1 1004.44   44.08
  -3  -1   0   32.73    4.19
  -3  -1   0   40.30    6.00
  -3  -1   0   32.17    3.58
  -3  -1   1  237.10   13.64
  -3  -1   1  242.10   11.84
  -3  -1   1  253.21   11.79
  -3  -1   2    2.63    3.17
  -3  -1   3  360.08   17.78
  -3  -1   3  395.06   19.16
  -3  -1   4  129.29    8.89
  -3  -1   4  130.65    9.51
  -3  -1   5  917.58   39.28
  -3  -1   5  859.28   38.43
  -3  -1   6   21.72    5.84
  -3  -1   6   18.70    5.56
  -3  -1   7  219.14   13.31
  -3  -1   7  193.45   13.15
  -3  -1   8  241.96   14.85
  -3  -1   9   79.56    8.57
  -3   0  -8   55.43   10.55
  -3   0  -7  208.41   15.05
  -3   0  -7  175.10   15.55
  -3   0  -6   -0.38    7.49
  -3   0  -6   -6.16    7.09
  -3   0  -5    2.36    5.77
  -3   0  -5   -1.02    6.64
  -3   0  -4    5.77    5.01
  -3   0  -4    3.72    5.66
  -3   0  -4    8.33    6.52
  -3   0  -3   17.61    5.32
  -3   0  -3   20.99    6.10
  -3   0  -3   23.41    5.24
  -3   0  -2   21.30    4.86
  -3   0  -2   28.10    5.72
  -3   0  -2   31.84    4.88
  -3   0  -1  458.95   19.41
  -3   0  -1  423.63   20.49
  -3   0  -1  420.25   20.47
  -3   0   0 1492.96   57.56
  -3   0   0 1421.07   57.22
  -3   0   0 1423.55   59.64
  -3   0   1 1502.00   61.07
  -3   0   1 1424.46   58.96
  -3   0   1 1505.92   58.22
  -3   0   2 2019.21   80.55
  -3   0   3  566.71   25.38
  -3   0   3  527.25   24.24
  -3   0   4  297.63   15.95
  -3   0   4  328.33   16.49
  -3   0   4  316.47   16.56
  -3   0   5   -2.14    4.64
  -3   0   5    1.27    3.58
  -3   0   5    5.76    3.65
  -3   0   6   58.32    6.80
  -3   0   6   50.32    7.44
  -3   0   6   64.24    6.74
  -3   0   7   92.42    9.42
  -3   0   7  104.22    8.70
  -3   0   7   92.06    8.44
  -3   0   8   19.10    5.48
  -3   0   8   15.55    5.25
  -3   0   9   30.19    6.21
  -3   0   9   29.24    6.04
  -3   1  -9   12.91    9.52
  -3   1  -8   -3.15    8.34
  -3   1  -8    0.82    7.53
  -3   1  -7   50.40    9.57
  -3   1  -7   44.03    8.81
  -3   1  -6  229.62   12.90
  -3   1  -6  266.82   12.76
  -3   1  -5   87.92    6.88
  -3   1  -5   93.81    9.09
  -3   1  -4  581.72   29.10
  -3   1  -4  656.25   28.68
  -3   1  -4  635.47   27.62
  -3   1  -3   74.79    7.51
  -3   1  -3   72.64    6.10
  -3   1  -3   86.28    6.79
  -3   1  -2  856.20   35.92
  -3   1  -2  820.03   36.27
  -3   1  -2  870.24   35.35
  -3   1  -1   24.81    4.22
  -3   1  -1   27.29    3.18
  -3   1  -1   21.93    3.79
  -3   1   0   85.25    5.35
  -3   1   0   78.06    4.50
  -3   1   0   87.70    6.07
  -3   1   1   21.28    3.82
  -3   1   1   22.48    3.73
  -3   1   1   18.20    3.12
  -3   1   2  146.90    8.62
  -3   1   3   64.43    6.00
  -3   1   4 1548.07   62.00
  -3   1   4 1436.25   61.60
  -3   1   4 1483.32   61.81
  -3   1   5  245.78   13.87
  -3   1   5  253.09   13.88
  -3   1   5  226.73   14.02
  -3   1   6  816.07   35.88
  -3   1   6  788.34   35.68
  -3   1   6  791.82   36.36
  -3   1   7  365.67   19.04
  -3   1   7  357.56   18.87
  -3   1   8  208.41   13.34
  -3   1   8  198.76   13.04
  -3   1   9   -0.64    4.98
  -3   1  10    3.97    5.34
  -3   2  -9   51.96   10.57
  -3   2  -8   10.76    7.91
  -3   2  -7  127.18   11.60
  -3   2  -6    1.73    1.83
  -3   2  -6   -0.30    5.85
  -3   2  -5  305.02   12.45
  -3   2  -5  224.26    7.37
  -3   2  -4  639.65   27.64
  -3   2  -4  595.62   25.80
  -3   2  -3   57.75    4.77
  -3   2  -3   62.78    5.93
  -3   2  -2 1192.80   41.06
  -3   2  -2 1082.14   40.31
  -3   2  -2  896.97   38.53
  -3   2  -2  981.25   38.65
  -3   2  -1  515.90   21.40
  -3   2  -1  476.66   19.75
  -3   2  -1  512.92   21.41
  -3   2   0  385.92   13.65
  -3   2   0  386.14   14.43
  -3   2   0  340.89   15.18
  -3   2   0  356.64   15.34
  -3   2   0  326.57   12.39
  -3   2   1 1491.57   61.00
  -3   2   1 1521.23   60.99
  -3   2   1 1448.96   59.90
  -3   2   2   22.63    2.02
  -3   2   2   19.51    4.28
  -3   2   3  384.97   17.06
  -3   2   3  435.52   19.81
  -3   2   4    7.51    4.58
  -3   2   4   12.25    4.11
  -3   2   4   10.29    4.01
  -3   2   4    6.90    3.57
  -3   2   5  118.61    9.88
  -3   2   5  124.48    9.36
  -3   2   5  103.26    7.91
  -3   2   5  125.76    9.54
  -3   2   6  139.08   10.51
  -3   2   6  138.78    9.65
  -3   2   6  153.74   10.86
  -3   2   7   29.77    6.42
  -3   2   7   36.57    6.33
  -3   2   7   47.47    6.71
  -3   2   8    5.90    4.96
  -3   2   9  370.86   20.65
  -3   3  -9   11.69    8.37
  -3   3  -8    3.08    6.94
  -3   3  -7  227.89   15.08
  -3   3  -7  219.51   11.43
  -3   3  -6   34.71    7.06
  -3   3  -6   27.95    4.23
  -3   3  -6   28.43    7.08
  -3   3  -5  216.79    9.54
  -3   3  -5  203.65    9.33
  -3   3  -5  219.42   12.61
  -3   3  -5  223.94   12.51
  -3   3  -4  261.15   11.64
  -3   3  -4  233.83   11.35
  -3   3  -4  239.00   13.76
  -3   3  -4  257.31   13.79
  -3   3  -4  239.21   11.38
  -3   3  -3  325.07   16.10
  -3   3  -3  357.36   16.00
  -3   3  -3  382.55   17.66
  -3   3  -3  383.76   17.53
  -3   3  -3  363.81   15.87
  -3   3  -3  349.96   16.15
  -3   3  -2  526.86   23.95
  -3   3  -2  548.38   23.27
  -3   3  -2  555.35   23.28
  -3   3  -2  545.50   23.76
  -3   3  -2  554.59   24.07
  -3   3  -2  557.29   24.12
  -3   3  -1  874.28   36.60
  -3   3  -1  860.69   37.41
  -3   3  -1  890.83   36.26
  -3   3  -1  900.09   35.99
  -3   3  -1  865.40   37.51
  -3   3   0   29.43    4.40
  -3   3   0   18.18    3.10
  -3   3   0   27.86    2.78
  -3   3   0   28.76    4.24
  -3   3   0   29.05    4.01
  -3   3   1 1688.62   71.08
  -3   3   1 1692.06   71.92
  -3   3   1 1841.80   69.27
  -3   3   1 1660.14   71.81
  -3   3   2   65.49    6.81
  -3   3   2   72.95    5.27
  -3   3   3 1546.84   64.87
  -3   3   3 1575.45   62.82
  -3   3   4   34.25    6.21
  -3   3   4   27.36    5.10
  -3   3   4   29.78    5.82
  -3   3   4   32.07    6.08
  -3   3   5   49.12    6.97
  -3   3   5   49.13    7.61
  -3   3   5   45.93    6.74
  -3   3   5   45.21    6.29
  -3   3   6  409.68   21.63
  -3   3   6  404.77   21.51
  -3   3   6  391.36   20.16
  -3   3   7   14.93    6.26
  -3   3   7   16.53    6.18
  -3   3   8   15.07    5.93
  -3   3   9    5.33    6.02
  -3   4 -10   56.21   10.99
  -3   4  -9  136.92   13.74
  -3   4  -9  140.90   13.44
  -3   4  -8   20.69    7.55
  -3   4  -8   11.54    7.57
  -3   4  -7   38.14    5.58
  -3   4  -7   40.52    8.06
  -3   4  -7   47.34    8.46
  -3   4  -6   76.77    8.77
  -3   4  -6   65.34    8.38
  -3   4  -6   76.34    6.47
  -3   4  -5  120.78    6.94
  -3   4  -5  167.20   11.34
  -3   4  -5  168.89    9.31
  -3   4  -5  145.08   10.53
  -3   4  -5  134.02    7.00
  -3   4  -5  162.89    8.85
  -3   4  -4  218.71   10.91
  -3   4  -4  234.69   11.84
  -3   4  -4  228.07   10.99
  -3   4  -4  210.30   11.96
  -3   4  -4  225.12   13.08
  -3   4  -4  218.91   13.20
  -3   4  -3  253.27   13.36
  -3   4  -3  271.65   13.47
  -3   4  -3  266.94   13.60
  -3   4  -3  283.01   13.62
  -3   4  -3  278.89   14.42
  -3   4  -2  806.27   33.97
  -3   4  -2  790.85   34.85
  -3   4  -2  832.58   34.16
  -3   4  -2  781.98   34.30
  -3   4  -1  199.65   11.83
  -3   4  -1  204.84   10.94
  -3   4  -1  201.61   11.29
  -3   4   0  902.34   42.05
  -3   4   0 1020.20   40.17
  -3   4   0  955.08   41.19
  -3   4   1  152.38    9.91
  -3   4   1  147.80    8.90
  -3   4   1  131.47   10.16
  -3   4   2  324.37   15.77
  -3   4   2  334.54   17.31
  -3   4   3  119.49    9.20
  -3   4   3  118.29    7.95
  -3   4   4  504.72   22.46
  -3   4   4  599.21   27.56
  -3   4   4  567.83   24.94
  -3   4   4  565.92   26.57
  -3   4   5  194.61   12.22
  -3   4   6  215.34   13.82
  -3   4   8  191.37   14.78
  -3   4   9    5.99    6.72
  -3   5  -9   13.13    8.33
  -3   5  -9   20.42    8.39
  -3   5  -8  182.69   11.63
  -3   5  -8  164.25   13.81
  -3   5  -8  182.57   14.44
  -3   5  -7   53.31    8.66
  -3   5  -7   59.36    8.84
  -3   5  -7   55.88    6.79
  -3   5  -6  602.13   22.29
  -3   5  -6  594.09   21.69
  -3   5  -6  544.97   23.76
  -3   5  -6  391.41   17.77
  -3   5  -6  396.61   17.75
  -3   5  -6  517.89   23.21
  -3   5  -6  369.23   18.16
  -3   5  -5   68.57    8.25
  -3   5  -5   82.20    7.12
  -3   5  -5   81.29    7.46
  -3   5  -5   73.68    5.52
  -3   5  -5   62.21    5.39
  -3   5  -4  695.92   31.40
  -3   5  -4  696.14   30.98
  -3   5  -4  651.47   30.33
  -3   5  -4  759.53   31.24
  -3   5  -3   41.12    5.65
  -3   5  -3   29.06    5.24
  -3   5  -3   31.03    5.62
  -3   5  -3   31.19    5.29
  -3   5  -2  225.61   13.18
  -3   5  -2  249.40   13.07
  -3   5  -2  221.59   13.17
  -3   5  -2  250.83   14.20
  -3   5  -1    3.31    3.98
  -3   5  -1   -0.72    4.19
  -3   5  -1    3.74    4.52
  -3   5   0  188.08   10.62
  -3   5   0  169.36   11.01
  -3   5   1  361.77   20.74
  -3   5   1  376.82   19.41
  -3   5   1  381.20   18.47
  -3   5   2  648.93   30.96
  -3   5   2  662.17   28.22
  -3   5   2  679.11   29.81
  -3   5   3  305.37   16.27
  -3   5   3  311.24   17.56
  -3   5   4  132.62    7.92
  -3   5   4  139.92   10.81
  -3   5   5  239.50   14.92
  -3   6  -9   40.37    9.59
  -3   6  -9   29.36    9.15
  -3   6  -8    3.96    7.08
  -3   6  -8    0.43    6.93
  -3   6  -8    8.53    6.09
  -3   6  -7  116.86   11.66
  -3   6  -7  107.48   11.16
  -3   6  -7  115.58   10.32
  -3   6  -7  129.55    9.83
  -3   6  -6   13.80    3.61
  -3   6  -6   19.37    5.96
  -3   6  -6   26.21    5.90
  -3   6  -6   16.53    4.68
  -3   6  -5  190.91   12.28
  -3   6  -5  183.26   11.09
  -3   6  -5  185.60   12.07
  -3   6  -5  158.36   11.31
  -3   6  -5  197.09   12.60
  -3   6  -4   10.44    5.49
  -3   6  -4    5.75    4.59
  -3   6  -4    7.23    5.03
  -3   6  -4   13.99    5.53
  -3   6  -3  722.34   33.21
  -3   6  -3  710.16   32.74
  -3   6  -3  787.76   32.77
  -3   6  -3  661.76   33.44
  -3   6  -2   68.34    9.53
  -3   6  -2   59.88    7.79
  -3   6  -2   89.19    8.64
  -3   6  -2   57.60    8.60
  -3   6  -1 1173.29   49.49
  -3   6  -1 1239.03   48.80
  -3   6  -1 1143.95   49.24
  -3   6   0  165.67   11.97
  -3   6   0  175.88   11.91
  -3   6   1  214.63   13.30
  -3   6   1  205.83   13.56
  -3   6   2   41.88    6.54
  -3   6   2   51.69    7.70
  -3   6   3   59.10    8.34
  -3   7  -8    1.77    7.27
  -3   7  -8    6.38    6.27
  -3   7  -8   12.06    8.06
  -3   7  -7   40.51    7.45
  -3   7  -6   44.32    7.62
  -3   7  -5   75.03    8.69
  -3   7  -5   80.66    8.84
  -3   7  -4  177.51   13.70
  -3   7  -4  171.44   13.96
  -3   7  -3  213.04   13.89
  -3   7  -3  230.25   13.89
  -3   7  -2  133.54   10.73
  -3   7  -2  109.21   10.06
  -3   7  -1  164.11   12.24
  -3   7  -1  166.45   12.32
  -3   7   0  229.27   15.18
  -3   8  -8  140.62   12.97
  -3   8  -7   10.31    6.90
  -3   8  -6  179.29   14.05
  -3   8  -5   66.13    9.74
  -3   8  -5   71.83    9.45
  -3   8  -4   64.93   10.10
  -3   8  -4   83.95    9.91
  -3   8  -3   15.19    8.14
  -3   8  -3   20.79    6.95
  -3   8  -2   71.75   11.20
  -3   8  -2   52.97    8.81
  -3   8  -1   18.42    6.99
  -3   8   0   58.25    9.00
  -3   9  -6   49.24    9.53
  -3   9  -5   87.79   11.03
  -3   9  -4   43.83   10.35
  -3   9  -4   58.49    9.55
  -3   9  -3  108.78   12.02
  -3   9  -3  105.45   13.50
  -3   9  -2   76.06   12.79
  -3   9  -2   59.75    9.96
  -3   9  -1  107.62   14.56
  -2  -7   1  107.83   11.78
  -2  -7   2    8.55    6.99
  -2  -6  -2    5.03    7.59
  -2  -6  -1   14.20    7.05
  -2  -6   0  153.68   12.74
  -2  -6   1  106.20   10.52
  -2  -6   2   88.16    9.74
  -2  -6   3   96.95   10.27
  -2  -5  -4   16.54    7.68
  -2  -5  -3   16.89    7.50
  -2  -5  -2  122.08   11.17
  -2  -5  -1   -5.79    6.41
  -2  -5   0  112.15   10.06
  -2  -5   1  533.84   26.30
  -2  -5   2  852.49   38.40
  -2  -5   3    0.58    5.48
  -2  -4  -5   91.83   11.17
  -2  -4  -4  127.73   12.04
  -2  -4  -3   74.47    8.96
  -2  -4  -2  100.21   10.17
  -2  -4  -1  748.06   34.38
  -2  -4   0  862.24   39.11
  -2  -4   0  910.69   41.95
  -2  -4   1    5.87    4.67
  -2  -4   2   40.30    6.86
  -2  -4   2   78.82   10.36
  -2  -4   3  679.46   31.96
  -2  -4   3  778.00   35.22
  -2  -4   4   51.24    8.85
  -2  -4   4   54.12    7.05
  -2  -4   5  340.09   18.45
  -2  -4   5  350.96   20.42
  -2  -4   6  365.88   20.63
  -2  -4   6  342.54   19.09
  -2  -4   7 1056.18   47.59
  -2  -4   8   39.50    8.13
  -2  -3  -7   48.74   11.02
  -2  -3  -6   -2.67    8.19
  -2  -3  -5   16.38    7.73
  -2  -3  -4  250.77   16.23
  -2  -3  -3  759.24   35.07
  -2  -3  -2   44.95    6.64
  -2  -3  -1  123.44   11.69
  -2  -3  -1  129.01    9.57
  -2  -3   0  585.83   27.35
  -2  -3   0  502.93   24.44
  -2  -3   1 1586.99   65.10
  -2  -3   2   12.50    4.17
  -2  -3   2    0.56    3.47
  -2  -3   3  220.06   13.69
  -2  -3   3  176.99   11.16
  -2  -3   4  656.03   30.81
  -2  -3   4  743.44   32.59
  -2  -3   5 1152.75   51.11
  -2  -3   5 1281.96   52.45
  -2  -3   6   11.30    5.57
  -2  -3   6   21.12    5.85
  -2  -3   7   11.99    5.75
  -2  -3   8  366.49   19.37
  -2  -2  -8   -1.46    8.74
  -2  -2  -7   10.02    8.05
  -2  -2  -7   12.20    8.84
  -2  -2  -6   93.64   10.66
  -2  -2  -6   79.93    7.04
  -2  -2  -6   77.24   10.52
  -2  -2  -5  502.16   25.59
  -2  -2  -5  486.55   22.33
  -2  -2  -5  480.24   25.49
  -2  -2  -4    4.16    6.28
  -2  -2  -3   57.63    7.54
  -2  -2  -2 1266.78   51.46
  -2  -2  -2 1161.95   52.49
  -2  -2  -1   37.54    4.68
  -2  -2  -1   35.39    6.17
  -2  -2   0  596.15   26.59
  -2  -2   0  525.80   24.12
  -2  -2   1  363.48   16.58
  -2  -2   1  354.82   16.89
  -2  -2   2 4081.86  157.84
  -2  -2   2 3951.06  157.46
  -2  -2   3  816.03   35.77
  -2  -2   3  886.73   37.03
  -2  -2   4  286.63   14.92
  -2  -2   4  294.47   15.29
  -2  -2   5   62.09    6.39
  -2  -2   5   73.31    6.76
  -2  -2   6  955.11   41.18
  -2  -2   7   44.49    6.17
  -2  -2   8   31.14    5.56
  -2  -2   9   45.23    6.33
  -2  -1  -8  249.57   18.69
  -2  -1  -8  286.95   18.90
  -2  -1  -7   -0.21    4.07
  -2  -1  -7   -6.66    7.53
  -2  -1  -7    0.80    7.61
  -2  -1  -6   -0.18    3.54
  -2  -1  -6   -3.22    7.29
  -2  -1  -6    0.34    6.68
  -2  -1  -5  339.82   16.11
  -2  -1  -5  355.78   19.13
  -2  -1  -4  543.46   23.07
  -2  -1  -4  528.61   25.82
  -2  -1  -3   49.91    6.13
  -2  -1  -3   45.34    6.45
  -2  -1  -2  170.64   10.94
  -2  -1  -2  175.60    9.91
  -2  -1  -2  165.96   10.41
  -2  -1  -1  549.70   25.49
  -2  -1  -1  584.74   24.97
  -2  -1  -1  599.00   26.30
  -2  -1   0 3160.22  120.65
  -2  -1   0 3032.84  119.04
  -2  -1   0 2976.81  118.56
  -2  -1   1   19.53    2.57
  -2  -1   1   21.16    2.80
  -2  -1   2   43.25    4.05
  -2  -1   3 2518.64  104.08
  -2  -1   3 2762.30  104.87
  -2  -1   4  549.38   23.97
  -2  -1   4  507.93   23.56
  -2  -1   5  427.55   20.19
  -2  -1   6   11.33    3.91
  -2  -1   7  972.90   41.67
  -2  -1   8  487.50   23.05
  -2  -1   9    6.17    4.39
  -2   0  -9   31.90    9.77
  -2   0  -9   31.06    9.36
  -2   0  -8    9.82    8.24
  -2   0  -8   17.97    8.28
  -2   0  -7  199.35   10.94
  -2   0  -7  176.85   14.35
  -2   0  -7  208.04   14.49
  -2   0  -6  195.42   10.50
  -2   0  -6  217.86   14.04
  -2   0  -5  457.65   21.93
  -2   0  -5  414.95   18.58
  -2   0  -4   19.80    5.22
  -2   0  -4   26.44    5.58
  -2   0  -4   19.78    2.50
  -2   0  -3 3283.15   98.25
  -2   0  -3 3220.27   97.37
  -2   0  -3 3229.97   97.64
  -2   0  -2  477.86   21.33
  -2   0  -2  481.03   21.00
  -2   0  -2  481.93   21.65
  -2   0  -1   50.07    4.57
  -2   0  -1   51.33    4.40
  -2   0  -1   59.14    4.19
  -2   0   0  581.21   23.07
  -2   0   0  575.29   24.40
  -2   0   0  552.49   22.84
  -2   0   1 2155.26   85.35
  -2   0   1 2179.31   84.56
  -2   0   2  532.29   22.79
  -2   0   3  236.14   12.37
  -2   0   3  268.33   12.71
  -2   0   3  249.52   12.50
  -2   0   4  232.51   12.80
  -2   0   4  246.19   12.60
  -2   0   4  255.25   12.67
  -2   0   5 1645.28   67.91
  -2   0   5 1694.62   68.02
  -2   0   6   17.52    3.93
  -2   0   6   21.49    4.12
  -2   0   7    4.27    3.68
  -2   0   7    4.73    5.63
  -2   0   7    9.49    3.78
  -2   0   8  374.34   18.68
  -2   0   8  376.30   18.73
  -2   0   9  204.99   12.22
  -2   0   9  191.85   12.13
  -2   1 -10   27.53    9.98
  -2   1  -9  258.94   18.36
  -2   1  -8   13.64    7.91
  -2   1  -8    9.67    4.37
  -2   1  -7   -1.66    6.30
  -2   1  -7   -7.18    3.88
  -2   1  -6  172.04    9.53
  -2   1  -6  195.89   13.00
  -2   1  -5  216.26   10.33
  -2   1  -5  212.59   13.09
  -2   1  -4  147.51    9.36
  -2   1  -4  138.01    6.89
  -2   1  -4  139.96    7.34
  -2   1  -3   16.95    2.70
  -2   1  -3   11.76    1.25
  -2   1  -3   20.15    3.92
  -2   1  -2 2417.75   96.75
  -2   1  -2 2514.89   97.11
  -2   1  -1 3405.32  120.09
  -2   1  -1 3251.25  120.08
  -2   1  -1 3278.22  119.30
  -2   1   0 1690.06   63.84
  -2   1   0 1600.19   62.83
  -2   1   0 1702.43   63.91
  -2   1   0 1529.40   62.08
  -2   1   0 1673.54   62.90
  -2   1   1  449.48   19.43
  -2   1   2 4103.60  165.27
  -2   1   2 4259.44  163.67
  -2   1   3 1562.52   63.35
  -2   1   3 1553.41   63.30
  -2   1   3 1556.92   63.40
  -2   1   3 1560.00   61.81
  -2   1   4   15.36    3.33
  -2   1   4   13.41    3.25
  -2   1   4   14.95    3.38
  -2   1   5   65.16    6.05
  -2   1   5   65.87    5.86
  -2   1   5   54.92    5.68
  -2   1   6  386.42   19.79
  -2   1   6  440.58   20.32
  -2   1   6  416.89   20.02
  -2   1   6  413.26   21.11
  -2   1   7  171.54   11.88
  -2   1   7  173.22   10.53
  -2   1   7  155.87   11.17
  -2   1   7  141.35   10.10
  -2   1   8   35.08    5.49
  -2   1   8   28.73    5.40
  -2   1   9   15.09    4.98
  -2   2 -10   -8.92    8.84
  -2   2  -9   21.32    5.49
  -2   2  -9   15.27    8.34
  -2   2  -8  323.43   16.09
  -2   2  -8  297.88   19.08
  -2   2  -7  474.45   25.32
  -2   2  -7  504.52   22.45
  -2   2  -6  185.68   12.32
  -2   2  -6  180.21   10.02
  -2   2  -6  187.10   12.69
  -2   2  -5  256.45   12.18
  -2   2  -5  246.06   14.15
  -2   2  -5  254.72   14.15
  -2   2  -4 2322.65   68.02
  -2   2  -4 2213.71   70.47
  -2   2  -4 2323.14   70.66
  -2   2  -3  101.32    6.49
  -2   2  -3   78.93    6.43
  -2   2  -3   36.95    3.20
  -2   2  -3   54.06    3.74
  -2   2  -2   14.17    2.23
  -2   2  -2   17.87    2.33
  -2   2  -2   18.55    2.39
  -2   2  -2   15.51    2.31
  -2   2  -2   18.46    3.09
  -2   2  -1  632.29   26.30
  -2   2  -1  658.63   27.02
  -2   2  -1  638.10   26.47
  -2   2  -1  647.28   26.92
  -2   2   0 1678.33   68.61
  -2   2   0 1636.11   67.84
  -2   2   0 1751.42   67.08
  -2   2   0 1721.04   66.94
  -2   2   1  549.10   22.53
  -2   2   1  559.42   23.79
  -2   2   2  151.07    8.79
  -2   2   2  151.17    7.64
  -2   2   3 1402.45   58.33
  -2   2   3 1419.58   56.76
  -2   2   4 3099.54  123.60
  -2   2   4 3087.25  122.30
  -2   2   5  116.73    9.34
  -2   2   5  114.42    8.63
  -2   2   5  103.82    8.23
  -2   2   6  215.99   13.14
  -2   2   6  214.21   14.02
  -2   2   6  221.04   13.47
  -2   2   6  237.36   13.43
  -2   2   7  294.66   17.28
  -2   2   7  296.68   16.10
  -2   2   7  269.79   16.35
  -2   2   7  283.88   16.08
  -2   2   8  168.49   12.63
  -2   2   8  219.31   13.10
  -2   2   9   21.01    5.71
  -2   3 -10   79.63   11.45
  -2   3  -9   43.20    9.03
  -2   3  -9   52.31    6.93
  -2   3  -8   66.10    9.21
  -2   3  -8   53.53    6.67
  -2   3  -7  658.36   29.04
  -2   3  -7  669.21   31.43
  -2   3  -7  630.64   31.17
  -2   3  -6  605.13   26.10
  -2   3  -6  601.21   28.27
  -2   3  -6  552.71   27.93
  -2   3  -5    4.02    4.41
  -2   3  -5    2.47    4.57
  -2   3  -5    6.36    3.48
  -2   3  -4  529.30   21.89
  -2   3  -4  589.51   23.30
  -2   3  -4  544.71   24.57
  -2   3  -4  557.59   24.74
  -2   3  -4  508.06   21.84
  -2   3  -3 1306.43   51.16
  -2   3  -3 1230.85   50.68
  -2   3  -2 3498.22  135.16
  -2   3  -2 3562.78  135.06
  -2   3  -2 3235.66  135.36
  -2   3  -1  258.56   13.23
  -2   3  -1  260.01   12.58
  -2   3  -1  265.30   12.26
  -2   3   0  418.43   19.33
  -2   3   0  374.30   18.17
  -2   3   0  416.42   17.66
  -2   3   1 3754.03  150.51
  -2   3   1 3864.60  149.58
  -2   3   2  276.09   14.98
  -2   3   2  297.71   12.96
  -2   3   2  304.38   14.16
  -2   3   3  116.53    9.01
  -2   3   3  121.73    8.06
  -2   3   4   43.81    6.07
  -2   3   4   55.12    6.59
  -2   3   4   55.33    4.77
  -2   3   5  597.57   27.45
  -2   3   5  571.37   25.79
  -2   3   5  604.66   28.55
  -2   3   5  622.17   28.44
  -2   3   6  353.07   18.99
  -2   3   6  333.84   18.49
  -2   3   6  317.02   16.40
  -2   3   6  353.52   18.21
  -2   3   7   58.51    7.60
  -2   3   9  278.71   17.39
  -2   4 -10   -4.11    8.46
  -2   4  -9  270.83   18.06
  -2   4  -9  255.87   15.35
  -2   4  -8  145.62   10.06
  -2   4  -8  132.04   12.12
  -2   4  -7  191.27   11.36
  -2   4  -7  183.38   13.07
  -2   4  -7  156.62   12.91
  -2   4  -6  379.40   17.77
  -2   4  -6  329.46   18.95
  -2   4  -6  339.36   19.05
  -2   4  -5  730.08   33.12
  -2   4  -5  816.51   32.99
  -2   4  -4  111.92    6.98
  -2   4  -4  109.27    7.98
  -2   4  -3   49.77    5.57
  -2   4  -3   45.07    5.93
  -2   4  -3   62.16    6.25
  -2   4  -3   47.08    6.28
  -2   4  -2 1231.05   50.52
  -2   4  -2 1313.47   50.24
  -2   4  -2 1103.86   50.77
  -2   4  -2 1200.27   50.39
  -2   4  -1 3351.40  132.47
  -2   4  -1 3531.95  132.10
  -2   4  -1 3053.61  133.37
  -2   4   0  461.31   20.94
  -2   4   0  450.30   22.23
  -2   4   0  419.21   20.20
  -2   4   1 1096.92   45.33
  -2   4   1 1079.31   46.01
  -2   4   2  257.16   13.10
  -2   4   2  280.38   14.21
  -2   4   3 1489.88   61.72
  -2   4   3 1505.88   64.09
  -2   4   4   47.23    7.63
  -2   4   4   43.02    7.51
  -2   4   4   34.53    7.01
  -2   4   5   90.95    9.31
  -2   4   5   90.58    7.31
  -2   4   5   86.74    9.42
  -2   4   5   87.87    9.75
  -2   4   6  424.55   20.55
  -2   5 -10   14.55    8.12
  -2   5 -10   11.74    8.46
  -2   5 -10   17.07    7.00
  -2   5  -9    0.85    6.83
  -2   5  -9   -3.84    5.93
  -2   5  -9   -1.66    7.06
  -2   5  -8   54.66    8.78
  -2   5  -8   53.30    7.83
  -2   5  -8   59.18    8.91
  -2   5  -7  211.85   12.94
  -2   5  -7  201.18   14.40
  -2   5  -6   12.97    3.32
  -2   5  -6   15.60    5.11
  -2   5  -6   13.65    3.16
  -2   5  -5    0.23    4.47
  -2   5  -5    4.83    4.24
  -2   5  -5    3.39    4.64
  -2   5  -5    0.94    3.42
  -2   5  -4 1546.29   60.87
  -2   5  -4 1602.57   60.82
  -2   5  -4 1451.27   60.33
  -2   5  -3  700.36   31.48
  -2   5  -3  705.85   31.45
  -2   5  -3  696.77   31.26
  -2   5  -2  672.02   31.02
  -2   5  -2  661.33   30.77
  -2   5  -2  725.43   30.89
  -2   5  -1  277.68   15.00
  -2   5  -1  258.48   14.59
  -2   5  -1  268.66   14.91
  -2   5   0 1589.42   67.91
  -2   5   0 1685.56   67.50
  -2   5   1   61.68    8.01
  -2   5   2   17.32    5.99
  -2   5   2   13.30    5.18
  -2   5   3   71.68    9.29
  -2   5   3   66.69    8.03
  -2   5   3   57.88    6.92
  -2   5   3   68.52    8.26
  -2   5   4  772.53   35.47
  -2   5   5  251.23   13.90
  -2   6 -10  106.56   11.88
  -2   6  -9    1.43    6.18
  -2   6  -9    3.83    7.28
  -2   6  -9   -9.23    8.03
  -2   6  -8  201.57   13.62
  -2   6  -8  182.20   14.70
  -2   6  -7  297.99   15.20
  -2   6  -7  392.54   19.03
  -2   6  -6  811.95   37.06
  -2   6  -6  825.35   37.62
  -2   6  -5    3.29    5.33
  -2   6  -5    9.07    5.78
  -2   6  -5    7.21    5.24
  -2   6  -5    8.50    5.39
  -2   6  -4   22.34    5.98
  -2   6  -4   26.25    6.17
  -2   6  -4   22.21    6.32
  -2   6  -4   28.33    6.26
  -2   6  -3   27.22    6.27
  -2   6  -3   26.77    7.20
  -2   6  -3   33.07    6.24
  -2   6  -3   24.63    6.00
  -2   6  -2  476.19   23.89
  -2   6  -2  486.77   23.71
  -2   6  -2  485.92   24.12
  -2   6  -1   35.05    7.27
  -2   6  -1   43.30    6.73
  -2   6  -1   37.81    6.54
  -2   6   0   38.36    7.68
  -2   6   0   39.37    6.63
  -2   6   1 1175.39   50.93
  -2   6   1 1243.28   52.21
  -2   6   2  622.25   29.39
  -2   6   2  668.63   30.79
  -2   6   3  166.35   11.58
  -2   7 -10    6.83    7.65
  -2   7  -9  112.05   11.87
  -2   7  -9   90.54   12.21
  -2   7  -8   60.16    8.91
  -2   7  -7   25.81    7.13
  -2   7  -6   -3.55    5.77
  -2   7  -6   -1.44    5.82
  -2   7  -5  773.73   36.43
  -2   7  -5  783.04   36.47
  -2   7  -4   82.11    9.90
  -2   7  -4   82.10    9.21
  -2   7  -3  462.77   25.53
  -2   7  -3  468.46   24.19
  -2   7  -2  132.16   11.27
  -2   7  -2  133.69   12.57
  -2   7  -1  996.79   44.84
  -2   7  -1  864.78   41.70
  -2   7   0  211.51   16.83
  -2   7   1    5.16    8.69
  -2   7   1    2.92    6.60
  -2   7   2    4.14    6.81
  -2   7   3   89.11   13.94
  -2   7   4   15.99   10.81
  -2   8  -9   17.05    8.06
  -2   8  -8   48.88    9.44
  -2   8  -7   46.19    8.83
  -2   8  -6   36.66    8.21
  -2   8  -6   30.53    7.93
  -2   8  -5   -1.28    7.26
  -2   8  -5    9.30    6.77
  -2   8  -4  365.28   21.44
  -2   8  -4  309.42   19.93
  -2   8  -3  423.63   24.19
  -2   8  -3  496.67   26.88
  -2   8  -2   36.90    9.81
  -2   8  -2   21.80    7.25
  -2   8  -1   93.22   12.67
  -2   8   0  379.84   24.86
  -2   8   1   80.43   10.86
  -2   8   1  121.46   14.34
  -2   8   2   63.29   10.10
  -2   9  -5   64.88   11.10
  -2   9  -5   63.07   10.47
  -2   9  -4   11.59    9.21
  -2   9  -4   18.60    8.17
  -2   9  -3   66.00   12.12
  -2   9  -3   57.65   10.15
  -2   9  -2   69.57   12.49
  -2   9  -2   50.24    9.44
  -2   9  -1   14.26   10.68
  -1  -7  -1    7.49    6.90
  -1  -7   0   41.38    8.06
  -1  -7   1   91.38   10.09
  -1  -7   2  153.01   12.38
  -1  -6  -3   98.79   11.22
  -1  -6  -2    5.70    7.01
  -1  -6  -1  816.86   38.48
  -1  -6   0   52.44    7.83
  -1  -6   1  306.02   17.70
  -1  -6   2   18.04    5.88
  -1  -6   3   27.69    6.14
  -1  -6   7  387.96   23.83
  -1  -5  -5    0.90    7.44
  -1  -5  -4  336.90   20.40
  -1  -5  -3   42.19    7.97
  -1  -5  -2   46.88    7.45
  -1  -5  -1   32.18    6.81
  -1  -5   0  126.03    9.96
  -1  -5   1  429.61   21.88
  -1  -5   2  512.06   24.83
  -1  -5   3  393.79   21.50
  -1  -5   3  521.65   25.94
  -1  -5   4 1187.64   51.81
  -1  -5   4 1246.98   54.74
  -1  -5   5  126.29   13.03
  -1  -5   5  139.17   10.79
  -1  -5   6  347.45   20.71
  -1  -5   7    4.73    7.15
  -1  -5   8    2.67    7.33
  -1  -4  -6   79.86   11.10
  -1  -4  -6   76.03    9.07
  -1  -4  -5  238.82   16.28
  -1  -4  -5  218.24   14.05
  -1  -4  -4   25.87    7.18
  -1  -4  -3    8.59    5.78
  -1  -4  -2  435.54   22.14
  -1  -4  -1  366.35   18.90
  -1  -4   0  482.63   23.08
  -1  -4   1 1166.54   49.27
  -1  -4   2  892.64   37.33
  -1  -4   2  719.24   33.80
  -1  -4   3   91.20    7.86
  -1  -4   3  114.53   10.55
  -1  -4   4  762.86   33.44
  -1  -4   4  645.73   30.93
  -1  -4   5    1.97    6.22
  -1  -4   6  642.93   30.85
  -1  -4   7  173.23   12.42
  -1  -4   7  180.05   12.79
  -1  -4   8  424.18   22.13
  -1  -3  -8   94.14   12.98
  -1  -3  -7   12.36    8.35
  -1  -3  -7   17.17    6.30
  -1  -3  -7   14.53    8.65
  -1  -3  -6    0.37    7.59
  -1  -3  -6    7.33    5.15
  -1  -3  -6    3.15    7.21
  -1  -3  -5  377.19   18.80
  -1  -3  -5  363.01   20.53
  -1  -3  -5  347.03   20.43
  -1  -3  -4   36.19    7.32
  -1  -3  -4   43.38    5.72
  -1  -3  -3  140.43   10.92
  -1  -3  -3  147.99    9.32
  -1  -3  -2  141.02    9.72
  -1  -3  -1  361.11   17.72
  -1  -3   0 1320.97   54.41
  -1  -3   1  478.61   21.71
  -1  -3   2   76.99    6.29
  -1  -3   2   90.60    6.60
  -1  -3   3 1637.14   64.78
  -1  -3   3 1482.90   62.85
  -1  -3   4  525.31   24.95
  -1  -3   5 1488.02   61.95
  -1  -3   6  118.87    8.91
  -1  -3   6   94.67    8.64
  -1  -3   7  334.07   18.36
  -1  -3   7  348.31   17.64
  -1  -3   8   14.06    5.04
  -1  -3   8   19.97    6.23
  -1  -2  -9    8.32    9.76
  -1  -2  -8   26.36    6.39
  -1  -2  -8    9.19    8.59
  -1  -2  -7   50.18    9.09
  -1  -2  -7   35.57    8.72
  -1  -2  -7   45.59    6.63
  -1  -2  -6    1.97    4.18
  -1  -2  -6    1.00    6.64
  -1  -2  -6    4.14    6.22
  -1  -2  -5  324.89   18.62
  -1  -2  -5  323.76   18.59
  -1  -2  -5  343.86   16.91
  -1  -2  -4  194.13   12.55
  -1  -2  -4  191.51   12.66
  -1  -2  -4  200.20   10.98
  -1  -2  -3 1980.79   82.98
  -1  -2  -3 2128.78   82.14
  -1  -2  -3 2006.65   83.21
  -1  -2  -2  188.57   10.98
  -1  -2  -2  197.37   11.22
  -1  -2  -2  195.94    9.99
  -1  -2  -1  797.09   34.52
  -1  -2  -1  766.99   32.93
  -1  -2   0  742.98   31.12
  -1  -2   1  358.00   15.97
  -1  -2   1  353.09   15.96
  -1  -2   2  234.61   12.24
  -1  -2   2  211.47   10.90
  -1  -2   3 1080.42   45.02
  -1  -2   4   36.47    4.13
  -1  -2   5  832.81   35.13
  -1  -2   5  831.89   35.78
  -1  -2   6  391.43   18.36
  -1  -2   6  401.89   19.60
  -1  -2   7  166.94    9.80
  -1  -2   7  180.68   11.71
  -1  -2   8  330.38   16.24
  -1  -2   8  353.42   18.59
  -1  -1  -9   61.35    8.24
  -1  -1  -9   53.82   10.27
  -1  -1  -8   35.94    6.35
  -1  -1  -8   42.29    8.91
  -1  -1  -7   18.36    7.14
  -1  -1  -7   23.06    5.16
  -1  -1  -7   23.21    7.16
  -1  -1  -6  200.67   11.44
  -1  -1  -6  196.14   13.57
  -1  -1  -6  175.98   13.14
  -1  -1  -5   90.62    6.59
  -1  -1  -5   80.47    8.28
  -1  -1  -5   77.11    8.31
  -1  -1  -4    3.16    4.59
  -1  -1  -4    2.35    4.26
  -1  -1  -4    2.53    2.68
  -1  -1  -3   56.92    5.50
  -1  -1  -3   49.55    5.63
  -1  -1  -3   62.37    4.41
  -1  -1  -2 1037.07   45.85
  -1  -1  -2 1139.62   44.36
  -1  -1  -2 1110.87   45.32
  -1  -1  -1   16.26    2.79
  -1  -1  -1   18.12    3.75
  -1  -1   0 6334.63  245.61
  -1  -1   0 6321.18  245.38
  -1  -1   1   63.56    4.11
  -1  -1   1   60.69    3.89
  -1  -1   2 5669.74  219.61
  -1  -1   2 5614.88  219.96
  -1  -1   3    5.10    2.27
  -1  -1   4  893.87   36.83
  -1  -1   5    0.78    2.34
  -1  -1   5    0.18    3.43
  -1  -1   6   14.27    3.01
  -1  -1   6   16.75    4.59
  -1  -1   7   10.19    3.31
  -1  -1   7   11.07    5.20
  -1  -1   8  307.17   16.73
  -1  -1   8  283.55   14.19
  -1   0 -10   24.83    9.66
  -1   0  -9   17.71    5.76
  -1   0  -8  299.16   16.22
  -1   0  -7   10.10    6.84
  -1   0  -7    9.78    4.49
  -1   0  -6  158.73    9.64
  -1   0  -6  145.13   11.53
  -1   0  -5  220.39   11.34
  -1   0  -5  218.40   13.07
  -1   0  -4  922.95   37.41
  -1   0  -4  894.37   38.77
  -1   0  -3  461.03   20.47
  -1   0  -3  455.67   19.17
  -1   0  -2  702.50   27.62
  -1   0  -2  753.41   28.92
  -1   0  -1  552.40   23.76
  -1   0  -1  610.20   23.74
  -1   0   0  277.03   11.24
  -1   0   0  265.91   11.67
  -1   0   0  279.07   11.15
  -1   0   1  248.14   10.76
  -1   0   2  296.21   12.79
  -1   0   2  280.02   12.63
  -1   0   3 1074.87   43.57
  -1   0   3 1082.31   43.46
  -1   0   4  385.50   17.24
  -1   0   4  380.92   17.15
  -1   0   4  400.27   17.72
  -1   0   4  397.83   18.14
  -1   0   5 2484.99   98.29
  -1   0   5 2514.18   98.43
  -1   0   5 2413.88   99.57
  -1   0   5 2501.87   99.26
  -1   0   6  531.23   24.83
  -1   0   6  524.01   23.08
  -1   0   6  527.77   23.19
  -1   0   6  528.28   24.48
  -1   0   7  391.44   20.54
  -1   0   7  414.25   18.69
  -1   0   7  402.39   18.68
  -1   0   8    1.14    5.46
  -1   0   8    1.73    3.20
  -1   0   8    1.36    2.96
  -1   0   9   41.15    5.20
  -1   1 -10   23.40    6.91
  -1   1  -9   10.87    5.37
  -1   1  -8   22.88    5.53
  -1   1  -7  656.22   28.93
  -1   1  -7  605.72   30.71
  -1   1  -7  659.71   30.26
  -1   1  -6   18.87    3.96
  -1   1  -6   26.24    5.36
  -1   1  -6   19.29    5.76
  -1   1  -5 1054.75   43.02
  -1   1  -5 1026.52   44.36
  -1   1  -4   89.97    6.75
  -1   1  -4   94.10    5.70
  -1   1  -3 2000.07   78.08
  -1   1  -3 1960.03   79.13
  -1   1  -2  595.01   21.41
  -1   1  -2  589.73   22.37
  -1   1  -1 1723.57   66.23
  -1   1  -1 1690.74   66.52
  -1   1  -1 1694.87   66.02
  -1   1  -1 1667.88   66.17
  -1   1  -1 1691.52   66.02
  -1   1   0   43.06    2.72
  -1   1   0   41.60    2.28
  -1   1   1 2003.34   78.08
  -1   1   2  924.02   35.47
  -1   1   2  869.60   36.13
  -1   1   2  856.00   34.83
  -1   1   3 1428.07   56.19
  -1   1   3 1366.13   54.97
  -1   1   3 1300.97   55.94
  -1   1   3 1445.82   55.67
  -1   1   4   31.36    3.74
  -1   1   4   29.12    3.85
  -1   1   4   31.48    4.41
  -1   1   4   31.08    4.53
  -1   1   5  240.09   13.30
  -1   1   5  227.99   12.34
  -1   1   5  259.85   13.37
  -1   1   6   49.36    6.72
  -1   1   6   57.43    6.75
  -1   1   6   59.65    5.63
  -1   1   7  446.68   21.65
  -1   1   7  413.58   21.43
  -1   1   7  425.58   20.00
  -1   1   7  396.91   19.83
  -1   1   8   26.83    4.83
  -1   1   8   27.58    6.63
  -1   1   8   24.66    4.62
  -1   1   9   83.53    7.31
  -1   2 -10   40.91    7.69
  -1   2  -9  151.57   11.28
  -1   2  -9  152.51   12.60
  -1   2  -8   28.28    6.75
  -1   2  -8   19.41    5.56
  -1   2  -7   82.15    8.40
  -1   2  -7   69.63    8.51
  -1   2  -7   71.72    7.02
  -1   2  -6  108.54    7.73
  -1   2  -6  107.28    8.94
  -1   2  -5  291.59   14.00
  -1   2  -5  271.05   14.85
  -1   2  -4  510.02   22.33
  -1   2  -4  528.89   23.23
  -1   2  -3  103.40    5.03
  -1   2  -3   84.29    4.91
  -1   2  -2 3458.85  135.18
  -1   2  -1 1394.62   52.14
  -1   2  -1 1253.86   52.18
  -1   2  -1 1276.21   52.18
  -1   2   0 3813.68  148.57
  -1   2   1 3343.84  130.79
  -1   2   2  525.90   23.92
  -1   2   2  534.15   22.70
  -1   2   3  500.84   22.80
  -1   2   3  479.36   23.03
  -1   2   3  526.05   22.48
  -1   2   4  579.22   25.72
  -1   2   4  588.05   26.06
  -1   2   4  536.95   24.37
  -1   2   4  573.71   25.31
  -1   2   5   23.62    5.52
  -1   2   5   29.29    4.86
  -1   2   5   28.28    5.43
  -1   2   5   26.40    4.95
  -1   2   6  116.16    9.67
  -1   2   6  108.85    8.61
  -1   2   6  125.26    9.09
  -1   2   6  125.28    9.92
  -1   2   7  131.46   10.35
  -1   2   7  114.50    9.09
  -1   2   7  116.04   10.70
  -1   2   8  179.93   11.85
  -1   3 -11   28.56    9.00
  -1   3 -11   20.98    7.42
  -1   3 -10   50.21    8.31
  -1   3 -10   68.53    9.88
  -1   3  -9   56.34    7.71
  -1   3  -9   49.95    8.80
  -1   3  -8  365.81   19.09
  -1   3  -8  365.44   20.44
  -1   3  -7   63.21    6.76
  -1   3  -7   50.59    7.88
  -1   3  -6  269.54   15.48
  -1   3  -6  281.49   14.58
  -1   3  -5  129.13    7.48
  -1   3  -5   86.36    4.49
  -1   3  -4  780.64   33.09
  -1   3  -4  869.51   34.51
  -1   3  -3   89.23    6.07
  -1   3  -3  103.58    6.60
  -1   3  -2 1432.80   56.14
  -1   3  -2 1342.62   56.19
  -1   3  -1   63.03    4.93
  -1   3  -1   53.35    4.75
  -1   3  -1   63.90    4.99
  -1   3   0 1028.25   42.09
  -1   3   1  683.37   29.13
  -1   3   2 1037.80   42.96
  -1   3   2 1072.05   44.05
  -1   3   2 1038.73   43.61
  -1   3   3  295.34   15.17
  -1   3   3  298.23   15.34
  -1   3   4  465.93   22.37
  -1   3   4  457.86   22.18
  -1   3   4  458.11   22.98
  -1   3   5  220.10   13.64
  -1   3   5  225.11   13.80
  -1   3   5  255.34   14.65
  -1   3   5  217.19   12.53
  -1   3   6  667.62   31.23
  -1   3   6  713.03   31.77
  -1   3   6  653.16   29.92
  -1   3   6  629.35   31.11
  -1   3   7    3.66    5.81
  -1   3   7    2.57    5.13
  -1   4 -11   88.19   11.75
  -1   4 -11   42.41    9.50
  -1   4 -10    4.72    7.27
  -1   4 -10    5.40    6.15
  -1   4  -9   82.38    9.16
  -1   4  -8    7.12    5.39
  -1   4  -7  409.71   16.18
  -1   4  -7  226.31    9.72
  -1   4  -7  393.30   17.42
  -1   4  -6  606.78   25.69
  -1   4  -6  660.80   28.47
  -1   4  -5  354.57   16.75
  -1   4  -5  399.88   18.56
  -1   4  -4 1002.48   42.78
  -1   4  -4  971.62   42.23
  -1   4  -4 1071.41   43.12
  -1   4  -3  412.47   20.02
  -1   4  -3  423.01   19.71
  -1   4  -3  431.70   20.03
  -1   4  -2  206.76   11.92
  -1   4  -2  182.18   10.91
  -1   4  -2  199.87   10.92
  -1   4  -2  190.81   10.98
  -1   4  -1  745.67   32.13
  -1   4   0   12.97    4.44
  -1   4   1  756.65   33.03
  -1   4   1  745.56   32.78
  -1   4   2   43.01    6.23
  -1   4   2   29.95    5.17
  -1   4   2   33.03    5.65
  -1   4   3 1011.21   43.69
  -1   4   3 1043.78   44.15
  -1   4   3  994.50   42.86
  -1   4   4   76.13    8.00
  -1   4   4   71.01    8.59
  -1   4   5   85.57    9.31
  -1   4   5   89.39    9.81
  -1   4   5   86.50    8.91
  -1   4   6   31.19    6.40
  -1   4   8    5.61    9.14
  -1   5 -11    6.80    7.27
  -1   5 -10    3.15    6.57
  -1   5  -9  305.57   18.31
  -1   5  -8    3.63    5.78
  -1   5  -7  305.02   14.11
  -1   5  -7  284.92   16.65
  -1   5  -6  189.59   11.93
  -1   5  -6  195.70   12.33
  -1   5  -6  170.43   10.13
  -1   5  -5  269.91   14.83
  -1   5  -5  251.01   14.26
  -1   5  -5  277.24   15.32
  -1   5  -4  311.82   16.35
  -1   5  -4  282.20   15.86
  -1   5  -4  289.44   15.85
  -1   5  -3  762.80   33.34
  -1   5  -3  675.04   32.15
  -1   5  -3  713.57   32.26
  -1   5  -3  715.49   32.04
  -1   5  -2  197.87   13.05
  -1   5  -2  175.51   11.68
  -1   5  -2  186.76   11.73
  -1   5  -1 1635.31   66.17
  -1   5  -1 1475.87   63.52
  -1   5   0  108.75   10.78
  -1   5   0  103.11    9.05
  -1   5   1 1122.95   48.19
  -1   5   1 1053.42   47.35
  -1   5   1 1203.92   48.54
  -1   5   2   10.69    6.45
  -1   5   2    9.16    5.29
  -1   5   2    7.95    5.85
  -1   5   3   12.21    6.51
  -1   5   3   11.14    5.34
  -1   5   3    7.63    5.73
  -1   5   5   31.54   10.06
  -1   5   6   76.72   12.92
  -1   5   7    3.78    9.82
  -1   5   8   84.03   14.64
  -1   6 -11   38.89    9.52
  -1   6 -10   19.06    7.82
  -1   6  -9   23.62    7.41
  -1   6  -8   -0.37    5.99
  -1   6  -7   43.78    5.63
  -1   6  -7   55.88    7.99
  -1   6  -6  175.46   11.15
  -1   6  -6  174.07   12.42
  -1   6  -5   27.84    6.41
  -1   6  -5   22.68    5.90
  -1   6  -5   31.85    6.70
  -1   6  -4 1006.34   43.46
  -1   6  -4 1026.71   44.59
  -1   6  -4  933.10   43.54
  -1   6  -4  972.81   43.64
  -1   6  -3    2.23    6.52
  -1   6  -3    9.72    5.90
  -1   6  -3   15.05    5.99
  -1   6  -3   12.73    6.94
  -1   6  -2 1114.79   49.00
  -1   6  -2 1034.39   46.43
  -1   6  -1   12.03    6.81
  -1   6  -1   22.48    8.43
  -1   6   0  245.84   16.99
  -1   6   0  235.49   14.23
  -1   6   0  235.02   14.78
  -1   6   1   17.07    6.48
  -1   6   1   38.92    7.57
  -1   6   2  401.61   24.78
  -1   6   2  365.71   20.06
  -1   6   3    9.58    6.65
  -1   6   3   29.22    9.83
  -1   6   4  127.51   15.27
  -1   6   5    0.67    9.74
  -1   6   6   86.72   15.38
  -1   7 -10  134.47   13.64
  -1   7  -9   61.88   10.02
  -1   7  -8  232.52   16.05
  -1   7  -7   99.95   10.53
  -1   7  -7  101.78    8.80
  -1   7  -6  246.36   15.34
  -1   7  -6  251.96   16.32
  -1   7  -5   -4.88    6.23
  -1   7  -5   -5.61    5.91
  -1   7  -4  170.74   13.38
  -1   7  -4  144.04   12.08
  -1   7  -3    8.35    6.59
  -1   7  -2   39.90    8.96
  -1   7  -1  362.80   22.09
  -1   7  -1  293.71   18.56
  -1   7   0  164.20   15.24
  -1   7   0  145.66   12.13
  -1   7   1  334.38   19.84
  -1   7   2   41.35   11.68
  -1   7   2   43.78    8.67
  -1   7   3  204.15   19.60
  -1   7   4   60.94   14.23
  -1   8  -8   31.70    9.02
  -1   8  -7  169.55   14.37
  -1   8  -6   21.47    7.28
  -1   8  -6   15.55    7.88
  -1   8  -5  381.68   22.07
  -1   8  -5  336.37   20.89
  -1   8  -4   19.34    8.64
  -1   8  -4    6.37    7.17
  -1   8  -3  476.60   27.89
  -1   8  -2   -2.97    8.77
  -1   8  -1  152.01   15.76
  -1   8  -1  113.85   12.27
  -1   8   0   12.91    9.89
  -1   8   0   15.72    7.53
  -1   8   1   55.46   10.15
  -1   8   2   18.36    8.40
  -1   9  -6   82.35   11.24
  -1   9  -5   44.70   10.05
  -1   9  -4  102.68   13.53
  -1   9  -3  190.62   18.24
   0  -7  -3    2.77    7.71
   0  -6  -5   30.43    9.13
   0  -6  -4  140.41   12.85
   0  -6  -3    3.12    6.98
   0  -5  -7   19.67    7.49
   0  -5  -6   35.81    7.56
   0  -5  -6   22.74    8.67
   0  -5  -5    2.88    6.99
   0  -5  -5   -1.50    5.70
   0  -5  -4   14.02    7.38
   0  -5  -4   18.15    5.84
   0  -5  -3  985.35   43.22
   0  -5  -3  954.84   43.56
   0  -5   5  880.45   39.27
   0  -5   6   79.55    8.60
   0  -5   7  266.03   16.08
   0  -4  -8    2.56    6.65
   0  -4  -7   -5.02    8.56
   0  -4  -7    1.96    5.60
   0  -4  -6  518.28   26.02
   0  -4  -6  491.90   27.20
   0  -4  -5  107.40   11.11
   0  -4  -5  101.45    9.45
   0  -4  -4  151.43   11.78
   0  -4  -4  146.28   10.61
   0  -4  -3    7.04    5.46
   0  -4  -3    6.89    4.37
   0  -4  -2  640.05   29.12
   0  -4   4  395.17   21.69
   0  -4   4  455.90   20.90
   0  -4   5   56.56    7.93
   0  -4   5   64.09    6.78
   0  -4   6  467.99   25.45
   0  -4   6  640.52   26.70
   0  -4   7   45.05    7.12
   0  -4   7   64.35    8.09
   0  -4   8    3.37    5.68
   0  -3  -9   34.71    8.41
   0  -3  -9   27.97    9.78
   0  -3  -8   64.27   10.55
   0  -3  -8   67.76    9.02
   0  -3  -8   61.40   10.30
   0  -3  -7  127.52   12.09
   0  -3  -7  167.77   11.95
   0  -3  -7  131.52   12.85
   0  -3  -6    0.92    4.83
   0  -3  -6   -2.13    6.68
   0  -3  -6    1.22    6.33
   0  -3  -5   23.07    7.11
   0  -3  -5   19.61    5.17
   0  -3  -5   18.33    6.90
   0  -3  -4  926.34   40.14
   0  -3  -4  928.99   40.04
   0  -3  -4  903.27   40.68
   0  -3  -3   13.98    3.87
   0  -3  -2   80.52    6.45
   0  -3  -1 4464.90  175.43
   0  -3   2  369.16   18.56
   0  -3   3  530.35   25.21
   0  -3   3  570.67   24.50
   0  -3   4 2865.44  118.58
   0  -3   4 3095.66  118.63
   0  -3   5   50.56    5.69
   0  -3   5   53.61    5.92
   0  -3   6  100.91    7.88
   0  -3   6  125.91    8.91
   0  -3   7  627.30   28.93
   0  -3   7  759.53   31.45
   0  -3   8  193.29   11.06
   0  -3   8  312.75   15.07
   0  -2 -10  109.95   12.43
   0  -2 -10  104.30   13.44
   0  -2  -9   27.04    8.98
   0  -2  -9   24.33    7.14
   0  -2  -9   15.48    8.47
   0  -2  -8   21.23    8.29
   0  -2  -8   28.55    6.97
   0  -2  -8   25.15    8.40
   0  -2  -7  554.30   25.49
   0  -2  -7  542.77   26.73
   0  -2  -6   91.83    8.01
   0  -2  -6   86.96    9.27
   0  -2  -6   94.03    9.71
   0  -2  -5   16.04    5.96
   0  -2  -5   11.33    4.13
   0  -2  -5   17.05    5.70
   0  -2  -4  161.19   10.04
   0  -2  -4  151.60   10.16
   0  -2  -4  152.36    9.50
   0  -2  -3  987.44   42.34
   0  -2  -3 1049.06   42.50
   0  -2  -2 2756.09  110.85
   0  -2  -2 2862.39  111.03
   0  -2  -1   26.40    3.00
   0  -2   1 7446.92  290.28
   0  -2   2  107.48    6.97
   0  -2   3  692.60   28.37
   0  -2   3  651.65   28.25
   0  -2   4 2170.09   88.72
   0  -2   4 2351.91   89.67
   0  -2   5 2105.24   85.92
   0  -2   5 2317.37   87.59
   0  -2   6   68.57    4.89
   0  -2   6   94.96    7.16
   0  -2   7   89.48    5.63
   0  -2   7  129.19    8.93
   0  -2   8   -0.27    2.31
   0  -2   8   -1.81    5.07
   0  -2   9  390.68   20.64
   0  -1 -10   17.38    9.51
   0  -1 -10   22.68    7.13
   0  -1 -10   26.31    9.22
   0  -1  -9   13.36    7.89
   0  -1  -9   16.27    6.32
   0  -1  -9    5.47    7.52
   0  -1  -8   48.47    8.56
   0  -1  -8   30.22    6.84
   0  -1  -8   32.25    7.90
   0  -1  -7   20.07    5.11
   0  -1  -7   30.20    7.21
   0  -1  -6  316.11   17.82
   0  -1  -6  334.44   16.98
   0  -1  -5 3276.06  129.66
   0  -1  -5 3243.65  130.21
   0  -1  -4   37.02    5.07
   0  -1  -4   42.00    4.42
   0  -1  -3  889.45   36.22
   0  -1  -3  859.87   36.16
   0  -1  -2 3276.18  128.87
   0  -1  -2 3310.22  128.89
   0  -1  -1 1977.93   76.27
   0  -1  -1 1910.64   76.27
   0  -1   1  281.26   12.20
   0  -1   2 1176.13   47.87
   0  -1   2 1279.65   48.38
   0  -1   3 4277.47  162.27
   0  -1   3 4099.44  161.21
   0  -1   4   23.18    2.39
   0  -1   4   51.46    5.00
   0  -1   5  112.43    7.68
   0  -1   5  125.13    6.02
   0  -1   5  122.97    6.00
   0  -1   6 1703.51   66.30
   0  -1   6 1601.20   63.69
   0  -1   6 1590.20   63.69
   0  -1   7  118.23    6.36
   0  -1   7  118.52    6.44
   0  -1   7  138.30    9.41
   0  -1   8  107.00    6.03
   0  -1   8  131.63    9.64
   0  -1   9  102.52    9.56
   0   0 -11   97.45   11.51
   0   0 -10   42.01    9.62
   0   0 -10   27.22    7.26
   0   0  -9    3.93    5.38
   0   0  -9   -4.33    7.36
   0   0  -8  662.85   30.46
   0   0  -8  633.76   31.63
   0   0  -7  107.50    8.64
   0   0  -7   97.89    9.87
   0   0  -6   18.09    4.48
   0   0  -6   27.54    5.96
   0   0  -5  251.12   13.36
   0   0  -5  284.94   13.68
   0   0  -5  255.84   13.85
   0   0  -4  656.55   28.71
   0   0  -4  683.18   29.13
   0   0  -4  694.07   28.84
   0   0  -3  866.21   35.84
   0   0  -3  889.41   35.91
   0   0  -2 1468.18   58.55
   0   0  -2 1500.19   58.61
   0   0   1   -0.20    0.58
   0   0   2 1554.59   58.84
   0   0   2 1447.10   58.39
   0   0   3  897.31   36.31
   0   0   3  864.58   35.61
   0   0   3  918.01   36.34
   0   0   4  694.47   28.97
   0   0   4  674.57   28.03
   0   0   5  277.91   13.82
   0   0   5  271.30   12.48
   0   0   6   25.77    3.20
   0   0   6   28.65    5.18
   0   0   7  105.01    9.01
   0   0   7  112.11    6.74
   0   0   7  118.32    6.86
   0   0   7  109.44    9.65
   0   0   8  689.41   30.63
   0   0   8  658.22   28.08
   0   0   8  649.98   28.02
   0   0   9   -2.05    5.51
   0   1 -12   -6.53    7.13
   0   1 -11   29.23   10.16
   0   1 -11   33.65    8.03
   0   1 -10  172.36   13.11
   0   1 -10  161.81   14.21
   0   1  -9   99.98   10.82
   0   1  -9  108.86    9.96
   0   1  -9  103.01    9.96
   0   1  -8  124.69    9.77
   0   1  -8  126.54   10.38
   0   1  -8  136.14   11.13
   0   1  -7  115.12    9.19
   0   1  -7  142.12    9.96
   0   1  -7  113.38   10.26
   0   1  -6 1644.44   67.95
   0   1  -6 1713.69   68.29
   0   1  -6 1613.06   68.39
   0   1  -5  117.38    7.83
   0   1  -5  129.64    8.27
   0   1  -5  122.79    8.30
   0   1  -4   24.00    3.91
   0   1  -4   15.10    2.27
   0   1  -4   15.46    3.31
   0   1  -3 3966.84  156.68
   0   1  -3 4076.01  156.58
   0   1  -3 4100.41  157.78
   0   1  -2 1170.74   45.99
   0   1  -1  254.59   11.10
   0   1   1 1958.90   76.89
   0   1   1 1962.48   76.87
   0   1   2 3364.08  131.53
   0   1   3  943.76   38.05
   0   1   3  908.85   37.85
   0   1   4   52.49    4.89
   0   1   4   43.39    4.79
   0   1   5 3466.65  136.24
   0   1   5 3320.46  136.15
   0   1   5 3507.25  135.82
   0   1   6  332.65   17.64
   0   1   6  341.26   17.86
   0   1   6  381.80   17.20
   0   1   7   17.35    6.29
   0   1   7   25.20    6.39
   0   1   7   19.72    4.35
   0   1   7   28.48    5.89
   0   1   8   39.66    7.73
   0   1   8   35.51    6.97
   0   2 -12   49.37    9.74
   0   2 -11    5.46    8.56
   0   2 -11    9.32    7.64
   0   2 -11   13.70    6.95
   0   2 -10   33.47    8.24
   0   2 -10   42.55    9.40
   0   2 -10   30.06    7.23
   0   2  -9  394.83   21.24
   0   2  -9  403.04   22.37
   0   2  -9  401.65   21.80
   0   2  -8    8.53    6.09
   0   2  -8   -1.50    5.65
   0   2  -8    1.16    4.83
   0   2  -7  132.73    9.71
   0   2  -7  141.61   10.05
   0   2  -7  107.64   10.07
   0   2  -6   88.29    7.47
   0   2  -6   77.54    4.75
   0   2  -6   87.24    7.70
   0   2  -5 2320.42   89.19
   0   2  -5 2184.25   86.98
   0   2  -5 2127.43   87.10
   0   2  -5 2444.88   89.63
   0   2  -4 2243.05   89.43
   0   2  -4 2243.22   88.07
   0   2  -3  648.93   26.64
   0   2  -3  640.31   27.26
   0   2  -2   90.40    5.88
   0   2  -1 7370.39  287.20
   0   2   0  165.63    8.38
   0   2   1   22.57    3.01
   0   2   1   25.02    4.57
   0   2   1   29.39    3.55
   0   2   2 2886.06  114.20
   0   2   2 2902.62  114.10
   0   2   3 1068.45   44.20
   0   2   4  176.44   10.29
   0   2   5   14.34    4.53
   0   2   5   17.83    4.85
   0   2   6   97.94    8.41
   0   2   6  101.16    8.41
   0   2   6   99.36    8.79
   0   2   6   94.48   10.80
   0   2   6  105.07    9.67
   0   2   7  561.97   27.60
   0   2   7  602.65   30.09
   0   2   7  554.30   27.81
   0   2   7  636.51   27.81
   0   2   8   28.93    8.64
   0   3 -12    3.15    7.20
   0   3 -11   62.37    9.52
   0   3 -11   48.51   10.14
   0   3 -11   59.73    9.98
   0   3 -10   -4.53    8.44
   0   3 -10    8.79    6.72
   0   3 -10    3.90    6.93
   0   3  -9   25.74    7.98
   0   3  -9   30.11    7.35
   0   3  -9   30.68    6.87
   0   3  -8  326.22   15.39
   0   3  -8  291.93   15.48
   0   3  -7  699.87   29.33
   0   3  -7  705.03   29.25
   0   3  -7  701.34   33.11
   0   3  -7  773.02   32.99
   0   3  -6  112.71    8.63
   0   3  -6  117.52    6.46
   0   3  -6  109.87    6.35
   0   3  -5   55.94    5.85
   0   3  -5   62.16    4.62
   0   3  -4 2993.15  115.00
   0   3  -4 2806.29  115.73
   0   3  -3  570.67   25.18
   0   3  -2  400.78   19.30
   0   3  -1  199.92   10.82
   0   3  -1  200.05   10.88
   0   3   0 2933.01  117.45
   0   3   0 3005.01  117.58
   0   3   1 4406.48  178.55
   0   3   1 4793.56  181.41
   0   3   1 4581.46  178.85
   0   3   2   86.62    6.40
   0   3   2   66.35    8.10
   0   3   2   76.88    6.64
   0   3   3   15.71    4.12
   0   3   3   14.32    6.75
   0   3   4  877.24   43.52
   0   3   4  975.32   40.74
   0   3   5   15.22    5.20
   0   3   5   21.68    8.39
   0   3   5   17.14    5.32
   0   3   6    6.53    5.02
   0   3   6   -1.35    7.60
   0   3   6    8.60    5.35
   0   3   7  168.70   15.16
   0   3   7  161.84   12.42
   0   3   8   72.81   11.74
   0   4 -12   36.72    9.72
   0   4 -11    4.41    7.07
   0   4 -11   -1.78    7.68
   0   4 -11   -0.47    8.33
   0   4 -10  309.49   18.81
   0   4 -10  285.25   19.29
   0   4 -10  313.83   19.17
   0   4  -9   73.28   10.04
   0   4  -9   96.55    9.85
   0   4  -8    0.12    2.58
   0   4  -8    0.34    6.34
   0   4  -8    2.59    2.50
   0   4  -8    5.95    5.59
   0   4  -7   56.75    4.91
   0   4  -7   54.58    4.95
   0   4  -7   56.69    7.41
   0   4  -6  621.05   26.30
   0   4  -6  559.88   27.66
   0   4  -5   49.54    6.35
   0   4  -5   66.65    5.83
   0   4  -5   60.56    6.58
   0   4  -4  443.47   21.05
   0   4  -3 1061.96   45.74
   0   4  -2 4176.36  153.16
   0   4  -2 3584.84  150.93
   0   4  -1   61.01    6.14
   0   4  -1   52.98    6.01
   0   4   0   21.70    4.36
   0   4   0   14.60    3.98
   0   4   1 1206.22   53.29
   0   4   1 1371.41   57.06
   0   4   1 1323.38   53.75
   0   4   2  674.11   33.24
   0   4   2  668.26   29.49
   0   4   2  620.82   29.45
   0   4   3    5.75    4.65
   0   4   3    5.65    5.80
   0   4   3   13.62    8.13
   0   4   4  162.39   14.64
   0   4   4  149.92   10.80
   0   4   5  104.32    9.75
   0   4   5  127.91   13.70
   0   4   6  542.25   30.90
   0   4   7   -1.71    9.27
   0   5 -11    7.88    8.23
   0   5 -11    7.55    7.35
   0   5 -10   -1.30    7.54
   0   5 -10    6.54    6.87
   0   5  -9  380.62   21.70
   0   5  -9  386.48   22.56
   0   5  -8  335.69   19.40
   0   5  -8  341.27   16.36
   0   5  -8  329.72   16.17
   0   5  -7  229.52   14.92
   0   5  -7  247.47   13.15
   0   5  -6   71.08    7.75
   0   5  -6   77.33    6.90
   0   5  -6   59.89    7.74
   0   5  -5  803.40   37.16
   0   5  -5  850.42   36.64
   0   5  -5  817.43   36.90
   0   5  -4  771.64   35.22
   0   5  -3   35.90    7.08
   0   5  -2   59.94    6.65
   0   5  -2   63.40    8.43
   0   5  -2   56.94    6.90
   0   5  -1 1140.31   47.74
   0   5  -1 1059.28   44.63
   0   5   0  172.39   11.80
   0   5   0  195.63   11.99
   0   5   1  584.16   29.54
   0   5   1  494.69   25.26
   0   5   1  542.40   25.43
   0   5   1  510.45   25.36
   0   5   2  134.25   11.34
   0   5   2  147.91   14.39
   0   5   2  151.69   10.92
   0   5   3 1042.29   50.04
   0   5   3 1083.98   45.47
   0   5   3  960.68   45.02
   0   5   4   21.92    9.81
   0   5   5    3.12    9.20
   0   5   6   31.96   11.79
   0   5   7   31.64   11.81
   0   6 -10    3.79    8.19
   0   6 -10   -6.13    7.74
   0   6  -9   38.20    8.68
   0   6  -8  109.79    8.64
   0   6  -8  104.77   10.97
   0   6  -7  430.97   23.63
   0   6  -7  455.78   22.22
   0   6  -6    1.50    4.55
   0   6  -6    1.42    5.64
   0   6  -5  132.05   10.56
   0   6  -4  669.87   32.60
   0   6  -3 1396.33   59.59
   0   6  -3 1332.34   57.49
   0   6  -3 1295.57   57.65
   0   6  -2   85.33    8.93
   0   6  -2   78.26    9.05
   0   6  -1  168.51   12.52
   0   6  -1  198.14   15.40
   0   6  -1  190.26   12.84
   0   6   0  154.23   12.41
   0   6   0  183.67   12.23
   0   6   0  152.31   11.80
   0   6   1  362.01   23.08
   0   6   1  308.06   18.48
   0   6   2   73.94    9.19
   0   6   2   88.02   13.12
   0   6   3    7.96    9.45
   0   6   4  171.89   18.16
   0   6   5   38.77   12.97
   0   7  -9   79.85   11.38
   0   7  -8   17.40    6.07
   0   7  -8   14.48    7.67
   0   7  -7   25.34    6.70
   0   7  -7   38.58    8.31
   0   7  -6  474.91   24.86
   0   7  -5   34.50    7.84
   0   7  -4  291.57   18.55
   0   7  -4  278.11   17.89
   0   7  -3    9.99    7.59
   0   7  -3   21.76    7.16
   0   7  -2  768.61   37.79
   0   7  -2  681.27   34.50
   0   7  -1  144.88   14.55
   0   7  -1  115.14   11.13
   0   7   0  116.94   11.49
   0   7   1   72.76   13.24
   0   7   1   80.04    9.87
   0   7   2  273.39   22.53
   0   7   2  257.30   17.31
   0   7   3   10.43    7.43
   0   7   3    3.04   11.12
   0   7   4   12.78    8.29
   0   8  -7   14.09    6.73
   0   8  -7   11.02    7.86
   0   8  -6   89.19   10.67
   0   8  -5   23.54    7.81
   0   8  -4  124.50   12.67
   0   8  -4  140.08   13.57
   0   8  -3   26.12    9.36
   0   8  -3   19.59    7.75
   0   8  -2   20.79    9.58
   0   8  -2   23.03    8.02
   0   8  -1  390.26   25.49
   0   8  -1  337.16   21.62
   0   8   0   64.11   10.34
   0   8   1   75.27   11.40
   0   9  -6   18.12    8.48
   1  -8  -1   57.48    9.66
   1  -8   0    9.51    6.88
   1  -8   1  109.02   11.07
   1  -8   2    2.59    6.03
   1  -7  -4   41.16    9.55
   1  -7  -3  183.73   14.53
   1  -7  -2   46.11    8.52
   1  -7  -1  343.94   19.85
   1  -7   0  142.15   11.16
   1  -7   1  292.54   16.88
   1  -7   2   44.40    6.75
   1  -6  -6   84.02   10.77
   1  -6  -5   -0.84    7.39
   1  -6  -5    7.46    6.38
   1  -6  -4  130.54   11.41
   1  -6  -4  121.31   11.68
   1  -6  -3   13.34    6.15
   1  -6  -3   12.68    5.66
   1  -6  -2  363.71   19.97
   1  -6  -1   31.36    6.30
   1  -6   0  209.80   13.16
   1  -6   1   12.73    5.44
   1  -6   2  963.65   42.15
   1  -5  -7   -6.50    8.34
   1  -5  -7    4.10    6.50
   1  -5  -6   72.41   10.28
   1  -5  -6   56.36    8.84
   1  -5  -5   19.78    7.36
   1  -5  -5   17.28    6.14
   1  -5  -4  159.24   11.75
   1  -5  -4  149.13   11.85
   1  -5  -3   15.25    5.68
   1  -5  -3   11.92    5.01
   1  -5  -2    6.33    5.14
   1  -5  -2    8.87    4.69
   1  -5  -1 1096.77   46.15
   1  -5  -1 1030.14   45.68
   1  -5   0   98.91    7.94
   1  -5   1 1389.79   57.72
   1  -5   2  167.06   10.46
   1  -5   5  287.30   16.12
   1  -5   6  215.25   13.61
   1  -5   7  319.64   18.02
   1  -4  -9    8.56    7.67
   1  -4  -8    4.13    8.33
   1  -4  -8    4.82    6.43
   1  -4  -7   95.92   11.98
   1  -4  -7  133.56   11.36
   1  -4  -6   20.02    7.76
   1  -4  -6   29.88    6.64
   1  -4  -5   76.85    9.60
   1  -4  -5   90.57    8.69
   1  -4  -4   46.93    6.58
   1  -4  -4   59.33    7.99
   1  -4  -3 1007.19   43.22
   1  -4  -3  970.47   42.79
   1  -4  -2   35.37    5.22
   1  -4  -2   31.61    4.96
   1  -4  -1  702.99   30.71
   1  -4   0    7.64    3.09
   1  -4   1  692.71   29.93
   1  -4   4 1112.76   46.92
   1  -4   5  424.58   20.65
   1  -4   6  699.69   31.63
   1  -4   7  459.23   22.88
   1  -4   8    4.44    5.70
   1  -4   9   89.91    9.81
   1  -3 -10    7.55    7.41
   1  -3 -10   -3.22    8.69
   1  -3  -9   29.08    9.53
   1  -3  -9   40.62    8.31
   1  -3  -9   26.74    8.96
   1  -3  -8    8.63    5.80
   1  -3  -8    4.43    7.52
   1  -3  -8    4.92    6.87
   1  -3  -7    4.99    6.96
   1  -3  -7    0.35    5.21
   1  -3  -7    0.29    6.48
   1  -3  -6  550.05   27.18
   1  -3  -6  607.35   28.35
   1  -3  -6  593.05   28.87
   1  -3  -5  195.20   13.24
   1  -3  -5  214.26   12.60
   1  -3  -5  201.60   12.80
   1  -3  -4  405.71   19.77
   1  -3  -4  424.15   20.77
   1  -3  -4  434.83   20.97
   1  -3  -3  276.04   14.62
   1  -3  -3  279.20   14.56
   1  -3  -2 1006.81   42.00
   1  -3  -1  651.80   27.73
   1  -3   0  986.06   41.18
   1  -3   0 1000.37   40.69
   1  -3   1   63.10    4.59
   1  -3   3  105.70    7.13
   1  -3   4  913.21   38.39
   1  -3   5  135.36    8.97
   1  -3   6  315.65   16.24
   1  -3   7   60.69    7.11
   1  -3   8  366.25   19.14
   1  -3   9   58.64    8.18
   1  -2 -10   12.97    8.86
   1  -2 -10    4.81    6.70
   1  -2 -10    1.90    8.04
   1  -2  -9    9.06    7.76
   1  -2  -9   20.67    6.79
   1  -2  -9   15.36    7.45
   1  -2  -8  168.02   12.18
   1  -2  -8  138.66   13.21
   1  -2  -8  148.20   11.80
   1  -2  -7  114.59    9.91
   1  -2  -7  112.69   10.63
   1  -2  -7  107.46    9.49
   1  -2  -6  103.45    8.67
   1  -2  -6   97.54    9.66
   1  -2  -6   95.57    8.40
   1  -2  -5   23.77    5.67
   1  -2  -5   22.86    4.76
   1  -2  -5   20.82    4.96
   1  -2  -4  538.74   24.40
   1  -2  -4  521.87   23.24
   1  -2  -4  536.60   24.14
   1  -2  -3  463.77   21.53
   1  -2  -3  477.84   20.54
   1  -2  -3  482.99   21.30
   1  -2  -2  521.89   22.37
   1  -2  -1 3272.52  127.94
   1  -2   0 3533.89  141.70
   1  -2   0 3691.76  141.24
   1  -2   2 3345.82  130.86
   1  -2   3  170.96    8.75
   1  -2   4  544.15   23.46
   1  -2   5  312.35   15.10
   1  -2   6  110.54    8.07
   1  -2   7   73.13    7.18
   1  -2   8   12.42    5.47
   1  -2   9  124.39   10.48
   1  -1 -11   60.68   10.00
   1  -1 -11   50.89   10.41
   1  -1 -10  206.57   14.98
   1  -1 -10  170.16   15.13
   1  -1  -9   75.93   10.35
   1  -1  -9   75.07    9.17
   1  -1  -8   27.30    6.34
   1  -1  -8   16.14    6.83
   1  -1  -7  390.17   20.30
   1  -1  -7  384.43   20.77
   1  -1  -6   52.44    6.32
   1  -1  -6   54.46    7.24
   1  -1  -5  222.37   12.47
   1  -1  -5  213.79   12.50
   1  -1  -4   26.59    4.09
   1  -1  -4   23.09    4.09
   1  -1  -3 1366.04   55.08
   1  -1  -2  866.04   36.05
   1  -1  -2  871.46   35.00
   1  -1  -1 1846.61   73.12
   1  -1  -1 1862.88   72.47
   1  -1   0   40.23    2.62
   1  -1   0   44.29    3.02
   1  -1   1 1746.71   68.34
   1  -1   2  554.89   22.85
   1  -1   2  622.26   23.31
   1  -1   3 2048.21   80.44
   1  -1   4   95.36    5.78
   1  -1   4  102.10    7.01
   1  -1   5 1035.88   43.87
   1  -1   5 1129.54   45.45
   1  -1   6   19.98    4.40
   1  -1   7  647.78   28.91
   1  -1   8   20.40    5.22
   1  -1   9   10.57    5.70
   1   0 -11    8.36    7.31
   1   0 -11    8.22    8.98
   1   0 -10    5.99    6.17
   1   0 -10    8.26    7.91
   1   0  -9   43.14    8.83
   1   0  -9   35.37    7.27
   1   0  -8   -0.32    4.82
   1   0  -8   -3.07    6.19
   1   0  -8    7.69    4.96
   1   0  -7  392.52   20.30
   1   0  -7  353.96   20.16
   1   0  -7  426.01   19.61
   1   0  -6  499.65   23.97
   1   0  -6  520.11   23.18
   1   0  -6  499.03   23.80
   1   0  -5 2343.94   96.27
   1   0  -5 2429.63   95.86
   1   0  -5 2485.54   95.42
   1   0  -5 2307.56   95.75
   1   0  -4  377.34   16.78
   1   0  -4  388.07   17.18
   1   0  -4  368.98   17.15
   1   0  -3 1027.97   42.27
   1   0  -3 1046.71   42.02
   1   0  -2  282.62   12.63
   1   0  -2  277.99   12.42
   1   0  -2  274.49   11.98
   1   0  -2  280.94   12.35
   1   0  -1  235.29   10.31
   1   0   0  296.81   11.71
   1   0   0  259.36   12.38
   1   0   0  290.36   11.72
   1   0   0  272.18   12.35
   1   0   0  308.21   12.16
   1   0   1  530.03   23.34
   1   0   1  606.05   23.27
   1   0   2  741.65   28.53
   1   0   2  767.21   29.68
   1   0   3  486.82   19.66
   1   0   3  506.90   20.95
   1   0   4  991.87   38.33
   1   0   4 1111.11   40.07
   1   0   5  238.70   11.03
   1   0   5  242.65   12.62
   1   0   6  176.54    9.93
   1   0   6  167.73   10.97
   1   0   6  157.62    8.40
   1   0   6  156.62   11.09
   1   0   7    7.87    6.07
   1   0   7    7.75    4.47
   1   0   7    8.86    2.82
   1   0   7    7.33    4.66
   1   0   8  283.13   15.68
   1   1 -11   68.20   10.20
   1   1 -11   68.41   11.10
   1   1 -10  106.65   10.56
   1   1 -10   96.15   11.21
   1   1 -10   96.64   10.14
   1   1  -9   15.87    6.07
   1   1  -9   14.22    5.93
   1   1  -9    2.73    6.38
   1   1  -8  271.55   16.49
   1   1  -8  254.16   16.52
   1   1  -7    7.20    4.87
   1   1  -7    7.05    5.46
   1   1  -7    7.48    4.86
   1   1  -7   10.73    3.61
   1   1  -6    6.54    4.39
   1   1  -6   13.05    3.01
   1   1  -6   16.77    4.54
   1   1  -5   -4.51    3.92
   1   1  -5    1.74    2.20
   1   1  -5    2.45    3.66
   1   1  -5    1.73    2.12
   1   1  -4  884.76   36.00
   1   1  -4  849.19   35.41
   1   1  -4  860.36   35.56
   1   1  -3    4.70    2.16
   1   1  -3    5.03    2.04
   1   1  -2 5517.88  215.87
   1   1  -2 5572.21  216.09
   1   1  -1   58.26    3.96
   1   1  -1   65.89    4.13
   1   1   0 6471.67  247.93
   1   1   0 6849.53  248.82
   1   1   0 6112.59  247.55
   1   1   0 6331.60  247.64
   1   1   1   17.99    2.92
   1   1   1   15.41    2.04
   1   1   1   18.73    3.66
   1   1   2 1080.41   48.30
   1   1   2 1149.04   45.92
   1   1   2 1195.38   46.98
   1   1   3   59.37    4.41
   1   1   3   67.64    5.71
   1   1   4    3.95    4.21
   1   1   4    5.54    4.54
   1   1   4    2.74    2.79
   1   1   5   86.43    6.69
   1   1   5   85.29    7.65
   1   1   5   67.58    8.22
   1   1   5   84.06    8.24
   1   1   6  221.30   11.85
   1   1   6  210.20   13.06
   1   1   6  210.61   13.73
   1   1   7   23.37    5.30
   1   1   7   21.24    6.79
   1   1   7   19.20    4.58
   1   2 -12   -3.39    7.31
   1   2 -12    8.24    7.90
   1   2 -11   -1.30    8.31
   1   2 -11   -0.77    6.88
   1   2 -11    8.79    7.24
   1   2 -10  243.69   16.53
   1   2 -10  273.46   16.57
   1   2 -10  225.80   16.71
   1   2  -9   34.89    7.76
   1   2  -9   55.22    7.67
   1   2  -9   29.24    4.93
   1   2  -9   36.28    7.41
   1   2  -8  328.35   18.56
   1   2  -8  341.10   18.07
   1   2  -8  329.21   16.08
   1   2  -8  312.80   18.66
   1   2  -7  183.71   12.14
   1   2  -7  177.31    9.70
   1   2  -7  160.54   11.66
   1   2  -7  176.05    9.66
   1   2  -6  405.30   18.75
   1   2  -6  415.44   18.58
   1   2  -6  411.75   20.27
   1   2  -6  416.71   20.63
   1   2  -5  857.98   35.20
   1   2  -5  831.01   35.27
   1   2  -4   44.22    4.14
   1   2  -4   41.79    4.23
   1   2  -3 1018.48   41.90
   1   2  -3  970.29   41.39
   1   2  -3 1045.73   42.01
   1   2  -2  219.56   11.35
   1   2  -2  216.58   10.87
   1   2  -2  206.65   10.52
   1   2  -1  351.93   15.69
   1   2  -1  337.92   15.50
   1   2   0  829.17   33.96
   1   2   0  778.54   31.63
   1   2   0  729.05   31.65
   1   2   0  747.35   31.83
   1   2   1  846.96   35.07
   1   2   1  793.09   31.92
   1   2   1  725.20   31.80
   1   2   1  747.98   32.27
   1   2   2  203.88   13.11
   1   2   2  197.48   10.07
   1   2   2  195.99   10.83
   1   2   3 2239.93   85.35
   1   2   3 2259.67   86.61
   1   2   4  214.57   11.03
   1   2   4  202.60   12.44
   1   2   5  354.15   17.04
   1   2   5  356.08   18.18
   1   2   5  375.48   19.11
   1   2   6    1.60    6.60
   1   2   6    2.40    4.43
   1   2   7   40.97    9.22
   1   2   7   49.37    6.80
   1   3 -11   63.01   10.61
   1   3 -11   52.55    9.61
   1   3 -11   62.14    9.77
   1   3 -10   67.37   10.39
   1   3 -10   82.28   10.02
   1   3 -10   76.16   10.02
   1   3  -9  193.32   11.34
   1   3  -9  207.68   14.89
   1   3  -8   10.32    6.15
   1   3  -8   11.59    3.80
   1   3  -8   10.66    3.58
   1   3  -8   13.70    6.21
   1   3  -7  304.77   17.44
   1   3  -7  310.86   15.06
   1   3  -7  302.72   15.07
   1   3  -6  112.16    7.44
   1   3  -6  105.87    7.42
   1   3  -5 1398.71   57.63
   1   3  -4  430.42   20.48
   1   3  -4  464.91   20.97
   1   3  -4  432.27   21.00
   1   3  -3 1498.76   59.59
   1   3  -3 1422.40   59.03
   1   3  -3 1392.23   58.67
   1   3  -2   92.05    7.45
   1   3  -2   79.37    6.53
   1   3  -2   85.61    6.54
   1   3  -1  502.34   22.05
   1   3  -1  461.22   21.68
   1   3   0 1305.65   55.10
   1   3   0 1379.95   55.05
   1   3   0 1260.00   54.86
   1   3   1  416.97   21.70
   1   3   1  400.81   18.12
   1   3   1  371.71   18.02
   1   3   1  359.52   18.31
   1   3   2  142.14   12.33
   1   3   2  149.74    8.80
   1   3   2  143.71    9.73
   1   3   2  112.60    9.38
   1   3   3  131.74   12.89
   1   3   3  164.99    9.84
   1   3   3  152.44   11.03
   1   3   4   33.32    5.29
   1   3   4   27.87    6.98
   1   3   4   32.16    8.87
   1   3   5  381.82   19.03
   1   3   5  369.91   23.18
   1   3   6    7.05    5.09
   1   3   6   -3.01    8.93
   1   3   7   16.66    9.37
   1   4 -11   46.70   10.15
   1   4 -11   55.71    9.80
   1   4 -11   60.00   10.21
   1   4 -10    4.88    7.42
   1   4 -10    8.92    6.95
   1   4  -9  134.87    8.99
   1   4  -9  118.32   11.99
   1   4  -8  394.87   21.29
   1   4  -8  387.24   18.32
   1   4  -8  359.31   18.28
   1   4  -7  157.12   12.16
   1   4  -7  157.18   10.16
   1   4  -7  172.13   10.31
   1   4  -6  589.32   27.74
   1   4  -6  605.12   27.51
   1   4  -5    2.10    4.25
   1   4  -5    0.76    3.80
   1   4  -4  661.20   29.38
   1   4  -4  603.42   28.81
   1   4  -4  616.98   28.71
   1   4  -3   73.25    7.80
   1   4  -3   97.66    8.41
   1   4  -3   81.23    7.67
   1   4  -2  795.16   34.35
   1   4  -2  712.82   32.27
   1   4  -2  690.75   31.99
   1   4  -1 1268.43   51.00
   1   4  -1 1178.16   51.05
   1   4  -1 1189.05   51.02
   1   4   0  542.40   26.70
   1   4   0  532.52   23.31
   1   4   0  455.32   22.90
   1   4   0  458.62   23.22
   1   4   1  349.02   19.21
   1   4   1  388.70   22.57
   1   4   1  402.25   18.80
   1   4   1  355.23   18.67
   1   4   1  380.27   19.31
   1   4   2  429.10   26.17
   1   4   2  505.21   22.49
   1   4   2  433.36   22.19
   1   4   2  475.96   23.12
   1   4   2  444.44   23.03
   1   4   3    2.01    6.13
   1   4   3    5.15    4.55
   1   4   4   22.27    5.64
   1   4   4   20.70    9.07
   1   4   5  212.00   13.85
   1   4   5  231.90   18.66
   1   4   6   80.76   13.61
   1   5 -10   67.35   10.57
   1   5 -10   58.38   10.00
   1   5  -9   17.63    4.98
   1   5  -9   24.12    8.29
   1   5  -8    8.61    4.65
   1   5  -8    8.01    4.38
   1   5  -8    5.25    6.57
   1   5  -7   -2.30    4.32
   1   5  -6  317.01   17.85
   1   5  -6  335.75   18.23
   1   5  -5   97.24    9.12
   1   5  -5   91.85    9.46
   1   5  -4 1086.84   49.05
   1   5  -4 1093.72   48.59
   1   5  -4 1150.90   48.57
   1   5  -3  418.40   22.37
   1   5  -3  405.52   21.22
   1   5  -3  388.11   20.90
   1   5  -2  583.63   29.30
   1   5  -2  580.08   26.86
   1   5  -2  548.02   27.11
   1   5  -2  548.35   27.22
   1   5  -1  449.68   22.15
   1   5  -1  429.57   22.57
   1   5  -1  442.93   22.83
   1   5   0  111.92   10.46
   1   5   0  122.22   10.76
   1   5   0  133.04   13.06
   1   5   0  135.87    9.90
   1   5   0  121.86    9.91
   1   5   1   29.45    6.35
   1   5   1   23.67    6.54
   1   5   2   42.93    6.87
   1   5   2   46.72    7.11
   1   5   2   51.47   10.94
   1   5   3   50.25    7.73
   1   5   3   75.55    8.35
   1   5   3   43.30   11.28
   1   5   4  359.15   25.58
   1   5   4  390.74   20.94
   1   5   5   -6.73   10.36
   1   5   6   15.59   11.31
   1   6  -9  312.53   20.36
   1   6  -8   70.33    8.44
   1   6  -7  379.32   20.94
   1   6  -6   72.92    8.88
   1   6  -6   63.56    8.88
   1   6  -5   64.37    8.41
   1   6  -5   62.72    8.83
   1   6  -4   62.24    8.55
   1   6  -4   54.78    8.25
   1   6  -3   39.31    7.90
   1   6  -3   29.66    6.84
   1   6  -2   21.45    7.70
   1   6  -2   23.42    6.70
   1   6  -1  323.23   18.77
   1   6   0   64.39   11.36
   1   6   0   62.38    8.62
   1   6   1  829.10   43.18
   1   6   1  824.57   38.48
   1   6   2   16.92   10.05
   1   6   2   16.31    7.16
   1   6   3  108.16   11.28
   1   6   3  106.69   15.96
   1   6   4   10.76    7.43
   1   6   4    6.61   11.30
   1   7  -8   10.00    6.00
   1   7  -7  241.13   16.49
   1   7  -6   65.40    9.46
   1   7  -6   57.98    9.71
   1   7  -5  274.51   18.38
   1   7  -5  276.53   18.08
   1   7  -4  191.01   15.53
   1   7  -4  203.18   15.25
   1   7  -3  161.51   14.74
   1   7  -3  165.02   13.50
   1   7  -2  182.05   15.90
   1   7  -2  162.00   13.54
   1   7  -1  109.68   11.43
   1   7   0   53.50   11.96
   1   7   0   57.66    9.55
   1   7   1   10.04   10.22
   1   7   1    5.39    6.95
   1   7   2   18.27    8.01
   1   7   3   19.55    8.61
   1   8  -7   19.88    7.78
   1   8  -6  108.42   12.33
   1   8  -5    7.00    7.88
   1   8  -4  251.56   19.21
   1   8  -4  238.18   18.28
   1   8  -3   47.71   10.90
   1   8  -3   42.54    9.64
   1   8  -2  146.66   14.02
   1   8  -1   12.92    8.58
   2  -9   1   22.99    7.85
   2  -8  -3   13.59    8.04
   2  -8  -2   60.47    9.38
   2  -8  -1  103.25   10.64
   2  -8   0  292.87   17.85
   2  -8   1   95.42    9.72
   2  -7  -5   14.17    8.10
   2  -7  -4    8.17    7.21
   2  -7  -4    7.44    6.65
   2  -7  -3   67.59    9.55
   2  -7  -3   65.65    9.05
   2  -7  -2    4.53    5.66
   2  -7  -1    0.32    5.35
   2  -7   0  179.43   12.51
   2  -7   1  831.97   37.68
   2  -6  -6    8.92    7.84
   2  -6  -6   17.27    7.29
   2  -6  -5  112.99   11.43
   2  -6  -5  118.67   11.70
   2  -6  -4   -0.35    6.00
   2  -6  -4    3.28    5.39
   2  -6  -3  181.13   13.07
   2  -6  -3  167.57   12.34
   2  -6  -2  618.71   29.50
   2  -6   0   24.77    5.50
   2  -6   1   26.36    5.27
   2  -6   7  398.79   21.65
   2  -5  -8   58.73   11.01
   2  -5  -7   -5.96    8.24
   2  -5  -7    4.61    6.35
   2  -5  -6  103.27   10.98
   2  -5  -6  109.75   11.10
   2  -5  -5  226.90   15.72
   2  -5  -5  260.96   15.96
   2  -5  -4  729.17   33.83
   2  -5  -4  691.82   32.82
   2  -5  -3   55.76    6.99
   2  -5  -2   16.52    4.81
   2  -5  -1   63.10    7.36
   2  -5  -1   59.23    6.58
   2  -5   0 1569.74   65.10
   2  -5   0 1557.59   64.03
   2  -5   1  247.75   13.38
   2  -5   6   13.46    5.69
   2  -5   7  251.55   15.28
   2  -5   8   60.29    8.46
   2  -4  -9   -7.05    9.49
   2  -4  -8  -13.10    9.02
   2  -4  -8   -2.71    6.82
   2  -4  -7   25.95    8.49
   2  -4  -7   24.75    7.67
   2  -4  -6  438.86   23.11
   2  -4  -6  422.68   23.01
   2  -4  -5   85.45    9.43
   2  -4  -5  101.45    9.29
   2  -4  -4   39.53    6.94
   2  -4  -3 1359.69   56.46
   2  -4  -2  268.57   14.64
   2  -4  -2  262.41   13.59
   2  -4  -1 1037.94   45.31
   2  -4  -1 1094.87   44.41
   2  -4   0  396.48   19.77
   2  -4   0  411.48   18.59
   2  -4   5 1096.91   46.20
   2  -4   6  388.19   19.28
   2  -4   7  205.39   12.59
   2  -4   8  144.04   11.12
   2  -3  -9  265.48   18.52
   2  -3  -9  287.45   18.66
   2  -3  -8   31.79    8.57
   2  -3  -8   54.25    8.64
   2  -3  -8   33.94    7.67
   2  -3  -7   36.19    7.90
   2  -3  -7   54.83    7.58
   2  -3  -7   49.28    7.28
   2  -3  -6  264.74   15.15
   2  -3  -6  313.27   17.34
   2  -3  -6  324.17   17.20
   2  -3  -5  546.04   24.38
   2  -3  -5  523.28   26.30
   2  -3  -5  568.04   25.98
   2  -3  -4   54.39    6.27
   2  -3  -3   97.76    7.15
   2  -3  -2  267.38   13.87
   2  -3  -2  267.48   12.79
   2  -3  -1 3602.55  143.21
   2  -3  -1 3643.69  142.09
   2  -3   0  376.64   16.55
   2  -3   0  387.25   17.55
   2  -3   4  633.49   27.05
   2  -3   5   10.68    3.94
   2  -3   6  642.08   28.32
   2  -3   7  718.21   31.78
   2  -3   8   59.90    7.59
   2  -2 -10    8.56    8.50
   2  -2 -10    7.44    6.99
   2  -2  -9   25.02    8.38
   2  -2  -9   22.98    7.23
   2  -2  -9    8.26    6.52
   2  -2  -8  190.61   13.33
   2  -2  -8  165.21   13.18
   2  -2  -8  153.90   11.18
   2  -2  -7  282.28   16.19
   2  -2  -7  260.31   15.41
   2  -2  -7  227.20   13.62
   2  -2  -6  203.11   13.00
   2  -2  -6  212.29   12.77
   2  -2  -6  180.42   11.01
   2  -2  -5  107.47    8.30
   2  -2  -5  102.37    7.00
   2  -2  -4 2956.02  115.13
   2  -2  -4 2871.49  113.76
   2  -2  -3 1283.45   52.28
   2  -2  -3 1338.64   54.88
   2  -2  -3 1412.77   56.11
   2  -2  -3 1374.48   53.51
   2  -2  -2  143.95    8.33
   2  -2  -2  147.42    7.38
   2  -2  -1  534.92   23.36
   2  -2  -1  551.52   24.58
   2  -2  -1  549.88   22.23
   2  -2   0 1709.99   67.35
   2  -2   0 1675.94   68.52
   2  -2   1  657.05   27.58
   2  -2   1  644.37   26.50
   2  -2   2   24.57    2.95
   2  -2   3   88.83    5.28
   2  -2   4 2571.07  101.06
   2  -2   5  286.24   13.57
   2  -2   6  203.10   11.04
   2  -2   7  462.93   21.56
   2  -1 -11    9.22    8.79
   2  -1 -10  164.40   13.90
   2  -1 -10  144.58   13.66
   2  -1  -9   10.42    6.25
   2  -1  -9    9.05    6.92
   2  -1  -8   33.46    6.84
   2  -1  -8   37.10    7.50
   2  -1  -7  162.90   11.81
   2  -1  -7  155.93   11.46
   2  -1  -6  449.21   21.19
   2  -1  -6  374.49   19.80
   2  -1  -5   60.13    6.35
   2  -1  -5   56.76    4.66
   2  -1  -5   61.54    6.00
   2  -1  -4   14.35    3.72
   2  -1  -4   13.10    3.52
   2  -1  -4   19.12    3.76
   2  -1  -4   20.58    2.56
   2  -1  -3 1421.91   59.70
   2  -1  -3 1572.23   60.19
   2  -1  -3 1421.72   57.48
   2  -1  -3 1526.61   58.35
   2  -1  -2 3936.59  156.75
   2  -1  -2 4019.02  155.13
   2  -1  -1  408.80   16.65
   2  -1  -1  360.50   17.16
   2  -1  -1  365.81   17.04
   2  -1   0 1637.79   63.98
   2  -1   0 1679.94   65.17
   2  -1   0 1585.48   63.87
   2  -1   0 1650.71   64.93
   2  -1   1 3437.53  132.83
   2  -1   1 3309.92  132.63
   2  -1   1 3427.69  132.57
   2  -1   2 2505.58   99.93
   2  -1   2 2554.38  100.07
   2  -1   2 2583.97  100.68
   2  -1   2 2560.82  100.31
   2  -1   3   18.26    3.50
   2  -1   3   10.53    1.31
   2  -1   3   18.45    2.25
   2  -1   3   18.70    2.19
   2  -1   3   16.99    3.90
   2  -1   4  164.36    7.66
   2  -1   4  162.83   10.10
   2  -1   4  165.02    9.84
   2  -1   4  166.24    7.76
   2  -1   4  153.19    7.63
   2  -1   5  218.25    9.45
   2  -1   5  250.22   13.18
   2  -1   5  230.36   13.04
   2  -1   5  224.05   10.49
   2  -1   6  199.53   11.00
   2  -1   6  178.81    7.65
   2  -1   7   -0.34    4.02
   2   0 -11   16.73    7.90
   2   0 -11   25.13    9.17
   2   0 -10   14.99    7.34
   2   0 -10    6.83    7.64
   2   0  -9  208.98   14.78
   2   0  -9  210.17   12.98
   2   0  -9  183.65   14.10
   2   0  -8  373.60   20.45
   2   0  -8  380.06   19.73
   2   0  -8  367.38   18.70
   2   0  -8  359.00   19.54
   2   0  -7    1.43    5.57
   2   0  -7    7.84    4.43
   2   0  -7    7.89    4.37
   2   0  -6   18.90    4.76
   2   0  -6   21.06    4.29
   2   0  -6   22.28    4.46
   2   0  -5 1659.75   64.35
   2   0  -5 1489.06   63.39
   2   0  -4  222.75   12.64
   2   0  -4  233.36   12.29
   2   0  -4  235.87   11.52
   2   0  -4  254.22   12.38
   2   0  -3  249.41   12.30
   2   0  -3  250.65   12.14
   2   0  -3  251.13   11.98
   2   0  -3  216.82   10.70
   2   0  -2  538.84   21.30
   2   0  -2  501.45   22.69
   2   0  -1 2308.62   84.85
   2   0  -1 2138.00   85.09
   2   0  -1 2063.89   85.99
   2   0  -1 2149.74   84.07
   2   0  -1 2068.81   85.72
   2   0   0  558.88   23.06
   2   0   0  541.55   24.47
   2   0   0  544.25   24.31
   2   0   0  575.00   23.11
   2   0   0  613.83   23.87
   2   0   1   54.97    4.53
   2   0   1   53.42    4.15
   2   0   2  497.94   21.78
   2   0   2  486.01   21.40
   2   0   3 3221.59  125.67
   2   0   3 3122.51  127.70
   2   0   3 3314.49  128.17
   2   0   3 3328.14  128.17
   2   0   4   25.86    5.40
   2   0   4   25.04    4.07
   2   0   4   27.09    5.12
   2   0   4   23.95    2.97
   2   0   5  465.15   19.75
   2   0   5  422.72   20.42
   2   0   5  471.45   22.47
   2   0   5  459.79   22.48
   2   0   6  228.94   11.73
   2   0   6  219.47   11.80
   2   0   6  227.82   14.21
   2   0   7  211.32   11.05
   2   1 -11   62.73    9.98
   2   1 -11   44.91    9.78
   2   1 -11   48.89    8.36
   2   1 -10    5.50    7.01
   2   1 -10   -3.35    6.22
   2   1 -10    2.59    6.40
   2   1  -9    5.45    6.33
   2   1  -9   11.24    5.92
   2   1  -9   10.01    4.81
   2   1  -9   -1.17    5.85
   2   1  -8  478.05   24.80
   2   1  -8  492.78   23.44
   2   1  -8  466.40   23.22
   2   1  -8  481.45   23.88
   2   1  -7  942.92   39.91
   2   1  -7  893.54   40.18
   2   1  -6   10.55    3.76
   2   1  -6   10.08    4.45
   2   1  -6   15.34    3.71
   2   1  -5  374.08   19.00
   2   1  -5  378.71   18.30
   2   1  -5  392.68   18.06
   2   1  -5  364.76   17.77
   2   1  -4  487.02   23.42
   2   1  -4  544.23   23.06
   2   1  -4  501.78   23.04
   2   1  -3 2647.87  101.67
   2   1  -3 2471.75  102.90
   2   1  -3 2576.70  103.15
   2   1  -3 2603.57  102.95
   2   1  -2   41.24    4.17
   2   1  -2   42.09    3.57
   2   1  -1   20.78    2.83
   2   1  -1   25.66    3.71
   2   1  -1   23.47    3.11
   2   1   0 3114.37  119.39
   2   1   0 3070.67  120.57
   2   1   0 2986.85  118.66
   2   1   0 2980.23  118.38
   2   1   1  581.83   25.92
   2   1   1  568.19   23.31
   2   1   1  542.38   24.29
   2   1   1  568.32   23.43
   2   1   1  578.52   24.95
   2   1   2  176.90   10.56
   2   1   2  164.23    7.98
   2   1   2  152.02    8.16
   2   1   3   44.17    5.89
   2   1   3   43.42    3.77
   2   1   3   46.74    5.97
   2   1   4  551.34   22.60
   2   1   4  590.73   25.20
   2   1   5  339.42   15.67
   2   1   5  369.28   18.48
   2   1   6    6.25    5.02
   2   1   6   -2.10    3.95
   2   2 -12    3.53    7.49
   2   2 -11    9.87    8.02
   2   2 -11   -2.91    6.84
   2   2 -11    2.41    7.06
   2   2 -10  182.78   14.49
   2   2 -10  204.23   13.68
   2   2 -10  150.48   11.90
   2   2 -10  175.88   13.96
   2   2  -9   44.61    8.05
   2   2  -9   42.73    6.12
   2   2  -9   38.66    8.15
   2   2  -8   31.81    5.36
   2   2  -8   22.82    6.47
   2   2  -8   30.52    5.03
   2   2  -7   41.24    6.65
   2   2  -7   48.37    5.59
   2   2  -7   40.32    5.56
   2   2  -6  935.71   41.27
   2   2  -6  930.56   39.60
   2   2  -6  912.46   39.77
   2   2  -5   64.73    7.03
   2   2  -5   73.61    6.33
   2   2  -5   68.75    6.30
   2   2  -4  295.45   14.25
   2   2  -4  278.48   15.26
   2   2  -4  282.43   15.11
   2   2  -4  309.90   15.24
   2   2  -3  759.98   34.50
   2   2  -3  818.31   35.32
   2   2  -3  824.03   33.69
   2   2  -2 3724.51  146.28
   2   2  -2 3725.08  146.97
   2   2  -1  397.00   19.48
   2   2  -1  368.80   17.31
   2   2  -1  376.76   17.54
   2   2   0  548.97   24.10
   2   2   0  542.54   25.56
   2   2   0  511.49   23.40
   2   2   0  533.10   23.27
   2   2   1   33.68    4.93
   2   2   1   32.47    3.79
   2   2   1   28.83    5.35
   2   2   1   34.51    5.94
   2   2   1   34.57    4.13
   2   2   2 1084.54   51.61
   2   2   2 1240.58   48.58
   2   2   2 1204.20   48.80
   2   2   2 1180.59   49.98
   2   2   3   74.49    7.78
   2   2   3   64.44    5.33
   2   2   3   60.67    7.95
   2   2   3   68.62    5.87
   2   2   4    1.20    3.32
   2   2   4    5.18    5.75
   2   2   4    1.49    5.94
   2   2   5  520.87   21.52
   2   2   5  369.48   23.60
   2   2   6   70.66    9.56
   2   3 -12  100.84   12.19
   2   3 -11    2.98    8.01
   2   3 -11    8.18    7.51
   2   3 -11    8.62    7.92
   2   3 -10   60.16    9.74
   2   3 -10   70.74    7.67
   2   3 -10   80.35   10.65
   2   3  -9   47.29    8.30
   2   3  -9   46.48    6.43
   2   3  -9   53.22    6.71
   2   3  -8  339.97   17.50
   2   3  -8  330.24   17.11
   2   3  -8  312.82   18.43
   2   3  -7    7.49    4.17
   2   3  -7    6.62    4.25
   2   3  -7   15.74    6.61
   2   3  -6   15.59    4.89
   2   3  -6   16.54    4.65
   2   3  -6    9.97    4.28
   2   3  -6   16.81    5.88
   2   3  -5 1097.45   49.90
   2   3  -5 1136.60   49.62
   2   3  -5 1221.16   49.77
   2   3  -5 1179.94   48.92
   2   3  -4  681.57   29.81
   2   3  -4  648.88   28.29
   2   3  -3  169.29   11.57
   2   3  -3  183.06   10.70
   2   3  -3  165.40   10.97
   2   3  -2    8.16    4.20
   2   3  -2   10.36    4.26
   2   3  -1 1638.16   68.05
   2   3  -1 1598.68   65.49
   2   3  -1 1577.43   65.59
   2   3   0  538.08   24.80
   2   3   0  555.11   26.96
   2   3   0  541.85   23.77
   2   3   0  501.62   24.06
   2   3   0  499.55   24.07
   2   3   1  126.78   10.36
   2   3   1  145.82   12.15
   2   3   1  132.97    8.64
   2   3   1  136.40    9.48
   2   3   1  137.18    9.87
   2   3   2   56.31    7.34
   2   3   2   49.46    5.35
   2   3   2   46.79    6.02
   2   3   2   44.47    8.50
   2   3   3  836.74   32.87
   2   3   3  752.67   32.95
   2   3   3  783.85   34.67
   2   3   4  286.68   13.96
   2   3   4  278.28   14.35
   2   3   5   13.82    7.81
   2   3   6    7.68    7.54
   2   4 -11  107.16   12.50
   2   4 -10   -2.78    7.20
   2   4 -10    1.47    7.43
   2   4  -9   54.42    9.24
   2   4  -9   58.72    7.20
   2   4  -9   52.23    7.17
   2   4  -8   29.71    5.89
   2   4  -8   34.82    5.95
   2   4  -7  892.69   42.28
   2   4  -7  891.36   40.92
   2   4  -7  929.85   40.70
   2   4  -7  962.16   41.01
   2   4  -6  286.76   17.92
   2   4  -6  299.62   17.26
   2   4  -6  322.15   17.54
   2   4  -6  332.36   17.34
   2   4  -5  279.80   17.27
   2   4  -5  299.17   17.48
   2   4  -5  329.35   16.96
   2   4  -4   37.09    6.77
   2   4  -4   49.36    7.32
   2   4  -4   50.39    7.10
   2   4  -3  657.25   30.99
   2   4  -3  616.88   28.70
   2   4  -3  612.25   29.27
   2   4  -2   25.92    7.06
   2   4  -2   51.15    7.58
   2   4  -1    2.98    6.01
   2   4  -1    0.47    4.15
   2   4  -1    5.88    6.28
   2   4  -1    3.51    6.47
   2   4  -1    5.82    4.87
   2   4   0  857.16   39.13
   2   4   0  857.18   41.60
   2   4   0  961.84   38.51
   2   4   0  856.74   38.71
   2   4   0  830.45   38.53
   2   4   1  710.09   38.04
   2   4   1  835.37   34.41
   2   4   1  765.86   34.61
   2   4   1  749.86   34.97
   2   4   2  101.78    8.56
   2   4   2  115.07   12.76
   2   4   2  101.68    9.44
   2   4   3   68.57    7.18
   2   4   3   64.60    7.60
   2   4   3   52.50   10.42
   2   4   4  105.42   13.08
   2   4   4  118.34    9.86
   2   4   5   68.37   11.93
   2   5 -10  172.66   15.39
   2   5  -9  124.76   10.86
   2   5  -8  130.73   12.66
   2   5  -8  113.89   10.32
   2   5  -8  118.77   10.24
   2   5  -7   -0.34    5.81
   2   5  -7    1.46    5.06
   2   5  -7   -2.91    6.72
   2   5  -6  458.67   25.00
   2   5  -6  502.27   25.48
   2   5  -5  222.71   14.73
   2   5  -5  199.18   14.57
   2   5  -5  235.10   14.63
   2   5  -4  226.28   15.35
   2   5  -4  203.27   13.78
   2   5  -4  213.07   14.38
   2   5  -3   14.14    6.46
   2   5  -3   13.23    6.49
   2   5  -3   13.13    6.30
   2   5  -2  955.04   40.22
   2   5  -2  923.80   40.68
   2   5  -2  821.52   40.25
   2   5  -1  537.07   29.69
   2   5  -1  489.29   26.62
   2   5   0  110.17    9.70
   2   5   0  108.36   12.19
   2   5   0  106.08   10.08
   2   5   1   -0.29    5.18
   2   5   1    3.45    7.34
   2   5   1    1.27    5.99
   2   5   2   92.99   13.13
   2   5   2  106.36   10.08
   2   5   3   14.83    6.61
   2   5   3   18.90    9.46
   2   5   4   17.85    9.95
   2   5   5   62.60   12.56
   2   6  -9    0.39    5.53
   2   6  -8   85.01    9.77
   2   6  -8   86.24   11.37
   2   6  -7    8.25    6.20
   2   6  -7   14.62    8.02
   2   6  -6  103.43   11.06
   2   6  -6  102.49   11.02
   2   6  -5  391.21   22.86
   2   6  -5  375.82   21.83
   2   6  -4  593.12   31.40
   2   6  -3  105.52   12.30
   2   6  -3  117.89   11.64
   2   6  -2   94.05   10.49
   2   6  -1  120.02   11.23
   2   6   0  136.52   14.77
   2   6   0  133.29   11.93
   2   6   1   18.99    9.47
   2   6   1   12.53    7.44
   2   6   2   25.69   10.44
   2   6   2    8.90    7.33
   2   7  -8    7.59    6.64
   2   7  -7  124.28   12.89
   2   7  -6   78.52   10.83
   2   7  -6   75.29   10.76
   2   7  -5    2.19    7.58
   2   7  -5    5.53    7.78
   2   7  -4   -3.42    7.72
   2   7  -4    0.44    7.23
   2   7  -3  118.79   14.06
   2   7  -3  140.03   13.13
   2   7  -2   10.53    8.08
   2   7  -1  102.35   12.05
   2   7   0   70.46   10.71
   3  -9  -1    6.30    6.71
   3  -9   0  114.23   11.42
   3  -8  -4   56.33    9.60
   3  -8  -3    0.40    6.78
   3  -8  -2  233.84   15.75
   3  -8  -1   86.00    9.48
   3  -8   0   61.17    8.09
   3  -7  -5   52.68    9.55
   3  -7  -3   12.49    6.10
   3  -7  -2  130.57   11.61
   3  -7  -2  138.16   10.76
   3  -7  -1  141.50   10.79
   3  -7   0  190.18   12.56
   3  -6  -7  124.33   13.03
   3  -6  -6   73.21   10.02
   3  -6  -6   81.08   10.71
   3  -6  -5   14.09    6.66
   3  -6  -4   23.41    6.59
   3  -6  -3   54.09    7.42
   3  -6  -3   76.48    8.78
   3  -6  -2   44.57    6.41
   3  -6  -2   50.96    7.47
   3  -6  -1  212.76   13.39
   3  -6  -1  195.01   11.97
   3  -6   0  137.84    9.86
   3  -5  -8    5.18    8.21
   3  -5  -7   -9.94    8.04
   3  -5  -6   49.48    8.00
   3  -5  -5  260.66   15.33
   3  -5  -4  130.87   10.88
   3  -5  -4  130.99    9.80
   3  -5  -3  304.08   17.51
   3  -5  -3  309.17   16.00
   3  -5  -2  644.94   30.86
   3  -5  -2  663.90   29.08
   3  -5  -1  371.82   19.08
   3  -5  -1  356.89   17.34
   3  -5   0  157.96    9.45
   3  -5   0  160.98   10.51
   3  -4  -9    8.75    8.83
   3  -4  -8  182.71   15.19
   3  -4  -8  191.22   15.10
   3  -4  -7   15.77    7.54
   3  -4  -6  224.09   14.43
   3  -4  -5  174.90   12.96
   3  -4  -5  199.99   12.29
   3  -4  -4  561.54   27.68
   3  -4  -4  581.26   26.05
   3  -4  -3  103.88    8.85
   3  -4  -3  113.14    7.66
   3  -4  -2  300.49   16.29
   3  -4  -2  309.90   14.80
   3  -4  -1  139.86    8.90
   3  -4  -1  111.59    7.39
   3  -4   0  955.89   40.71
   3  -3 -10   16.51    8.97
   3  -3  -9   -2.69    8.09
   3  -3  -9    4.76    7.01
   3  -3  -8    5.05    6.61
   3  -3  -8   19.98    6.89
   3  -3  -7   14.62    6.47
   3  -3  -7    7.08    5.23
   3  -3  -6  436.23   21.60
   3  -3  -5   48.66    6.54
   3  -3  -5   44.48    6.75
   3  -3  -4   22.66    4.83
   3  -3  -4   28.32    5.31
   3  -3  -3 1476.13   62.81
   3  -3  -3 1530.36   60.68
   3  -3  -2   34.20    4.95
   3  -3  -2   40.74    6.16
   3  -3  -2   32.64    3.72
   3  -3  -1 1702.21   66.98
   3  -3  -1 1659.86   68.83
   3  -3  -1 1745.46   70.58
   3  -3   0   29.87    3.77
   3  -3   0   25.62    4.42
   3  -3   1  994.59   41.13
   3  -3   1  943.78   39.43
   3  -3   2  550.72   24.63
   3  -3   3  418.62   19.15
   3  -2 -11   61.28   11.12
   3  -2 -10    4.39    7.95
   3  -2 -10   -1.00    6.82
   3  -2  -9  361.91   21.78
   3  -2  -9  360.75   20.64
   3  -2  -8    7.87    6.40
   3  -2  -8   -2.79    5.11
   3  -2  -7   34.34    6.68
   3  -2  -7   19.79    4.81
   3  -2  -6  145.71   10.78
   3  -2  -6  159.52   11.45
   3  -2  -6  144.09    9.58
   3  -2  -5  118.21    9.26
   3  -2  -5  135.19   10.00
   3  -2  -5  136.47    8.20
   3  -2  -4    7.22    4.24
   3  -2  -4   16.34    3.72
   3  -2  -4   15.09    4.46
   3  -2  -3  396.26   19.91
   3  -2  -3  425.89   17.75
   3  -2  -2    5.56    2.99
   3  -2  -2    5.47    1.23
   3  -2  -2    9.46    3.63
   3  -2  -1 1528.26   60.16
   3  -2  -1 1433.98   61.45
   3  -2   0  403.95   17.27
   3  -2   0  380.28   18.60
   3  -2   1  510.03   22.31
   3  -2   1  489.37   20.52
   3  -2   2 1192.26   48.88
   3  -2   3   64.13    4.87
   3  -2   4  641.17   26.81
   3  -2   5  230.63   10.56
   3  -2   6    3.07    2.15
   3  -1 -11   -6.17    8.73
   3  -1 -10    4.77    7.12
   3  -1 -10    4.75    7.85
   3  -1  -9   -6.12    6.97
   3  -1  -8  204.28   14.51
   3  -1  -8  203.97   13.27
   3  -1  -7  334.10   19.28
   3  -1  -7  344.63   19.09
   3  -1  -7  326.00   17.56
   3  -1  -6  770.55   35.59
   3  -1  -6  839.44   35.89
   3  -1  -6  734.66   31.92
   3  -1  -6  777.84   33.41
   3  -1  -5  239.34   13.99
   3  -1  -5  229.66   13.70
   3  -1  -5  211.87   10.58
   3  -1  -5  246.34   11.96
   3  -1  -4 1442.48   60.91
   3  -1  -4 1455.06   61.24
   3  -1  -4 1476.63   58.50
   3  -1  -3   65.74    5.88
   3  -1  -3   54.76    3.47
   3  -1  -2  144.72    8.58
   3  -1  -2  143.94    9.15
   3  -1  -2  151.20    9.19
   3  -1  -1   20.05    2.96
   3  -1  -1   20.32    3.65
   3  -1  -1   17.83    3.71
   3  -1   0   88.44    4.84
   3  -1   0   93.95    6.43
   3  -1   0   78.98    6.14
   3  -1   0   80.96    5.28
   3  -1   1   20.96    3.14
   3  -1   1   21.00    3.57
   3  -1   1   25.80    3.56
   3  -1   1   23.99    3.63
   3  -1   2  822.01   34.74
   3  -1   2  860.58   34.98
   3  -1   2  854.05   35.00
   3  -1   2  777.20   34.24
   3  -1   3   76.34    5.67
   3  -1   3   82.49    5.71
   3  -1   3   65.28    6.67
   3  -1   3   65.29    6.45
   3  -1   4  655.60   27.57
   3  -1   4  649.76   27.78
   3  -1   4  664.25   29.64
   3  -1   4  627.20   29.10
   3  -1   5   81.40    8.54
   3  -1   5   95.60    6.06
   3  -1   5   99.37    6.08
   3  -1   5   95.25    9.12
   3  -1   6  264.29   12.40
   3  -1   6  296.11   16.62
   3   0 -11    9.78    8.86
   3   0 -10  170.40   14.68
   3   0 -10  139.62   13.21
   3   0 -10  153.18   13.23
   3   0  -9   31.54    7.49
   3   0  -9   17.95    6.85
   3   0  -9   27.52    5.98
   3   0  -8   12.15    5.96
   3   0  -8   19.28    5.05
   3   0  -8   17.59    5.80
   3   0  -7   89.79    9.12
   3   0  -7   82.50    7.02
   3   0  -7   90.27    8.41
   3   0  -7   92.13    8.06
   3   0  -6   51.41    6.25
   3   0  -6   69.17    6.79
   3   0  -6   71.03    7.96
   3   0  -5    3.29    3.55
   3   0  -5    0.72    3.96
   3   0  -5   -2.10    3.54
   3   0  -5   -0.81    4.76
   3   0  -4  295.61   16.07
   3   0  -4  312.95   16.24
   3   0  -4  312.24   15.94
   3   0  -4  306.70   13.86
   3   0  -3  469.09   22.94
   3   0  -3  487.42   20.72
   3   0  -3  527.59   20.72
   3   0  -2 1880.94   79.43
   3   0  -2 2002.87   80.29
   3   0  -2 1953.06   80.53
   3   0  -2 1882.38   77.34
   3   0  -1 1458.37   61.29
   3   0  -1 1394.76   59.84
   3   0  -1 1410.24   61.45
   3   0  -1 1527.36   58.77
   3   0  -1 1606.50   60.10
   3   0   0 1349.47   55.63
   3   0   0 1425.94   58.15
   3   0   0 1451.83   55.93
   3   0   0 1404.41   57.85
   3   0   1  444.68   13.92
   3   0   1  434.71   11.72
   3   0   2   31.85    4.96
   3   0   2   31.86    4.93
   3   0   2   30.05    4.67
   3   0   3   14.94    5.15
   3   0   3   15.04    4.33
   3   0   3   15.20    4.03
   3   0   3   13.17    4.90
   3   0   4   12.85    5.57
   3   0   4    5.63    3.86
   3   0   4    6.22    5.27
   3   0   5    3.45    5.32
   3   0   5    0.21    3.38
   3   0   6    2.11    3.41
   3   1 -11    8.92    8.15
   3   1 -10   45.01    8.62
   3   1 -10   61.08    8.14
   3   1 -10   39.12    8.37
   3   1  -9   75.28    8.91
   3   1  -9   86.37    8.37
   3   1  -9   71.67    8.86
   3   1  -8  252.81   16.51
   3   1  -8  252.19   15.15
   3   1  -8  244.43   14.62
   3   1  -7  217.94   14.51
   3   1  -7  202.24   12.93
   3   1  -7  200.91   12.43
   3   1  -7  213.93   13.02
   3   1  -6   18.98    4.91
   3   1  -6   25.46    5.21
   3   1  -6   18.86    6.03
   3   1  -6   21.66    5.10
   3   1  -5  886.81   35.43
   3   1  -5  816.43   37.69
   3   1  -5  858.03   37.04
   3   1  -5  835.68   37.36
   3   1  -5  797.66   35.46
   3   1  -4  130.65    9.48
   3   1  -4  116.41    8.90
   3   1  -4  133.02    9.21
   3   1  -4  136.65    7.62
   3   1  -3  365.08   19.05
   3   1  -3  408.73   17.31
   3   1  -2    3.17    2.94
   3   1  -2    6.70    4.02
   3   1  -2    8.09    3.63
   3   1  -2    4.32    3.71
   3   1  -1  214.22   11.81
   3   1  -1  254.40   12.73
   3   1  -1  236.73   13.65
   3   1  -1  235.65   13.51
   3   1  -1  242.82   11.44
   3   1   0   33.77    4.48
   3   1   0   33.06    5.50
   3   1   0   45.58    5.81
   3   1   0   34.28    4.26
   3   1   1  942.47   38.06
   3   1   1 1026.21   41.98
   3   1   1  893.14   37.67
   3   1   1  986.54   39.68
   3   1   2    6.75    5.05
   3   1   2    2.54    1.70
   3   1   2    7.31    4.97
   3   1   2    8.34    2.42
   3   1   3  787.27   30.00
   3   1   3  844.58   35.31
   3   1   3  866.94   34.03
   3   1   4  198.26    8.33
   3   1   4  195.02   12.48
   3   1   5  335.75   18.71
   3   2 -11   43.59    9.56
   3   2 -10   54.61    9.26
   3   2 -10   57.22    8.73
   3   2 -10   51.72    8.62
   3   2  -9   19.18    6.83
   3   2  -9   19.36    5.86
   3   2  -9   28.21    8.11
   3   2  -8  201.12   14.68
   3   2  -8  193.38   12.99
   3   2  -8  184.21   12.67
   3   2  -8  186.35   12.54
   3   2  -7  370.20   20.10
   3   2  -7  338.72   18.48
   3   2  -7  340.22   18.22
   3   2  -7  315.82   17.70
   3   2  -6    4.88    4.59
   3   2  -6    6.95    4.31
   3   2  -6   10.46    6.36
   3   2  -6    6.31    4.79
   3   2  -5  791.12   35.87
   3   2  -5  784.10   36.54
   3   2  -5  742.84   35.96
   3   2  -5  855.60   34.50
   3   2  -4   51.86    5.94
   3   2  -4   52.24    6.71
   3   2  -4   41.06    6.26
   3   2  -4   54.37    7.53
   3   2  -3  512.51   24.85
   3   2  -3  540.11   23.43
   3   2  -2  537.90   25.46
   3   2  -2  572.37   25.72
   3   2  -2  532.00   27.12
   3   2  -2  564.45   24.58
   3   2  -1   20.49    5.06
   3   2  -1   32.21    6.52
   3   2  -1   31.45    6.52
   3   2  -1   33.50    5.42
   3   2   0  758.73   32.59
   3   2   0  765.92   34.73
   3   2   0  716.24   30.60
   3   2   0  718.17   31.43
   3   2   0  695.38   31.20
   3   2   1   96.08   10.02
   3   2   1   98.32    6.50
   3   2   1   94.94    8.34
   3   2   1   96.91    9.10
   3   2   1   97.70    7.62
   3   2   2  288.23   18.44
   3   2   2  306.52   14.18
   3   2   2  309.26   16.52
   3   2   2  313.15   14.91
   3   2   3  143.91    7.81
   3   2   3  131.78   11.99
   3   2   3  128.56   10.74
   3   2   3  142.11    8.73
   3   2   4    5.84    6.46
   3   2   5   37.55    8.24
   3   3 -11   -5.35    8.42
   3   3 -10  120.52   12.00
   3   3 -10  109.31   10.54
   3   3  -9   13.01    6.85
   3   3  -9   22.34    6.01
   3   3  -9   12.26    7.45
   3   3  -8  280.59   16.36
   3   3  -8  283.40   18.46
   3   3  -8  272.80   16.53
   3   3  -8  274.16   16.68
   3   3  -8  284.21   16.68
   3   3  -7   30.85    6.45
   3   3  -7   32.33    6.10
   3   3  -7   33.09    7.57
   3   3  -7   26.83    6.09
   3   3  -6  437.48   23.68
   3   3  -6  414.11   22.82
   3   3  -6  438.40   22.70
   3   3  -6  484.29   21.93
   3   3  -5  183.92   13.04
   3   3  -5  199.53   13.24
   3   3  -5  209.59   12.23
   3   3  -4  301.31   17.67
   3   3  -4  323.84   18.47
   3   3  -4  316.67   18.23
   3   3  -4  325.05   16.34
   3   3  -3   81.78    8.25
   3   3  -3   72.55    7.36
   3   3  -2  548.73   26.45
   3   3  -2  600.09   27.28
   3   3  -2  559.65   26.04
   3   3  -1  105.60   10.04
   3   3  -1  115.15   11.00
   3   3  -1   99.20    8.72
   3   3  -1  102.45    8.66
   3   3   0  861.86   38.50
   3   3   0  839.64   41.05
   3   3   0  879.67   36.79
   3   3   0  868.27   37.69
   3   3   0  832.75   37.39
   3   3   1  101.62    7.38
   3   3   1   93.15   10.97
   3   3   1   92.39    8.83
   3   3   1   91.02    8.25
   3   3   2   66.05    8.61
   3   3   2   82.51   10.65
   3   3   2   64.81    7.32
   3   3   3  203.33   16.23
   3   3   4    2.57    6.90
   3   3   5   58.40   10.75
   3   4 -11   13.79    9.06
   3   4 -10   19.01    8.13
   3   4 -10   17.80    6.44
   3   4  -9    4.76    7.25
   3   4  -9    7.78    5.64
   3   4  -9    7.51    7.52
   3   4  -8   15.27    5.69
   3   4  -8   28.92    8.45
   3   4  -7   45.70    7.42
   3   4  -7   33.68    8.53
   3   4  -6   31.31    7.12
   3   4  -6   28.42    6.43
   3   4  -6   33.66    7.96
   3   4  -5  438.81   24.18
   3   4  -5  433.17   24.50
   3   4  -5  495.98   23.14
   3   4  -4  163.87   12.47
   3   4  -4  158.84   13.27
   3   4  -4  177.25   11.77
   3   4  -3  784.80   37.67
   3   4  -3  874.50   37.21
   3   4  -2   84.92    9.12
   3   4  -2   99.01    9.18
   3   4  -1  272.83   18.69
   3   4  -1  286.11   15.38
   3   4  -1  282.80   16.09
   3   4  -1  260.84   15.91
   3   4   0    8.64    5.11
   3   4   0   11.76    7.65
   3   4   0   10.08    5.64
   3   4   1   75.02   11.28
   3   4   1  107.28    9.09
   3   4   2   29.13    9.06
   3   4   3   17.96    8.84
   3   4   4   20.08    9.70
   3   5 -10    3.04    8.45
   3   5  -9  146.07   12.76
   3   5  -8    3.49    5.98
   3   5  -8    7.04    8.41
   3   5  -7  277.33   18.80
   3   5  -7  258.39   17.82
   3   5  -6   11.14    6.40
   3   5  -6    2.63    7.51
   3   5  -5   74.15   10.06
   3   5  -5   72.20    9.68
   3   5  -4    3.10    6.57
   3   5  -4    2.63    6.22
   3   5  -3   10.25    6.34
   3   5  -2   65.65    8.98
   3   5  -1  162.26   15.56
   3   5  -1  180.99   13.19
   3   5   0  167.16   16.35
   3   5   0  165.77   13.13
   3   5   1  111.68   14.19
   3   5   2  104.75   14.29
   3   6  -8   72.47   10.19
   3   6  -7   36.30    8.55
   3   6  -7   37.90   10.03
   3   6  -6  102.20   12.36
   3   6  -6  123.32   13.01
   3   6  -5   28.08    8.37
   3   6  -5   17.97    8.03
   3   6  -4  224.72   16.58
   3   6  -4  223.49   18.36
   3   6  -3   13.44    7.78
   3   6  -2   91.79   11.01
   3   6  -1    3.22    7.12
   4  -8  -2  126.69   11.38
   4  -8  -2  150.63   13.41
   4  -8  -1   35.25    7.21
   4  -7  -4  203.81   15.91
   4  -7  -4  201.93   14.25
   4  -7  -3  137.96   12.68
   4  -7  -3  133.66   10.91
   4  -7  -2  133.17   11.92
   4  -7  -2  130.78    9.94
   4  -7  -1   27.35    6.26
   4  -6  -5   37.53    7.29
   4  -6  -5   30.82    7.80
   4  -6  -4   22.90    6.06
   4  -6  -4   29.69    7.30
   4  -6  -3  270.05   17.09
   4  -6  -3  283.93   15.23
   4  -6  -2  412.86   22.41
   4  -6  -2  428.68   20.27
   4  -6  -1   27.46    6.03
   4  -6   0  113.29    9.37
   4  -5  -7   -0.49    7.16
   4  -5  -6   22.15    6.62
   4  -5  -6   14.90    7.33
   4  -5  -5  179.79   13.71
   4  -5  -5  174.55   11.42
   4  -5  -4   28.22    5.50
   4  -5  -4   27.91    6.36
   4  -5  -3   44.83    5.33
   4  -5  -3   36.63    6.67
   4  -5  -2  636.06   27.67
   4  -5  -1 1299.90   55.38
   4  -5   0   42.73    5.89
   4  -4  -7  128.31   12.30
   4  -4  -7  123.87   11.09
   4  -4  -6   -1.23    5.29
   4  -4  -6   -4.09    6.10
   4  -4  -5    3.53    4.52
   4  -4  -5    6.25    5.17
   4  -4  -4  475.01   24.83
   4  -4  -4  507.47   22.26
   4  -4  -3  562.04   27.60
   4  -4  -3  589.49   24.82
   4  -4  -2    7.68    2.76
   4  -4  -2   10.74    4.66
   4  -4  -1   23.88    4.86
   4  -4  -1   29.13    6.41
   4  -4   0  774.25   33.68
   4  -4   0  778.89   35.81
   4  -4   1  280.63   15.93
   4  -3  -8   22.29    7.73
   4  -3  -7  146.71   13.02
   4  -3  -7  156.82   11.19
   4  -3  -6  745.06   35.79
   4  -3  -6  758.53   33.10
   4  -3  -5   31.52    4.84
   4  -3  -5   30.73    6.51
   4  -3  -5   38.53    7.27
   4  -3  -4  188.73   12.52
   4  -3  -4  193.80    9.56
   4  -3  -3   99.13    7.89
   4  -3  -3   94.50    8.98
   4  -3  -3   70.47    4.32
   4  -3  -2  955.28   41.57
   4  -3  -2 1000.92   43.69
   4  -3  -1   70.27    6.03
   4  -3  -1   80.41    7.55
   4  -3   0    3.69    2.82
   4  -3   0    5.46    3.62
   4  -3   1  580.32   27.59
   4  -3   1  607.75   25.31
   4  -3   2  832.57   36.37
   4  -3   3    4.70    3.65
   4  -3   4   34.74    4.42
   4  -3   5  240.98   11.98
   4  -2  -9   58.88   10.19
   4  -2  -8  171.09   13.75
   4  -2  -8  157.39   13.96
   4  -2  -8  155.34   11.71
   4  -2  -7   -9.68    6.64
   4  -2  -7   -2.22    5.69
   4  -2  -7   -1.75    5.63
   4  -2  -6   -5.76    5.73
   4  -2  -6    2.91    4.48
   4  -2  -6    2.03    5.22
   4  -2  -5  595.01   28.35
   4  -2  -5  545.04   23.83
   4  -2  -4  155.56    9.70
   4  -2  -4   78.06    4.71
   4  -2  -3  256.49   14.23
   4  -2  -3  250.95   15.21
   4  -2  -2  132.86    8.49
   4  -2  -2  109.02    9.04
   4  -2  -1 2388.45   93.39
   4  -2  -1 2271.99   95.35
   4  -2   0  776.83   31.95
   4  -2   0  769.49   32.16
   4  -2   0  782.01   34.48
   4  -2   1  146.56    9.18
   4  -2   1  144.73    8.46
   4  -2   1  159.92    9.36
   4  -2   2    2.97    3.47
   4  -2   2   -0.18    4.46
   4  -2   2    2.80    3.35
   4  -2   3  464.06   21.70
   4  -2   3  466.80   21.45
   4  -2   4   77.52    6.10
   4  -2   5    4.50    2.94
   4  -1  -9   35.96    8.94
   4  -1  -9   33.05    8.62
   4  -1  -8   57.24    9.42
   4  -1  -8   40.01    7.35
   4  -1  -8   54.08    8.87
   4  -1  -7  191.75   13.78
   4  -1  -7  177.99   13.18
   4  -1  -7  165.89   10.86
   4  -1  -6    8.62    5.79
   4  -1  -6    7.50    4.47
   4  -1  -6    7.68    5.21
   4  -1  -6    6.93    2.70
   4  -1  -5   -1.26    5.25
   4  -1  -5    1.13    3.43
   4  -1  -5   -0.07    2.04
   4  -1  -5    1.01    4.35
   4  -1  -4  106.86    6.05
   4  -1  -4  129.15    6.12
   4  -1  -3 1151.49   48.82
   4  -1  -2   11.30    4.08
   4  -1  -2    3.85    4.47
   4  -1  -2    2.54    3.75
   4  -1  -1   43.43    4.32
   4  -1  -1   39.85    5.50
   4  -1  -1   46.48    6.03
   4  -1   0  814.81   34.86
   4  -1   0  930.03   38.56
   4  -1   0  945.80   38.19
   4  -1   0  880.58   36.24
   4  -1   1  613.64   27.50
   4  -1   1  580.43   27.52
   4  -1   1  599.90   26.49
   4  -1   2   83.42    7.08
   4  -1   2   74.77    6.70
   4  -1   2   77.36    7.28
   4  -1   2   64.91    6.31
   4  -1   3    4.70    4.79
   4  -1   3   12.72    4.14
   4  -1   3    6.15    3.62
   4  -1   3   11.54    5.00
   4  -1   4  586.38   26.13
   4  -1   4  581.56   26.29
   4  -1   4  584.13   27.67
   4  -1   4  566.96   26.93
   4  -1   5  477.70   21.80
   4  -1   5  461.80   23.55
   4   0 -10   65.70   11.07
   4   0 -10   42.34    8.86
   4   0  -9   88.92   11.48
   4   0  -9   59.34    9.82
   4   0  -8   94.08    8.95
   4   0  -8   90.19   10.12
   4   0  -8  111.31   11.31
   4   0  -7   17.86    5.16
   4   0  -7   13.01    5.36
   4   0  -7   10.60    6.45
   4   0  -6 1223.00   51.35
   4   0  -6 1147.07   51.65
   4   0  -6 1203.22   51.74
   4   0  -6 1145.06   48.11
   4   0  -5  464.50   22.74
   4   0  -5  434.44   22.71
   4   0  -5  440.37   22.35
   4   0  -5  424.57   19.18
   4   0  -5  436.91   19.02
   4   0  -4   34.76    3.31
   4   0  -4   42.95    3.77
   4   0  -4   45.87    6.56
   4   0  -3   52.40    5.67
   4   0  -3   40.62    2.85
   4   0  -3   49.61    6.35
   4   0  -2  372.59   18.34
   4   0  -2  413.97   20.05
   4   0  -2  405.21   20.31
   4   0  -2  352.78   15.84
   4   0  -1  126.58    9.58
   4   0  -1  120.19    7.62
   4   0  -1  118.70    9.31
   4   0  -1  121.07    6.63
   4   0   0   15.42    3.99
   4   0   0   15.10    4.66
   4   0   0   17.33    2.87
   4   0   1  245.71   14.25
   4   0   1  230.28   12.35
   4   0   1  239.91   14.09
   4   0   2 1067.89   47.15
   4   0   2 1070.53   46.06
   4   0   2 1061.95   45.60
   4   0   2 1137.42   46.99
   4   0   3   53.65    7.90
   4   0   3   96.82    8.85
   4   0   3   65.80    7.52
   4   0   3   80.42    8.05
   4   0   4   36.44    7.03
   4   0   4   37.55    6.05
   4   0   4   36.44    5.97
   4   1 -10    1.80    6.59
   4   1 -10    4.20    7.98
   4   1  -9  142.28   13.34
   4   1  -9  101.46   11.14
   4   1  -8  119.08   10.80
   4   1  -8  111.40    9.76
   4   1  -8  118.95   12.00
   4   1  -7    6.63    4.92
   4   1  -7    9.84    5.28
   4   1  -7   11.42    6.68
   4   1  -6    3.55    4.36
   4   1  -6    0.98    3.85
   4   1  -6    4.75    4.62
   4   1  -6    0.66    5.04
   4   1  -6    2.23    5.90
   4   1  -5  302.25   17.94
   4   1  -5  307.37   18.10
   4   1  -5  329.63   18.05
   4   1  -5  295.17   15.25
   4   1  -5  342.82   15.21
   4   1  -4  950.97   43.66
   4   1  -4 1012.93   40.69
   4   1  -3  215.34   13.78
   4   1  -3  240.74   11.92
   4   1  -2  261.75   13.96
   4   1  -2  224.55   13.37
   4   1  -2  242.94   15.19
   4   1  -2  237.16   12.07
   4   1  -2  248.64   15.10
   4   1  -1 1056.20   48.52
   4   1  -1 1102.84   48.15
   4   1  -1 1163.48   45.02
   4   1  -1 1171.73   46.57
   4   1   0  901.78   38.63
   4   1   0  922.15   35.81
   4   1   1   36.35    5.99
   4   1   1   34.37    3.18
   4   1   1   55.43    7.90
   4   1   1   19.26    2.42
   4   1   1   52.53    7.32
   4   1   2   14.92    5.60
   4   1   2   19.22    6.37
   4   1   2   16.17    5.55
   4   1   3   67.72    8.22
   4   1   3   70.19    8.74
   4   1   3   71.19    8.80
   4   1   4   36.71    7.23
   4   2 -10  165.90   13.86
   4   2  -9   11.02    6.39
   4   2  -9   23.27    8.77
   4   2  -8    9.34    5.84
   4   2  -8    6.13    5.34
   4   2  -8   10.35    7.56
   4   2  -7  388.68   22.48
   4   2  -7  399.34   21.88
   4   2  -7  381.13   19.57
   4   2  -6   82.63    9.19
   4   2  -6  105.53   10.53
   4   2  -5   66.81    8.26
   4   2  -5   77.92    9.04
   4   2  -5   77.72    7.06
   4   2  -4  261.99   16.79
   4   2  -4  322.50   15.02
   4   2  -3  625.11   30.37
   4   2  -3  694.57   30.43
   4   2  -3  646.32   28.74
   4   2  -2  247.54   14.19
   4   2  -2  227.32   13.49
   4   2  -2  220.45   15.37
   4   2  -2  251.60   15.66
   4   2  -2  204.02   12.47
   4   2  -1   90.53    7.93
   4   2  -1  104.46   10.55
   4   2  -1   86.25    9.66
   4   2  -1   95.07    7.81
   4   2  -1  110.19    9.56
   4   2   0   81.13    7.63
   4   2   0   69.78    8.67
   4   2   0   63.48    8.78
   4   2   0   63.84    6.86
   4   2   1  750.17   37.46
   4   2   1  770.89   34.20
   4   2   2   47.83    7.72
   4   2   2   42.00    8.32
   4   2   3   52.55    9.25
   4   2   4   74.08   10.54
   4   3 -10  101.86   11.48
   4   3  -9   69.60    9.66
   4   3  -9   91.96   12.42
   4   3  -8   23.99    7.07
   4   3  -8   13.30    6.47
   4   3  -8    6.41    8.19
   4   3  -7   91.37   10.04
   4   3  -7   94.43   11.29
   4   3  -6   67.21    9.23
   4   3  -6   77.10   10.33
   4   3  -5  657.74   32.13
   4   3  -5  638.03   32.51
   4   3  -4   64.64    9.05
   4   3  -3   -7.08    6.44
   4   3  -3    1.95    5.87
   4   3  -2  532.62   26.76
   4   3  -2  570.32   29.86
   4   3  -2  554.19   25.87
   4   3  -1   87.68   11.22
   4   3  -1   91.08    9.03
   4   3  -1  103.37    9.37
   4   3   0   74.62    8.59
   4   3   1   23.42    8.38
   4   3   2  169.31   15.79
   4   3   3   98.44   12.89
   4   3   4   15.86    9.06
   4   4  -9   15.96    7.06
   4   4  -8  319.36   21.43
   4   4  -8  277.26   19.40
   4   4  -7    5.27    6.41
   4   4  -7   11.82    8.31
   4   4  -6   27.55    7.55
   4   4  -6   27.25    8.76
   4   4  -5  100.91   11.50
   4   4  -5  104.83   11.62
   4   4  -4  249.17   16.96
   4   4  -3   63.20    9.85
   4   4  -2  131.59   11.84
   4   4  -2  143.02   14.04
   4   4  -1   17.22    8.78
   4   4   0  315.81   22.61
   4   4   1   18.41    9.83
   4   4   2   -2.69    9.07
   4   5  -7  132.16   14.61
   4   5  -6   89.71   12.26
   4   5  -5  168.60   15.62
   4   5  -5  188.03   16.40
   4   5  -4    2.68    8.35
   4   5  -3  323.30   20.51
   5  -7  -3   21.35    7.59
   5  -7  -2  118.76   11.36
   5  -7  -1   81.14    9.19
   5  -6  -5   31.72    8.58
   5  -6  -4  269.73   17.91
   5  -6  -3   64.45    9.01
   5  -6  -2  262.67   16.23
   5  -6  -1   20.51    5.80
   5  -6   0  120.79    9.43
   5  -5  -6   71.28   10.30
   5  -5  -5   69.72    9.62
   5  -5  -4   34.79    7.60
   5  -5  -3   41.97    7.22
   5  -5  -2  238.10   14.51
   5  -5  -1   35.46    6.09
   5  -5   0  164.30   10.58
   5  -4  -7   -3.36    7.25
   5  -4  -6   10.45    6.57
   5  -4  -5  201.64   14.52
   5  -4  -4   23.98    6.42
   5  -4  -3  251.54   15.30
   5  -4  -3  272.84   17.43
   5  -4  -2  468.16   22.76
   5  -4  -2  459.77   25.10
   5  -4  -1  500.75   22.88
   5  -4  -1  458.45   25.08
   5  -4   0   64.76    5.85
   5  -4   0   54.93    7.95
   5  -4   1  295.58   17.25
   5  -4   2   58.27    6.97
   5  -4   3  167.76   11.38
   5  -3  -8   74.86   10.70
   5  -3  -7   11.90    7.08
   5  -3  -7   30.30    8.36
   5  -3  -6    6.60    6.16
   5  -3  -6    8.50    6.71
   5  -3  -5   -1.10    5.40
   5  -3  -4   85.24    8.74
   5  -3  -3  225.92   13.70
   5  -3  -3  243.60   15.85
   5  -3  -2  102.03    8.15
   5  -3  -2  116.27   10.30
   5  -3  -1  160.39    9.71
   5  -3  -1  166.17   12.08
   5  -3   0  437.71   20.19
   5  -3   0  496.80   23.77
   5  -3   1    8.41    4.74
   5  -3   2  571.86   27.23
   5  -3   3   37.39    5.66
   5  -3   4  148.19   10.11
   5  -2  -9   -0.57    7.16
   5  -2  -8   72.26   10.73
   5  -2  -8   74.07   10.80
   5  -2  -7   24.88    7.73
   5  -2  -7   25.97    7.58
   5  -2  -6  668.16   32.81
   5  -2  -6  665.27   33.91
   5  -2  -5    2.46    5.72
   5  -2  -4  311.67   17.40
   5  -2  -3   43.68    6.22
   5  -2  -3   34.46    6.40
   5  -2  -2   41.87    5.28
   5  -2  -2   36.51    6.54
   5  -2  -1   17.29    3.66
   5  -2  -1   18.43    3.66
   5  -2  -1   20.54    5.47
   5  -2   0   12.19    2.74
   5  -2   0   15.71    4.19
   5  -2   0   21.87    5.20
   5  -2   1   25.30    5.49
   5  -2   1   16.13    4.97
   5  -2   1   17.67    4.94
   5  -2   2  239.41   13.64
   5  -2   2  231.35   13.92
   5  -2   2  227.86   13.80
   5  -2   3   85.08    7.74
   5  -2   3   80.40    7.97
   5  -2   4  253.54   14.16
   5  -1  -9   79.30   11.32
   5  -1  -8   12.12    7.93
   5  -1  -8   13.09    7.11
   5  -1  -7   11.50    6.98
   5  -1  -7    8.95    6.48
   5  -1  -6   -1.20    6.42
   5  -1  -6    4.80    5.04
   5  -1  -5  151.35   11.76
   5  -1  -4   48.90    7.10
   5  -1  -3  534.12   25.09
   5  -1  -3  496.25   26.69
   5  -1  -3  561.18   26.92
   5  -1  -2  131.35    8.91
   5  -1  -2  144.22   11.24
   5  -1  -2  148.27   11.57
   5  -1  -1  882.88   38.51
   5  -1  -1  909.96   42.21
   5  -1  -1  972.68   39.16
   5  -1  -1 1004.30   42.34
   5  -1   0  106.75    7.42
   5  -1   0   93.16    8.61
   5  -1   1  265.32   15.94
   5  -1   1  262.89   14.49
   5  -1   1  266.99   15.76
   5  -1   2   13.00    5.38
   5  -1   2    5.93    5.03
   5  -1   2   11.62    5.66
   5  -1   3    5.08    5.00
   5  -1   3    0.94    4.62
   5   0  -9   26.00    9.43
   5   0  -9   28.28    8.63
   5   0  -8   12.38    7.79
   5   0  -8   11.95    6.75
   5   0  -7  110.41   11.80
   5   0  -7  106.06   11.07
   5   0  -6   79.22    9.39
   5   0  -6   67.55    9.45
   5   0  -5   76.35    9.04
   5   0  -4  233.15   14.45
   5   0  -3  125.21    9.65
   5   0  -3  131.56   11.35
   5   0  -2   54.79    7.91
   5   0  -2   62.71    6.45
   5   0  -1  117.99    7.51
   5   0  -1  124.07   10.86
   5   0  -1  120.16   10.71
   5   0   0   55.37    7.76
   5   0   0   58.45    7.99
   5   0   1  133.69   11.21
   5   0   1  137.22   11.14
   5   0   1  121.72   10.01
   5   0   2  243.97   15.50
   5   0   2  230.15   15.31
   5   0   3  192.60   13.72
   5   1  -9   20.86    7.36
   5   1  -8  112.04   12.02
   5   1  -8  104.80   12.50
   5   1  -7   33.26    7.59
   5   1  -7   33.79    8.81
   5   1  -6  206.35   15.27
   5   1  -6  188.63   14.81
   5   1  -5  164.27   13.09
   5   1  -4   82.12    9.27
   5   1  -3   20.88    6.31
   5   1  -3   22.16    6.40
   5   1  -3   16.82    5.99
   5   1  -2   88.65    8.27
   5   1  -2   81.88    9.76
   5   1  -1  102.11   10.66
   5   1   0  218.28   15.53
   5   1   1   70.71    9.68
   5   1   2   61.64    9.08
   5   1   3   18.96    7.11
   5   2  -8   70.37   10.03
   5   2  -8   64.45   11.29
   5   2  -7   39.38    8.41
   5   2  -7   35.49    9.37
   5   2  -6   62.48    9.60
   5   2  -6   54.15    9.82
   5   2  -5  129.67   12.46
   5   2  -4   92.34   10.46
   5   2  -3  129.63   11.37
   5   2  -3  152.96   13.42
   5   2  -2  192.40   15.58
   5   2  -1   43.45    8.76
   5   2   0  101.82   12.01
   5   2   1   35.20    9.08
   5   2   2    8.27    7.60
   5   2   3   18.49    8.32
   5   3  -7   64.82   11.41
   5   3  -6   16.01    7.63
   5   3  -6   22.33    8.98
   5   3  -5  155.24   14.15
   5   3  -5  150.00   14.45
   5   3  -4   24.31    8.55
   5   3  -3  201.30   17.04
   5   3  -2   14.29    8.46
   5   3  -1   98.94   12.91
   5   3   0   15.14    8.71
   5   3   1    5.14    8.35
   5   4  -6   15.19    9.27
   6  -7  -3   25.43    7.80
   6  -7  -2   24.37    7.60
   6  -7  -1  170.34   13.17
   6  -6  -4  108.32   11.57
   6  -6  -3   29.41    7.53
   6  -6  -2   43.19    7.51
   6  -6  -1   31.59    6.70
   6  -5  -5   42.83    8.58
   6  -5  -4   35.29    7.86
   6  -5  -3   45.76    7.57
   6  -5  -2  368.98   19.69
   6  -5  -1   10.89    4.97
   6  -4  -6    2.79    7.06
   6  -4  -5  127.88   12.23
   6  -4  -4  255.13   16.08
   6  -4  -4  232.01   18.04
   6  -4  -3   13.00    5.89
   6  -4  -3   14.83    7.27
   6  -4  -2   13.92    5.01
   6  -4  -2   11.19    6.92
   6  -4  -1  200.50   15.31
   6  -4   0  157.48   13.15
   6  -4   1   57.74    7.76
   6  -4   2   20.46    6.87
   6  -3  -7  108.27   12.57
   6  -3  -6   18.67    7.58
   6  -3  -5   42.41    8.26
   6  -3  -4  314.65   18.16
   6  -3  -4  316.66   20.82
   6  -3  -3  449.04   22.32
   6  -3  -3  441.65   25.33
   6  -3  -2   24.89    5.50
   6  -3  -2   24.46    7.35
   6  -3  -1   49.63    8.22
   6  -3   0   54.15    8.28
   6  -3   1  446.89   23.91
   6  -3   2  109.82   10.40
   6  -2  -7   18.15    8.14
   6  -2  -6   54.02    9.51
   6  -2  -6   73.37   10.92
   6  -2  -5   79.22    9.62
   6  -2  -4    3.61    6.22
   6  -2  -4    5.85    6.41
   6  -2  -3   18.73    5.66
   6  -2  -3   36.73    7.45
   6  -2  -2  512.89   27.31
   6  -2  -1  185.47   14.25
   6  -2   0   76.40    9.43
   6  -2   1  113.88   10.69
   6  -2   2  347.81   19.90
   6  -1  -7   17.42    8.13
   6  -1  -6  151.24   13.52
   6  -1  -6  158.45   14.37
   6  -1  -5  103.36   10.59
   6  -1  -4  223.51   14.35
   6  -1  -4  223.35   16.43
   6  -1  -3   23.57    7.46
   6  -1  -2   52.26    8.82
   6  -1  -1   75.86    9.80
   6  -1   0  169.04   13.66
   6  -1   2   58.44    8.53
   6   0  -7   48.83   10.50
   6   0  -6   56.17   10.01
   6   0  -6   53.12    9.49
   6   0  -5   20.91    7.49
   6   0  -4    6.73    7.03
   6   0  -3  699.50   35.79
   6   0  -2  206.00   16.27
   6   0  -1  127.79   12.73
   6   0   0   28.36    7.84
   6   0   1   71.38   10.11
   6   0   2   24.56    7.66
   6   1  -7    6.72    8.56
   6   1  -4   23.80    7.95
   6   1  -3   -7.36    7.01
   6   1  -2   47.35    9.83
   6   1  -1  193.51   16.62
   6   1   0   25.34    8.72
   6   1   1   18.98    7.89
   7  -5  -1   27.32    9.22
   7  -5   0   80.66   11.44
   7  -5   1   64.44   10.50
   7  -4  -1    6.55    7.29
   7  -4   0   67.88   10.61
   7  -4   1   34.64    8.77
   7  -3  -2   -0.56    7.78
   7  -3  -1   15.54    7.46
   7  -3   0   -9.74    8.13
   7  -3   1   45.22    9.35
   7  -2  -1  144.66   14.05
   7  -2   0    1.04    6.73
   7  -2   1   36.68    8.67
   0   0   0    0.00    0.00
;
_shelx_hkl_checksum              51416
loop_
_space_group_symop_operation_xyz
'x, y, z'
'-x, -y, -z'
loop_
_atom_site_label
_atom_site_type_symbol
_atom_site_fract_x
_atom_site_fract_y
_atom_site_fract_z
_atom_site_U_iso_or_equiv
_atom_site_adp_type
_atom_site_occupancy
_atom_site_site_symmetry_order
_atom_site_calc_flag
_atom_site_refinement_flags_posn
_atom_site_refinement_flags_adp
_atom_site_refinement_flags_occupancy
_atom_site_disorder_assembly
_atom_site_disorder_group
Cs1 Cs 0.37517(19) 0.64348(15) 0.25853(12) 0.0370(4) Uani 1 1 d . . . . .
Cu1 Cu 0.2537(4) 0.0084(3) 0.0099(2) 0.0331(5) Uani 1 1 d . . . . .
S1 S 0.0118(7) 0.0825(5) 0.8176(5) 0.0310(8) Uani 1 1 d . . . . .
S2 S 0.6742(7) 0.2811(5) 0.1364(5) 0.0311(8) Uani 1 1 d . . . . .
S3 S 0.0858(8) 0.1860(6) 0.3682(4) 0.0355(9) Uani 1 1 d . . . . .
S4 S 0.7403(8) 0.2422(7) 0.3517(5) 0.0400(10) Uani 1 1 d . . . . .
loop_
_atom_site_aniso_label
_atom_site_aniso_U_11
_atom_site_aniso_U_22
_atom_site_aniso_U_33
_atom_site_aniso_U_23
_atom_site_aniso_U_13
_atom_site_aniso_U_12
Cs1 0.0347(6) 0.0280(6) 0.0552(7) 0.0204(4) 0.0158(4) 0.0136(4)
Cu1 0.0280(10) 0.0322(10) 0.0372(10) 0.0067(8) 0.0054(8) 0.0139(8)
S1 0.0248(17) 0.0196(16) 0.050(2) 0.0164(15) 0.0100(15) 0.0063(14)
S2 0.0253(17) 0.0140(15) 0.048(2) 0.0050(14) 0.0072(15) 0.0051(13)
S3 0.0267(18) 0.035(2) 0.037(2) 0.0104(16) 0.0036(15) 0.0050(16)
S4 0.034(2) 0.040(2) 0.038(2) 0.0020(17) 0.0109(16) 0.0128(17)
loop_
_atom_type_symbol
_atom_type_description
_atom_type_scat_dispersion_real
_atom_type_scat_dispersion_imag
_atom_type_scat_source
Cs Cs -0.3680 2.1192 'International Tables Vol C Tables 4.2.6.8 and 6.1.1.4'
Cu Cu 0.3201 1.2651 'International Tables Vol C Tables 4.2.6.8 and 6.1.1.4'
S S 0.1246 0.1234 'International Tables Vol C Tables 4.2.6.8 and 6.1.1.4'
loop_
_geom_angle_atom_site_label_1
_geom_angle_atom_site_label_2
_geom_angle_atom_site_label_3
_geom_angle
_geom_angle_site_symmetry_1
_geom_angle_site_symmetry_3
_geom_angle_publ_flag
S1 Cs1 S1 102.37(9) 2_566 2_666 ?
S1 Cs1 S2 151.98(10) 2_566 . ?
S1 Cs1 S2 73.19(8) 2_666 . ?
S1 Cs1 S3 120.22(9) 2_566 . ?
S1 Cs1 S3 137.36(9) 2_666 . ?
S2 Cs1 S3 68.16(9) . . ?
S1 Cs1 S2 72.53(8) 2_566 1_455 ?
S1 Cs1 S2 152.36(10) 2_666 1_455 ?
S2 Cs1 S2 98.34(9) . 1_455 ?
S3 Cs1 S2 53.77(9) . 1_455 ?
S1 Cs1 S4 86.94(10) 2_566 2_666 ?
S1 Cs1 S4 121.61(10) 2_666 2_666 ?
S2 Cs1 S4 119.36(10) . 2_666 ?
S3 Cs1 S4 66.65(10) . 2_666 ?
S2 Cs1 S4 85.68(9) 1_455 2_666 ?
S1 Cs1 S2 64.00(9) 2_566 2_665 ?
S1 Cs1 S2 64.64(8) 2_666 2_665 ?
S2 Cs1 S2 90.06(9) . 2_665 ?
S3 Cs1 S2 131.04(8) . 2_665 ?
S2 Cs1 S2 89.60(9) 1_455 2_665 ?
S4 Cs1 S2 150.58(10) 2_666 2_665 ?
S1 Cs1 S3 124.98(10) 2_566 2_666 ?
S1 Cs1 S3 73.94(9) 2_666 2_666 ?
S2 Cs1 S3 81.17(9) . 2_666 ?
S3 Cs1 S3 82.88(9) . 2_666 ?
S2 Cs1 S3 131.79(9) 1_455 2_666 ?
S4 Cs1 S3 55.26(9) 2_666 2_666 ?
S2 Cs1 S3 138.42(8) 2_665 2_666 ?
S1 Cs1 S4 61.96(9) 2_566 1_565 ?
S1 Cs1 S4 51.86(8) 2_666 1_565 ?
S2 Cs1 S4 124.29(8) . 1_565 ?
S3 Cs1 S4 152.72(9) . 1_565 ?
S2 Cs1 S4 134.18(9) 1_455 1_565 ?
S4 Cs1 S4 86.92(11) 2_666 1_565 ?
S2 Cs1 S4 75.72(8) 2_665 1_565 ?
S3 Cs1 S4 76.18(9) 2_666 1_565 ?
S1 Cs1 S4 89.57(9) 2_566 1_455 ?
S1 Cs1 S4 167.91(9) 2_666 1_455 ?
S2 Cs1 S4 95.38(9) . 1_455 ?
S3 Cs1 S4 30.64(9) . 1_455 ?
S2 Cs1 S4 30.93(9) 1_455 1_455 ?
S4 Cs1 S4 60.22(11) 2_666 1_455 ?
S2 Cs1 S4 120.46(8) 2_665 1_455 ?
S3 Cs1 S4 100.86(9) 2_666 1_455 ?
S4 Cs1 S4 138.39(11) 1_565 1_455 ?
S1 Cs1 Cu1 34.87(7) 2_566 1_565 ?
S1 Cs1 Cu1 71.37(7) 2_666 1_565 ?
S2 Cs1 Cu1 123.44(8) . 1_565 ?
S3 Cs1 Cu1 147.27(7) . 1_565 ?
S2 Cs1 Cu1 93.50(7) 1_455 1_565 ?
S4 Cs1 Cu1 116.55(8) 2_666 1_565 ?
S2 Cs1 Cu1 34.74(6) 2_665 1_565 ?
S3 Cs1 Cu1 127.09(7) 2_666 1_565 ?
S4 Cs1 Cu1 50.99(7) 1_565 1_565 ?
S4 Cs1 Cu1 119.45(7) 1_455 1_565 ?
S1 Cs1 Cu1 73.16(7) 2_566 2_665 ?
S1 Cs1 Cu1 34.39(7) 2_666 2_665 ?
S2 Cs1 Cu1 91.40(7) . 2_665 ?
S3 Cs1 Cu1 156.84(7) . 2_665 ?
S2 Cs1 Cu1 122.77(7) 1_455 2_665 ?
S4 Cs1 Cu1 135.85(8) 2_666 2_665 ?
S2 Cs1 Cu1 33.85(6) 2_665 2_665 ?
S3 Cs1 Cu1 105.40(7) 2_666 2_665 ?
S4 Cs1 Cu1 48.93(7) 1_565 2_665 ?
S4 Cs1 Cu1 153.59(7) 1_455 2_665 ?
Cu1 Cs1 Cu1 38.93(5) 1_565 2_665 ?
S1 Cu1 S2 112.62(15) 2_556 . ?
S1 Cu1 S1 109.68(13) 2_556 1_554 ?
S2 Cu1 S1 112.26(15) . 1_554 ?
S1 Cu1 S2 110.61(15) 2_556 2_655 ?
S2 Cu1 S2 108.58(12) . 2_655 ?
S1 Cu1 S2 102.64(15) 1_554 2_655 ?
S1 Cu1 Cu1 55.21(11) 2_556 2 ?
S2 Cu1 Cu1 131.52(14) . 2 ?
S1 Cu1 Cu1 54.47(11) 1_554 2 ?
S2 Cu1 Cu1 119.67(14) 2_655 2 ?
S1 Cu1 Cu1 129.11(14) 2_556 2_655 ?
S2 Cu1 Cu1 54.60(11) . 2_655 ?
S1 Cu1 Cu1 120.76(14) 1_554 2_655 ?
S2 Cu1 Cu1 53.98(10) 2_655 2_655 ?
Cu1 Cu1 Cu1 172.44(15) 2 2_655 ?
S1 Cu1 Cs1 58.55(10) 2_556 1_545 ?
S2 Cu1 Cs1 93.16(11) . 1_545 ?
S1 Cu1 Cs1 154.53(11) 1_554 1_545 ?
S2 Cu1 Cs1 66.02(11) 2_655 1_545 ?
Cu1 Cu1 Cs1 109.66(10) 2 1_545 ?
Cu1 Cu1 Cs1 72.39(8) 2_655 1_545 ?
S1 Cu1 Cs1 157.80(11) 2_556 2_665 ?
S2 Cu1 Cs1 64.17(11) . 2_665 ?
S1 Cu1 Cs1 56.96(10) 1_554 2_665 ?
S2 Cu1 Cs1 90.54(11) 2_655 2_665 ?
Cu1 Cu1 Cs1 108.94(10) 2 2_665 ?
Cu1 Cu1 Cs1 68.68(8) 2_655 2_665 ?
Cs1 Cu1 Cs1 141.07(5) 1_545 2_665 ?
S1 Cu1 Cs1 85.22(10) 2_556 . ?
S2 Cu1 Cs1 54.96(10) . . ?
S1 Cu1 Cs1 79.48(10) 1_554 . ?
S2 Cu1 Cs1 161.66(11) 2_655 . ?
Cu1 Cu1 Cs1 76.63(8) 2 . ?
Cu1 Cu1 Cs1 109.05(9) 2_655 . ?
Cs1 Cu1 Cs1 118.77(5) 1_545 . ?
Cs1 Cu1 Cs1 75.21(4) 2_665 . ?
S3 S1 Cu1 107.15(19) 2_556 2_556 ?
S3 S1 Cu1 99.69(19) 2_556 1_556 ?
Cu1 S1 Cu1 70.32(13) 2_556 1_556 ?
S3 S1 Cs1 110.82(18) 2_556 2_566 ?
Cu1 S1 Cs1 86.58(11) 2_556 2_566 ?
Cu1 S1 Cs1 146.17(16) 1_556 2_566 ?
S3 S1 Cs1 95.17(17) 2_556 2_666 ?
Cu1 S1 Cs1 151.32(16) 2_556 2_666 ?
Cu1 S1 Cs1 88.65(11) 1_556 2_666 ?
Cs1 S1 Cs1 102.37(9) 2_566 2_666 ?
S4 S2 Cu1 101.89(19) . . ?
S4 S2 Cu1 97.83(19) . 2_655 ?
Cu1 S2 Cu1 71.42(12) . 2_655 ?
S4 S2 Cs1 94.14(17) . . ?
Cu1 S2 Cs1 92.40(12) . . ?
Cu1 S2 Cs1 161.52(15) 2_655 . ?
S4 S2 Cs1 84.98(16) . 1_655 ?
Cu1 S2 Cs1 166.84(16) . 1_655 ?
Cu1 S2 Cs1 96.69(12) 2_655 1_655 ?
Cs1 S2 Cs1 98.34(8) . 1_655 ?
S4 S2 Cs1 174.23(19) . 2_665 ?
Cu1 S2 Cs1 81.98(12) . 2_665 ?
Cu1 S2 Cs1 79.24(12) 2_655 2_665 ?
Cs1 S2 Cs1 89.94(9) . 2_665 ?
Cs1 S2 Cs1 90.40(9) 1_655 2_665 ?
S4 S3 S1 104.0(2) 1_455 2_556 ?
S4 S3 Cs1 85.93(19) 1_455 . ?
S1 S3 Cs1 111.00(18) 2_556 . ?
S4 S3 Cs1 125.90(19) 1_455 2_666 ?
S1 S3 Cs1 124.20(19) 2_556 2_666 ?
Cs1 S3 Cs1 97.12(9) . 2_666 ?
S3 S4 S2 104.8(2) 1_655 . ?
S3 S4 Cs1 106.06(19) 1_655 2_666 ?
S2 S4 Cs1 146.2(2) . 2_666 ?
S3 S4 Cs1 84.47(18) 1_655 1_545 ?
S2 S4 Cs1 103.27(17) . 1_545 ?
Cs1 S4 Cs1 93.08(10) 2_666 1_545 ?
S3 S4 Cs1 63.43(16) 1_655 1_655 ?
S2 S4 Cs1 64.10(15) . 1_655 ?
Cs1 S4 Cs1 119.78(11) 2_666 1_655 ?
Cs1 S4 Cs1 138.39(11) 1_545 1_655 ?
loop_
_geom_bond_atom_site_label_1
_geom_bond_atom_site_label_2
_geom_bond_distance
_geom_bond_site_symmetry_2
_geom_bond_publ_flag
Cs1 S1 3.489(4) 2_566 ?
Cs1 S1 3.502(4) 2_666 ?
Cs1 S2 3.566(4) . ?
Cs1 S3 3.607(4) . ?
Cs1 S2 3.633(4) 1_455 ?
Cs1 S4 3.640(4) 2_666 ?
Cs1 S2 3.797(4) 2_665 ?
Cs1 S3 3.837(4) 2_666 ?
Cs1 S4 3.901(5) 1_565 ?
Cs1 S4 4.023(4) 1_455 ?
Cs1 Cu1 4.082(2) 1_565 ?
Cs1 Cu1 4.177(2) 2_665 ?
Cu1 S1 2.338(4) 2_556 ?
Cu1 S2 2.349(4) . ?
Cu1 S1 2.360(4) 1_554 ?
Cu1 S2 2.368(4) 2_655 ?
Cu1 Cu1 2.705(4) 2 ?
Cu1 Cu1 2.754(4) 2_655 ?
Cu1 Cs1 4.082(2) 1_545 ?
Cu1 Cs1 4.177(2) 2_665 ?
S1 S3 2.079(6) 2_556 ?
S1 Cu1 2.338(4) 2_556 ?
S1 Cu1 2.360(4) 1_556 ?
S1 Cs1 3.489(4) 2_566 ?
S1 Cs1 3.502(4) 2_666 ?
S2 S4 2.076(6) . ?
S2 Cu1 2.368(4) 2_655 ?
S2 Cs1 3.633(4) 1_655 ?
S2 Cs1 3.797(4) 2_665 ?
S3 S4 2.056(6) 1_455 ?
S3 S1 2.079(6) 2_556 ?
S3 Cs1 3.837(4) 2_666 ?
S4 S3 2.056(6) 1_655 ?
S4 Cs1 3.640(4) 2_666 ?
S4 Cs1 3.901(5) 1_545 ?
S4 Cs1 4.023(4) 1_655 ?
