#------------------------------------------------------------------------------
#$Date: 2022-02-12 01:54:05 +0200 (Sat, 12 Feb 2022) $
#$Revision: 272940 $
#$URL: file:///home/coder/svn-repositories/cod/cif/7/70/94/7709473.cif $
#------------------------------------------------------------------------------
#
# This file is available in the Crystallography Open Database (COD),
# http://www.crystallography.net/
#
# All data on this site have been placed in the public domain by the
# contributors.
#
data_7709473
loop_
_publ_author_name
'Ji, Bingheng'
'Sarkar, Arka'
'Wu, Kui'
'Swindle, Andrew'
'Wang, Jian'
_publ_section_title
;
 A2P2S6 (A=Ba, Pb): A Good Platform to Study Polymorph Effect and Lone
 Pairs Effect to Form Acentric Structure
;
_journal_name_full               'Dalton Transactions'
_journal_paper_doi               10.1039/D1DT04317J
_journal_year                    2022
_chemical_formula_sum            'Ba2 P2 S6'
_chemical_formula_weight         528.98
_space_group_crystal_system      monoclinic
_space_group_IT_number           7
_space_group_name_Hall           'P -2yac'
_space_group_name_H-M_alt        'P 1 n 1'
_audit_creation_method           SHELXL-2014/6
_audit_update_record
;
2021-12-17 deposited with the CCDC.	2022-02-11 downloaded from the CCDC.
;
_cell_angle_alpha                90
_cell_angle_beta                 91.2005(12)
_cell_angle_gamma                90
_cell_formula_units_Z            2
_cell_length_a                   6.7411(2)
_cell_length_b                   7.5818(2)
_cell_length_c                   9.9870(3)
_cell_measurement_reflns_used    1476
_cell_measurement_temperature    273(2)
_cell_measurement_theta_max      24.990
_cell_measurement_theta_min      2.686
_cell_volume                     510.32(3)
_computing_cell_refinement       'SMART V5.625 (Bruker, 2000)'
_computing_data_collection       'SMART V5.625 (Bruker, 2000)'
_computing_data_reduction        'SAINT V6.32 (Bruker, 2001)'
_computing_publication_material  'SHELXL-97 (Sheldrick, 1997)'
_computing_structure_refinement  'SHELXL-97 (Sheldrick, 1997)'
_computing_structure_solution    'SHELXS-97 (Sheldrick, 1990)'
_diffrn_ambient_temperature      273(2)
_diffrn_measured_fraction_theta_full 0.976
_diffrn_measured_fraction_theta_max 1.000
_diffrn_measurement_device_type  'Bruker APEX II CCD area-detector'
_diffrn_measurement_method       'profile data from \w scans'
_diffrn_radiation_type           MoK\a
_diffrn_radiation_wavelength     0.71073
_diffrn_reflns_av_R_equivalents  0.0298
_diffrn_reflns_av_unetI/netI     0.0220
_diffrn_reflns_Laue_measured_fraction_full 0.976
_diffrn_reflns_Laue_measured_fraction_max 1.000
_diffrn_reflns_limit_h_max       8
_diffrn_reflns_limit_h_min       -7
_diffrn_reflns_limit_k_max       9
_diffrn_reflns_limit_k_min       -9
_diffrn_reflns_limit_l_max       11
_diffrn_reflns_limit_l_min       -11
_diffrn_reflns_number            8892
_diffrn_reflns_point_group_measured_fraction_full 0.976
_diffrn_reflns_point_group_measured_fraction_max 1.000
_diffrn_reflns_theta_full        25.242
_diffrn_reflns_theta_max         24.990
_diffrn_reflns_theta_min         2.686
_diffrn_source                   'fine-focus sealed tube'
_exptl_absorpt_coefficient_mu    9.136
_exptl_absorpt_correction_T_max  0.756
_exptl_absorpt_correction_T_min  0.511
_exptl_absorpt_correction_type   multi-scan
_exptl_crystal_colour            translucent
_exptl_crystal_density_diffrn    3.443
_exptl_crystal_description       block
_exptl_crystal_F_000             476
_exptl_crystal_size_max          0.040
_exptl_crystal_size_mid          0.020
_exptl_crystal_size_min          0.020
_refine_diff_density_max         0.832
_refine_diff_density_min         -0.929
_refine_diff_density_rms         0.320
_refine_ls_abs_structure_details
;
 Refined as an inversion twin.
;
_refine_ls_abs_structure_Flack   0.3(2)
_refine_ls_extinction_coef       0.0015(7)
_refine_ls_extinction_expression Fc^*^=kFc[1+0.001xFc^2^\l^3^/sin(2\q)]^-1/4^
_refine_ls_extinction_method     SHELXL
_refine_ls_goodness_of_fit_ref   1.411
_refine_ls_hydrogen_treatment    undef
_refine_ls_matrix_type           full
_refine_ls_number_parameters     93
_refine_ls_number_reflns         1476
_refine_ls_number_restraints     2
_refine_ls_restrained_S_all      1.410
_refine_ls_R_factor_all          0.0212
_refine_ls_R_factor_gt           0.0162
_refine_ls_shift/su_max          0.127
_refine_ls_shift/su_mean         0.071
_refine_ls_structure_factor_coef Fsqd
_refine_ls_weighting_details
'w=1/[\s^2^(Fo^2^)+(0.0387P)^2^+3.0273P] where P=(Fo^2^+2Fc^2^)/3'
_refine_ls_weighting_scheme      calc
_refine_ls_wR_factor_gt          0.0405
_refine_ls_wR_factor_ref         0.0906
_reflns_Friedel_coverage         0.990
_reflns_Friedel_fraction_full    0.976
_reflns_Friedel_fraction_max     1.000
_reflns_number_gt                1360
_reflns_number_total             1476
_reflns_threshold_expression     'I > 2\s(I)'
_cod_data_source_file            d1dt04317j2.cif
_cod_data_source_block           x1
_cod_depositor_comments
;
The following automatic conversions were performed:

data item '_exptl_absorpt_correction_type' value 'Multi-scan' was
changed to 'multi-scan' in accordance with the
/home/data/users/saulius/crontab/automatic-downloads/rss-feeds/RSC/lib/dictionaries/cif_core.dic
dictionary named 'cif_core.dic' version 2.4.2 last updated on
2011-04-26.

Automatic conversion script
Id: cif_fix_values 7556 2019-12-06 15:28:31Z antanas 
;
_cod_original_sg_symbol_H-M      'P n'
_cod_database_code               7709473
_shelx_space_group_comment
;
The symmetry employed for this shelxl refinement is uniquely defined
by the following loop, which should always be used as a source of
symmetry information in preference to the above space-group names.
They are only intended as comments.
;
_shelx_estimated_absorpt_t_min   0.711
_shelx_estimated_absorpt_t_max   0.838
_shelxl_version_number           2014/6
_shelx_res_file
;

TITL x1 in Pn
CELL 0.71073   6.74110   7.58180   9.98700  90.0000  91.2005  90.0000
ZERR    2.00   0.00020   0.00020   0.00030   0.0000   0.0012   0.0000
LATT -1
SYMM 0.5+X, -Y, 0.5+Z
SFAC P S BA
UNIT 4 12 4
TEMP 0.000
SIZE 0.02 0.02 0.04

L.S. 40
BOND
twin
acta
Omit -2 50
FMAP 2
PLAN -5

WGHT    0.038700    3.027300
EXTI    0.001458
BASF   0.34807
FVAR       0.11531
BA1   3    0.265820    0.341865    0.973793    11.00000    0.01361    0.01682 =
         0.01081   -0.00041    0.00011    0.00173
BA2   3    0.688613   -0.157761    0.975239    11.00000    0.01362    0.01701 =
         0.01264   -0.00146   -0.00114   -0.00009
P1    1    0.183951    0.862878    0.784635    11.00000    0.00721    0.01009 =
         0.01041    0.00002   -0.00128    0.00472
P2    1   -0.225427    0.366216    1.162381    11.00000    0.01331    0.01335 =
         0.00870    0.00263   -0.00033    0.00429
S1    2   -0.211061    0.275348    0.975556    11.00000    0.01510    0.01913 =
         0.00765    0.00318    0.00249   -0.00910
S2    2    0.164396    0.777399    0.977584    11.00000    0.01974    0.02442 =
         0.00879    0.00427   -0.00170   -0.00274
S3    2    0.053424    0.457483    0.682365    11.00000    0.01297    0.01194 =
         0.01175    0.00453   -0.00101   -0.00145
S4    2    0.031693    0.452457    1.246245    11.00000    0.01107    0.02085 =
         0.00851    0.00261    0.00101   -0.00625
S5    2    0.403095    0.044264    0.758033    11.00000    0.01495    0.01579 =
         0.01852   -0.00380   -0.00422   -0.00435
S6    2    0.424281    0.048067    1.203922    11.00000    0.01009    0.01415 =
         0.01906   -0.00509   -0.00368    0.00104
HKLF 4

REM  x1 in Pn
REM R1 =  0.0162 for    1360 Fo > 4sig(Fo)  and  0.0212 for all    1476 data
REM     93 parameters refined using      2 restraints

END

WGHT      0.0388      3.0223

REM Highest difference peak  0.832,  deepest hole -0.929,  1-sigma level  0.320
Q1    1   0.1417  0.7223  1.1597  11.00000  0.05    0.83
Q2    1  -0.1772  0.2229  0.7967  11.00000  0.05    0.82
Q3    1   0.7299  0.2040  0.7622  11.00000  0.05    0.79
Q4    1   0.6590  0.2497  0.7507  11.00000  0.05    0.78
Q5    1   0.2976 -0.2462  1.2057  11.00000  0.05    0.78
;
_shelx_res_checksum              32969
_shelx_hkl_file
;
  -1   0   0   -0.66    0.06
   1   0   0   -0.52    0.09
   1   0   0   -0.46    0.10
   1   0   0   -0.45    0.10
   1   0   0   -0.59    0.10
   1   0   0   -0.54    0.08
  -1   0   0   -0.49    0.10
  -1   0   0   -0.44    0.10
  -1   0   0   -0.59    0.08
   2   0   0  374.19    6.42
   2   0   0  374.50    6.20
   2   0   0  376.88    6.31
   2   0   0  380.53    6.35
   2   0   0  374.86    6.09
  -2   0   0  384.43    6.41
  -2   0   0  381.46    6.23
  -2   0   0  370.78    6.22
  -2   0   0  377.49    5.93
   3   0   0   -0.31    0.19
  -3   0   0    0.33    0.29
   3   0   0    0.70    0.27
   3   0   0    0.02    0.21
   3   0   0    0.48    0.34
   3   0   0    0.01    0.19
   4   0   0  110.18    3.30
   4   0   0  107.73    3.52
   4   0   0  112.49    2.93
   4   0   0  109.86    3.16
   4   0   0  111.81    2.95
   5   0   0   -0.07    0.27
   5   0   0   -0.21    0.24
   5   0   0   -0.06    0.46
   5   0   0   -0.31    0.35
   5   0   0   -0.28    0.37
   6   0   0    9.32    1.29
   6   0   0    7.84    1.42
   6   0   0   12.78    1.63
   6   0   0    8.68    1.11
   6   0   0    9.56    1.20
   7   0   0   -0.63    0.47
   7   0   0   -0.20    0.47
   7   0   0    0.17    0.59
   7   0   0    1.09    0.85
   7   0   0   -0.26    0.42
   8   0   0   96.52    4.95
   8   0   0   97.03    4.47
   8   0   0   97.40    4.30
   8   0   0   97.44    4.01
   9   0   0    0.49    0.82
   9   0   0   -0.80    0.59
   9   0   0   -0.01    1.04
   9   0   0   -1.48    0.82
   0  -1   0   -0.21    0.10
   0  -1   0   -0.12    0.09
   0  -1   0   -0.02    0.10
   0  -1   0   -0.06    0.13
   0  -1   0   -0.16    0.07
   0  -1   0   -0.06    0.11
   0  -1   0   -0.07    0.08
   0  -1   0    0.01    0.11
   0   1   0    0.06    0.11
   0   1   0   -0.12    0.09
   0   1   0   -0.13    0.08
   0   1   0   -0.08    0.09
   0   1   0   -0.07    0.12
   0   1   0   -0.01    0.12
   0   1   0    0.00    0.14
   1  -1   0   95.34    2.16
   1  -1   0   99.31    2.20
   1  -1   0  101.58    2.02
  -1  -1   0   94.52    2.13
   1  -1   0   99.57    1.84
  -1  -1   0   97.30    2.07
   1  -1   0   92.87    2.01
   1  -1   0   99.10    2.28
  -1  -1   0   98.85    2.28
  -1  -1   0   91.81    2.16
   1   1   0  100.94    2.18
  -1   1   0  102.76    2.19
   1   1   0  100.18    2.03
  -1   1   0  100.91    2.15
  -1   1   0  102.86    2.20
  -1   1   0  103.37    1.85
   1   1   0  102.70    2.24
   1   1   0  101.97    2.09
   1   1   0  103.62    2.31
   2  -1   0    0.49    0.27
  -2  -1   0    0.09    0.30
  -2  -1   0    0.08    0.18
  -2  -1   0    0.33    0.30
   2  -1   0    0.13    0.21
   2  -1   0   -0.08    0.11
   2  -1   0   -0.47    0.19
   2  -1   0    0.02    0.22
   2  -1   0   -0.13    0.27
   2   1   0    0.12    0.14
   2   1   0    0.11    0.25
   2   1   0   -0.01    0.25
   2   1   0   -0.03    0.26
   2   1   0    0.05    0.28
   2   1   0    0.21    0.24
  -2   1   0   -0.17    0.17
  -2   1   0   -0.14    0.15
  -2   1   0    0.19    0.19
   3  -1   0   28.04    1.34
   3  -1   0   30.35    1.33
   3  -1   0   27.03    1.49
   3  -1   0   28.29    0.94
   3  -1   0   28.43    1.19
   3   1   0   27.17    1.22
   3   1   0   27.35    1.38
   3   1   0   27.37    1.42
   3   1   0   29.01    1.09
   3   1   0   29.72    1.40
  -3   1   0   30.54    1.12
   4  -1   0  297.29    6.08
   4  -1   0  295.10    6.12
   4  -1   0  290.32    5.21
   4  -1   0  294.91    5.72
   4  -1   0  272.00    6.49
   4   1   0  285.41    5.49
   4   1   0  293.96    5.83
   4   1   0  283.26    6.12
   4   1   0  292.24    6.21
   4   1   0  294.23    6.34
   5  -1   0   35.67    1.78
   5  -1   0   41.81    1.53
   5  -1   0   39.19    2.34
   5  -1   0   38.62    2.04
   5  -1   0   40.03    2.07
   5   1   0   40.90    2.05
   5   1   0   40.25    1.91
   5   1   0   44.85    2.20
   5   1   0   39.20    2.18
   6  -1   0   28.40    1.42
   6  -1   0   25.43    1.85
   6  -1   0   26.60    1.74
   6  -1   0   24.02    2.11
   6  -1   0   26.34    1.92
   6   1   0   29.58    2.27
   6   1   0   29.87    1.85
   6   1   0   25.98    1.90
   6   1   0   27.57    2.05
   6   1   0   26.45    1.81
   7  -1   0    1.12    0.62
   7  -1   0    1.59    0.89
   7  -1   0    0.99    0.78
   7  -1   0    2.77    0.94
   7   1   0    3.04    0.93
   7   1   0    1.68    0.94
   7   1   0    1.49    0.64
   7   1   0    1.11    0.70
   7   1   0    0.64    0.83
   8  -1   0   21.03    2.65
   8  -1   0   25.23    2.32
   8  -1   0   25.69    2.72
   8  -1   0   25.18    2.11
   8   1   0   26.03    2.16
   8   1   0   23.15    2.50
   8   1   0   26.85    2.84
   8   1   0   28.14    3.12
   0  -2   0   30.04    1.42
   0  -2   0   26.08    1.03
   0  -2   0   25.29    1.01
   0  -2   0   27.84    1.26
   0  -2   0   26.57    1.19
   0  -2   0   26.50    1.06
   0  -2   0   25.54    1.17
   0  -2   0   28.15    1.15
   0   2   0   26.78    1.04
   0   2   0   26.54    1.26
   0   2   0   29.02    1.23
   0   2   0   28.67    1.21
   0   2   0   27.71    1.09
   0   2   0   27.40    1.13
   1  -2   0   10.00    0.50
   1  -2   0   10.95    0.86
   1  -2   0   10.68    0.81
  -1  -2   0   11.90    0.83
   1  -2   0    9.01    0.94
  -1  -2   0    8.79    0.91
  -1  -2   0   12.31    0.83
   1  -2   0   11.20    0.93
  -1  -2   0   10.30    0.70
  -1  -2   0   10.29    0.72
   1  -2   0   12.29    0.76
   1  -2   0   11.48    0.83
   1  -2   0   10.61    0.50
   1   2   0   11.51    0.76
   1   2   0   10.12    0.73
   1   2   0    9.55    0.63
  -1   2   0   10.39    0.50
  -1   2   0   10.96    0.48
  -1   2   0   11.03    0.86
  -1   2   0   10.85    0.80
   1   2   0   10.82    0.84
   1   2   0    9.59    0.84
   1   2   0   10.65    0.67
  -1   2   0    8.78    0.80
   1   2   0   10.22    0.80
   1   2   0    9.81    0.79
  -1   2   0   11.78    0.77
  -1   2   0    9.96    0.68
  -1   2   0   11.03    0.84
  -2  -2   0  273.79    5.33
   2  -2   0  276.82    4.81
   2  -2   0  279.10    5.62
   2  -2   0  272.80    5.78
   2  -2   0  275.77    5.55
   2  -2   0  276.96    5.26
   2  -2   0  278.07    5.22
   2   2   0  277.75    5.27
  -2   2   0  277.71    5.50
   2   2   0  275.46    5.22
  -2   2   0  281.95    4.79
   2   2   0  282.09    5.68
   2   2   0  277.35    5.57
   2   2   0  277.08    5.32
  -2   2   0  274.32    5.01
   3  -2   0   64.89    2.07
   3  -2   0   59.16    2.25
  -3  -2   0   63.25    2.37
   3  -2   0   65.63    2.47
   3  -2   0   64.90    1.95
   3   2   0   59.57    2.26
   3   2   0   66.42    2.15
   3   2   0   61.84    2.25
  -3   2   0   65.25    1.86
   3   2   0   59.89    2.34
  -3   2   0   62.15    2.23
   4  -2   0   16.83    0.55
   4  -2   0   16.30    1.14
   4  -2   0   15.02    1.62
   4  -2   0   17.04    1.17
   4  -2   0   14.63    1.26
   4   2   0   16.56    1.39
   4   2   0   15.96    1.54
   4   2   0   15.11    1.16
   4   2   0   16.56    0.62
  -4   2   0   14.64    1.20
   4   2   0   16.96    1.35
   5  -2   0   80.73    2.81
   5  -2   0   77.88    3.41
   5  -2   0   77.90    2.86
   5  -2   0   75.57    1.76
   5  -2   0   81.32    3.17
   5   2   0   72.75    3.07
   5   2   0   74.30    3.10
   5   2   0   74.62    1.93
  -5   2   0   72.66    2.83
   5   2   0   73.50    2.79
   5   2   0   77.25    3.11
   6  -2   0   17.74    2.20
   6  -2   0   18.48    1.50
   6  -2   0   20.07    1.80
   6  -2   0   21.24    1.68
   6   2   0   19.30    2.08
   6   2   0   16.01    1.81
   6   2   0   18.63    2.00
   6   2   0   16.39    1.64
   7  -2   0   17.01    2.02
   7  -2   0   17.01    2.02
   7  -2   0   15.80    2.23
   7  -2   0   17.25    1.83
   7   2   0   19.11    1.98
   7   2   0   18.72    2.16
   7   2   0   16.10    2.02
   7   2   0   15.01    2.01
   7   2   0   15.46    2.18
   8  -2   0   -0.29    0.83
   8  -2   0    0.36    0.80
   8  -2   0    0.99    0.93
   8  -2   0    0.12    0.64
   8   2   0    0.32    0.83
   8   2   0    0.22    0.85
   8   2   0   -0.11    0.73
   8   2   0   -0.32    0.55
   8   2   0    0.02    0.74
   0  -3   0   -0.34    0.29
   0  -3   0   -0.06    0.39
   0  -3   0   -0.91    0.22
   0  -3   0   -0.31    0.33
   0  -3   0    0.02    0.25
   0  -3   0    0.65    0.36
   0  -3   0   -0.39    0.28
   0   3   0    0.36    0.31
   0   3   0    0.01    0.31
   0   3   0   -0.44    0.25
   0   3   0    0.75    0.44
   1  -3   0   53.16    2.12
   1  -3   0   52.30    2.17
   1  -3   0   54.91    1.55
   1  -3   0   56.58    2.35
  -1  -3   0   55.64    2.13
   1  -3   0   51.43    2.01
   1  -3   0   50.32    2.10
  -1  -3   0   51.70    2.20
   1  -3   0   56.33    1.94
  -1  -3   0   54.67    1.80
   1   3   0   60.03    2.23
  -1   3   0   54.29    1.30
  -1   3   0   58.07    1.91
   1   3   0   53.98    2.03
   1   3   0   53.98    1.92
   1   3   0   55.13    1.95
   1   3   0   55.22    1.74
  -1   3   0   55.69    1.56
  -1   3   0   51.13    2.06
   2  -3   0  242.39    5.12
  -2  -3   0  239.93    4.96
   2  -3   0  234.99    4.28
   2  -3   0  238.09    5.19
   2  -3   0  238.59    5.73
   2  -3   0  240.73    3.91
   2  -3   0  240.85    5.44
   2  -3   0  239.12    5.60
  -2  -3   0  245.71    5.70
   2   3   0  233.78    5.45
  -2   3   0  237.74    5.35
   2   3   0  240.03    5.10
   2   3   0  234.88    5.43
  -2   3   0  241.20    4.19
   2   3   0  232.71    4.91
  -3  -3   0   14.04    1.16
   3  -3   0   10.70    1.32
   3  -3   0   12.54    0.82
   3  -3   0    9.73    1.05
   3  -3   0   13.44    1.47
   3  -3   0   13.96    1.57
  -3   3   0   14.25    1.18
   3   3   0   10.96    1.18
  -3   3   0   13.64    0.93
   3   3   0   11.96    1.31
   3   3   0   11.76    1.35
   3   3   0   10.09    1.04
   4  -3   0  123.12    3.66
   4  -3   0  124.95    4.08
   4  -3   0  124.24    4.16
   4  -3   0  131.05    4.51
   4  -3   0  125.26    3.34
  -4  -3   0  128.67    4.01
   4   3   0  125.53    3.96
   4   3   0  125.78    4.17
  -4   3   0  132.28    3.89
   4   3   0  125.90    3.72
   4   3   0  122.79    4.01
   5  -3   0   10.22    1.30
   5  -3   0   11.23    1.52
   5  -3   0   10.18    1.72
   5  -3   0   10.64    1.24
   5  -3   0    8.24    1.41
   5   3   0    9.78    1.37
   5   3   0   11.82    1.69
  -5   3   0    9.48    1.31
   5   3   0   10.64    1.37
   5   3   0   12.99    1.67
   6  -3   0  246.03    7.63
   6  -3   0  248.47    7.36
   6  -3   0  244.42    6.88
   6  -3   0  244.11    6.34
   6  -3   0  238.53    6.12
   6   3   0  245.50    6.96
   6   3   0  245.33    6.87
   6   3   0  252.75    6.97
   6   3   0  244.04    6.40
   7  -3   0    5.66    1.23
   7  -3   0    5.17    1.38
   7  -3   0    5.60    1.19
   7  -3   0    5.84    1.44
   7  -3   0    6.30    1.62
   7   3   0    6.37    1.42
   7   3   0    4.95    1.28
   7   3   0    6.01    1.36
   7   3   0    5.91    1.24
   8  -3   0   73.81    4.69
   8  -3   0   80.26    3.85
   8  -3   0   70.74    3.66
   8  -3   0   62.29    3.78
   8   3   0   72.49    3.69
   8   3   0   75.17    4.03
   8   3   0   65.94    3.96
   8   3   0   65.17    4.14
   8   3   0   71.69    3.94
   0  -4   0   79.56    2.62
   0  -4   0   80.77    3.01
   0  -4   0   79.05    2.80
   0  -4   0   77.09    3.12
   0  -4   0   77.20    2.71
   0  -4   0   78.35    2.56
   0   4   0   75.90    2.86
   0   4   0   76.32    2.57
   0   4   0   79.28    2.54
   1  -4   0   67.33    2.85
  -1  -4   0   72.79    3.02
   1  -4   0   71.89    3.02
   1  -4   0   72.22    2.82
  -1  -4   0   73.04    2.38
   1  -4   0   75.86    2.58
   1  -4   0   71.09    2.68
  -1   4   0   72.64    2.80
   1   4   0   76.10    2.72
   1   4   0   73.57    2.12
  -1   4   0   68.36    2.09
  -1   4   0   68.79    2.40
   1   4   0   73.14    2.55
   1   4   0   69.13    2.78
  -1   4   0   73.32    1.70
   2  -4   0  164.91    4.79
   2  -4   0  155.37    4.85
  -2  -4   0  153.57    4.75
   2  -4   0  162.16    3.17
  -2  -4   0  152.12    3.93
   2  -4   0  159.78    4.59
  -2  -4   0  163.21    3.26
   2  -4   0  158.97    4.18
   2  -4   0  157.02    4.34
   2   4   0  152.75    4.47
   2   4   0  158.56    4.20
  -2   4   0  161.01    4.48
   2   4   0  157.52    4.19
   2   4   0  162.62    3.91
  -2   4   0  156.28    3.18
   2   4   0  154.43    4.54
  -2   4   0  158.84    3.00
   3  -4   0    4.55    0.95
   3  -4   0    6.08    0.69
   3  -4   0    7.55    1.15
  -3  -4   0    5.23    0.90
   3  -4   0    5.73    1.07
   3  -4   0    3.83    1.04
   3   4   0    4.54    0.87
   3   4   0    4.53    0.98
   3   4   0    5.16    0.93
   3   4   0    5.48    0.89
  -3   4   0    5.36    0.96
  -3   4   0    5.78    0.66
  -3   4   0    6.20    0.86
   3   4   0    6.54    1.25
  -4  -4   0   36.69    2.15
   4  -4   0   36.56    2.12
   4  -4   0   36.77    2.36
   4  -4   0   38.93    2.58
   4  -4   0   38.70    2.45
   4  -4   0   37.80    1.59
  -4   4   0   35.80    2.12
   4   4   0   36.57    2.13
   4   4   0   37.02    2.09
   4   4   0   33.34    2.21
   4   4   0   39.13    2.46
  -4   4   0   36.66    1.94
   5  -4   0   14.31    1.39
   5  -4   0   15.67    2.09
   5  -4   0   11.37    1.50
   5  -4   0   14.20    2.09
   5  -4   0   12.26    1.82
  -5   4   0   10.53    1.44
   5   4   0   10.60    1.59
   5   4   0   10.83    1.39
   5   4   0   13.73    1.87
   5   4   0    9.28    1.51
   6  -4   0    0.27    0.65
   6  -4   0   -0.20    0.45
   6  -4   0   -0.57    0.56
   6  -4   0    0.45    0.79
   6  -4   0   -0.63    0.72
   6   4   0   -0.60    0.57
   6   4   0    0.47    0.60
   6   4   0   -0.04    0.73
   6   4   0    0.16    0.66
   7  -4   0   65.60    3.08
   7  -4   0   68.26    4.41
   7  -4   0   65.77    3.48
   7  -4   0   68.57    4.14
   7  -4   0   69.18    3.86
   7   4   0   68.90    3.95
   7   4   0   62.95    3.77
   7   4   0   73.55    3.62
   7   4   0   64.90    3.74
   8  -4   0   -1.49    0.96
   8  -4   0    0.48    1.00
   8  -4   0    1.05    0.94
   8  -4   0    0.82    1.02
   8   4   0    1.11    1.19
   8   4   0    0.68    1.12
   8   4   0    1.53    1.02
   8   4   0   -0.35    0.82
   0  -5   0   -0.47    0.46
   0  -5   0    0.49    0.47
   0  -5   0   -0.11    0.43
   0  -5   0   -0.08    0.43
   0  -5   0   -0.74    0.35
   0   5   0   -0.03    0.45
   0   5   0    0.19    0.39
   0   5   0   -0.20    0.37
   1  -5   0   97.01    3.98
   1  -5   0   97.99    3.72
  -1  -5   0   96.39    3.13
   1  -5   0   97.67    3.85
   1  -5   0   95.85    3.49
   1  -5   0  105.92    3.47
  -1  -5   0   92.89    3.85
   1  -5   0   99.39    3.38
  -1   5   0   99.72    2.23
   1   5   0   98.39    3.45
  -1   5   0  101.70    2.96
  -1   5   0  101.01    3.71
   1   5   0  101.32    2.73
   1   5   0   99.04    3.76
  -1   5   0  101.40    3.29
   1   5   0   97.40    3.35
   2  -5   0    1.02    0.72
   2  -5   0    2.77    0.92
   2  -5   0    3.45    1.01
  -2  -5   0    3.34    0.80
   2  -5   0    1.10    0.54
   2  -5   0    3.90    0.92
  -2  -5   0    1.98    0.81
  -2   5   0    3.29    0.59
   2   5   0    2.77    0.79
   2   5   0    2.34    0.61
  -2   5   0    1.70    0.68
  -2   5   0    3.10    0.39
   2   5   0    2.67    0.88
   2   5   0    4.18    1.06
  -2   5   0    2.76    0.71
  -3  -5   0  186.20    3.35
   3  -5   0  184.65    5.35
  -3  -5   0  176.40    4.85
  -3  -5   0  184.45    5.95
   3  -5   0  186.30    6.04
   3  -5   0  188.67    5.34
  -3  -5   0  183.60    3.24
   3  -5   0  178.39    5.73
   3  -5   0  189.32    5.72
   3   5   0  186.17    5.67
  -3   5   0  177.33    4.62
   3   5   0  195.43    5.76
   3   5   0  182.56    5.16
   3   5   0  187.06    4.90
  -3   5   0  167.33    3.98
  -3   5   0  182.55    5.40
   4  -5   0   13.07    1.92
   4  -5   0   15.02    1.77
   4  -5   0   16.48    2.00
  -4  -5   0   15.80    1.75
   4  -5   0   19.43    1.17
   4  -5   0   12.57    1.86
  -4   5   0   14.58    1.71
   4   5   0   15.80    2.02
   4   5   0   13.33    1.58
   4   5   0   14.10    1.80
   4   5   0   12.89    1.55
   5  -5   0    4.17    0.86
   5  -5   0    3.83    1.39
   5  -5   0    4.21    1.17
   5  -5   0    2.39    0.86
   5  -5   0    4.00    1.24
  -5  -5   0    2.59    0.90
   5   5   0    4.18    1.06
   5   5   0    2.65    1.06
   5   5   0    3.66    1.03
   5   5   0    2.58    0.95
   6  -5   0    3.40    1.47
   6  -5   0    4.41    1.46
   6  -5   0    5.83    1.42
   6  -5   0    2.96    1.13
   6   5   0    2.84    1.01
   6   5   0    1.14    0.90
   6   5   0    4.10    1.18
   6   5   0    2.82    1.29
   7  -5   0   -0.03    0.95
   7  -5   0    1.40    0.88
   7  -5   0   -0.60    0.86
   7  -5   0    0.43    1.01
   7   5   0    0.62    0.77
   7   5   0    0.48    0.98
   7   5   0    0.43    0.96
   7   5   0    0.14    0.80
   0  -6   0  115.87    4.24
   0  -6   0  115.02    4.12
   0  -6   0  110.61    4.69
   0  -6   0  111.62    3.81
   0  -6   0  117.65    4.65
   0   6   0  111.25    2.73
   0   6   0  118.83    4.47
   0   6   0  112.94    3.78
   1  -6   0   43.62    2.82
  -1  -6   0   44.79    2.28
   1  -6   0   44.30    2.40
   1  -6   0   45.20    3.07
   1  -6   0   43.58    2.55
   1  -6   0   40.29    2.59
  -1  -6   0   42.50    2.90
  -1   6   0   46.44    2.14
   1   6   0   42.06    1.76
   1   6   0   38.49    2.37
   1   6   0   42.16    2.68
  -1   6   0   42.36    2.65
   1   6   0   40.52    2.33
  -1   6   0   38.89    2.22
   2  -6   0  108.34    4.73
   2  -6   0  112.84    4.26
  -2  -6   0  109.48    3.67
   2  -6   0  113.38    4.45
   2  -6   0  104.43    4.52
  -2  -6   0  116.96    4.77
  -2   6   0  108.58    3.11
   2   6   0  110.43    4.30
  -2   6   0  106.24    4.24
   2   6   0  105.48    4.37
   2   6   0  112.92    4.06
   2   6   0  109.50    3.41
   3  -6   0    1.22    0.82
   3  -6   0    0.54    0.71
   3  -6   0    0.82    0.90
  -3  -6   0    1.30    0.78
  -3  -6   0    0.38    0.52
   3  -6   0    0.60    0.66
   3   6   0    0.31    0.67
   3   6   0   -0.16    0.65
  -3   6   0    0.39    0.57
   3   6   0   -0.10    0.48
   3   6   0    1.13    0.60
   4  -6   0   35.74    2.59
   4  -6   0   43.87    3.06
  -4  -6   0   41.23    2.43
   4  -6   0   39.86    3.14
   4  -6   0   37.44    2.88
   4   6   0   41.40    2.60
   4   6   0   42.39    2.97
   4   6   0   36.33    2.33
  -4   6   0   40.41    2.66
   4   6   0   37.71    2.81
  -5  -6   0    0.50    0.72
   5  -6   0   -0.32    0.79
   5  -6   0   -0.12    0.74
   5  -6   0   -0.76    0.73
   5  -6   0   -0.21    0.70
   5   6   0   -0.21    0.68
   5   6   0    0.73    0.72
   5   6   0   -0.21    0.66
   5   6   0   -0.96    0.64
   6  -6   0    1.94    1.39
   6  -6   0    0.62    1.16
   6  -6   0    0.34    0.76
   6  -6   0    2.54    1.19
   6   6   0    3.22    1.21
   6   6   0    0.61    0.98
   6   6   0    0.63    0.89
   6   6   0    0.88    0.87
   7  -6   0   12.73    2.52
   7  -6   0   16.18    2.42
   7  -6   0   17.25    2.71
   7  -6   0   18.40    2.94
   7   6   0   18.40    2.72
   7   6   0   19.92    2.81
   7   6   0   14.52    2.32
   7   6   0   16.73    2.30
   0  -7   0    0.15    0.79
   0  -7   0    0.26    0.74
   0  -7   0   -0.65    0.49
   0  -7   0    0.07    0.61
   0   7   0    0.77    0.71
   0   7   0   -0.18    0.51
   0   7   0   -0.31    0.28
   0   7   0   -0.12    0.48
   1  -7   0  101.96    4.24
  -1  -7   0   91.12    4.58
   1  -7   0   98.42    3.94
   1  -7   0   92.10    4.51
   1  -7   0  102.51    4.35
  -1  -7   0   96.36    3.69
   1  -7   0  103.32    4.90
   1   7   0   95.53    2.95
  -1   7   0   91.00    3.42
   1   7   0  110.47    4.13
   1   7   0   98.77    4.52
  -1   7   0   97.39    4.35
   1   7   0  103.46    4.12
  -2  -7   0   27.00    1.95
   2  -7   0   30.17    2.43
   2  -7   0   29.11    2.26
   2  -7   0   28.74    2.64
  -2  -7   0   20.94    2.66
   2  -7   0   30.96    3.33
   2  -7   0   22.66    2.55
   2   7   0   26.21    2.41
   2   7   0   28.87    2.86
   2   7   0   27.26    2.19
  -2   7   0   26.52    2.38
   2   7   0   28.80    1.73
  -2   7   0   29.54    1.72
   3  -7   0    2.41    1.12
   3  -7   0    1.64    1.06
   3  -7   0    2.23    1.11
  -3  -7   0   -0.20    0.67
  -3  -7   0    2.15    0.87
   3  -7   0    0.27    0.97
   3   7   0    2.98    1.13
   3   7   0    3.96    0.97
  -3   7   0    1.00    0.79
   3   7   0    1.99    1.05
   3   7   0    2.20    0.93
   4  -7   0   20.80    2.53
   4  -7   0   17.86    2.58
   4  -7   0   17.68    2.46
  -4  -7   0   18.44    2.06
   4  -7   0   19.25    2.54
   4   7   0   20.90    2.68
   4   7   0   18.22    2.21
   4   7   0   18.74    2.06
   4   7   0   17.51    2.61
   5  -7   0   21.12    2.76
   5  -7   0   22.40    3.20
   5  -7   0   19.78    2.53
   5  -7   0   17.26    2.61
   5   7   0   20.85    2.71
   5   7   0   22.27    2.58
   5   7   0   22.22    2.46
   5   7   0   25.07    3.04
   6  -7   0   51.36    3.75
   6  -7   0   44.73    3.40
   6  -7   0   50.60    4.09
   6  -7   0   51.09    4.26
   6   7   0   49.29    3.85
   6   7   0   47.01    3.39
   6   7   0   44.22    3.30
   6   7   0   44.67    3.68
   0  -8   0    1.89    1.14
   0  -8   0    2.32    0.96
   0  -8   0    1.93    1.00
   0  -8   0    1.51    1.03
   0   8   0    1.40    0.82
   0   8   0    0.84    0.88
   1  -8   0   -0.63    0.67
   1  -8   0    0.80    0.82
   1  -8   0    0.55    0.81
   1  -8   0   -0.55    0.93
   1  -8   0   -0.28    0.91
  -1  -8   0   -0.16    0.88
  -1  -8   0   -0.19    0.60
   1   8   0    0.17    0.73
  -1   8   0    0.29    0.61
   1   8   0    1.01    0.86
  -1   8   0    0.90    0.85
   2  -8   0    9.70    1.93
   2  -8   0   10.38    1.77
   2  -8   0    9.29    2.08
   2  -8   0    8.52    1.94
  -2  -8   0   10.76    2.14
   2  -8   0   10.80    1.93
  -2  -8   0   11.49    1.64
   2   8   0    9.24    1.85
   2   8   0    8.87    1.70
  -2   8   0    8.19    1.67
   2   8   0    8.20    1.90
   3  -8   0   51.17    3.66
   3  -8   0   53.07    3.50
   3  -8   0   50.70    3.86
   3  -8   0   47.79    3.26
   3  -8   0   49.46    3.81
  -3  -8   0   55.56    4.06
   3   8   0   52.75    3.51
   3   8   0   48.47    3.61
  -3   8   0   54.43    4.50
   3   8   0   53.40    2.73
   3   8   0   55.62    3.87
   4  -8   0   -0.17    0.88
   4  -8   0   -0.62    0.82
   4  -8   0    1.00    1.10
   4  -8   0    0.23    0.95
   4   8   0   -0.49    0.82
   4   8   0   -0.36    0.72
   4   8   0   -0.40    0.77
   4   8   0   -1.29    0.74
   5  -8   0   64.75    4.74
   5  -8   0   59.08    4.29
   5  -8   0   64.42    4.50
   5  -8   0   58.70    3.95
   5   8   0   60.30    4.34
   5   8   0   59.62    3.53
   5   8   0   59.84    4.19
   5   8   0   60.53    3.89
   0  -9   0   -0.31    0.86
   0  -9   0   -0.38    0.77
   0   9   0    0.92    0.91
   0   9   0    0.46    0.90
   1  -9   0    4.15    1.46
  -1  -9   0    3.94    1.70
   1  -9   0    4.95    1.36
   1  -9   0    5.92    1.88
   1  -9   0    4.81    1.67
   1   9   0    2.50    1.21
   1   9   0    7.45    1.96
  -1   9   0    4.62    1.58
   2  -9   0    0.29    1.05
   2  -9   0   -0.29    1.04
   2  -9   0    0.31    1.34
  -2  -9   0   -0.37    0.94
   2  -9   0    1.98    1.15
   2  -9   0    0.74    1.09
   2   9   0   -0.30    0.98
   2   9   0    0.34    0.94
  -2   9   0    0.16    0.86
   3  -9   0   -0.42    0.95
   3  -9   0    1.53    1.36
   3  -9   0   -0.21    1.01
   3  -9   0   -1.31    0.95
  -3  -9   0   -0.59    1.08
   3  -9   0   -0.98    0.80
   3   9   0    0.28    1.11
   3   9   0    1.56    1.17
   4  -9   0   29.92    3.43
   4  -9   0   29.45    3.60
   4  -9   0   36.55    3.83
   4  -9   0   33.61    4.08
   4  -9   0   31.84    3.78
   4   9   0   26.86    3.49
   4   9   0   35.23    4.15
   0  10   0   96.75    5.53
   1 -10   0    6.09    2.07
   1 -10   0    6.75    2.23
  -1 -10   0    2.62    1.49
   1  10   0    3.43    1.53
   1  10   0    6.09    1.77
  -1  10   0    4.39    1.62
   9   0  -1    4.09    1.18
   9   0  -1    7.25    1.55
   9   0  -1    5.23    1.68
   9   0  -1    7.19    1.80
   8   0  -1   -0.28    0.63
   8   0  -1   -0.79    0.53
   8   0  -1   -0.11    0.54
   8   0  -1    0.04    0.76
   7   0  -1  108.22    4.74
   7   0  -1  109.08    3.97
   7   0  -1  101.58    3.58
   7   0  -1  106.53    4.29
   7   0  -1   99.65    3.55
   6   0  -1    0.30    0.47
   6   0  -1    0.18    0.53
   6   0  -1   -0.33    0.50
   6   0  -1   -0.17    0.33
   6   0  -1   -0.02    0.41
   5   0  -1   57.40    2.29
   5   0  -1   56.02    2.05
   5   0  -1   58.48    2.23
   5   0  -1   56.93    2.51
   5   0  -1   56.83    2.79
   4   0  -1   -0.50    0.26
   4   0  -1    0.05    0.28
   4   0  -1   -0.34    0.16
   4   0  -1   -0.46    0.18
   3   0  -1   75.28    2.33
   3   0  -1   77.32    2.02
   3   0  -1   74.02    1.80
   3   0  -1   77.64    2.23
   2   0  -1   -0.19    0.14
   2   0  -1    0.08    0.14
  -2   0   1   -0.01    0.13
   2   0  -1   -0.12    0.25
   2   0  -1    0.13    0.25
   1   0  -1   -0.96    0.18
   0   0   1   -0.21    0.07
   0   0   1   -0.24    0.06
   0   0   1   -0.30    0.06
   0   0  -1   -0.20    0.07
   0   0  -1   -0.30    0.06
   0   0  -1   -0.29    0.05
   0   0  -1   -0.07    0.09
   0   0   1   -0.28    0.06
   0   0  -1   -0.40    0.03
   0   0  -1   -0.33    0.07
   0   0   1   -0.27    0.02
  -1   0  -1    0.74    0.34
   1   0   1    2.39    0.39
   1   0   1    1.42    0.35
  -1   0  -1    2.20    0.41
   1   0   1    2.16    0.35
   1   0   1    2.08    0.34
   2   0   1    0.43    0.28
   2   0   1   -0.07    0.27
   2   0   1   -0.06    0.28
  -2   0  -1   -0.01    0.18
   2   0   1    0.49    0.24
  -2   0  -1   -0.28    0.22
   2   0   1   -0.26    0.20
   2   0   1    0.29    0.31
  -2   0  -1   -0.21    0.24
  -2   0  -1   -0.32    0.16
   2   0   1    0.57    0.30
  -2   0  -1   -0.09    0.20
   3   0   1   18.45    1.16
   3   0   1   16.59    1.07
   3   0   1   18.44    0.94
  -3   0  -1   19.56    1.15
   3   0   1   17.94    1.02
   3   0   1   17.67    1.19
  -3   0  -1   18.42    0.98
   4   0   1    0.36    0.33
   4   0   1    0.00    0.30
   4   0   1    0.29    0.40
   4   0   1   -0.08    0.25
   4   0   1    0.79    0.50
   5   0   1   76.65    3.03
   5   0   1   79.96    3.29
   5   0   1   76.81    3.05
   5   0   1   78.54    2.53
   5   0   1   72.25    2.70
   6   0   1    0.35    0.64
   6   0   1    0.35    0.64
   6   0   1    0.41    0.43
   6   0   1   -0.23    0.33
   6   0   1    0.03    0.49
   7   0   1   54.69    3.42
   7   0   1   56.88    2.55
   7   0   1   60.75    3.24
   7   0   1   61.96    2.99
   7   0   1   59.62    3.28
   8   0   1   -0.53    0.54
   8   0   1    0.78    0.95
   8   0   1    1.18    0.94
   8   0   1    0.69    0.83
   8  -1  -1   66.19    3.38
   8  -1  -1   60.51    3.96
   8  -1  -1   68.37    3.69
   8  -1  -1   68.30    3.16
   8   1  -1   67.15    3.45
   8   1  -1   63.61    3.74
   8   1  -1   73.16    3.32
   8   1  -1   58.73    3.89
   7  -1  -1    1.16    0.80
   7  -1  -1    0.30    0.59
   7  -1  -1    0.62    0.55
   7  -1  -1    1.36    0.84
   7   1  -1    0.32    0.52
   7   1  -1    0.88    0.67
   7   1  -1   -0.09    0.58
   7   1  -1    1.56    0.97
   7   1  -1    0.41    0.63
   6  -1  -1  163.76    4.70
   6  -1  -1  168.39    5.61
   6  -1  -1  163.10    4.92
   6  -1  -1  168.77    4.15
   6  -1  -1  171.33    4.44
   6   1  -1  174.36    5.30
   6   1  -1  162.40    4.46
   6   1  -1  171.40    4.96
   6   1  -1  173.74    4.84
   5  -1  -1    4.32    0.72
   5  -1  -1    3.88    0.85
   5  -1  -1    4.24    0.61
   5  -1  -1    3.65    0.75
   5  -1  -1    4.32    0.95
   5   1  -1    5.05    0.94
   5   1  -1    4.37    0.82
   5   1  -1    4.07    0.70
   5   1  -1    4.29    0.97
   4  -1  -1  180.66    4.09
   4  -1  -1  176.46    3.77
   4  -1  -1  173.52    3.71
   4  -1  -1  181.08    4.80
   4  -1  -1  178.19    4.26
   4   1  -1  173.99    4.47
   4   1  -1  178.64    3.92
   4   1  -1  182.55    3.75
   4   1  -1  171.24    4.49
   4   1  -1  179.42    4.20
   3  -1  -1   57.70    1.75
   3  -1  -1   59.57    1.67
   3  -1  -1   59.75    1.89
   3  -1  -1   58.19    2.17
   3  -1  -1   57.40    1.54
   3   1  -1   57.54    1.85
   3   1  -1   57.65    1.69
  -3   1   1   60.26    1.69
   3   1  -1   57.24    2.12
   3   1  -1   55.38    2.05
   3   1  -1   61.17    1.57
   2  -1  -1  112.66    2.40
  -2  -1   1  112.72    2.88
   2  -1  -1  114.57    2.80
   2  -1  -1  115.57    2.46
   2  -1  -1  115.71    2.16
  -2  -1   1  117.24    2.48
   2  -1  -1  118.58    2.23
   2   1  -1  115.28    2.40
   2   1  -1  114.32    2.90
   2   1  -1  116.04    2.55
   2   1  -1  119.12    2.67
  -2   1   1  117.18    2.21
  -1  -1   1   56.72    1.45
   1  -1  -1   59.61    1.69
   1  -1  -1   56.50    1.43
   1  -1  -1   55.75    1.37
  -1  -1   1   57.79    1.32
   1  -1  -1   58.50    1.33
  -1  -1   1   58.04    1.13
   1  -1  -1   58.07    1.16
  -1  -1   1   58.76    1.66
   1  -1  -1   57.17    1.21
  -1   1   1   59.22    1.33
   1   1  -1   58.45    1.23
  -1   1   1   56.93    1.01
   1   1  -1   56.21    1.46
   1   1  -1   57.33    1.57
   1   1  -1   56.80    1.14
  -1   1   1   57.07    1.25
   1   1  -1   56.82    1.68
   1   1  -1   58.23    1.50
   1   1  -1   56.21    1.36
  -1   1   1   56.82    1.41
  -1   1   1   57.30    1.02
   0  -1  -1   -0.87    0.08
   0  -1  -1   -0.63    0.07
   0  -1   1   -0.65    0.15
   0  -1   1   -0.91    0.15
   0  -1   1   -0.56    0.16
   0  -1   1   -0.68    0.15
   0  -1  -1   -0.88    0.07
   0  -1  -1   -0.86    0.17
   0  -1  -1   -0.63    0.17
   0  -1  -1   -0.65    0.14
   0  -1   1   -0.75    0.16
   0  -1  -1   -0.61    0.11
   0   1  -1   -0.81    0.18
   0   1  -1   -0.76    0.13
   0   1   1   -0.74    0.08
   0   1  -1   -0.74    0.16
   0   1   1   -0.70    0.12
   0   1   1   -0.73    0.14
   0   1  -1   -0.67    0.13
   0   1   1   -0.68    0.08
   0   1  -1   -0.81    0.13
   0   1   1   -0.59    0.17
   0   1   1   -0.79    0.13
   0   1  -1   -0.76    0.16
   0   1   1   -0.71    0.12
   0   1   1   -0.69    0.12
   0   1   1   -0.69    0.09
   0   1  -1   -0.88    0.13
  -1  -1  -1  103.99    2.07
  -1  -1  -1  108.42    2.26
   1  -1   1  103.91    2.24
  -1  -1  -1  106.03    2.37
   1  -1   1  113.02    2.61
  -1  -1  -1  104.33    2.42
   1  -1   1  104.19    2.33
  -1  -1  -1  107.33    2.42
   1  -1   1  103.34    2.50
   1  -1   1  102.71    2.45
   1  -1   1  107.62    2.34
  -1  -1  -1  113.94    2.48
  -1   1  -1  109.68    2.33
   1   1   1  109.34    2.47
   1   1   1  107.41    2.06
   1   1   1  108.41    2.42
   1   1   1  105.56    2.23
  -1   1  -1  106.30    2.44
   1   1   1  108.05    2.29
  -1   1  -1  106.78    2.59
   1   1   1  106.19    2.39
   1   1   1  108.70    2.41
  -1   1  -1  108.01    2.48
  -1   1  -1  107.97    2.22
  -2  -1  -1  240.33    4.67
   2  -1   1  231.95    5.05
  -2  -1  -1  243.77    4.30
   2  -1   1  242.39    4.82
   2  -1   1  237.48    4.82
  -2  -1  -1  234.28    4.42
   2  -1   1  238.26    3.81
   2  -1   1  240.48    4.52
  -2  -1  -1  237.25    4.88
   2  -1   1  240.27    4.54
  -2   1  -1  242.60    4.49
   2   1   1  230.78    4.65
   2   1   1  238.65    4.54
   2   1   1  238.74    4.80
   2   1   1  245.84    4.69
  -2   1  -1  233.64    4.94
   2   1   1  240.62    4.19
  -2   1  -1  239.08    3.82
   3  -1   1   65.54    2.40
  -3  -1  -1   65.42    1.94
   3  -1   1   68.08    2.34
   3  -1   1   68.51    2.13
   3  -1   1   69.04    1.62
  -3  -1  -1   68.67    2.54
   3  -1   1   63.79    2.14
   3   1   1   67.32    2.23
  -3   1  -1   66.55    1.63
   3   1   1   69.94    2.40
   3   1   1   70.39    1.92
  -3   1  -1   65.87    2.43
   3   1   1   62.75    2.23
   3   1   1   69.35    2.16
   4  -1   1  268.65    5.92
   4  -1   1  275.89    5.77
   4  -1   1  271.87    6.38
  -4  -1  -1  278.22    5.49
   4  -1   1  283.51    5.01
   4  -1   1  267.53    6.13
   4   1   1  273.14    6.19
   4   1   1  274.66    6.13
   4   1   1  277.28    5.92
  -4   1  -1  278.24    5.08
   4   1   1  274.54    5.83
   5  -1   1   27.46    1.85
   5  -1   1   32.89    1.33
   5  -1   1   25.74    1.75
   5  -1   1   27.59    1.97
   5  -1   1   29.20    1.71
   5   1   1   32.33    1.97
   5   1   1   31.86    1.96
   5   1   1   27.29    1.68
   5   1   1   28.39    1.71
   5   1   1   31.63    2.09
   6  -1   1  138.06    4.29
   6  -1   1  141.04    4.70
   6  -1   1  138.69    5.00
   6  -1   1  138.16    4.55
   6  -1   1  145.58    3.55
   6   1   1  137.04    4.68
   6   1   1  135.71    4.28
   6   1   1  134.21    4.90
   6   1   1  144.31    4.78
   6   1   1  143.51    4.30
   7  -1   1    2.47    0.82
   7  -1   1   -0.41    0.50
   7  -1   1    0.24    0.77
   7  -1   1    1.73    0.83
   7   1   1    0.30    0.66
   7   1   1    1.10    0.74
   7   1   1    0.17    0.74
   7   1   1    1.32    0.70
   7   1   1   -0.90    0.47
   8  -1   1   39.06    2.90
   8  -1   1   35.38    2.82
   8  -1   1   32.84    3.59
   8  -1   1   31.72    2.47
   8   1   1   34.29    3.56
   8   1   1   36.92    2.86
   8   1   1   33.39    2.50
   8   1   1   29.58    3.01
   8  -2  -1    0.40    0.79
   8  -2  -1    0.82    1.08
   8  -2  -1    0.87    0.68
   8  -2  -1    0.91    0.87
   8   2  -1    2.29    1.13
   8   2  -1    0.12    0.87
   8   2  -1   -1.85    0.51
   8   2  -1    0.30    0.66
   8   2  -1    0.31    0.76
   7  -2  -1    0.34    0.61
   7  -2  -1    0.88    0.55
   7  -2  -1    0.61    0.82
   7  -2  -1   -0.48    0.49
   7   2  -1    0.15    0.59
   7   2  -1    0.38    0.61
   7   2  -1   -0.50    0.44
   7   2  -1    0.01    0.66
   6  -2  -1    1.47    0.68
   6  -2  -1    2.11    0.65
   6  -2  -1    1.64    0.74
   6  -2  -1    2.64    0.97
   6   2  -1    2.08    0.81
   6   2  -1    3.79    0.91
   6   2  -1    2.45    0.73
   6   2  -1    1.85    0.80
   5  -2  -1   12.25    1.30
   5  -2  -1   12.87    1.67
   5  -2  -1   12.32    0.75
   5  -2  -1   11.61    1.35
   5  -2  -1   10.19    1.12
   5   2  -1    9.77    1.12
   5   2  -1   15.84    1.79
   5   2  -1   12.18    1.38
  -5   2   1   10.69    0.96
   5   2  -1   12.32    0.70
   5   2  -1   13.02    1.60
   4  -2  -1  139.64    2.79
   4  -2  -1  136.24    3.72
   4  -2  -1  140.83    3.38
   4  -2  -1  140.10    4.16
   4  -2  -1  133.73    3.46
   4   2  -1  132.16    3.48
   4   2  -1  136.00    4.09
   4   2  -1  134.54    4.01
   4   2  -1  134.25    3.78
  -4   2   1  136.68    3.36
   3  -2  -1    5.61    0.43
   3  -2  -1    5.87    0.75
   3  -2  -1    4.61    0.58
   3  -2  -1    4.23    0.59
   3  -2  -1    4.48    0.76
   3   2  -1    4.19    0.73
   3   2  -1    3.77    0.73
   3   2  -1    5.31    0.77
   3   2  -1    5.51    0.70
  -3   2   1    4.49    0.62
   2  -2  -1  466.10    8.06
   2  -2  -1  442.42    7.11
   2  -2  -1  455.50    8.51
   2  -2  -1  449.59    7.50
  -2  -2   1  454.00    7.64
   2  -2  -1  464.74    7.06
   2  -2  -1  448.11    7.90
   2  -2  -1  446.19    7.57
   2  -2  -1  456.81    8.02
   2   2  -1  456.29    8.37
   2   2  -1  446.83    8.05
  -2   2   1  429.12    7.57
  -2   2   1  452.69    7.08
   2   2  -1  466.14    8.08
   2   2  -1  467.86    7.53
   2   2  -1  458.60    7.74
   1  -2  -1    3.83    0.54
  -1  -2   1    2.75    0.48
   1  -2  -1    2.83    0.47
  -1  -2   1    2.81    0.50
  -1  -2   1    3.18    0.38
  -1  -2   1    2.96    0.47
   1  -2  -1    2.43    0.47
  -1  -2   1    3.16    0.59
   1  -2  -1    2.95    0.42
   1  -2  -1    3.32    0.40
   1  -2  -1    2.09    0.53
  -1  -2   1    2.76    0.34
  -1  -2   1    3.09    0.56
   1  -2  -1    2.57    0.45
   1   2  -1    3.03    0.53
  -1   2   1    3.17    0.48
   1   2  -1    3.23    0.50
   1   2  -1    2.64    0.45
  -1   2   1    3.79    0.69
  -1   2   1    3.01    0.49
  -1   2   1    2.99    0.39
  -1   2   1    3.11    0.46
   1   2  -1    2.69    0.34
   1   2  -1    2.73    0.55
   1   2  -1    2.88    0.33
  -1   2   1    3.00    0.51
  -1   2   1    3.63    0.45
   1   2  -1    3.19    0.56
   1   2  -1    3.39    0.56
   0  -2  -1  493.04    8.20
   0  -2   1  512.87    8.32
   0  -2  -1  492.25    8.03
   0  -2   1  498.11    8.60
   0  -2  -1  495.63    8.76
   0  -2   1  505.25    8.40
   0  -2   1  506.08    8.66
   0  -2  -1  518.94    8.22
   0  -2   1  509.44    8.20
   0  -2   1  504.64    8.33
   0  -2   1  505.22    8.71
   0  -2  -1  504.71    8.15
   0  -2  -1  470.33    8.40
   0  -2  -1  506.93    8.41
   0  -2   1  514.16    8.63
   0  -2  -1  509.99    8.43
   0   2   1  489.78    7.43
   0   2   1  500.10    8.10
   0   2  -1  513.15    8.71
   0   2  -1  504.10    8.31
   0   2   1  500.28    8.17
   0   2  -1  495.39    8.63
   0   2  -1  511.08    8.39
   0   2   1  509.51    8.42
   0   2  -1  496.95    8.20
   0   2   1  518.23    8.26
   0   2   1  513.76    8.07
   0   2  -1  497.55    8.66
   0   2   1  509.49    8.74
   0   2   1  495.60    8.42
   0   2  -1  489.20    8.33
   0   2   1  496.79    8.29
   0   2  -1  517.50    8.55
  -1  -2  -1    2.90    0.50
   1  -2   1    2.74    0.57
   1  -2   1    3.32    0.58
  -1  -2  -1    3.03    0.58
   1  -2   1    3.17    0.45
  -1  -2  -1    3.10    0.40
   1  -2   1    1.93    0.52
  -1  -2  -1    3.28    0.59
   1  -2   1    3.38    0.63
  -1  -2  -1    2.97    0.45
   1  -2   1    4.38    0.68
  -1  -2  -1    3.00    0.61
  -1   2  -1    3.65    0.64
  -1   2  -1    3.20    0.60
  -1   2  -1    3.25    0.59
  -1   2  -1    1.94    0.48
   1   2   1    3.27    0.45
  -1   2  -1    2.99    0.69
   1   2   1    2.17    0.49
  -1   2  -1    3.05    0.44
  -1   2  -1    3.47    0.54
   1   2   1    3.37    0.54
  -1   2  -1    3.45    0.58
  -1   2  -1    3.35    0.38
   1   2   1    3.00    0.46
   1   2   1    3.20    0.61
   1   2   1    2.76    0.54
   2  -2   1  257.64    5.23
  -2  -2  -1  268.66    5.43
  -2  -2  -1  269.31    4.51
   2  -2   1  267.41    5.58
   2  -2   1  262.99    5.56
   2  -2   1  269.68    4.97
   2  -2   1  269.36    5.71
   2   2   1  260.64    5.18
  -2   2  -1  262.04    5.77
  -2   2  -1  269.16    5.26
   2   2   1  264.71    5.52
   2   2   1  266.33    5.16
   2   2   1  268.74    5.52
  -2   2  -1  265.29    4.88
   3  -2   1    0.49    0.32
  -3  -2  -1   -0.25    0.20
   3  -2   1   -0.20    0.34
  -3  -2  -1    0.16    0.39
   3  -2   1   -0.09    0.27
   3  -2   1    0.02    0.39
   3   2   1   -0.30    0.15
   3   2   1   -0.21    0.37
   3   2   1    0.58    0.36
   3   2   1    0.17    0.39
  -3   2  -1   -0.30    0.17
   3   2   1   -0.26    0.32
  -4  -2  -1   32.26    1.98
   4  -2   1   31.93    1.91
   4  -2   1   30.79    1.62
   4  -2   1   28.64    1.87
   4  -2   1   23.01    1.48
  -4  -2  -1   29.18    1.17
   4   2   1   27.17    1.74
   4   2   1   28.93    1.80
   4   2   1   30.96    1.07
   4   2   1   26.48    1.57
   4   2   1   26.68    1.69
  -4   2  -1   29.48    1.50
   5  -2   1    3.29    0.83
   5  -2   1    3.02    0.93
   5  -2   1    2.25    0.81
   5  -2   1    2.60    0.71
   5   2   1    3.76    0.93
   5   2   1    2.61    0.80
   5   2   1    3.48    0.79
   5   2   1    2.71    0.81
   6  -2   1    2.30    0.74
   6  -2   1    3.14    1.05
   6  -2   1    1.69    0.74
   6  -2   1    2.40    0.93
   6   2   1    1.23    0.71
   6   2   1    0.41    0.54
   6   2   1    2.43    0.87
   6   2   1    1.06    0.71
   7  -2   1   14.29    2.06
   7  -2   1   17.06    1.92
   7  -2   1   23.14    2.37
   7  -2   1   14.71    2.19
   7   2   1   18.19    2.01
   7   2   1   20.29    2.44
   7   2   1   15.89    2.14
   7   2   1   22.21    2.31
   7   2   1   16.36    2.08
   8  -2   1   35.56    2.94
   8  -2   1   40.23    3.37
   8  -2   1   35.40    2.64
   8  -2   1   36.05    2.79
   8   2   1   36.52    2.72
   8   2   1   35.02    3.56
   8   2   1   27.45    2.96
   8   2   1   32.32    2.78
   8   2   1   36.03    2.67
   8  -3  -1    6.51    1.83
   8  -3  -1    5.21    1.61
   8  -3  -1    6.81    1.37
   8  -3  -1    8.06    1.52
   8  -3  -1    8.61    1.57
   8   3  -1    5.69    1.46
   8   3  -1    8.75    1.84
   8   3  -1    3.34    1.13
   8   3  -1    5.81    1.78
   7  -3  -1    4.88    1.10
   7  -3  -1    5.23    1.15
   7  -3  -1    3.04    1.24
   7  -3  -1    1.99    1.02
   7  -3  -1    6.02    1.27
   7   3  -1    5.61    1.42
   7   3  -1    4.19    1.27
   7   3  -1    6.17    1.37
   7   3  -1    5.04    1.09
   6  -3  -1    4.98    1.26
   6  -3  -1    2.97    0.81
   6  -3  -1    3.05    1.11
   6  -3  -1    3.63    0.87
   6  -3  -1    4.46    1.06
   6   3  -1    6.59    1.29
   6   3  -1    3.87    1.03
   6   3  -1    2.74    0.83
   6   3  -1    5.35    1.23
   5  -3  -1   18.21    2.11
   5  -3  -1   14.79    1.48
   5  -3  -1   15.48    1.23
   5  -3  -1   17.21    1.56
   5  -3  -1   15.63    2.07
   5   3  -1   13.95    1.79
   5   3  -1   12.81    1.58
  -5   3   1   16.59    1.28
   5   3  -1   15.89    1.57
   5   3  -1   13.71    1.61
   4  -3  -1   11.10    0.86
   4  -3  -1   11.81    1.68
   4  -3  -1   12.51    1.54
   4  -3  -1   10.08    1.11
   4  -3  -1   11.87    1.38
   4   3  -1   11.05    1.39
   4   3  -1    9.75    1.10
   4   3  -1    9.03    1.19
   4   3  -1   13.15    1.63
  -4   3   1   10.50    1.12
  -3  -3   1   36.67    1.71
   3  -3  -1   37.55    1.96
   3  -3  -1   38.61    1.69
   3  -3  -1   41.46    2.00
   3  -3  -1   37.47    1.32
   3  -3  -1   42.26    2.28
   3  -3  -1   39.47    1.00
   3  -3  -1   41.84    1.79
   3   3  -1   38.94    1.88
  -3   3   1   39.78    1.33
  -3   3   1   41.24    1.76
   3   3  -1   40.76    1.80
   3   3  -1   40.63    1.99
   3   3  -1   40.55    2.11
   2  -3  -1    0.05    0.51
  -2  -3   1    0.41    0.32
   2  -3  -1    0.78    0.21
   2  -3  -1    0.55    0.32
   2  -3  -1    0.80    0.25
   2  -3  -1    0.39    0.34
   2  -3  -1    0.81    0.40
   2  -3  -1    0.25    0.37
   2  -3  -1    0.64    0.41
  -2  -3   1    0.15    0.42
  -2  -3   1    0.26    0.17
  -2   3   1    0.30    0.30
   2   3  -1    0.25    0.30
   2   3  -1    0.74    0.30
  -2   3   1    0.79    0.29
   2   3  -1    0.50    0.40
   2   3  -1    0.84    0.48
   2   3  -1    0.58    0.34
  -1  -3   1  191.92    4.26
  -1  -3   1  201.59    3.88
   1  -3  -1  192.69    4.90
  -1  -3   1  197.83    3.75
   1  -3  -1  195.15    4.33
   1  -3  -1  199.54    4.43
   1  -3  -1  192.05    3.82
   1  -3  -1  196.76    4.15
   1  -3  -1  190.66    4.43
   1  -3  -1  193.45    4.57
  -1  -3   1  200.28    4.78
  -1  -3   1  196.79    4.68
   1   3  -1  197.07    4.37
   1   3  -1  197.94    3.68
   1   3  -1  200.47    4.58
   1   3  -1  192.53    4.29
  -1   3   1  192.52    3.90
  -1   3   1  195.36    4.39
   1   3  -1  192.39    4.63
   0  -3   1    8.04    1.00
   0  -3  -1    5.92    0.77
   0  -3  -1    8.84    0.78
   0  -3   1    6.85    0.94
   0  -3  -1    7.56    0.82
   0  -3   1    8.02    0.94
   0  -3   1    7.60    0.93
   0  -3   1    9.90    1.18
   0  -3   1    6.46    0.75
   0  -3   1    7.63    0.65
   0  -3   1    7.53    0.97
   0  -3  -1    6.20    0.79
   0  -3  -1    7.88    1.13
   0  -3  -1    4.88    0.75
   0   3  -1    6.49    0.91
   0   3   1    8.10    0.84
   0   3   1    6.93    0.41
   0   3   1    8.52    0.88
   0   3  -1    8.55    0.90
   0   3   1    6.49    0.84
   0   3  -1    9.68    1.00
   0   3   1    6.79    0.83
   0   3  -1    5.63    0.71
  -1  -3  -1  262.71    5.89
   1  -3   1  263.20    5.57
   1  -3   1  266.01    5.88
   1  -3   1  259.54    5.43
   1  -3   1  262.99    4.74
   1  -3   1  253.39    5.89
   1  -3   1  255.64    5.82
  -1  -3  -1  258.33    5.37
   1   3   1  252.96    5.59
  -1   3  -1  256.12    5.35
   1   3   1  269.15    5.20
   1   3   1  270.80    5.33
   1   3   1  269.17    5.56
   1   3   1  272.38    5.37
   1   3   1  261.50    4.78
  -1   3  -1  267.64    4.82
  -1   3  -1  258.95    4.72
  -1   3  -1  267.31    5.87
   2  -3   1    1.50    0.62
   2  -3   1    0.81    0.60
  -2  -3  -1    1.17    0.30
  -2  -3  -1    0.55    0.52
   2  -3   1    1.05    0.38
   2  -3   1    0.84    0.49
  -2  -3  -1    0.92    0.48
   2  -3   1    1.60    0.59
  -2   3  -1    1.19    0.21
   2   3   1    0.56    0.37
   2   3   1    0.37    0.47
  -2   3  -1    1.49    0.38
   2   3   1    0.30    0.41
  -2   3  -1    1.60    0.59
  -2   3  -1    0.44    0.34
   2   3   1    0.93    0.40
   3  -3   1  146.90    4.43
   3  -3   1  151.57    4.52
  -3  -3  -1  154.15    2.93
   3  -3   1  153.41    3.64
   3  -3   1  147.39    4.39
   3  -3   1  158.22    4.18
  -3  -3  -1  151.21    4.23
   3   3   1  155.43    4.03
   3   3   1  155.56    4.42
  -3   3  -1  156.08    4.40
   3   3   1  155.42    4.43
   3   3   1  155.61    4.06
   4  -3   1    1.00    0.70
   4  -3   1    0.63    0.63
  -4  -3  -1    0.91    0.24
   4  -3   1    0.90    0.60
   4  -3   1    0.65    0.51
  -4  -3  -1    0.63    0.57
   4  -3   1    0.46    0.44
  -4   3  -1    0.36    0.37
   4   3   1    0.86    0.54
   4   3   1    0.64    0.56
  -4   3  -1    1.06    0.57
   4   3   1    0.24    0.51
   4   3   1    0.78    0.58
   5  -3   1   42.94    2.15
   5  -3   1   42.15    2.64
   5  -3   1   38.63    2.24
   5  -3   1   38.62    2.50
   5  -3   1   40.64    2.68
  -5   3  -1   39.98    2.34
   5   3   1   43.31    2.48
   5   3   1   37.60    2.39
   5   3   1   40.38    2.25
   5   3   1   37.73    2.40
   6  -3   1   -0.70    0.51
   6  -3   1    0.89    0.66
   6  -3   1    0.51    0.63
   6  -3   1    0.42    0.57
   6  -3   1   -0.31    0.64
   6   3   1    0.11    0.69
   6   3   1   -0.21    0.54
   6   3   1   -0.28    0.48
   6   3   1   -0.62    0.60
   7  -3   1    5.37    1.50
   7  -3   1    3.40    1.33
   7  -3   1    3.10    0.98
   7  -3   1    5.62    1.47
   7  -3   1    3.14    1.06
   7   3   1    4.04    1.22
   7   3   1    3.65    1.11
   7   3   1    2.76    1.05
   7   3   1    4.47    1.28
   8  -3   1    0.53    0.95
   8  -3   1    1.04    1.05
   8  -3   1   -1.48    0.79
   8  -3   1    0.99    1.01
   8  -3   1    0.82    0.82
   8   3   1   -0.43    0.96
   8   3   1    1.41    1.04
   8   3   1    0.53    0.95
   8   3   1    0.23    0.74
   8   3   1    0.29    0.71
   8  -4  -1   23.82    2.87
   8  -4  -1   16.97    2.61
   8  -4  -1   22.38    2.52
   8  -4  -1   16.08    2.85
   8   4  -1   23.77    2.95
   8   4  -1   25.40    2.64
   8   4  -1   29.03    3.23
   8   4  -1   26.91    2.95
   7  -4  -1   17.53    2.36
   7  -4  -1   15.45    2.51
   7  -4  -1   11.45    2.02
   7  -4  -1   13.17    1.84
   7  -4  -1   13.49    2.21
   7   4  -1   13.20    1.85
   7   4  -1   17.24    2.48
   7   4  -1   13.88    2.18
   7   4  -1   11.19    1.82
   6  -4  -1    8.26    1.65
   6  -4  -1    7.81    1.20
   6  -4  -1    6.24    1.18
   6  -4  -1    7.96    1.50
   6   4  -1    7.99    1.33
   6   4  -1    7.65    1.50
   6   4  -1    4.79    1.34
   6   4  -1    9.92    1.68
   5  -4  -1   75.19    3.88
   5  -4  -1   68.94    3.46
   5  -4  -1   74.60    3.46
   5  -4  -1   73.69    3.08
   5  -4  -1   75.39    2.57
   5   4  -1   78.80    3.49
   5   4  -1   74.19    3.14
   5   4  -1   75.54    3.40
   5   4  -1   70.10    3.53
  -4  -4   1   35.79    1.96
   4  -4  -1   33.40    1.98
   4  -4  -1   36.39    1.44
   4  -4  -1   33.88    2.51
   4  -4  -1   34.79    2.25
   4  -4  -1   36.64    2.26
   4   4  -1   35.12    2.01
   4   4  -1   35.49    2.15
  -4   4   1   34.85    1.90
   4   4  -1   35.46    2.34
   4   4  -1   33.18    2.18
   3  -4  -1  111.98    3.80
   3  -4  -1  109.64    4.22
   3  -4  -1  112.62    3.90
   3  -4  -1  110.57    2.25
   3  -4  -1  116.41    3.47
  -3  -4   1  109.81    3.22
   3  -4  -1  116.38    2.48
   3  -4  -1  114.95    3.60
   3   4  -1  113.21    3.52
  -3   4   1  115.96    2.90
   3   4  -1  113.96    3.55
   3   4  -1  112.56    4.00
   3   4  -1  111.19    3.53
   3   4  -1  113.46    3.90
  -3   4   1  110.44    3.47
   2  -4  -1  129.62    4.02
  -2  -4   1  125.01    4.19
  -2  -4   1  131.13    2.81
   2  -4  -1  123.14    3.51
   2  -4  -1  128.57    2.86
   2  -4  -1  135.12    3.97
   2  -4  -1  130.51    4.42
   2  -4  -1  135.58    3.88
  -2  -4   1  132.70    3.25
   2   4  -1  127.59    4.02
  -2   4   1  125.92    3.71
   2   4  -1  132.69    4.12
   2   4  -1  131.56    3.72
  -2   4   1  131.47    3.27
   2   4  -1  128.50    3.76
   1  -4  -1   34.96    2.16
   1  -4  -1   34.42    1.79
   1  -4  -1   33.75    1.80
  -1  -4   1   32.92    1.71
  -1  -4   1   33.22    2.00
   1  -4  -1   35.64    1.98
   1  -4  -1   34.98    1.65
   1  -4  -1   33.15    1.83
  -1  -4   1   36.20    1.46
  -1  -4   1   35.41    2.01
   1   4  -1   36.37    2.01
  -1   4   1   35.48    1.83
  -1   4   1   36.52    1.55
   1   4  -1   34.26    1.76
  -1   4   1   33.46    1.55
   1   4  -1   33.56    1.80
   1   4  -1   37.38    1.82
   0  -4  -1  281.34    5.83
   0  -4   1  269.57    6.55
   0  -4  -1  276.53    6.00
   0  -4   1  277.82    6.40
   0  -4  -1  272.07    6.68
   0  -4  -1  269.38    5.83
   0  -4  -1  264.32    5.89
   0  -4   1  275.40    5.44
   0  -4   1  266.25    5.99
   0  -4  -1  268.94    6.32
   0  -4   1  268.32    6.48
   0   4  -1  285.03    6.50
   0   4   1  279.20    5.83
   0   4   1  270.60    6.20
   0   4   1  281.01    4.60
   0   4  -1  278.22    5.99
   0   4   1  275.62    5.71
   0   4  -1  285.81    5.82
   1  -4   1    0.20    0.50
   1  -4   1    0.01    0.48
  -1  -4  -1   -0.27    0.32
   1  -4   1   -0.03    0.28
  -1  -4  -1   -0.54    0.38
   1  -4   1    0.11    0.41
   1  -4   1    0.07    0.41
  -1   4  -1    0.36    0.32
   1   4   1   -0.27    0.40
  -1   4  -1    0.58    0.42
   1   4   1    0.20    0.35
   1   4   1   -0.25    0.32
   1   4   1    0.09    0.25
  -1   4  -1    0.42    0.48
  -1   4  -1    0.47    0.30
  -2  -4  -1  129.55    4.28
   2  -4   1  130.01    4.34
   2  -4   1  132.16    4.35
   2  -4   1  133.22    4.01
   2  -4   1  133.34    4.30
  -2  -4  -1  132.40    3.79
   2   4   1  123.36    3.96
  -2   4  -1  129.00    2.96
  -2   4  -1  130.10    2.69
   2   4   1  123.07    4.03
   2   4   1  132.84    3.40
  -2   4  -1  128.14    4.16
   2   4   1  134.67    3.78
  -2   4  -1  126.46    3.65
   3  -4   1   30.88    2.17
   3  -4   1   30.16    2.10
   3  -4   1   30.77    2.13
   3  -4   1   31.15    1.49
   3  -4   1   36.41    2.07
  -3  -4  -1   31.57    1.08
  -3  -4  -1   33.18    1.93
  -3   4  -1   29.75    1.99
   3   4   1   30.87    1.85
   3   4   1   32.44    2.08
   3   4   1   31.13    1.74
   4  -4   1   23.57    2.10
   4  -4   1   23.62    2.04
  -4  -4  -1   24.51    1.90
   4  -4   1   26.27    2.13
   4  -4   1   27.13    1.53
   4  -4   1   27.14    1.91
   4   4   1   29.90    2.18
   4   4   1   27.30    1.86
  -4   4  -1   28.23    2.02
   4   4   1   26.27    1.83
   4   4   1   26.89    2.04
   5  -4   1   63.11    2.60
   5  -4   1   64.96    3.10
   5  -4   1   60.29    3.32
  -5  -4  -1   57.61    3.09
   5  -4   1   62.90    3.49
   5  -4   1   61.79    3.39
   5   4   1   60.19    2.93
   5   4   1   64.54    3.34
  -5   4  -1   61.34    3.08
   5   4   1   58.98    3.03
   5   4   1   58.47    3.18
   6  -4   1    3.47    1.26
   6  -4   1    2.10    0.93
   6  -4   1    1.60    0.75
   6  -4   1    1.05    0.85
   6  -4   1    3.28    1.35
   6   4   1    1.01    0.73
   6   4   1    1.72    0.98
   6   4   1    1.89    0.85
   6   4   1    2.73    1.00
   7  -4   1   45.92    3.30
   7  -4   1   42.36    2.90
   7  -4   1   36.68    3.30
   7  -4   1   45.49    2.72
   7  -4   1   45.87    3.42
   7   4   1   43.61    3.18
   7   4   1   42.96    3.13
   7   4   1   46.97    3.23
   7   4   1   44.89    2.94
   8  -4   1    7.78    1.95
   8  -4   1    4.88    1.87
   8  -4   1    3.23    1.24
   8  -4   1    1.57    1.23
   8   4   1    3.85    1.50
   8   4   1    4.27    1.31
   8   4   1    4.24    1.56
   8   4   1    2.47    1.35
   8   4   1    2.71    1.38
   7  -5  -1    5.40    1.53
   7  -5  -1    4.81    1.56
   7  -5  -1    4.77    1.69
   7  -5  -1    5.44    1.32
   7   5  -1    3.18    1.35
   7   5  -1    3.93    1.19
   7   5  -1    2.82    1.28
   7   5  -1    3.88    1.22
   6  -5  -1   59.67    3.67
   6  -5  -1   58.29    4.00
   6  -5  -1   52.58    3.32
   6  -5  -1   51.70    3.03
   6   5  -1   58.55    3.16
   6   5  -1   58.02    3.66
   6   5  -1   57.71    3.46
   6   5  -1   52.15    3.26
   5  -5  -1    3.30    1.22
   5  -5  -1    3.41    1.03
   5  -5  -1    4.42    1.25
   5  -5  -1    3.46    0.93
   5   5  -1    4.30    1.33
   5   5  -1    4.75    1.08
   5   5  -1    3.14    1.03
   5   5  -1    3.40    1.08
   4  -5  -1   99.05    3.82
  -4  -5   1   94.69    3.38
   4  -5  -1   99.79    4.12
   4  -5  -1   95.66    4.48
   4  -5  -1   98.09    4.06
   4  -5  -1   98.20    2.53
   4   5  -1   95.73    3.72
   4   5  -1   95.80    3.69
   4   5  -1  102.27    4.29
  -4   5   1   96.06    3.55
   4   5  -1   94.89    4.07
   3  -5  -1    7.03    1.15
   3  -5  -1   11.33    1.51
  -3  -5   1   11.16    1.22
  -3  -5   1    4.49    1.12
   3  -5  -1    8.36    1.40
   3  -5  -1    7.40    1.55
   3  -5  -1    6.67    1.22
  -3   5   1   11.47    1.48
   3   5  -1    6.74    1.08
   3   5  -1    7.78    1.32
   3   5  -1    8.30    1.46
   3   5  -1    7.55    1.23
   2  -5  -1    2.93    0.85
   2  -5  -1    3.21    1.14
   2  -5  -1    1.99    0.79
  -2  -5   1    2.78    0.57
   2  -5  -1    2.59    0.73
   2  -5  -1    1.58    0.70
  -2  -5   1    3.02    0.99
  -2  -5   1    3.12    0.69
  -2   5   1    3.23    0.86
   2   5  -1    2.21    0.78
  -2   5   1    2.55    0.61
  -2   5   1    2.80    0.57
   2   5  -1    1.91    0.74
   2   5  -1    2.00    0.75
  -1  -5   1    6.94    1.36
   1  -5  -1    5.06    1.07
  -1  -5   1    5.40    0.82
   1  -5  -1    5.32    1.05
   1  -5  -1    9.21    1.62
   1  -5  -1    8.33    1.27
   1  -5  -1    5.92    0.97
  -1  -5   1    7.73    1.36
   1  -5  -1    6.84    1.14
  -1  -5   1    7.02    1.09
   1   5  -1    4.90    1.03
  -1   5   1    7.07    1.19
  -1   5   1    7.08    0.99
   1   5  -1    6.61    1.11
  -1   5   1    6.87    0.95
   1   5  -1    5.61    0.97
   0  -5   1    7.48    1.00
   0  -5  -1    6.61    1.29
   0  -5  -1    8.39    1.23
   0  -5   1    6.72    1.18
   0  -5   1    6.71    1.20
   0  -5  -1    7.22    1.26
   0  -5  -1    8.60    1.20
   0  -5   1    9.88    1.36
   0  -5   1    8.44    1.42
   0  -5  -1    7.63    1.15
   0   5   1    5.66    1.02
   0   5  -1    6.58    0.97
   0   5  -1    9.43    1.20
   0   5  -1   12.43    1.64
   0   5   1    8.47    1.15
   0   5   1    6.73    0.95
   0   5   1    7.88    0.56
   1  -5   1    0.71    0.57
  -1  -5  -1    0.57    0.69
   1  -5   1    0.63    0.64
   1  -5   1    0.67    0.62
  -1  -5  -1    0.39    0.50
   1  -5   1    0.79    0.66
   1   5   1    0.34    0.45
  -1   5  -1    0.89    0.58
  -1   5  -1    0.73    0.45
  -1   5  -1    1.00    0.47
   1   5   1    0.79    0.36
   1   5   1    1.69    0.67
   1   5   1    0.69    0.51
   2  -5   1   56.97    2.66
  -2  -5  -1   55.33    3.01
   2  -5   1   47.61    2.83
   2  -5   1   57.50    2.81
  -2  -5  -1   55.92    2.51
   2  -5   1   59.85    3.13
   2  -5   1   57.69    3.02
   2   5   1   53.75    2.80
  -2   5  -1   55.43    2.87
   2   5   1   54.05    2.70
   2   5   1   57.59    2.18
  -2   5  -1   56.09    1.82
   2   5   1   54.64    2.49
  -2   5  -1   54.99    2.46
   3  -5   1    0.65    0.75
   3  -5   1    1.69    0.82
  -3  -5  -1    1.86    0.76
  -3  -5  -1    0.94    0.64
   3  -5   1    0.21    0.71
  -3  -5  -1    1.49    0.39
   3  -5   1    1.21    0.69
  -3   5  -1    0.31    0.32
  -3   5  -1    1.64    0.75
   3   5   1    1.16    0.72
   3   5   1    1.49    0.65
   3   5   1    0.74    0.55
   3   5   1    1.10    0.71
   4  -5   1   76.02    2.64
   4  -5   1   78.46    3.87
   4  -5   1   78.87    3.81
   4  -5   1   79.34    3.96
   4  -5   1   79.15    3.52
  -4  -5  -1   79.56    3.43
   4   5   1   81.82    3.79
  -4   5  -1   78.73    3.62
   4   5   1   75.97    3.31
   4   5   1   73.73    3.68
   4   5   1   74.87    3.14
   5  -5   1    1.41    0.63
   5  -5   1    0.23    0.61
   5  -5   1    0.64    0.89
   5  -5   1    0.37    0.73
  -5  -5  -1    1.15    0.80
   5  -5   1    0.73    0.93
   5   5   1    0.92    0.69
   5   5   1    0.20    0.62
   5   5   1   -0.29    0.64
   5   5   1    0.59    0.77
  -5   5  -1    0.60    0.76
   6  -5   1   79.64    4.54
   6  -5   1   76.47    4.26
   6  -5   1   81.26    3.97
   6  -5   1   74.10    4.25
   6  -5   1   77.11    3.48
   6   5   1   77.45    3.85
   6   5   1   81.89    4.24
   6   5   1   76.66    4.09
   6   5   1   73.04    3.72
   7  -5   1    0.77    0.83
   7  -5   1   -0.59    0.79
   7  -5   1    0.39    0.94
   7  -5   1   -0.25    0.99
   7   5   1    0.10    0.75
   7   5   1    0.25    0.93
   7   5   1    0.02    0.76
   7   5   1   -0.19    0.88
   7  -6  -1   33.99    2.83
   7  -6  -1   33.27    4.01
   7  -6  -1   39.65    4.10
   7  -6  -1   27.12    3.00
   7   6  -1   34.22    3.68
   7   6  -1   33.90    3.41
   7   6  -1   33.94    3.12
   7   6  -1   29.36    2.96
   6  -6  -1   15.93    2.17
   6  -6  -1   18.89    2.96
   6  -6  -1   20.15    2.70
   6  -6  -1   23.12    2.97
   6   6  -1   19.87    2.50
   6   6  -1   17.13    2.60
   6   6  -1   19.56    2.46
   6   6  -1   16.16    2.33
   5  -6  -1   83.87    3.95
   5  -6  -1   92.92    4.55
   5  -6  -1   90.19    4.93
   5  -6  -1   88.59    4.31
   5   6  -1   91.59    4.04
   5   6  -1   88.61    4.05
   5   6  -1   84.58    4.35
   5   6  -1   87.71    4.52
   4  -6  -1   11.63    1.83
   4  -6  -1   10.26    1.92
   4  -6  -1   14.99    1.97
  -4  -6   1   11.54    1.46
   4  -6  -1   14.57    2.06
   4   6  -1   15.30    2.19
   4   6  -1   15.93    1.93
   4   6  -1   14.07    1.97
   4   6  -1   14.71    1.78
   3  -6  -1   60.35    3.30
   3  -6  -1   68.93    3.34
   3  -6  -1   69.16    3.91
  -3  -6   1   63.25    3.65
   3  -6  -1   64.39    3.51
  -3  -6   1   67.74    2.68
   3   6  -1   68.99    3.57
   3   6  -1   70.20    3.62
   3   6  -1   66.92    3.20
   3   6  -1   63.82    2.84
  -3   6   1   70.51    3.27
  -2  -6   1    6.00    1.36
   2  -6  -1    8.08    1.50
   2  -6  -1    6.22    1.47
  -2  -6   1    6.52    1.00
   2  -6  -1    5.44    1.23
   2  -6  -1   10.22    1.53
   2  -6  -1    7.66    1.42
  -2   6   1    7.28    0.98
   2   6  -1    7.84    1.08
  -2   6   1    6.84    1.24
   2   6  -1    6.40    1.34
   2   6  -1    7.03    1.27
   2   6  -1    8.34    1.45
  -1  -6   1   20.99    2.47
   1  -6  -1   21.32    2.07
   1  -6  -1   22.86    2.06
   1  -6  -1   19.08    1.95
   1  -6  -1   18.45    1.96
   1  -6  -1   21.44    2.51
  -1  -6   1   20.82    2.23
  -1  -6   1   19.49    1.46
   1   6  -1   18.35    2.12
  -1   6   1   19.57    1.81
  -1   6   1   21.76    1.56
   1   6  -1   17.54    1.91
   1   6  -1   21.56    2.09
  -1   6   1   18.64    1.50
   0  -6  -1   15.93    1.80
   0  -6  -1   12.15    1.77
   0  -6   1   14.83    2.11
   0  -6   1   15.49    2.08
   0  -6  -1   17.58    1.85
   0  -6  -1   16.71    2.22
   0  -6   1   15.56    1.54
   0  -6   1   16.21    1.77
   0  -6   1   12.39    1.74
   0   6  -1   14.61    1.63
   0   6  -1   14.41    1.58
   0   6   1   17.22    1.75
   0   6   1   15.75    0.79
   0   6   1   12.28    1.66
   0   6  -1   14.77    1.97
   0   6   1   14.73    1.63
  -1  -6  -1    4.30    1.27
   1  -6   1    5.85    1.45
   1  -6   1    3.03    0.98
   1  -6   1    3.58    1.01
   1  -6   1    4.07    1.21
  -1  -6  -1    4.26    1.01
   1  -6   1    4.50    1.00
   1   6   1    4.06    0.67
  -1   6  -1    3.59    1.09
  -1   6  -1    5.60    1.11
  -1   6  -1    4.63    0.90
   1   6   1    2.82    0.96
   1   6   1    4.19    1.05
   1   6   1    4.70    1.02
   2  -6   1    0.93    0.78
  -2  -6  -1    2.12    0.80
   2  -6   1    1.85    0.87
   2  -6   1    1.32    0.91
  -2  -6  -1    1.43    0.93
   2  -6   1    0.78    0.77
   2   6   1    1.44    0.55
  -2   6  -1    1.26    0.48
  -2   6  -1    0.90    0.59
  -2   6  -1    1.52    0.72
   2   6   1    1.56    0.66
   2   6   1    1.68    0.87
   2   6   1    1.86    0.91
  -3  -6  -1   57.93    2.87
   3  -6   1   60.52    3.46
  -3  -6  -1   57.16    3.47
  -3  -6  -1   59.13    1.95
   3  -6   1   58.06    3.21
   3  -6   1   56.99    3.50
   3  -6   1   59.53    3.50
   3   6   1   63.01    3.36
   3   6   1   59.14    3.38
  -3   6  -1   60.51    3.34
   3   6   1   63.38    3.06
   3   6   1   61.38    2.65
   4  -6   1    0.35    0.85
   4  -6   1    0.41    0.77
  -4  -6  -1   -0.54    0.57
   4  -6   1    0.75    0.94
   4  -6   1   -0.43    0.59
   4   6   1   -0.30    0.53
   4   6   1   -0.40    0.59
  -4   6  -1   -0.46    0.56
   4   6   1    0.53    0.62
   4   6   1    0.23    0.67
   5  -6   1   66.24    3.98
   5  -6   1   60.36    3.94
   5  -6   1   71.85    4.15
  -5  -6  -1   68.29    3.59
   5  -6   1   67.57    3.70
   5   6   1   67.49    3.56
   5   6   1   69.17    3.97
   5   6   1   66.73    3.93
   5   6   1   66.26    3.43
  -6  -6  -1    2.01    1.12
   6  -6   1    0.10    0.98
   6  -6   1    3.62    1.46
   6  -6   1    1.92    1.23
   6  -6   1    1.88    1.06
   6   6   1    1.18    1.00
   6   6   1    1.02    1.05
   6   6   1    2.19    1.15
   6   6   1    1.98    1.05
   7  -6   1   45.87    3.78
   7  -6   1   52.64    4.38
   7  -6   1   46.30    3.46
   7  -6   1   56.14    4.28
   7   6   1   53.67    3.70
   7   6   1   48.90    3.90
   7   6   1   45.86    3.71
   7   6   1   51.12    3.53
   6  -7  -1   26.39    3.07
   6  -7  -1   27.52    3.55
   6  -7  -1   22.20    2.86
   6  -7  -1   29.75    3.97
   6   7  -1   36.52    4.00
   6   7  -1   26.95    2.95
   6   7  -1   25.70    2.87
   6   7  -1   29.01    3.47
   5  -7  -1    0.14    0.99
   5  -7  -1    0.19    0.66
   5  -7  -1    0.80    1.05
   5  -7  -1    1.69    1.32
   5   7  -1    0.02    0.77
   5   7  -1   -0.02    0.88
   5   7  -1   -0.11    0.75
   5   7  -1   -0.64    0.90
   4  -7  -1    2.70    1.28
   4  -7  -1    4.36    1.45
   4  -7  -1    1.97    1.35
   4  -7  -1    3.15    1.08
   4   7  -1    3.02    1.22
   4   7  -1    2.97    0.99
   4   7  -1    4.96    1.20
   4   7  -1    1.47    1.05
  -3  -7   1    8.19    1.73
   3  -7  -1   10.93    1.83
  -3  -7   1   11.64    1.43
   3  -7  -1   12.12    1.92
   3  -7  -1   13.92    2.33
   3  -7  -1   12.80    1.98
   3  -7  -1   14.88    2.32
   3   7  -1   11.28    1.57
   3   7  -1   10.99    1.77
   3   7  -1    9.57    1.80
  -3   7   1   11.25    1.70
   3   7  -1    6.86    1.60
  -2  -7   1   12.90    2.10
   2  -7  -1   14.20    2.09
   2  -7  -1   13.58    1.87
  -2  -7   1   11.68    1.37
   2  -7  -1   13.41    1.92
   2  -7  -1    8.73    1.77
   2  -7  -1   14.09    2.05
  -2   7   1   13.67    1.46
   2   7  -1   15.35    2.11
   2   7  -1   11.42    1.73
   2   7  -1   12.45    1.97
   2   7  -1   10.97    1.36
  -2   7   1   13.76    1.95
   1  -7  -1   83.03    4.44
   1  -7  -1   84.96    3.78
   1  -7  -1   84.56    3.80
   1  -7  -1   80.54    4.18
   1  -7  -1   82.22    3.80
  -1  -7   1   82.98    3.16
  -1  -7   1   86.45    4.27
  -1  -7   1   76.87    4.13
   1   7  -1   85.25    3.76
   1   7  -1   83.21    4.18
   1   7  -1   86.32    3.74
  -1   7   1   87.09    4.04
   1   7  -1   78.80    2.80
  -1   7   1   81.42    3.26
   0  -7  -1    2.28    0.93
   0  -7  -1    1.38    0.82
   0  -7   1    1.65    0.95
   0  -7   1   -0.32    0.72
   0  -7   1    1.77    0.74
   0  -7  -1    1.63    0.98
   0  -7   1    1.24    0.83
   0   7   1    2.65    0.96
   0   7  -1    0.39    0.60
   0   7  -1    0.70    0.73
   0   7  -1    1.19    0.71
   0   7   1    1.31    0.77
   1  -7   1   88.01    4.17
  -1  -7  -1   85.41    4.43
   1  -7   1   85.35    3.53
  -1  -7  -1   90.48    3.76
   1  -7   1   89.81    4.03
   1  -7   1   85.48    4.39
   1  -7   1   86.66    4.41
   1   7   1   89.97    2.65
  -1   7  -1   93.10    4.35
  -1   7  -1   88.20    3.27
   1   7   1   86.81    4.16
   1   7   1   92.90    3.78
   1   7   1   87.64    3.86
   2  -7   1    2.69    1.21
   2  -7   1    1.79    0.91
   2  -7   1    1.26    0.87
   2  -7   1    3.78    1.28
  -2  -7  -1    1.74    1.03
   2  -7   1    2.88    1.24
  -2  -7  -1    3.11    0.96
   2   7   1    1.58    0.90
   2   7   1    3.20    0.78
  -2   7  -1    2.73    1.08
   2   7   1    2.31    1.03
  -2   7  -1    3.04    0.74
   2   7   1    2.38    0.87
  -3  -7  -1   60.21    3.10
   3  -7   1   55.09    3.36
   3  -7   1   58.13    3.80
  -3  -7  -1   52.63    3.70
   3  -7   1   58.88    3.74
   3  -7   1   53.21    3.52
   3   7   1   60.39    3.53
   3   7   1   57.63    2.70
   3   7   1   61.38    3.28
  -3   7  -1   60.36    3.58
   3   7   1   56.01    3.59
   4  -7   1   13.25    2.19
  -4  -7  -1   13.38    1.85
   4  -7   1   10.85    2.04
   4  -7   1   12.44    2.22
   4  -7   1   14.74    2.49
   4   7   1   11.30    2.16
   4   7   1   14.79    2.00
  -4   7  -1    9.36    1.85
   4   7   1   14.71    2.32
   4   7   1    7.41    1.38
  -5  -7  -1    8.04    1.60
   5  -7   1   12.12    2.41
   5  -7   1   11.98    2.14
   5  -7   1   11.09    2.17
   5  -7   1   11.92    2.44
   5   7   1   11.90    2.12
   5   7   1    8.44    1.90
   5   7   1    7.78    1.69
   5   7   1   10.46    1.80
   6  -7   1    7.47    2.21
   6  -7   1    8.11    1.88
   6  -7   1   11.23    2.34
   6  -7   1    6.44    1.90
   6   7   1    5.28    1.62
   6   7   1    7.18    1.71
   6   7   1    9.47    2.04
   6   7   1   10.92    2.34
   5  -8  -1    0.56    1.05
   5  -8  -1   -0.89    1.01
   5  -8  -1   -0.99    1.05
   5  -8  -1    0.78    1.01
   5   8  -1    0.11    0.99
   5   8  -1   -1.42    0.81
   5   8  -1    1.37    1.05
   5   8  -1   -0.09    0.89
   4  -8  -1   22.76    2.91
   4  -8  -1   25.32    3.31
   4  -8  -1   23.38    3.05
   4  -8  -1   21.54    2.71
   4  -8  -1   23.81    3.42
   4   8  -1   19.62    2.78
   4   8  -1   23.08    3.09
   4   8  -1   28.25    2.77
   4   8  -1   23.85    2.81
   3  -8  -1   -0.04    0.88
   3  -8  -1    0.08    0.74
  -3  -8   1   -0.12    0.93
   3  -8  -1   -1.50    0.73
   3  -8  -1   -0.59    0.99
   3  -8  -1   -0.44    0.76
   3   8  -1    0.89    0.84
   3   8  -1   -0.50    0.60
   3   8  -1    0.49    0.64
   3   8  -1   -0.09    0.90
   2  -8  -1   66.88    4.49
   2  -8  -1   64.44    4.16
  -2  -8   1   66.67    4.21
   2  -8  -1   75.40    3.98
   2  -8  -1   67.67    3.83
   2  -8  -1   73.00    3.92
  -2   8   1   72.59    3.95
   2   8  -1   70.92    4.18
   2   8  -1   64.40    3.61
   2   8  -1   71.41    3.97
   2   8  -1   67.99    2.96
  -1  -8   1    0.21    0.60
   1  -8  -1    2.20    1.17
   1  -8  -1    0.81    0.85
   1  -8  -1   -0.16    0.82
   1  -8  -1    1.27    0.90
  -1  -8   1    0.77    0.99
   1  -8  -1    0.09    1.00
  -1   8   1   -0.55    0.57
   1   8  -1    0.09    0.77
  -1   8   1    0.84    0.85
   1   8  -1    1.56    1.01
   0  -8   1   50.61    3.67
   0  -8   1   43.70    3.06
   0  -8  -1   48.54    3.73
   0  -8   1   49.73    2.73
   0  -8  -1   49.28    2.99
   0  -8   1   53.90    3.76
   0   8   1   49.12    2.95
   0   8  -1   48.29    3.51
   0   8   1   51.76    3.43
   0   8  -1   49.30    2.87
   1  -8   1    6.47    1.68
   1  -8   1    6.22    1.35
  -1  -8  -1    5.46    1.30
  -1  -8  -1    7.58    1.99
   1  -8   1    5.85    1.40
   1  -8   1    6.50    1.78
   1  -8   1    6.73    1.66
   1   8   1    7.28    1.53
  -1   8  -1    7.22    1.28
  -1   8  -1    6.60    1.57
   1   8   1    7.44    1.72
   2  -8   1   34.65    3.74
   2  -8   1   37.49    2.90
   2  -8   1   37.55    2.66
   2  -8   1   28.44    3.06
   2  -8   1   37.84    3.34
  -2  -8  -1   33.16    2.46
  -2  -8  -1   33.54    3.57
   2   8   1   27.15    2.91
  -2   8  -1   33.75    2.98
   2   8   1   39.03    3.14
  -3  -8  -1    5.30    1.76
  -3  -8  -1    5.89    1.34
   3  -8   1    2.68    1.31
   3  -8   1    4.26    1.56
   3  -8   1    5.03    1.65
   3  -8   1    3.59    1.28
   3  -8   1    4.04    1.41
  -3   8  -1    5.56    1.60
   3   8   1    3.66    1.42
   3   8   1    5.42    1.14
   3   8   1    4.87    1.57
   4  -8   1   13.25    2.40
   4  -8   1   11.76    2.18
   4  -8   1   11.72    2.35
   4  -8   1   17.18    2.87
   4   8   1   11.93    2.28
   4   8   1   16.22    2.76
   4   8   1   13.39    1.83
   5  -8   1    1.02    1.28
   5  -8   1    3.15    1.44
   5  -8   1    2.30    1.41
   5  -8   1    2.45    1.55
   5   8   1    1.47    1.16
   5   8   1    5.43    1.51
   5   8   1    3.94    1.60
   4  -9  -1    1.56    1.23
   4  -9  -1    3.65    1.59
   4  -9  -1    2.93    1.84
   4  -9  -1    3.23    1.54
   4  -9  -1    4.16    1.48
   4   9  -1    4.24    1.74
   4   9  -1    1.65    1.47
   3  -9  -1   44.68    3.55
   3  -9  -1   42.83    4.65
   3  -9  -1   49.02    4.03
   3  -9  -1   40.78    3.40
   3  -9  -1   43.85    3.47
  -3  -9   1   44.14    3.93
   3   9  -1   45.75    3.89
   3   9  -1   39.24    3.40
   2  -9  -1    1.37    1.07
  -2  -9   1   -0.66    0.95
   2  -9  -1    0.94    1.27
   2  -9  -1    0.97    1.24
   2  -9  -1    1.41    1.13
   2  -9  -1   -0.33    0.87
   2   9  -1    1.43    1.12
   2   9  -1    0.49    0.99
   1  -9  -1   58.90    4.23
  -1  -9   1   59.38    4.31
   1  -9  -1   52.29    4.25
   1  -9  -1   49.86    3.56
   1  -9  -1   60.50    3.63
   1   9  -1   59.20    3.60
   1   9  -1   51.49    3.94
  -1   9   1   55.48    3.79
   0  -9   1    0.51    1.04
   0  -9  -1    1.84    1.08
   0  -9   1    3.30    1.52
   0  -9  -1    1.65    1.26
   0   9  -1    2.16    1.05
   0   9  -1    1.50    1.15
   0   9   1    0.89    1.03
   0   9   1    2.88    1.18
   1  -9   1   61.21    4.40
  -1  -9  -1   60.60    3.50
  -1  -9  -1   59.71    4.44
   1  -9   1   64.16    4.57
   1  -9   1   63.43    3.84
  -1   9  -1   59.35    4.22
   1   9   1   70.71    4.00
   1   9   1   63.54    4.19
  -2  -9  -1   17.83    3.06
   2  -9   1   13.41    2.26
   2  -9   1   14.99    2.69
   2  -9   1   20.41    2.51
   2  -9   1   12.78    2.37
   2  -9   1   14.99    2.71
   2   9   1   19.24    2.71
   2   9   1   20.16    2.99
  -2   9  -1   13.05    2.39
   3  -9   1   29.88    3.94
   3  -9   1   22.88    3.22
   3  -9   1   26.11    3.38
  -3  -9  -1   23.87    3.59
   3  -9   1   23.30    2.79
   3  -9   1   24.73    3.08
   3   9   1   25.31    3.40
   3   9   1   19.74    2.95
   4  -9   1   16.94    2.86
   4  -9   1   12.01    2.21
   4  -9   1   21.09    3.19
   4  -9   1   20.92    3.35
   4  -9   1   17.37    2.77
   4   9   1   13.79    2.69
   4   9   1   19.27    3.09
  -1 -10   1    8.63    2.27
   1 -10  -1    9.44    1.99
   1 -10  -1    8.01    2.41
   1  10  -1   10.30    2.11
   1  10  -1    5.39    2.00
   0 -10   1    4.38    2.07
   0 -10  -1    2.61    1.57
   0  10   1    0.63    1.78
   0  10  -1    3.57    1.67
   0  10   1    0.63    0.99
  -1 -10  -1    0.01    1.16
   1 -10   1   -0.41    1.05
   1 -10   1    0.76    1.32
   1  10   1    0.46    1.08
  -1  10  -1    0.39    1.21
   1  10   1    0.68    1.17
   8   0  -2    0.71    0.58
   8   0  -2   -0.04    0.92
   8   0  -2    0.83    0.90
   8   0  -2    0.12    0.64
   7   0  -2    0.19    0.52
   7   0  -2   -0.05    0.44
   7   0  -2    0.14    0.42
   7   0  -2   -0.72    0.52
   7   0  -2   -1.03    0.59
   6   0  -2    2.71    0.78
   6   0  -2    3.76    0.78
   6   0  -2    1.92    0.80
   6   0  -2    1.57    0.50
   6   0  -2    3.02    0.91
   5   0  -2   -0.08    0.45
   5   0  -2    0.10    0.30
   5   0  -2   -0.09    0.30
   5   0  -2    0.38    0.29
   4   0  -2  113.83    2.54
   4   0  -2  115.44    3.39
   4   0  -2  115.80    2.77
   4   0  -2  114.13    3.30
   3   0  -2    0.20    0.15
   3   0  -2    0.77    0.35
   3   0  -2    0.08    0.13
   3   0  -2   -0.12    0.23
   2   0  -2  666.15    9.70
   1   0  -2   -0.23    0.11
   0   0  -2  183.37    3.41
   0   0  -2  184.14    3.41
   0   0  -2  156.81    3.08
   0   0  -2  178.72    3.11
   0   0   2  175.42    3.20
   0   0   2  179.32    3.37
   0   0  -2  178.07    3.19
   0   0   2  180.01    3.20
   0   0  -2  157.32    3.17
   0   0   2  179.45    3.11
  -1   0  -2   -0.25    0.22
   1   0   2   -0.40    0.26
  -1   0  -2   -0.16    0.20
   1   0   2   -0.36    0.25
  -1   0  -2    0.00    0.29
   1   0   2   -0.04    0.24
   1   0   2    0.73    0.33
   1   0   2   -0.17    0.23
   1   0   2   -0.35    0.25
  -1   0  -2   -0.25    0.27
  -1   0  -2    0.30    0.26
  -1   0  -2   -0.54    0.26
  -2   0  -2  593.41   10.21
   2   0   2  606.36   10.06
  -2   0  -2  615.90    9.83
   2   0   2  614.92   10.28
   2   0   2  602.16    9.68
  -2   0  -2  585.01   10.34
  -2   0  -2  619.84    9.92
   2   0   2  610.84    9.91
  -2   0  -2  603.28    9.69
   2   0   2  597.99    9.92
   2   0   2  587.50   10.07
   3   0   2    0.32    0.35
   3   0   2   -0.02    0.27
   3   0   2   -0.36    0.33
   3   0   2   -0.22    0.27
   3   0   2   -0.15    0.22
  -3   0  -2    0.15    0.33
   4   0   2   27.83    1.75
   4   0   2   26.27    1.71
   4   0   2   24.23    1.56
  -4   0  -2   27.27    1.65
   4   0   2   29.33    1.59
   4   0   2   27.31    1.41
  -5   0  -2    0.61    0.54
   5   0   2   -0.11    0.32
   5   0   2   -0.04    0.54
   5   0   2    0.56    0.52
   5   0   2    0.66    0.50
   5   0   2   -0.11    0.47
   6   0   2   38.58    1.95
   6   0   2   36.01    2.44
   6   0   2   34.99    2.33
   6   0   2   37.31    2.54
   6   0   2   31.74    2.09
   7   0   2   -0.31    0.54
   7   0   2   -0.10    0.50
   7   0   2   -0.32    0.63
   7   0   2   -0.51    0.64
   7   0   2    0.32    0.69
   8   0   2    1.47    1.04
   8   0   2    0.96    0.83
   8   0   2    0.69    0.76
   8   0   2    0.18    0.82
   8  -1  -2   19.86    2.73
   8  -1  -2   16.18    1.69
   8  -1  -2   13.78    1.99
   8  -1  -2   19.31    2.06
   8   1  -2   18.14    2.14
   8   1  -2   14.25    2.30
   8   1  -2   16.24    1.93
   8   1  -2   16.07    2.21
   8   1  -2   16.48    1.76
   7  -1  -2    0.71    0.51
   7  -1  -2   -0.21    0.46
   7  -1  -2    1.00    0.84
   7  -1  -2    0.55    0.70
   7   1  -2    0.33    0.48
   7   1  -2    0.65    0.70
   7   1  -2    0.03    0.63
   7   1  -2    0.05    0.48
   6  -1  -2   60.95    2.81
   6  -1  -2   53.30    2.25
   6  -1  -2   59.40    3.18
   6  -1  -2   58.61    2.22
   6  -1  -2   59.52    2.43
   6   1  -2   59.40    2.34
   6   1  -2   59.29    2.80
   6   1  -2   54.63    2.43
   6   1  -2   60.26    2.99
   5  -1  -2    5.48    1.06
   5  -1  -2    6.35    0.84
   5  -1  -2    4.88    0.79
   5  -1  -2    4.42    0.63
   5  -1  -2    7.10    1.08
   5   1  -2    7.11    0.84
   5   1  -2    5.55    0.87
   5   1  -2    5.79    1.06
   5   1  -2    7.28    1.15
  -5   1   2    6.42    0.39
   4  -1  -2    0.29    0.24
   4  -1  -2    0.49    0.22
   4  -1  -2   -0.34    0.37
   4  -1  -2    0.05    0.28
   4  -1  -2    1.23    0.36
   4   1  -2    0.56    0.30
   4   1  -2    0.31    0.39
   4   1  -2    0.31    0.26
   4   1  -2    0.51    0.42
   3  -1  -2  127.87    3.08
   3  -1  -2  127.43    2.61
   3  -1  -2  125.51    3.42
   3  -1  -2  131.29    2.43
   3  -1  -2  122.92    2.29
   3   1  -2  127.00    2.87
   3   1  -2  127.16    2.69
   3   1  -2  123.32    3.51
   2  -1  -2   93.24    1.84
   2  -1  -2   93.48    1.87
  -2  -1   2   94.18    2.06
   2   1  -2   94.19    2.02
   2   1  -2   91.70    2.15
   2   1  -2   94.04    2.16
   2   1  -2   95.38    2.77
   2   1  -2   91.44    1.99
  -1  -1   2  171.01    3.23
   1  -1  -2  168.60    2.93
   1  -1  -2  166.95    2.95
   1  -1  -2  170.35    2.74
   1  -1  -2  164.82    2.79
  -1  -1   2  171.38    3.17
   1  -1  -2  162.52    3.48
   1   1  -2  171.90    3.30
   1   1  -2  174.32    3.32
   1   1  -2  172.75    3.19
   1   1  -2  170.69    3.35
   1   1  -2  171.69    3.07
  -1   1   2  172.00    2.87
   0  -1  -2   13.22    0.73
   0  -1   2   14.18    0.87
   0  -1  -2   15.43    0.67
   0  -1  -2   14.29    0.66
   0  -1  -2   14.29    0.72
   0  -1   2   14.55    0.54
   0  -1   2   13.80    0.88
   0  -1   2   13.30    0.75
   0  -1   2   15.83    0.85
   0  -1   2   14.14    0.62
   0  -1  -2   14.01    0.85
   0  -1  -2   14.65    0.80
   0   1  -2   14.27    0.90
   0   1  -2   15.09    0.62
   0   1   2   15.09    0.75
   0   1   2   14.42    0.70
   0   1  -2   14.24    0.84
   0   1  -2   14.39    0.79
   0   1  -2   14.52    0.86
   0   1  -2   14.17    0.53
   0   1   2   13.40    0.79
   0   1   2   13.47    0.71
   1  -1   2  229.03    4.30
   1  -1   2  225.39    4.39
  -1  -1  -2  224.90    4.21
  -1  -1  -2  227.73    4.23
   1  -1   2  226.91    4.35
  -1  -1  -2  227.81    4.21
   1  -1   2  220.61    4.02
   1  -1   2  217.21    4.56
  -1  -1  -2  230.00    4.41
  -1  -1  -2  219.61    4.42
  -1  -1  -2  227.81    4.15
   1  -1   2  226.06    4.52
   1   1   2  220.69    3.78
  -1   1  -2  220.10    4.43
   1   1   2  221.35    4.19
   1   1   2  226.42    4.22
   1   1   2  230.83    4.49
  -1   1  -2  227.68    4.30
  -1   1  -2  229.92    4.37
   1   1   2  226.32    4.18
   1   1   2  228.76    4.41
  -1   1  -2  220.07    4.67
   1   1   2  227.85    4.23
   1   1   2  228.79    4.44
  -1   1  -2  231.85    4.58
   2  -1   2  152.23    3.68
  -2  -1  -2  151.24    3.78
   2  -1   2  152.82    3.79
   2  -1   2  155.17    3.54
  -2  -1  -2  161.52    3.47
  -2  -1  -2  159.18    3.45
   2  -1   2  153.88    3.52
   2   1   2  155.09    3.51
   2   1   2  157.88    3.81
   2   1   2  154.24    3.61
  -2   1  -2  156.13    3.96
   2   1   2  160.01    3.58
   2   1   2  159.96    3.37
   2   1   2  157.40    3.32
  -2   1  -2  159.45    3.01
   3  -1   2  219.35    4.82
  -3  -1  -2  212.12    5.30
   3  -1   2  223.40    4.92
   3  -1   2  217.03    5.17
  -3  -1  -2  224.88    4.78
   3  -1   2  210.87    5.07
   3   1   2  220.25    5.19
  -3   1  -2  216.68    4.07
   3   1   2  217.96    4.94
   3   1   2  229.16    4.86
   3   1   2  224.36    4.87
  -3   1  -2  222.69    5.32
   3   1   2  224.89    4.90
   3   1   2  225.56    4.90
   4  -1   2   -0.08    0.36
   4  -1   2    0.44    0.41
   4  -1   2   -0.02    0.24
   4  -1   2    0.63    0.46
   4  -1   2    0.85    0.59
  -4  -1  -2    0.28    0.39
   4   1   2    0.31    0.41
   4   1   2    0.01    0.33
  -4   1  -2    0.19    0.47
   4   1   2    0.64    0.44
   4   1   2   -0.09    0.34
  -4   1  -2    0.26    0.29
   4   1   2   -0.15    0.40
   5  -1   2   29.21    2.01
  -5  -1  -2   31.29    1.74
   5  -1   2   28.63    2.11
   5  -1   2   27.06    1.85
   5  -1   2   29.76    1.83
   5  -1   2   29.05    1.32
   5   1   2   28.58    2.00
   5   1   2   29.26    1.81
   5   1   2   28.45    1.98
   5   1   2   28.17    1.76
   5   1   2   28.94    1.98
   6  -1   2   82.21    3.50
   6  -1   2   76.82    3.75
   6  -1   2   86.87    3.76
   6  -1   2   87.16    2.60
   6  -1   2   85.19    3.39
   6   1   2   86.83    3.80
   6   1   2   75.34    3.59
   6   1   2   75.53    3.25
   6   1   2   82.63    3.24
   6   1   2   90.14    3.77
   7  -1   2    3.25    1.06
   7  -1   2    4.11    1.33
   7  -1   2    6.41    1.42
   7  -1   2    4.43    1.30
   7   1   2    5.02    1.17
   7   1   2    5.32    1.14
   7   1   2    5.19    1.23
   7   1   2    5.41    1.41
   7   1   2    3.30    1.18
   8  -1   2    9.41    1.79
   8  -1   2    6.70    1.67
   8  -1   2    8.09    1.53
   8  -1   2    7.84    1.79
   8   1   2   10.08    1.69
   8   1   2   10.16    2.00
   8   1   2    7.50    1.92
   8   1   2   10.77    1.88
   8  -2  -2   17.67    2.58
   8  -2  -2   19.36    2.16
   8  -2  -2   21.18    2.02
   8  -2  -2   17.38    2.10
   8   2  -2   20.36    2.22
   8   2  -2   20.02    2.43
   8   2  -2   18.27    1.97
   8   2  -2   14.99    2.26
   7  -2  -2  115.58    4.97
   7  -2  -2  113.45    3.99
   7  -2  -2  113.10    4.17
   7  -2  -2  109.65    3.65
   7   2  -2  108.13    3.83
   7   2  -2  108.80    4.59
   7   2  -2  115.48    4.18
   7   2  -2  113.80    4.57
   6  -2  -2    3.52    0.89
   6  -2  -2    3.12    0.69
   6  -2  -2    3.39    1.10
   6  -2  -2    3.07    0.81
   6  -2  -2    2.71    0.64
   6   2  -2    4.82    1.10
   6   2  -2    4.20    0.89
   6   2  -2    2.20    0.70
   6   2  -2    4.15    1.03
   5  -2  -2  127.07    3.15
   5  -2  -2  125.83    3.72
   5  -2  -2  121.67    3.25
   5  -2  -2  126.07    3.62
   5  -2  -2  127.35    4.40
   5   2  -2  132.29    3.88
   5   2  -2  127.77    3.55
   5   2  -2  128.80    4.38
   5   2  -2  130.71    4.33
   4  -2  -2    7.19    0.87
   4  -2  -2    7.79    1.14
   4  -2  -2    8.66    0.85
   4  -2  -2    8.03    0.94
   4  -2  -2    9.62    0.76
   4   2  -2    9.50    1.33
   4   2  -2    7.11    0.94
   4   2  -2    8.81    0.49
  -4   2   2    8.24    0.54
   4   2  -2    8.05    0.88
   4   2  -2    8.47    1.14
   4   2  -2    9.66    0.44
   3  -2  -2  146.76    3.06
   3  -2  -2  149.10    3.87
   3  -2  -2  144.26    3.06
   3  -2  -2  146.22    3.23
   3  -2  -2  144.36    3.42
   3   2  -2  142.96    3.35
   3   2  -2  148.79    4.17
   3   2  -2  149.91    3.63
   3   2  -2  146.50    2.55
   3   2  -2  145.56    3.61
   2  -2  -2   31.10    1.15
   2  -2  -2   30.40    0.99
   2  -2  -2   29.01    1.20
   2  -2  -2   31.31    1.05
   2  -2  -2   29.20    1.30
   2  -2  -2   31.66    1.26
   2  -2  -2   32.64    1.65
   2   2  -2   34.28    1.70
   2   2  -2   31.19    1.26
   2   2  -2   34.12    1.46
  -2   2   2   30.36    1.04
   2   2  -2   32.39    0.97
   2   2  -2   30.58    1.38
   2   2  -2   30.32    1.02
   2   2  -2   30.87    1.29
  -2   2   2   33.88    1.16
   1  -2  -2  158.04    3.84
  -1  -2   2  165.12    3.24
  -1  -2   2  161.57    3.65
   1  -2  -2  157.07    3.90
   1  -2  -2  166.34    3.29
   1  -2  -2  161.72    3.14
   1  -2  -2  165.87    3.21
   1  -2  -2  165.50    3.40
   1  -2  -2  159.75    3.43
   1  -2  -2  164.25    3.37
  -1  -2   2  162.79    3.71
   1   2  -2  164.95    3.49
  -1   2   2  165.15    2.96
  -1   2   2  159.06    3.11
   1   2  -2  164.48    3.63
   1   2  -2  170.70    3.96
   1   2  -2  171.36    3.84
   1   2  -2  166.77    3.34
   1   2  -2  165.34    3.72
  -1   2   2  163.52    3.28
  -1   2   2  161.01    3.37
   1   2  -2  163.90    3.55
   0  -2  -2  477.17    8.00
   0  -2   2  462.81    8.49
   0  -2  -2  472.74    7.70
   0  -2  -2  440.21    8.14
   0  -2  -2  459.56    8.32
   0  -2   2  477.22    8.45
   0  -2   2  476.83    8.11
   0  -2  -2  452.69    7.16
   0  -2  -2  468.87    7.14
   0  -2  -2  444.07    7.90
   0  -2   2  458.37    7.99
   0  -2   2  471.89    8.09
   0   2  -2  465.81    8.11
   0   2  -2  474.99    8.44
   0   2   2  466.49    8.01
   0   2  -2  464.06    7.99
   0   2   2  466.36    7.78
   0   2   2  486.33    8.02
   0   2   2  474.79    7.25
   0   2   2  467.53    7.15
   0   2  -2  479.44    8.18
   0   2  -2  473.92    7.98
   0   2  -2  478.96    8.11
  -1  -2  -2   45.57    1.78
   1  -2   2   45.30    1.69
   1  -2   2   43.49    1.73
   1  -2   2   45.02    1.95
  -1  -2  -2   45.36    1.58
   1  -2   2   47.86    1.70
  -1  -2  -2   44.93    1.37
  -1  -2  -2   44.91    1.75
  -1  -2  -2   46.33    1.53
   1  -2   2   48.07    1.98
   1   2   2   45.16    1.78
   1   2   2   47.20    1.61
  -1   2  -2   47.74    1.65
  -1   2  -2   43.97    1.89
   1   2   2   45.10    1.43
  -1   2  -2   47.07    1.76
  -1   2  -2   45.19    1.61
  -2  -2  -2   11.29    0.77
   2  -2   2    9.76    1.03
  -2  -2  -2    9.60    1.13
   2  -2   2    8.65    0.95
   2  -2   2   13.28    1.33
   2  -2   2   10.69    1.01
   2  -2   2   12.49    1.34
   2   2   2   11.95    0.93
  -2   2  -2    9.36    1.16
   2   2   2   11.20    1.02
   2   2   2    9.37    1.02
   2   2   2    9.87    0.81
  -3  -2  -2   56.25    2.44
   3  -2   2   58.90    2.53
   3  -2   2   58.47    2.15
   3  -2   2   56.84    2.22
  -3  -2  -2   57.52    1.91
   3  -2   2   55.41    2.42
   3   2   2   56.10    1.71
   3   2   2   55.15    2.39
  -3   2  -2   53.91    2.51
   3   2   2   55.30    2.29
   3   2   2   57.70    2.21
   3   2   2   57.99    2.21
   4  -2   2   10.41    1.33
   4  -2   2    8.73    1.08
  -4  -2  -2   10.05    1.02
   4  -2   2   11.43    1.23
  -4  -2  -2   10.97    1.53
   4  -2   2   12.59    1.57
   4   2   2   10.61    1.24
  -4   2  -2   11.42    0.57
   4   2   2   12.73    1.42
   4   2   2   14.45    1.66
   4   2   2   11.29    1.33
  -4   2  -2   14.27    1.73
   5  -2   2  116.81    4.24
   5  -2   2  105.89    3.71
   5  -2   2  107.19    4.16
   5  -2   2  110.65    3.79
  -5  -2  -2  115.33    3.16
   5   2   2  107.23    4.07
   5   2   2  112.14    3.96
   5   2   2  110.28    3.95
   5   2   2  103.79    3.77
   5   2   2  113.78    3.83
   6  -2   2    2.70    1.06
   6  -2   2    2.51    0.89
   6  -2   2    4.58    1.12
   6  -2   2    2.99    1.01
   6   2   2    3.83    1.11
   6   2   2    5.59    1.11
   6   2   2    5.06    1.18
   6   2   2    5.85    1.27
   6   2   2    2.70    0.96
   7  -2   2  172.40    6.14
   7  -2   2  164.88    5.51
   7  -2   2  157.92    6.14
   7  -2   2  158.80    5.52
   7   2   2  158.40    5.85
   7   2   2  174.59    5.59
   7   2   2  158.40    5.79
   7   2   2  165.84    5.97
   7   2   2  166.22    5.45
   8  -2   2   32.77    2.96
   8  -2   2   34.70    2.80
   8  -2   2   34.84    3.75
   8  -2   2   37.51    2.81
   8   2   2   33.84    2.66
   8   2   2   29.20    3.06
   8   2   2   34.97    2.93
   8   2   2   36.15    3.11
   8   2   2   39.09    2.79
   8  -3  -2   50.64    2.86
   8  -3  -2   50.68    3.74
   8  -3  -2   47.19    2.94
   8  -3  -2   48.25    2.93
   8  -3  -2   50.82    4.01
   8   3  -2   38.56    2.80
   8   3  -2   43.87    2.77
   8   3  -2   43.77    3.26
   8   3  -2   47.04    3.46
   7  -3  -2    8.16    1.33
   7  -3  -2    3.93    1.33
   7  -3  -2    5.78    1.22
   7  -3  -2    6.34    1.14
   7  -3  -2    5.78    1.70
   7   3  -2    4.74    1.39
   7   3  -2    7.21    1.30
   7   3  -2    5.81    1.26
   7   3  -2    9.12    1.79
   6  -3  -2   72.56    4.00
   6  -3  -2   62.75    2.70
   6  -3  -2   68.73    3.05
   6  -3  -2   69.80    2.83
   6  -3  -2   71.13    3.62
   6   3  -2   74.07    3.24
   6   3  -2   70.31    3.58
   6   3  -2   67.88    2.90
   6   3  -2   75.56    3.56
   5  -3  -2   13.21    1.69
   5  -3  -2   22.43    2.50
   5  -3  -2   16.04    1.21
   5  -3  -2   17.42    1.32
   5  -3  -2   15.71    1.44
   5  -3  -2   17.84    0.89
   5   3  -2   15.87    1.78
   5   3  -2   15.57    1.51
   5   3  -2   17.14    1.51
   5   3  -2   17.45    2.02
   4  -3  -2  188.54    4.81
   4  -3  -2  180.24    4.34
   4  -3  -2  185.93    5.67
   4  -3  -2  185.04    4.04
   4  -3  -2  188.59    3.62
   4  -3  -2  181.88    4.31
   4  -3  -2  178.41    5.05
  -4   3   2  179.38    3.88
   4   3  -2  181.43    5.08
   4   3  -2  183.13    4.92
   4   3  -2  187.19    4.60
   4   3  -2  183.32    5.44
   3  -3  -2   57.70    1.61
   3  -3  -2   57.03    1.59
   3  -3  -2   51.95    1.86
   3  -3  -2   56.43    2.05
   3  -3  -2   52.01    2.16
   3  -3  -2   54.07    2.26
   3  -3  -2   52.29    2.62
   3   3  -2   56.94    2.01
  -3   3   2   54.47    1.82
   3   3  -2   54.64    2.33
   3   3  -2   54.70    2.57
   3   3  -2   57.98    2.10
   3   3  -2   56.47    2.16
   2  -3  -2    3.52    0.63
   2  -3  -2    6.03    0.68
  -2  -3   2    5.86    0.59
   2  -3  -2    6.33    0.67
   2  -3  -2    5.63    0.78
  -2  -3   2    5.14    0.90
  -2  -3   2    6.06    0.48
   2  -3  -2    5.09    0.77
   2  -3  -2    5.97    0.79
   2  -3  -2    5.52    0.33
   2  -3  -2    4.27    0.94
   2   3  -2    5.28    0.75
  -2   3   2    6.15    0.50
   2   3  -2    6.78    0.86
   2   3  -2    7.63    1.03
   2   3  -2    5.58    0.47
   2   3  -2    7.44    1.09
  -2   3   2    5.69    0.73
   2   3  -2    5.61    0.47
   1  -3  -2   21.83    1.13
   1  -3  -2   24.09    1.45
  -1  -3   2   23.49    1.42
   1  -3  -2   23.75    1.19
  -1  -3   2   21.56    1.12
   1  -3  -2   22.29    1.31
   1  -3  -2   22.79    1.22
  -1  -3   2   21.59    1.40
  -1  -3   2   27.00    1.34
   1  -3  -2   22.78    1.58
  -1  -3   2   21.76    0.75
   1  -3  -2   24.20    1.31
  -1   3   2   23.60    1.19
   1   3  -2   22.09    1.12
   1   3  -2   21.64    1.45
   1   3  -2   21.50    1.40
  -1   3   2   23.09    1.03
  -1   3   2   22.36    1.20
   1   3  -2   20.90    1.27
   1   3  -2   20.49    1.25
  -1   3   2   25.33    1.11
   0  -3   2    3.55    0.75
   0  -3  -2    2.30    0.49
   0  -3  -2    2.63    0.47
   0  -3  -2    2.68    0.75
   0  -3  -2    2.99    0.32
   0  -3  -2    3.21    0.74
   0  -3   2    2.86    0.76
   0  -3   2    3.22    0.65
   0  -3   2    2.88    0.71
   0   3   2    1.77    0.42
   0   3   2    3.04    0.65
   0   3   2    2.64    0.32
   0   3  -2    2.73    0.67
   0   3  -2    3.26    0.65
   0   3   2    3.65    0.71
   0   3  -2    2.56    0.57
   0   3  -2    2.66    0.61
   0   3   2    2.57    0.48
   0   3  -2    3.53    0.69
  -1  -3  -2   43.05    2.03
   1  -3   2   41.91    2.14
  -1  -3  -2   39.51    1.83
   1  -3   2   45.36    2.02
   1  -3   2   42.14    1.93
   1  -3   2   42.36    2.14
  -1  -3  -2   42.25    1.36
  -1  -3  -2   43.83    1.73
  -1   3  -2   41.83    2.10
   1   3   2   44.54    1.51
   1   3   2   42.44    1.88
   1   3   2   42.33    1.43
   1   3   2   44.61    1.74
   1   3   2   43.19    1.95
  -1   3  -2   38.98    1.46
  -1   3  -2   40.39    1.97
  -2  -3  -2   42.08    2.00
   2  -3   2   41.93    2.22
   2  -3   2   42.25    2.19
   2  -3   2   41.97    1.72
   2  -3   2   43.42    2.10
  -2  -3  -2   40.57    1.48
  -2  -3  -2   44.19    2.13
   2  -3   2   40.69    1.96
   2   3   2   40.09    2.02
   2   3   2   40.14    1.66
  -2   3  -2   41.67    1.24
   2   3   2   42.83    1.86
  -2   3  -2   44.40    2.23
   2   3   2   40.32    2.01
  -2   3  -2   43.72    2.23
  -2   3  -2   40.99    1.91
   3  -3   2  100.81    3.00
   3  -3   2   97.19    3.59
  -3  -3  -2  101.15    3.48
  -3  -3  -2  100.56    2.56
   3  -3   2  102.11    3.51
   3  -3   2  101.67    3.74
   3  -3   2   98.82    3.31
  -3   3  -2   95.81    3.63
   3   3   2   98.23    3.44
  -3   3  -2   97.16    3.18
   3   3   2  100.50    3.15
   3   3   2   98.17    3.18
   3   3   2  104.68    3.62
  -4  -3  -2  248.85    5.00
  -4  -3  -2  260.18    6.66
   4  -3   2  252.78    6.20
   4  -3   2  254.79    6.68
   4  -3   2  251.11    6.58
   4  -3   2  256.83    5.87
   4  -3   2  260.66    6.88
   4   3   2  247.32    6.39
   4   3   2  254.82    6.12
   4   3   2  247.60    6.54
   4   3   2  252.20    6.13
   5  -3   2   11.55    1.40
   5  -3   2   12.48    1.83
  -5  -3  -2    7.25    1.39
   5  -3   2    9.56    1.37
   5  -3   2    8.05    1.45
  -5  -3  -2   10.32    0.83
   5  -3   2    9.89    1.53
   5   3   2   12.06    1.67
   5   3   2   12.35    1.71
   5   3   2   10.79    1.40
   5   3   2   10.74    1.53
   6  -3   2   48.99    3.09
   6  -3   2   44.62    3.06
   6  -3   2   47.00    2.77
   6  -3   2   46.63    2.60
   6  -3   2   48.46    3.11
   6   3   2   50.40    2.81
   6   3   2   49.95    3.07
   6   3   2   47.66    2.90
   6   3   2   47.22    2.87
   7  -3   2   -0.70    0.57
   7  -3   2    0.44    0.80
   7  -3   2    0.27    0.86
   7  -3   2    1.23    0.94
   7  -3   2    0.75    0.91
   7   3   2   -0.77    0.57
   7   3   2    0.36    0.91
   7   3   2    0.31    0.78
   7   3   2    0.21    0.66
   7   3   2    0.94    0.81
   8  -3   2   33.75    2.85
   8  -3   2   34.01    2.76
   8  -3   2   32.38    3.47
   8  -3   2   30.04    3.47
   8  -3   2   33.57    3.80
   8   3   2   28.60    3.11
   8   3   2   31.08    3.29
   8   3   2   28.37    2.91
   8   3   2   33.26    2.88
   8   3   2   37.21    3.18
   8  -4  -2   -0.69    0.59
   8  -4  -2   -0.94    0.92
   8  -4  -2   -0.49    1.02
   8  -4  -2    0.24    0.78
   8   4  -2   -0.24    0.75
   8   4  -2   -0.19    0.91
   8   4  -2    0.53    1.11
   8   4  -2    0.53    0.71
   7  -4  -2    8.15    1.75
   7  -4  -2    9.20    1.47
   7  -4  -2   13.64    2.57
   7  -4  -2   10.21    1.71
   7   4  -2   10.83    1.80
   7   4  -2   14.53    2.26
   7   4  -2   10.55    1.95
   7   4  -2   10.44    1.66
   6  -4  -2   23.99    1.60
   6  -4  -2   28.37    2.43
   6  -4  -2   21.40    2.05
   6  -4  -2   28.79    3.20
   6  -4  -2   24.34    2.04
   6   4  -2   26.58    2.64
   6   4  -2   21.02    2.24
   6   4  -2   23.94    1.92
   6   4  -2   27.18    2.92
   5  -4  -2   76.34    2.51
   5  -4  -2   79.80    3.36
   5  -4  -2   77.30    3.06
   5  -4  -2   75.88    4.01
   5  -4  -2   77.20    3.54
   5   4  -2   70.32    3.60
   5   4  -2   70.80    3.38
   5   4  -2   79.06    3.16
   5   4  -2   72.64    3.34
   4  -4  -2   27.76    1.66
   4  -4  -2   29.82    2.04
   4  -4  -2   25.53    1.71
   4  -4  -2   27.45    1.92
   4  -4  -2   28.16    2.33
   4  -4  -2   30.51    1.27
   4   4  -2   30.46    2.27
   4   4  -2   31.65    2.08
   4   4  -2   25.60    2.14
   4   4  -2   25.98    1.93
  -4   4   2   25.08    1.45
   4   4  -2   27.89    1.81
   3  -4  -2   50.99    2.91
   3  -4  -2   52.19    2.13
   3  -4  -2   56.10    2.47
   3  -4  -2   53.37    2.45
   3  -4  -2   53.64    2.32
   3  -4  -2   50.83    1.62
   3  -4  -2   55.07    1.35
   3  -4  -2   55.44    2.48
  -3   4   2   54.72    2.14
   3   4  -2   52.00    2.75
   3   4  -2   52.83    2.39
   3   4  -2   50.12    2.54
   3   4  -2   55.21    2.34
   2  -4  -2   22.97    1.91
  -2  -4   2   23.01    1.07
   2  -4  -2   24.37    1.53
   2  -4  -2   23.72    1.60
   2  -4  -2   22.72    1.30
  -2  -4   2   25.75    1.09
   2  -4  -2   22.01    1.46
  -2  -4   2   24.22    1.78
   2   4  -2   23.94    1.56
  -2   4   2   23.55    1.43
  -2   4   2   22.62    1.14
   2   4  -2   26.78    1.53
   2   4  -2   24.50    1.74
   2   4  -2   23.73    0.97
   2   4  -2   23.61    1.71
   1  -4  -2    7.27    0.94
   1  -4  -2    7.97    1.32
  -1  -4   2    4.80    0.95
   1  -4  -2    5.86    0.85
   1  -4  -2    8.01    1.12
   1  -4  -2    6.50    0.92
  -1  -4   2    6.92    0.66
  -1  -4   2    6.47    1.04
   1  -4  -2    5.49    0.92
  -1  -4   2    7.67    1.01
   1   4  -2    6.51    0.96
  -1   4   2    6.49    0.93
   1   4  -2    7.39    1.12
   1   4  -2    7.72    1.24
  -1   4   2    6.75    0.88
   1   4  -2    6.98    0.99
   0  -4   2   68.74    2.97
   0  -4   2   75.74    2.75
   0  -4  -2   71.87    2.48
   0  -4  -2   75.76    3.12
   0  -4  -2   71.41    2.56
   0  -4   2   69.95    2.05
   0  -4  -2   71.75    2.32
   0  -4  -2   72.26    2.78
   0  -4   2   73.22    3.02
   0  -4   2   71.36    2.90
   0   4   2   69.89    2.55
   0   4   2   76.72    2.77
   0   4   2   73.24    1.61
   0   4  -2   72.57    2.55
   0   4  -2   74.73    2.73
   0   4   2   72.99    2.41
   0   4  -2   68.61    2.95
  -1  -4  -2   22.98    1.71
   1  -4   2   24.44    1.67
   1  -4   2   24.38    1.77
  -1  -4  -2   26.78    1.68
  -1  -4  -2   24.73    1.64
   1  -4   2   25.94    1.93
   1  -4   2   21.40    1.75
   1   4   2   26.10    1.65
   1   4   2   23.89    1.65
  -1   4  -2   27.94    1.66
  -1   4  -2   29.20    1.93
   1   4   2   25.17    1.48
  -1   4  -2   25.98    1.32
   1   4   2   25.50    1.13
   2  -4   2    1.97    0.78
   2  -4   2    0.77    0.70
   2  -4   2    1.22    0.62
  -2  -4  -2    2.20    0.50
   2  -4   2    2.42    0.88
  -2  -4  -2    1.77    0.65
  -2  -4  -2    3.95    0.91
   2   4   2    2.77    0.59
   2   4   2    1.82    0.71
  -2   4  -2    2.27    0.43
  -2   4  -2    1.68    0.67
  -2   4  -2    2.42    0.70
   2   4   2    4.50    0.84
   2   4   2    2.91    0.82
  -3  -4  -2   60.30    1.90
   3  -4   2   57.13    2.91
   3  -4   2   59.57    2.31
   3  -4   2   57.82    2.97
   3  -4   2   56.50    3.02
  -3  -4  -2   58.95    2.76
   3  -4   2   59.06    2.74
   3   4   2   65.34    3.00
   3   4   2   57.59    2.80
   3   4   2   60.44    2.61
  -3   4  -2   60.78    2.60
   3   4   2   64.10    2.50
  -3   4  -2   57.89    2.92
  -4  -4  -2    6.21    1.21
   4  -4   2    6.69    1.03
   4  -4   2    4.04    1.10
  -4  -4  -2    6.05    0.72
   4  -4   2    6.27    1.18
   4  -4   2    5.92    1.37
   4  -4   2    7.09    1.37
   4   4   2    6.49    1.29
   4   4   2    4.11    1.05
   4   4   2    5.34    1.07
  -4   4  -2    5.60    1.21
   4   4   2    6.42    1.10
   5  -4   2   69.66    3.36
   5  -4   2   70.90    3.69
  -5  -4  -2   69.58    3.56
   5  -4   2   67.50    2.87
   5  -4   2   69.01    3.70
   5  -4   2   68.46    3.67
  -5   4  -2   71.98    3.48
   5   4   2   69.77    3.51
   5   4   2   73.25    3.61
   5   4   2   71.10    3.26
   5   4   2   66.93    3.17
   6  -4   2    2.44    0.97
   6  -4   2    3.66    1.30
   6  -4   2    1.73    0.83
   6  -4   2    3.27    1.23
   6  -4   2    2.07    1.09
   6   4   2    3.59    1.12
   6   4   2    1.78    0.91
   6   4   2    3.78    1.24
   6   4   2    2.83    1.11
   7  -4   2    5.94    1.78
   7  -4   2    6.71    1.49
   7  -4   2    3.34    1.42
   7  -4   2    5.27    1.52
   7  -4   2    8.12    1.52
   7   4   2    8.56    1.78
   7   4   2    6.02    1.40
   7   4   2    6.72    1.64
   7   4   2    5.37    1.49
   8  -4   2    5.82    1.82
   8  -4   2    1.83    1.38
   8  -4   2    4.19    1.40
   8  -4   2    9.77    1.79
   8  -4   2    2.38    1.54
   8   4   2    4.79    1.61
   8   4   2    6.40    1.83
   8   4   2    5.26    1.69
   8   4   2    6.38    1.68
   8   4   2    3.62    1.52
   7  -5  -2   20.00    2.99
   7  -5  -2   20.82    2.90
   7  -5  -2   17.06    2.28
   7  -5  -2   16.80    2.02
   7   5  -2   20.70    2.60
   7   5  -2   18.64    2.42
   7   5  -2   17.71    2.25
   7   5  -2   14.88    2.55
   6  -5  -2   14.05    2.32
   6  -5  -2   17.33    2.34
   6  -5  -2   18.62    2.24
   6  -5  -2   13.96    1.82
   6   5  -2   13.36    1.92
   6   5  -2   16.54    2.14
   6   5  -2   16.41    1.96
   6   5  -2   20.26    2.65
   5  -5  -2   22.24    2.77
   5  -5  -2   21.30    2.43
   5  -5  -2   20.54    2.06
   5  -5  -2   22.27    2.03
   5   5  -2   18.71    2.46
   5   5  -2   18.63    1.92
   5   5  -2   22.18    2.47
   5   5  -2   24.77    2.56
   4  -5  -2   20.14    1.80
   4  -5  -2   27.19    2.99
   4  -5  -2   23.53    2.35
   4  -5  -2   23.11    1.84
   4   5  -2   19.34    2.25
   4   5  -2   23.36    1.89
   4   5  -2   19.76    2.21
   4   5  -2   20.91    1.79
   3  -5  -2   20.90    1.82
   3  -5  -2   21.57    2.58
  -3  -5   2   21.24    1.28
   3  -5  -2   20.48    1.62
   3  -5  -2   17.81    1.87
   3  -5  -2   20.58    1.70
   3   5  -2   22.13    1.74
  -3   5   2   21.46    1.59
   3   5  -2   22.98    2.32
   3   5  -2   19.83    1.83
  -2  -5   2   28.06    1.31
   2  -5  -2   25.20    1.78
   2  -5  -2   26.41    2.05
   2  -5  -2   26.94    1.66
   2  -5  -2   25.47    1.82
  -2  -5   2   26.40    2.09
   2  -5  -2   23.79    1.86
   2  -5  -2   29.05    2.34
  -2   5   2   26.17    1.75
   2   5  -2   27.92    1.81
   2   5  -2   22.86    1.84
   2   5  -2   24.91    1.79
   2   5  -2   28.44    2.06
  -2   5   2   27.78    1.45
  -1  -5   2  370.53    8.69
  -1  -5   2  373.33    6.77
  -1  -5   2  371.17    7.98
   1  -5  -2  368.70    7.83
   1  -5  -2  368.98    8.45
   1  -5  -2  372.78    7.74
   1  -5  -2  369.50    7.90
   1  -5  -2  369.63    8.34
   1  -5  -2  372.01    9.06
  -1  -5   2  381.20    8.73
   1   5  -2  387.30    8.22
  -1   5   2  374.87    7.53
   1   5  -2  362.25    8.14
   1   5  -2  368.85    8.66
  -1   5   2  372.58    8.09
   0  -5   2    0.68    0.61
   0  -5   2   -0.08    0.50
   0  -5  -2    0.49    0.56
   0  -5  -2    0.05    0.57
   0  -5   2    1.35    0.65
   0  -5  -2   -0.06    0.35
   0  -5   2    0.93    0.47
   0  -5   2    1.05    0.61
   0   5  -2    0.50    0.48
   0   5   2    0.34    0.41
   0   5   2   -0.39    0.38
   0   5  -2    1.19    0.70
   0   5  -2    0.88    0.54
   0   5   2    0.61    0.51
   0   5   2    0.90    0.25
   1  -5   2  391.37    9.11
  -1  -5  -2  382.45    9.09
   1  -5   2  390.88    9.00
   1  -5   2  371.15    8.93
  -1  -5  -2  388.79    8.37
   1  -5   2  379.45    8.47
   1   5   2  386.08    6.82
   1   5   2  387.79    7.96
  -1   5  -2  374.87    8.25
   1   5   2  391.51    8.65
   1   5   2  384.60    8.37
  -1   5  -2  371.29    7.43
  -2  -5  -2    7.71    1.39
   2  -5   2    7.40    1.37
   2  -5   2    9.80    1.53
   2  -5   2    9.59    1.47
   2  -5   2   11.45    1.76
  -2  -5  -2    9.79    1.37
   2   5   2    6.46    1.17
   2   5   2    9.29    1.05
   2   5   2   10.60    1.34
  -2   5  -2    9.45    1.29
  -2   5  -2    9.09    0.91
  -2   5  -2    9.97    1.55
   2   5   2    8.60    1.40
   3  -5   2   50.83    3.02
  -3  -5  -2   48.49    2.65
   3  -5   2   54.73    3.14
  -3  -5  -2   50.28    1.83
   3  -5   2   52.53    2.82
  -3  -5  -2   53.73    3.09
   3  -5   2   49.08    3.06
   3   5   2   46.65    2.78
   3   5   2   49.23    2.86
  -3   5  -2   47.11    2.46
  -3   5  -2   49.72    2.92
   3   5   2   48.49    2.27
  -3   5  -2   49.79    1.21
   3   5   2   55.08    2.66
   4  -5   2   13.68    2.03
   4  -5   2   15.67    1.53
   4  -5   2   11.25    1.62
   4  -5   2   11.66    1.85
  -4  -5  -2   13.10    1.81
   4  -5   2   11.30    1.82
   4   5   2   11.26    1.72
   4   5   2   11.52    1.67
  -4   5  -2   17.50    2.20
   4   5   2   13.72    1.66
   4   5   2   16.76    1.98
   5  -5   2   78.77    4.23
   5  -5   2   85.14    4.42
   5  -5   2   86.61    4.39
   5  -5   2   89.60    3.35
   5  -5   2   94.69    4.15
  -5  -5  -2   88.87    4.14
  -5   5  -2   88.34    4.12
   5   5   2   82.19    4.14
   5   5   2   87.99    3.90
   5   5   2   83.48    3.71
   5   5   2   80.49    4.12
   6  -5   2   21.59    2.80
   6  -5   2   18.61    2.52
   6  -5   2   23.10    2.58
  -6  -5  -2   16.74    2.37
   6  -5   2   24.84    2.29
   6  -5   2   29.73    3.48
   6   5   2   24.67    2.61
   6   5   2   20.96    2.45
   6   5   2   18.47    2.43
   6   5   2   21.24    2.65
   7  -5   2    9.69    2.19
   7  -5   2    5.26    1.77
   7  -5   2    8.78    2.11
   7  -5   2    9.83    1.85
   7   5   2    8.44    1.87
   7   5   2    7.77    1.94
   7   5   2    7.42    1.74
   7   5   2    8.92    1.92
   7  -6  -2    1.90    1.43
   7  -6  -2    2.27    1.40
   7  -6  -2    1.17    0.92
   7  -6  -2    0.75    0.90
   7   6  -2    1.60    1.19
   7   6  -2    1.76    1.19
   7   6  -2    0.18    0.88
   7   6  -2    0.66    1.20
   6  -6  -2    5.71    1.63
   6  -6  -2    6.17    1.35
   6  -6  -2    4.94    1.81
   6  -6  -2    6.15    1.48
   6   6  -2    5.01    1.35
   6   6  -2    5.04    1.64
   6   6  -2    5.43    1.59
   6   6  -2    6.65    1.55
   5  -6  -2   58.92    3.31
   5  -6  -2   57.56    3.44
   5  -6  -2   57.28    3.53
   5  -6  -2   61.95    4.18
   5   6  -2   64.25    3.52
   5   6  -2   57.08    3.57
   5   6  -2   63.40    3.35
   5   6  -2   62.13    3.90
   4  -6  -2   27.84    3.19
   4  -6  -2   30.45    2.31
   4  -6  -2   31.07    2.50
   4  -6  -2   30.80    2.45
   4   6  -2   31.35    2.27
   4   6  -2   33.35    2.39
   4   6  -2   35.00    2.67
   4   6  -2   32.61    2.66
   3  -6  -2   58.23    3.26
   3  -6  -2   62.08    3.73
   3  -6  -2   59.47    3.10
  -3  -6   2   61.02    2.30
  -3  -6   2   59.66    3.51
   3  -6  -2   61.28    3.11
   3   6  -2   65.79    3.53
   3   6  -2   64.27    2.96
   3   6  -2   66.91    3.20
  -3   6   2   60.94    2.92
   3   6  -2   62.08    3.46
   2  -6  -2   63.75    3.65
   2  -6  -2   64.31    3.34
   2  -6  -2   63.24    3.31
  -2  -6   2   64.93    2.24
  -2  -6   2   63.70    3.48
   2  -6  -2   65.24    3.10
   2  -6  -2   65.79    3.15
   2   6  -2   61.04    3.18
  -2   6   2   64.59    3.07
   2   6  -2   61.21    3.02
   2   6  -2   60.49    3.38
  -1  -6   2    0.14    0.66
  -1  -6   2   -0.10    0.56
   1  -6  -2    0.32    0.84
   1  -6  -2   -0.55    0.55
   1  -6  -2   -0.47    0.47
  -1  -6   2    0.03    0.58
   1  -6  -2   -0.55    0.45
   1  -6  -2   -0.29    0.45
  -1  -6   2    0.48    0.45
   1   6  -2   -0.40    0.40
   1   6  -2    0.25    0.65
   1   6  -2    0.18    0.55
  -1   6   2    0.22    0.48
  -1   6   2    0.19    0.48
   0  -6   2  108.04    4.43
   0  -6   2   99.04    4.30
   0  -6   2  103.82    4.46
   0  -6  -2  107.43    4.65
   0  -6   2   97.28    3.90
   0  -6   2  102.58    3.19
   0  -6  -2   98.87    3.88
   0   6   2   98.67    3.67
   0   6   2  104.04    3.58
   0   6   2  103.85    4.07
   0   6  -2  102.81    3.91
   0   6  -2  103.07    4.40
   0   6  -2  105.89    3.71
   0   6   2  104.52    2.13
   1  -6   2   21.90    2.22
   1  -6   2   24.70    2.64
  -1  -6  -2   22.69    1.90
  -1  -6  -2   20.11    2.38
   1  -6   2   21.56    2.46
   1  -6   2   27.40    2.39
   1  -6   2   23.89    1.63
   1   6   2   21.97    1.70
   1   6   2   18.87    2.00
  -1   6  -2   22.51    1.55
  -1   6  -2   21.71    1.80
   1   6   2   21.92    1.95
   1   6   2   22.66    1.18
  -1   6  -2   15.99    2.02
   2  -6   2   53.05    3.29
   2  -6   2   53.41    3.30
   2  -6   2   56.13    3.05
   2  -6   2   54.55    3.29
  -2  -6  -2   53.78    2.86
  -2  -6  -2   54.38    3.28
   2   6   2   51.42    2.68
   2   6   2   55.81    3.17
  -2   6  -2   57.21    3.28
  -2   6  -2   51.08    2.03
  -2   6  -2   55.09    2.79
   2   6   2   52.32    2.97
   2   6   2   52.96    2.18
  -3  -6  -2   50.85    3.27
   3  -6   2   47.32    3.14
  -3  -6  -2   44.34    2.69
   3  -6   2   44.00    2.85
  -3  -6  -2   47.52    1.92
   3  -6   2   42.46    3.01
   3  -6   2   44.87    3.18
   3   6   2   49.19    2.36
   3   6   2   43.00    2.58
   3   6   2   45.25    2.97
  -3   6  -2   43.18    2.92
   3   6   2   46.66    2.98
   4  -6   2   13.94    1.92
   4  -6   2   18.82    2.51
   4  -6   2   19.37    2.68
  -4  -6  -2   18.82    2.25
   4  -6   2   19.71    2.73
  -4   6  -2   19.28    2.37
   4   6   2   17.14    1.89
   4   6   2   21.27    2.62
   4   6   2   20.00    2.23
   4   6   2   23.67    2.72
  -5  -6  -2   50.76    3.30
   5  -6   2   49.64    3.29
   5  -6   2   50.38    3.66
   5  -6   2   46.27    3.48
   5  -6   2   50.67    3.69
   5   6   2   54.53    3.25
   5   6   2   49.56    2.95
   5   6   2   52.86    3.55
   5   6   2   43.97    3.31
   6  -6   2    2.52    1.20
   6  -6   2    3.29    1.50
   6  -6   2    3.61    1.58
  -6  -6  -2    5.39    1.56
   6  -6   2    3.36    1.36
   6   6   2    3.65    1.30
   6   6   2    4.08    1.35
   6   6   2    3.60    1.40
   6   6   2    3.79    1.44
   7  -6   2    0.66    1.36
   7  -6   2    1.23    1.32
   7  -6   2    1.44    1.17
   7  -6   2    2.39    1.36
   7   6   2    1.35    1.18
   7   6   2    3.67    1.52
   7   6   2   -0.80    0.92
   7   6   2    3.11    1.33
   6  -7  -2    8.58    1.90
   6  -7  -2    7.95    1.95
   6  -7  -2    6.92    2.21
   6  -7  -2    6.73    1.61
   6   7  -2    9.98    2.27
   6   7  -2    9.26    1.98
   6   7  -2    5.94    1.58
   6   7  -2    9.20    1.97
   5  -7  -2   -0.55    0.88
   5  -7  -2    0.01    0.81
   5  -7  -2    0.29    0.73
   5  -7  -2   -0.34    1.06
   5   7  -2    0.86    0.89
   5   7  -2    0.82    0.90
   5   7  -2   -0.83    0.86
   5   7  -2    1.50    1.12
   4  -7  -2   10.91    2.29
   4  -7  -2   11.84    1.82
   4  -7  -2   13.51    2.06
   4  -7  -2   13.41    2.15
   4   7  -2   10.30    1.69
   4   7  -2   15.78    2.34
   4   7  -2   14.67    2.07
   4   7  -2    7.29    1.64
   3  -7  -2   66.19    4.13
   3  -7  -2   63.82    3.72
  -3  -7   2   69.04    4.12
   3  -7  -2   66.88    3.57
   3  -7  -2   64.82    3.73
   3  -7  -2   70.98    3.60
   3   7  -2   57.90    3.62
   3   7  -2   56.28    2.94
   3   7  -2   63.80    3.44
   3   7  -2   65.17    3.82
   2  -7  -2    1.15    0.91
  -2  -7   2    1.70    0.97
   2  -7  -2    1.33    0.89
   2  -7  -2    2.87    1.04
   2  -7  -2    1.51    1.00
   2  -7  -2    3.86    1.40
  -2   7   2    3.07    0.98
   2   7  -2    2.18    0.91
   2   7  -2    2.02    1.02
   2   7  -2    1.81    0.86
  -1  -7   2   22.27    2.56
  -1  -7   2   13.83    2.05
   1  -7  -2   22.65    2.34
   1  -7  -2   18.15    2.27
   1  -7  -2   19.06    2.54
  -1  -7   2   19.04    1.43
   1  -7  -2   20.93    2.39
   1  -7  -2   18.21    1.99
   1   7  -2   22.77    2.45
   1   7  -2   19.29    2.45
  -1   7   2   19.47    1.67
   1   7  -2   25.48    2.53
  -1   7   2   21.94    2.42
   0  -7   2    1.88    0.70
   0  -7   2    4.92    1.19
   0  -7   2    3.51    1.28
   0  -7   2    3.09    1.14
   0  -7  -2    4.09    1.44
   0  -7  -2    2.57    1.00
   0   7   2    3.40    1.08
   0   7  -2    2.93    0.93
   0   7  -2    4.61    1.35
   0   7   2    1.74    0.76
   0   7  -2    2.88    1.01
  -1  -7  -2   24.24    2.85
   1  -7   2   28.23    3.00
   1  -7   2   23.34    2.46
   1  -7   2   28.69    2.99
   1  -7   2   29.23    1.97
   1  -7   2   27.84    3.04
  -1  -7  -2   29.12    2.30
   1   7   2   28.35    2.28
   1   7   2   26.02    2.31
   1   7   2   28.09    2.03
  -1   7  -2   25.94    1.83
  -1   7  -2   29.65    2.61
   2  -7   2    1.63    0.92
   2  -7   2    1.90    1.14
  -2  -7  -2    1.58    0.88
   2  -7   2    1.10    0.98
   2  -7   2    0.99    1.00
  -2  -7  -2    0.81    0.92
  -2   7  -2    2.19    0.70
   2   7   2    2.12    0.96
  -2   7  -2    1.51    0.95
   2   7   2    2.06    1.01
   2   7   2    1.57    0.62
   2   7   2    0.92    0.83
  -3  -7  -2   60.70    3.33
   3  -7   2   54.84    3.37
   3  -7   2   55.04    3.71
   3  -7   2   49.71    3.54
   3  -7   2   59.44    3.83
  -3  -7  -2   59.44    3.90
  -3   7  -2   57.48    3.65
   3   7   2   55.88    2.63
   3   7   2   52.68    3.51
   3   7   2   53.87    3.11
   3   7   2   58.59    3.58
  -4  -7  -2   28.73    2.89
   4  -7   2   19.38    2.53
   4  -7   2   28.26    3.33
   4  -7   2   25.69    3.10
   4  -7   2   24.72    2.98
   4   7   2   30.75    2.54
  -4   7  -2   20.06    2.46
   4   7   2   22.27    2.23
   4   7   2   22.86    2.84
   4   7   2   23.89    2.84
   5  -7   2    4.02    1.29
   5  -7   2    6.53    1.78
   5  -7   2    4.99    1.66
   5  -7   2    6.96    1.93
  -5  -7  -2    4.72    1.49
   5   7   2    5.67    1.58
   5   7   2    4.56    1.33
   5   7   2    4.72    1.52
   5   7   2    6.07    1.42
   6  -7   2    1.22    1.20
   6  -7   2    4.93    1.57
   6  -7   2    3.37    1.62
  -6  -7  -2    5.46    1.66
   6  -7   2    4.87    1.76
   6   7   2    3.56    1.45
   6   7   2    0.92    1.07
   6   7   2    4.40    1.55
   6   7   2    5.58    1.74
   5  -8  -2   57.19    4.24
   5  -8  -2   50.85    3.77
   5  -8  -2   51.30    3.85
   5  -8  -2   54.21    3.68
   5  -8  -2   57.13    4.60
   5   8  -2   55.31    4.15
   5   8  -2   53.16    4.03
   5   8  -2   51.20    3.64
   5   8  -2   47.61    3.36
   4  -8  -2    1.30    1.13
   4  -8  -2   -0.74    0.67
   4  -8  -2   -0.53    0.76
   4  -8  -2   -0.50    0.80
   4  -8  -2   -0.24    0.97
   4   8  -2    0.07    0.79
   4   8  -2    0.55    0.97
   4   8  -2    0.94    0.86
   4   8  -2   -0.53    0.79
   3  -8  -2   59.60    3.67
   3  -8  -2   58.06    3.79
   3  -8  -2   62.51    3.73
  -3  -8   2   52.46    3.87
   3  -8  -2   57.25    4.18
   3  -8  -2   59.42    3.94
   3   8  -2   56.94    3.94
   3   8  -2   55.20    3.48
   3   8  -2   49.15    3.54
   3   8  -2   54.42    3.00
   2  -8  -2    4.02    1.29
   2  -8  -2    5.23    1.47
   2  -8  -2    5.76    1.50
   2  -8  -2    3.55    1.56
  -2  -8   2    9.66    2.10
   2  -8  -2    7.11    1.72
   2   8  -2    4.90    1.35
   2   8  -2    5.04    1.41
  -2   8   2    3.66    1.30
   2   8  -2    5.04    1.08
   2   8  -2    4.44    1.45
   1  -8  -2   41.46    3.47
  -1  -8   2   46.04    3.43
   1  -8  -2   46.75    3.13
  -1  -8   2   39.19    3.28
   1  -8  -2   43.66    2.83
   1  -8  -2   45.51    3.11
  -1   8   2   42.35    3.03
  -1   8   2   44.39    2.66
   1   8  -2   45.50    2.99
   1   8  -2   36.87    3.16
   1   8  -2   44.29    3.45
   0  -8  -2    0.43    0.93
   0  -8   2   -0.08    0.90
   0  -8  -2    0.31    0.77
   0  -8   2    1.05    1.07
   0   8   2    2.01    0.93
   0   8  -2    1.57    1.11
   0   8  -2    0.75    0.83
   0   8   2    1.05    0.84
   1  -8   2   25.19    2.95
  -1  -8  -2   24.34    2.57
   1  -8   2   26.99    2.85
  -1  -8  -2   30.09    3.47
   1  -8   2   30.02    2.20
   1  -8   2   30.97    3.39
   1  -8   2   31.05    3.50
   1   8   2   26.96    2.80
  -1   8  -2   32.22    2.92
   1   8   2   24.07    2.80
  -1   8  -2   28.55    2.08
   2  -8   2   15.77    2.48
   2  -8   2   19.64    2.87
  -2  -8  -2   19.95    2.41
   2  -8   2   20.24    2.55
   2  -8   2   16.46    2.54
  -2  -8  -2   13.74    2.32
   2  -8   2   16.36    2.01
  -2   8  -2   18.83    2.64
   2   8   2   15.87    2.38
   2   8   2   15.92    2.28
  -3  -8  -2   25.94    2.82
   3  -8   2   27.87    3.00
   3  -8   2   32.58    3.75
   3  -8   2   29.67    3.43
  -3  -8  -2   30.63    3.56
   3  -8   2   31.72    3.45
  -3   8  -2   27.93    3.27
   3   8   2   29.67    3.27
   3   8   2   28.22    3.18
   4  -8   2    8.08    2.14
  -4  -8  -2    5.62    1.53
   4  -8   2    7.50    1.94
   4  -8   2    5.36    1.79
   4  -8   2    5.77    1.49
   4   8   2    6.02    1.81
   4   8   2    6.03    1.35
   4   8   2    2.59    1.39
   5  -8   2   60.08    4.37
  -5  -8  -2   61.07    6.80
   5  -8   2   53.54    4.28
   5  -8   2   57.33    4.39
   5  -8   2   59.21    4.09
   5   8   2   60.43    3.47
   5   8   2   56.75    4.14
   5   8   2   51.48    4.10
   4  -9  -2    2.40    1.46
   4  -9  -2    2.65    1.40
   3  -9  -2   10.61    2.21
   3  -9  -2   14.01    2.39
   3  -9  -2   11.35    2.50
   3  -9  -2   15.91    2.50
  -3  -9   2   11.01    2.48
   3  -9  -2   11.05    2.19
   3   9  -2   12.34    2.40
   3   9  -2   11.64    2.36
  -2  -9   2   22.09    3.19
   2  -9  -2   14.32    2.69
   2  -9  -2   20.54    2.70
   2  -9  -2   22.51    2.68
   2  -9  -2   16.22    2.48
   2  -9  -2   20.11    2.94
   2   9  -2   19.74    2.71
   2   9  -2   19.17    3.02
   1  -9  -2    8.69    2.28
  -1  -9   2    7.80    2.08
   1  -9  -2    8.52    1.86
  -1   9   2    9.15    1.70
   1   9  -2   12.94    2.24
   1   9  -2    8.90    2.10
  -1   9   2   10.64    2.03
   0  -9  -2   -0.06    0.82
   0  -9   2   -0.06    0.98
   0  -9   2    0.73    1.19
   0  -9  -2    0.07    0.90
   0   9  -2    0.38    1.13
   0   9   2    0.05    0.77
   0   9  -2    0.54    0.84
   0   9   2    0.04    0.91
   1  -9   2   27.73    3.33
  -1  -9  -2   20.06    2.57
   1  -9   2   24.94    3.51
  -1  -9  -2   16.96    2.94
   1  -9   2   23.44    3.20
   1   9   2   19.83    2.78
  -1   9  -2   23.08    3.07
   1   9   2   21.44    2.73
   2  -9   2    9.95    2.27
   2  -9   2   13.87    2.58
  -2  -9  -2   13.89    2.11
   2  -9   2   16.36    2.78
  -2  -9  -2   10.40    2.46
  -2   9  -2   12.90    2.52
   2   9   2   13.59    2.46
   2   9   2   12.78    2.29
   3  -9   2   31.20    3.91
   3  -9   2   34.04    2.87
   3  -9   2   37.46    4.31
  -3  -9  -2   37.42    4.27
  -3  -9  -2   30.53    3.24
   3  -9   2   37.28    4.08
   3   9   2   35.62    4.12
  -3   9  -2   36.69    4.28
   3   9   2   28.78    3.40
   0 -10   2    5.99    2.14
   0 -10  -2    4.01    1.60
   0 -10  -2    4.95    1.90
   0 -10   2    4.40    1.85
   0  10   2    5.96    1.71
   0  10  -2    1.80    1.50
   0  10   2    3.50    1.39
   8   0  -3   -0.55    0.80
   8   0  -3    0.52    0.61
   8   0  -3   -0.41    0.85
   8   0  -3    0.14    0.80
   7   0  -3   41.97    2.00
   7   0  -3   50.03    2.27
   7   0  -3   49.66    2.65
   7   0  -3   48.00    3.22
   7   0  -3   41.95    2.74
   6   0  -3   -0.73    0.47
   6   0  -3   -0.31    0.41
   6   0  -3   -0.04    0.33
   6   0  -3   -0.09    0.24
   5   0  -3  222.77    4.35
   5   0  -3  226.40    5.74
   5   0  -3  212.53    5.55
   5   0  -3  225.21    4.59
   4   0  -3   -0.22    0.30
   4   0  -3    0.11    0.15
   4   0  -3   -0.04    0.35
   4   0  -3    0.14    0.19
   3   0  -3  109.16    2.03
   2   0  -3    0.11    0.13
   1   0  -3   10.55    0.81
   1   0  -3    9.98    0.69
   1   0  -3    9.65    0.50
   1   0  -3    9.45    0.55
   0   0   3   -0.24    0.19
   0   0   3   -0.41    0.27
   0   0  -3   -0.82    0.25
   0   0  -3   -0.65    0.16
   0   0  -3   -0.41    0.23
   0   0  -3   -0.25    0.22
   0   0  -3   -0.75    0.25
   0   0   3   -0.52    0.22
   0   0   3   -0.02    0.28
   0   0  -3   -0.21    0.24
   0   0   3   -0.09    0.25
   1   0   3    0.19    0.37
   1   0   3    0.30    0.33
  -1   0  -3    1.06    0.41
  -1   0  -3    1.15    0.42
   1   0   3    1.40    0.44
   1   0   3   -0.02    0.37
  -1   0  -3    0.35    0.34
   1   0   3    0.33    0.34
  -1   0  -3    0.52    0.44
  -1   0  -3    0.22    0.27
  -2   0  -3   -0.07    0.35
  -2   0  -3    0.02    0.22
   2   0   3    0.02    0.28
   2   0   3    0.24    0.31
   2   0   3   -0.25    0.28
   2   0   3   -0.07    0.34
  -2   0  -3   -0.54    0.30
   3   0   3  169.98    4.13
   3   0   3  162.10    4.23
  -3   0  -3  159.74    4.53
   3   0   3  161.67    3.81
  -3   0  -3  162.05    4.39
   3   0   3  168.44    4.17
   3   0   3  161.53    4.41
   4   0   3    0.11    0.44
   4   0   3    0.23    0.41
   4   0   3    0.23    0.48
  -4   0  -3   -0.02    0.40
   4   0   3    0.57    0.39
   4   0   3    0.30    0.43
  -5   0  -3  158.26    4.86
   5   0   3  164.61    4.75
   5   0   3  158.59    4.95
   5   0   3  166.72    5.27
   5   0   3  157.13    4.89
   5   0   3  165.08    4.23
  -6   0  -3   -0.51    0.45
   6   0   3   -0.04    0.56
   6   0   3   -0.48    0.57
   6   0   3   -0.56    0.47
   6   0   3    0.38    0.50
   6   0   3    0.12    0.61
   7   0   3   92.59    4.50
   7   0   3   99.43    4.55
   7   0   3   90.67    4.26
   7   0   3  108.46    4.33
   8   0   3   -0.85    0.82
   8   0   3   -0.22    0.72
   8   0   3   -0.50    0.79
   8   0   3    0.83    0.88
   8  -1  -3   18.40    2.32
   8  -1  -3   17.94    1.53
   8  -1  -3   19.82    1.70
   8  -1  -3   22.18    3.00
   8   1  -3   20.07    2.48
   8   1  -3   17.41    2.60
   8   1  -3   22.07    2.44
   8   1  -3   18.47    1.95
   8   1  -3   17.04    1.71
   7  -1  -3    0.91    0.58
   7  -1  -3    1.20    0.75
   7  -1  -3    1.54    0.60
   7  -1  -3    0.10    0.75
   7   1  -3    1.05    0.83
   7   1  -3    1.24    0.78
   7   1  -3    0.86    0.50
   7   1  -3    1.12    0.62
   6  -1  -3   77.29    2.92
   6  -1  -3   70.44    2.46
   6  -1  -3   72.73    2.33
   6  -1  -3   68.14    3.04
   6  -1  -3   80.54    3.71
   6   1  -3   74.32    2.54
   6   1  -3   71.25    3.29
   6   1  -3   70.46    2.62
   6   1  -3   71.57    3.35
   5  -1  -3   54.95    1.82
   5  -1  -3   50.11    1.61
   5  -1  -3   53.08    2.28
   5  -1  -3   57.23    2.44
   5  -1  -3   53.85    2.73
   5   1  -3   50.60    2.54
   5   1  -3   53.26    1.84
   5   1  -3   49.53    1.95
   5   1  -3   51.78    2.61
   4  -1  -3  182.56    3.49
   4  -1  -3  178.02    3.18
   4  -1  -3  180.90    4.40
   4  -1  -3  179.45    4.48
   4   1  -3  181.92    3.84
   4   1  -3  181.91    4.97
   4   1  -3  177.31    3.62
   3  -1  -3   13.14    0.56
   3   1  -3   13.08    0.69
   3   1  -3   13.37    0.76
   3   1  -3   12.00    0.74
   3   1  -3   12.04    1.36
   2  -1  -3   83.50    1.54
   2  -1  -3   78.62    1.52
   2   1  -3   78.70    1.97
   2   1  -3   76.79    2.01
   2   1  -3   79.48    1.76
   2   1  -3   80.43    2.10
   1  -1  -3  274.15    5.33
   1  -1  -3  275.07    4.62
  -1  -1   3  273.52    4.45
   1  -1  -3  274.29    4.40
  -1  -1   3  268.95    4.91
   1  -1  -3  260.60    5.07
  -1  -1   3  268.13    5.04
   1   1  -3  277.49    5.10
   1   1  -3  274.91    5.10
   1   1  -3  268.95    4.42
   1   1  -3  274.99    4.78
  -1   1   3  279.44    4.48
   1   1  -3  273.33    4.80
   0  -1  -3    6.24    0.78
   0  -1  -3    5.21    0.54
   0  -1   3    6.46    0.80
   0  -1  -3    4.23    0.56
   0  -1   3    5.68    0.47
   0  -1   3    4.69    0.70
   0  -1  -3    5.65    0.75
   0  -1   3    5.44    0.36
   0  -1  -3    3.80    0.50
   0  -1   3    6.45    0.82
   0  -1  -3    5.44    0.57
   0   1  -3    6.10    0.78
   0   1  -3    5.64    0.66
   0   1  -3    5.56    0.70
   0   1   3    6.19    0.56
   0   1  -3    4.83    0.43
   0   1   3    4.80    0.60
   0   1  -3    5.16    0.37
   0   1   3    5.07    0.57
   0   1   3    5.42    0.53
   0   1  -3    4.07    0.64
  -1  -1  -3  186.98    4.06
  -1  -1  -3  189.78    4.20
  -1  -1  -3  188.76    3.89
  -1  -1  -3  197.40    4.18
   1  -1   3  189.76    4.04
   1  -1   3  188.28    3.45
  -1  -1  -3  183.69    3.67
   1  -1   3  187.77    3.90
   1  -1   3  183.47    4.21
   1  -1   3  188.77    4.31
   1  -1   3  182.48    4.18
   1   1   3  187.20    3.74
   1   1   3  193.44    3.89
  -1   1  -3  193.18    4.42
   1   1   3  188.65    3.33
  -1   1  -3  188.19    4.03
   1   1   3  186.74    3.97
  -1   1  -3  191.01    4.14
  -1   1  -3  193.06    3.95
   1   1   3  192.68    4.17
  -1   1  -3  189.30    4.30
  -2  -1  -3   48.00    1.89
   2  -1   3   54.63    2.18
   2  -1   3   49.79    1.99
  -2  -1  -3   50.02    1.82
  -2  -1  -3   51.09    2.11
   2  -1   3   51.17    1.94
   2  -1   3   48.73    1.93
   2   1   3   51.93    2.09
  -2   1  -3   51.57    1.65
   2   1   3   48.90    1.63
   2   1   3   49.39    1.92
   2   1   3   49.57    1.84
  -3  -1  -3   27.31    1.54
   3  -1   3   27.44    1.62
   3  -1   3   26.34    1.52
   3  -1   3   25.60    1.51
  -3  -1  -3   24.75    1.64
   3  -1   3   27.13    1.70
   3   1   3   27.96    1.46
   3   1   3   25.80    1.46
  -3   1  -3   25.90    1.70
  -3   1  -3   27.89    1.21
   3   1   3   28.49    1.62
   3   1   3   28.70    1.53
   3   1   3   24.94    1.60
  -4  -1  -3  131.89    3.91
   4  -1   3  130.43    3.96
   4  -1   3  131.43    3.93
  -4  -1  -3  138.11    4.55
   4  -1   3  144.39    4.32
   4  -1   3  127.16    4.23
   4   1   3  133.59    4.05
   4   1   3  131.14    3.82
   4   1   3  130.54    4.25
  -4   1  -3  130.45    4.32
   4   1   3  128.57    3.90
   4   1   3  130.13    3.87
   5  -1   3   11.26    1.45
   5  -1   3   11.46    1.55
   5  -1   3   13.20    1.64
  -5  -1  -3   12.26    1.44
   5  -1   3   11.17    1.65
   5   1   3   12.13    1.49
   5   1   3    9.97    1.30
   5   1   3   10.80    1.49
  -5   1  -3   11.61    1.58
   5   1   3   10.82    1.53
   5   1   3    9.15    1.43
  -6  -1  -3   82.32    3.29
   6  -1   3   77.22    3.75
   6  -1   3   80.87    3.83
   6  -1   3   88.11    3.63
   6  -1   3   78.80    3.62
   6   1   3   78.82    3.23
   6   1   3   80.66    3.45
   6   1   3   81.68    3.67
   6   1   3   79.88    3.78
   6   1   3   86.94    3.83
   7  -1   3    2.86    1.19
   7  -1   3    2.44    0.93
   7  -1   3    2.36    1.10
   7  -1   3    2.16    1.07
   7   1   3    3.59    1.01
   7   1   3    2.47    1.02
   7   1   3    1.38    0.87
   7   1   3    3.63    1.21
   7   1   3    2.44    1.02
   8  -1   3   33.01    2.99
   8  -1   3   32.67    3.43
   8  -1   3   35.29    2.85
   8  -1   3   35.25    2.85
   8   1   3   34.54    3.48
   8   1   3   40.62    3.25
   8   1   3   36.53    3.08
   8   1   3   38.54    2.92
   8  -2  -3   23.10    1.77
   8  -2  -3   20.24    2.84
   8  -2  -3   19.62    2.25
   8  -2  -3   19.55    1.73
   8   2  -3   20.50    2.03
   8   2  -3   20.31    2.13
   8   2  -3   16.12    2.28
   8   2  -3   20.19    2.59
   7  -2  -3   35.99    2.08
   7  -2  -3   37.66    2.01
   7  -2  -3   40.80    2.46
   7  -2  -3   39.77    3.00
   7   2  -3   37.70    2.15
   7   2  -3   44.63    2.89
   7   2  -3   45.04    2.99
   7   2  -3   42.79    2.37
   6  -2  -3    2.17    0.56
   6  -2  -3    3.04    0.83
   6  -2  -3    3.01    0.98
   6  -2  -3    3.19    0.72
   6  -2  -3    3.06    0.68
   6   2  -3    3.21    0.73
   6   2  -3    3.06    1.11
   6   2  -3    3.24    0.77
   6   2  -3    3.24    0.96
   5  -2  -3    0.30    0.41
   5  -2  -3    0.57    0.55
   5  -2  -3    0.47    0.44
   5  -2  -3    0.50    0.37
   5  -2  -3   -0.02    0.26
   5   2  -3   -0.36    0.53
   5   2  -3    0.75    0.25
   5   2  -3    0.21    0.39
   5   2  -3    0.39    0.59
   5   2  -3    0.56    0.40
   4  -2  -3   16.38    0.88
   4  -2  -3   17.22    1.12
   4  -2  -3   14.53    0.98
   4  -2  -3   17.57    1.44
   4  -2  -3   15.51    0.84
   4   2  -3   15.73    1.15
   4   2  -3   19.81    2.01
   4   2  -3   16.68    1.10
   4   2  -3   14.73    1.15
   4   2  -3   17.16    0.77
   3  -2  -3    0.21    0.24
   3  -2  -3    0.02    0.23
   3  -2  -3    0.02    0.15
   3  -2  -3   -0.21    0.28
   3  -2  -3   -0.28    0.17
   3  -2  -3    0.05    0.24
   3  -2  -3    0.39    0.23
   3   2  -3    0.20    0.23
   3   2  -3   -0.25    0.39
   3   2  -3    0.30    0.16
   3   2  -3    0.41    0.26
   3   2  -3    0.29    0.26
   3   2  -3    0.04    0.24
   2  -2  -3   96.18    2.30
   2  -2  -3   96.97    3.08
   2  -2  -3   98.63    2.33
   2  -2  -3   96.75    2.21
   2  -2  -3   95.41    2.06
   2  -2  -3   96.15    2.54
   2   2  -3   97.19    2.36
   2   2  -3   96.63    2.58
   2   2  -3   98.31    2.49
  -2   2   3   97.91    2.06
   2   2  -3   98.77    2.70
   2   2  -3   98.87    2.80
   2   2  -3   97.67    1.98
   2   2  -3   88.10    3.11
   1  -2  -3   18.70    0.84
  -1  -2   3   17.05    1.01
  -1  -2   3   19.40    1.18
   1  -2  -3   19.38    1.22
   1  -2  -3   18.44    0.77
   1  -2  -3   20.15    0.93
   1  -2  -3   18.67    0.80
   1  -2  -3   19.02    0.95
  -1  -2   3   18.96    0.95
  -1  -2   3   18.85    1.00
   1   2  -3   18.41    1.19
   1   2  -3   17.20    1.01
   1   2  -3   16.53    1.20
  -1   2   3   16.70    0.86
   1   2  -3   17.57    1.07
  -1   2   3   19.83    0.70
   1   2  -3   17.52    1.16
   1   2  -3   17.49    1.04
   1   2  -3   19.50    1.04
   0  -2   3  328.36    5.89
   0  -2  -3  317.60    5.81
   0  -2   3  325.01    5.22
   0  -2   3  325.13    6.21
   0  -2   3  330.19    6.73
   0  -2  -3  325.79    6.45
   0  -2  -3  329.26    5.54
   0  -2  -3  321.66    6.32
   0  -2   3  328.36    6.64
   0  -2  -3  340.55    6.20
   0   2   3  331.08    6.11
   0   2  -3  340.48    6.50
   0   2  -3  334.23    6.66
   0   2   3  320.68    6.29
   0   2  -3  327.15    6.26
   0   2  -3  325.86    5.88
   0   2   3  317.64    5.67
  -1  -2  -3   17.18    1.08
  -1  -2  -3   17.22    1.02
   1  -2   3   16.81    1.33
   1  -2   3   16.58    1.27
   1  -2   3   15.71    0.95
   1  -2   3   18.03    1.19
   1  -2   3   15.32    0.99
  -1  -2  -3   15.96    1.04
   1   2   3   17.21    0.96
  -1   2  -3   17.05    1.15
   1   2   3   19.66    1.08
   1   2   3   15.03    1.10
  -1   2  -3   16.23    1.26
  -1   2  -3   17.09    0.94
   1   2   3   17.48    1.16
   2  -2   3  132.61    3.98
   2  -2   3  139.09    3.67
   2  -2   3  136.15    3.44
  -2  -2  -3  137.58    3.85
  -2  -2  -3  133.72    3.34
   2  -2   3  142.47    4.00
   2  -2   3  139.86    3.69
   2   2   3  130.51    3.70
   2   2   3  136.38    3.85
   2   2   3  131.93    3.48
   2   2   3  136.41    3.48
   3  -2   3   -0.07    0.36
   3  -2   3   -0.25    0.38
   3  -2   3    0.79    0.51
  -3  -2  -3   -0.06    0.32
   3  -2   3    0.45    0.52
  -3  -2  -3    1.46    0.60
  -3   2  -3    0.42    0.25
   3   2   3    0.43    0.41
  -3   2  -3   -0.44    0.38
   3   2   3    0.64    0.39
   3   2   3    0.08    0.42
   3   2   3    0.95    0.49
   3   2   3    0.18    0.32
   4  -2   3   62.28    2.63
  -4  -2  -3   60.41    2.94
   4  -2   3   59.78    2.93
   4  -2   3   57.27    2.58
  -4  -2  -3   59.87    2.38
   4  -2   3   57.88    2.82
   4   2   3   58.91    2.47
   4   2   3   55.43    2.58
   4   2   3   57.66    2.81
  -4   2  -3   59.07    1.67
   4   2   3   60.56    2.64
   4   2   3   54.13    2.47
  -4   2  -3   55.93    2.87
  -5  -2  -3    5.04    1.14
   5  -2   3    6.52    1.34
   5  -2   3    3.08    0.97
  -5  -2  -3    6.26    1.00
   5  -2   3    4.54    1.03
   5  -2   3    5.52    1.11
   5   2   3    4.19    1.00
   5   2   3    7.97    1.32
   5   2   3    4.50    0.98
   5   2   3    3.30    0.91
   5   2   3    5.25    1.10
  -5   2  -3    3.86    1.11
   6  -2   3    4.92    1.28
   6  -2   3    4.36    1.08
   6  -2   3    5.01    1.21
   6  -2   3    4.54    1.14
  -6  -2  -3    5.11    0.98
   6   2   3    3.65    1.02
   6   2   3    7.10    1.35
   6   2   3    4.94    1.14
   6   2   3    5.22    1.20
   6   2   3    3.01    1.04
   7  -2   3   10.14    1.72
   7  -2   3   12.09    2.13
   7  -2   3   12.30    1.78
   7  -2   3   12.55    2.09
   7   2   3   12.15    1.83
   7   2   3   11.23    1.78
   7   2   3   10.25    1.86
   7   2   3   12.37    1.88
   7   2   3   14.93    2.33
   8  -2   3    0.19    0.99
   8  -2   3    1.83    0.98
   8  -2   3    0.81    0.93
   8  -2   3    2.50    1.30
   8   2   3    2.00    1.16
   8   2   3    1.89    1.24
   8   2   3    1.50    0.96
   8   2   3    1.95    1.02
   8   2   3    0.30    0.89
   8  -3  -3    0.04    0.69
   8  -3  -3    1.03    0.68
   8  -3  -3    1.18    1.12
   8  -3  -3    0.84    1.11
   8   3  -3    0.54    1.03
   8   3  -3    1.35    0.84
   8   3  -3    0.54    0.67
   8   3  -3    0.62    0.90
   7  -3  -3    0.43    0.57
   7  -3  -3    0.30    1.01
   7  -3  -3    0.06    0.50
   7  -3  -3   -0.53    0.72
   7  -3  -3    0.67    0.65
   7   3  -3   -0.55    0.71
   7   3  -3   -0.22    0.53
   7   3  -3    0.09    0.51
   7   3  -3    0.11    0.80
   6  -3  -3    6.70    1.10
   6  -3  -3    5.22    0.98
   6  -3  -3    7.30    1.05
   6  -3  -3    6.74    1.46
   6  -3  -3    7.15    1.70
   6   3  -3    7.42    1.56
   6   3  -3    6.33    1.43
   6   3  -3    4.45    1.03
   6   3  -3    5.08    0.99
   5  -3  -3    8.10    1.37
   5  -3  -3    9.83    1.11
   5  -3  -3   11.74    0.93
   5  -3  -3   12.02    1.34
   5  -3  -3    9.25    1.05
   5  -3  -3   11.19    1.82
   5   3  -3    8.79    1.53
   5   3  -3    7.83    1.22
   5   3  -3   10.95    1.24
   5   3  -3    8.46    1.43
   4  -3  -3    1.42    0.63
   4  -3  -3    1.81    0.43
   4  -3  -3    2.01    0.47
   4  -3  -3    1.66    0.56
   4  -3  -3    1.88    0.82
   4  -3  -3    3.20    0.64
   4   3  -3    0.36    0.60
   4   3  -3    2.54    0.63
   4   3  -3    2.26    0.65
  -4   3   3    2.44    0.32
   4   3  -3    1.26    0.49
   4   3  -3    2.90    0.69
   3  -3  -3  250.85    5.32
   3  -3  -3  254.73    4.93
   3  -3  -3  255.95    4.63
   3  -3  -3  248.24    5.62
   3  -3  -3  249.19    6.51
   3  -3  -3  244.53    5.12
   3  -3  -3  252.07    5.35
   3   3  -3  251.77    5.76
   3   3  -3  245.75    5.78
   3   3  -3  253.41    6.49
   3   3  -3  250.90    4.41
   3   3  -3  255.14    5.38
   3   3  -3  252.80    4.64
   3   3  -3  248.42    5.50
   2  -3  -3   21.68    1.19
   2  -3  -3   21.99    1.24
   2  -3  -3   22.55    0.76
   2  -3  -3   22.66    1.67
   2  -3  -3   25.24    1.29
  -2  -3   3   21.76    1.39
  -2  -3   3   22.54    1.03
   2  -3  -3   21.15    1.18
   2  -3  -3   21.78    1.06
   2   3  -3   25.28    1.55
   2   3  -3   21.23    1.57
   2   3  -3   23.35    1.31
  -2   3   3   22.53    1.09
   2   3  -3   21.55    1.09
   2   3  -3   21.46    1.34
   2   3  -3   25.03    1.49
   2   3  -3   21.83    0.64
   1  -3  -3  286.53    5.72
  -1  -3   3  280.16    5.90
   1  -3  -3  273.88    5.32
   1  -3  -3  268.78    6.19
   1  -3  -3  282.83    5.17
   1  -3  -3  277.80    4.38
  -1  -3   3  273.91    6.10
   1  -3  -3  270.75    5.44
   1  -3  -3  270.86    6.35
   1   3  -3  289.70    5.90
  -1   3   3  275.84    5.52
   1   3  -3  279.83    5.92
   1   3  -3  281.17    6.33
   1   3  -3  277.06    5.64
  -1   3   3  284.62    5.04
  -1   3   3  281.87    4.93
   1   3  -3  278.87    6.24
   0  -3  -3    2.36    0.65
   0  -3   3    2.65    0.76
   0  -3  -3    3.37    0.56
   0  -3  -3    3.53    0.76
   0  -3   3    2.57    0.79
   0  -3   3    4.07    0.74
   0  -3   3    1.88    0.56
   0  -3  -3    3.54    0.40
   0   3  -3    3.44    0.67
   0   3  -3    3.40    0.70
   0   3   3    3.08    0.66
   0   3   3    3.46    0.40
   0   3   3    3.28    0.68
   0   3  -3    2.00    0.58
   0   3   3    3.43    0.47
   0   3  -3    2.30    0.61
   0   3  -3    3.22    0.82
   1  -3   3  273.09    6.04
   1  -3   3  263.56    6.50
  -1  -3  -3  278.86    6.17
   1  -3   3  272.17    6.50
  -1  -3  -3  282.76    6.19
   1  -3   3  269.67    5.83
  -1  -3  -3  271.35    5.62
   1   3   3  274.43    6.09
  -1   3  -3  280.32    6.58
   1   3   3  278.23    5.25
  -1   3  -3  269.50    5.42
   1   3   3  276.19    6.08
   1   3   3  270.07    5.59
   1   3   3  278.11    4.86
  -1   3  -3  272.21    6.33
   2  -3   3   19.36    1.39
   2  -3   3   16.41    1.78
  -2  -3  -3   19.33    1.43
  -2  -3  -3   17.26    1.13
   2  -3   3   17.15    1.54
   2  -3   3   16.25    1.21
  -2  -3  -3   13.82    1.46
   2  -3   3   18.33    1.40
   2   3   3   16.69    1.40
   2   3   3   16.80    1.14
   2   3   3   16.41    1.22
   2   3   3   17.37    1.42
  -2   3  -3   18.61    1.38
  -2   3  -3   20.62    1.64
   3  -3   3  160.82    4.97
   3  -3   3  162.41    5.08
   3  -3   3  165.96    4.65
   3  -3   3  163.22    4.62
  -3  -3  -3  169.19    4.91
   3  -3   3  155.60    4.29
  -3  -3  -3  160.00    3.90
   3   3   3  160.21    4.41
  -3   3  -3  161.78    4.52
   3   3   3  162.46    4.83
  -3   3  -3  160.64    3.10
   3   3   3  163.53    4.81
   3   3   3  164.15    4.37
  -3   3  -3  153.96    5.01
   4  -3   3    1.06    0.71
   4  -3   3    2.31    0.72
   4  -3   3    2.06    0.79
  -4  -3  -3    2.07    0.80
   4  -3   3    0.02    0.57
  -4  -3  -3    2.16    0.62
   4  -3   3    1.04    0.64
   4   3   3    1.55    0.60
   4   3   3    2.20    0.77
  -4   3  -3    1.27    0.80
   4   3   3    1.44    0.73
  -4   3  -3    0.92    0.57
   4   3   3    1.06    0.62
   5  -3   3   10.01    1.63
   5  -3   3   13.50    1.75
  -5  -3  -3   12.20    1.86
   5  -3   3    6.69    1.32
   5  -3   3   11.64    1.51
  -5  -3  -3   10.10    1.14
   5  -3   3   11.45    1.75
   5   3   3    9.37    1.42
   5   3   3    9.13    1.54
   5   3   3    7.88    1.21
   5   3   3   12.53    1.76
   6  -3   3    1.83    1.03
   6  -3   3    2.32    0.94
   6  -3   3    3.32    1.13
   6  -3   3    2.45    0.95
   6  -3   3    3.12    1.09
   6   3   3    1.88    0.93
   6   3   3    5.72    1.41
   6   3   3    1.53    0.89
   6   3   3    4.08    1.10
   6   3   3    1.82    0.87
   7  -3   3    0.66    0.99
   7  -3   3    4.20    1.37
   7  -3   3    1.61    1.14
   7  -3   3    3.07    1.30
   7  -3   3    3.11    1.15
   7   3   3    2.94    1.13
   7   3   3    2.73    1.05
   7   3   3    1.63    1.07
   7   3   3    1.89    1.01
   7   3   3    2.75    1.10
   8  -3   3    0.47    1.03
   8  -3   3   -0.31    0.89
   8  -3   3   -0.55    0.77
   8  -3   3    1.29    1.17
   8  -3   3    0.44    1.15
   8   3   3    1.49    1.14
   8   3   3    0.28    0.89
   8   3   3   -0.35    0.86
   8   3   3    0.20    0.92
   8   3   3    0.28    1.03
   8  -4  -3   -0.10    0.98
   8  -4  -3    0.49    1.19
   8  -4  -3    0.47    0.89
   8  -4  -3   -0.20    0.56
   8   4  -3    0.32    0.76
   8   4  -3    0.47    0.69
   8   4  -3    0.12    0.86
   8   4  -3   -1.03    0.96
   7  -4  -3   77.17    3.36
   7  -4  -3   87.52    5.03
   7  -4  -3   83.02    3.58
   7  -4  -3   85.18    4.52
   7   4  -3   84.66    3.92
   7   4  -3   87.38    3.75
   7   4  -3   87.64    4.66
   7   4  -3   90.81    4.59
   6  -4  -3   10.83    1.81
   6  -4  -3   10.75    1.50
   6  -4  -3    9.08    1.26
   6  -4  -3   11.95    2.19
   6   4  -3   10.89    1.92
   6   4  -3   13.10    1.70
   6   4  -3   13.68    1.86
   6   4  -3   10.50    1.76
   5  -4  -3  104.91    4.14
   5  -4  -3  102.07    3.61
   5  -4  -3   99.95    2.88
   5  -4  -3  100.25    4.71
   5  -4  -3  104.54    3.50
   5   4  -3  101.90    3.71
   5   4  -3  100.62    4.46
   5   4  -3  100.04    3.92
   5   4  -3  108.00    4.25
   4  -4  -3   27.02    2.30
   4  -4  -3   30.75    1.69
   4  -4  -3   30.77    1.81
   4  -4  -3   30.96    2.01
   4  -4  -3   32.54    1.28
   4  -4  -3   31.96    1.89
   4   4  -3   36.09    2.52
   4   4  -3   31.73    1.94
   4   4  -3   33.30    2.14
   3  -4  -3   84.20    3.00
   3  -4  -3   84.68    3.78
   3  -4  -3   80.60    1.72
   3  -4  -3   85.57    2.70
   3  -4  -3   80.96    2.96
   3  -4  -3   84.08    2.93
   3  -4  -3   73.52    2.75
   3   4  -3   76.96    3.22
   3   4  -3   85.38    2.99
   3   4  -3   82.33    2.03
  -3   4   3   79.84    2.48
   3   4  -3   86.01    3.09
   2  -4  -3  149.57    3.94
   2  -4  -3  153.31    4.00
   2  -4  -3  150.71    4.74
   2  -4  -3  146.82    4.91
  -2  -4   3  154.99    4.50
   2  -4  -3  145.64    4.18
   2  -4  -3  152.96    4.14
  -2  -4   3  149.37    3.42
   2  -4  -3  154.25    3.83
  -2  -4   3  147.85    4.53
   2   4  -3  154.91    3.53
   2   4  -3  156.20    4.68
   2   4  -3  154.82    4.23
  -2   4   3  152.72    3.85
   2   4  -3  144.62    4.63
   2   4  -3  145.62    4.23
  -1  -4   3   24.87    1.80
  -1  -4   3   24.85    1.52
   1  -4  -3   25.20    1.80
   1  -4  -3   28.66    1.59
  -1  -4   3   25.40    0.75
   1  -4  -3   26.75    1.96
   1  -4  -3   23.20    1.29
  -1  -4   3   24.88    1.69
  -1   4   3   24.29    1.47
   1   4  -3   27.05    1.78
  -1   4   3   26.00    1.50
  -1   4   3   25.29    1.26
   1   4  -3   27.31    1.71
   1   4  -3   26.13    1.55
   1   4  -3   25.71    1.47
   1   4  -3   25.88    1.83
   0  -4   3   89.97    3.55
   0  -4  -3   86.80    2.78
   0  -4  -3   94.07    3.56
   0  -4   3   86.50    3.10
   0  -4   3   93.15    3.28
   0  -4   3   89.06    3.43
   0  -4  -3   84.72    3.18
   0  -4  -3   89.46    1.89
   0   4  -3   88.24    3.50
   0   4  -3   92.51    3.21
   0   4  -3   93.02    3.05
   0   4  -3   93.14    3.23
   0   4   3   86.16    3.02
   0   4   3   89.33    2.03
   0   4   3   86.95    2.69
   0   4   3   91.97    2.36
   0   4  -3   85.57    3.07
   0   4   3   91.59    3.12
   1  -4   3   52.03    2.72
  -1  -4  -3   50.38    2.10
   1  -4   3   48.04    2.65
  -1  -4  -3   48.74    2.52
   1  -4   3   47.85    2.40
   1  -4   3   53.13    2.48
  -1  -4  -3   50.44    2.43
   1   4   3   50.69    1.73
   1   4   3   50.33    2.37
  -1   4  -3   48.91    2.47
  -1   4  -3   51.36    2.41
   1   4   3   50.01    2.12
   1   4   3   50.50    2.40
   1   4   3   52.36    1.84
  -1   4  -3   50.88    2.01
  -2  -4  -3  158.69    4.76
   2  -4   3  157.54    5.24
   2  -4   3  164.03    5.22
  -2  -4  -3  166.42    4.06
   2  -4   3  160.88    4.76
   2  -4   3  164.12    4.77
  -2  -4  -3  152.23    4.79
  -2   4  -3  166.84    4.70
   2   4   3  166.86    4.45
  -2   4  -3  155.67    5.03
   2   4   3  168.78    4.94
   2   4   3  166.56    4.04
  -2   4  -3  157.72    5.10
   2   4   3  153.73    4.77
  -2   4  -3  165.85    3.68
   3  -4   3  121.94    4.25
   3  -4   3  120.61    4.17
   3  -4   3  115.27    4.55
   3  -4   3  123.56    3.73
  -3  -4  -3  115.01    4.19
  -3  -4  -3  122.62    3.30
   3  -4   3  123.12    4.62
   3   4   3  122.87    4.42
   3   4   3  126.61    4.01
  -3   4  -3  116.55    4.44
   3   4   3  117.54    4.25
   3   4   3  124.43    3.76
  -3   4  -3  127.00    4.06
  -3   4  -3  126.57    4.73
  -3   4  -3  123.61    2.53
  -4  -4  -3   29.68    2.27
   4  -4   3   26.98    2.30
   4  -4   3   28.43    2.13
   4  -4   3   27.53    2.13
   4  -4   3   27.44    1.82
  -4  -4  -3   26.60    1.47
   4  -4   3   25.03    2.18
   4   4   3   24.61    2.08
   4   4   3   24.94    1.88
  -4   4  -3   23.87    2.09
   4   4   3   23.73    1.99
   4   4   3   27.96    1.95
   5  -4   3  113.01    4.04
   5  -4   3  115.04    4.90
  -5  -4  -3  116.75    4.84
   5  -4   3  120.89    4.83
   5  -4   3  117.22    4.55
   5  -4   3  117.06    5.01
   5   4   3  118.56    4.85
  -5   4  -3  118.33    4.79
   5   4   3  115.22    4.33
   5   4   3  114.22    4.34
   5   4   3  114.51    4.65
   6  -4   3    0.11    0.93
  -6  -4  -3    0.34    0.82
   6  -4   3    0.55    0.92
   6  -4   3    0.65    0.77
   6  -4   3    0.54    0.71
   6  -4   3   -0.15    0.80
   6   4   3   -0.40    0.66
   6   4   3    0.28    0.71
   6   4   3   -0.42    0.65
   6   4   3    0.63    0.72
   7  -4   3   63.41    4.08
   7  -4   3   61.69    3.40
   7  -4   3   56.43    3.99
   7  -4   3   54.57    3.49
   7  -4   3   51.30    3.87
   7   4   3   58.61    3.88
   7   4   3   61.44    3.68
   7   4   3   53.62    3.42
   7   4   3   53.47    3.58
   7   4   3   60.31    3.58
   8  -4   3    3.46    1.40
   8  -4   3    6.35    2.02
   8  -4   3    5.39    1.73
   8   4   3    5.39    1.60
   8   4   3    5.78    1.81
   7  -5  -3   -1.39    0.69
   7  -5  -3   -0.67    0.51
   7  -5  -3   -0.17    0.91
   7  -5  -3    0.58    0.79
   7   5  -3   -0.11    0.76
   7   5  -3   -1.39    0.78
   7   5  -3    0.00    0.71
   7   5  -3    0.18    1.01
   6  -5  -3   53.33    3.37
   6  -5  -3   53.79    2.90
   6  -5  -3   54.43    2.93
   6  -5  -3   53.47    3.87
   6   5  -3   54.88    3.29
   6   5  -3   53.37    3.44
   6   5  -3   51.58    3.57
   6   5  -3   50.97    2.99
   5  -5  -3    2.84    1.30
   5  -5  -3    2.52    1.03
   5  -5  -3    1.07    0.65
   5  -5  -3    1.75    0.86
   5   5  -3    3.19    1.16
   5   5  -3    0.83    0.85
   5   5  -3    1.54    0.76
   5   5  -3    3.81    1.09
   4  -5  -3    3.26    0.88
   4  -5  -3    4.67    1.37
   4  -5  -3    4.52    1.08
   4  -5  -3    3.33    0.92
   4   5  -3    4.91    1.17
   4   5  -3    4.07    1.14
   4   5  -3    3.78    0.95
   4   5  -3    3.16    0.96
   3  -5  -3    0.16    0.42
   3  -5  -3    0.09    0.49
   3  -5  -3   -0.93    0.65
   3  -5  -3   -0.37    0.40
   3  -5  -3   -0.30    0.45
   3   5  -3    0.30    0.50
  -3   5   3    0.13    0.35
   3   5  -3   -0.09    0.66
   3   5  -3   -0.28    0.47
   2  -5  -3   55.93    2.50
  -2  -5   3   53.86    2.84
   2  -5  -3   54.02    3.18
   2  -5  -3   52.59    2.67
   2  -5  -3   52.82    2.33
   2  -5  -3   58.39    3.04
   2  -5  -3   56.33    2.56
  -2  -5   3   51.39    2.83
  -2  -5   3   55.05    1.48
   2   5  -3   54.21    2.68
   2   5  -3   53.48    2.87
  -2   5   3   55.17    1.98
  -2   5   3   56.57    2.43
   2   5  -3   55.55    2.70
   2   5  -3   50.07    2.83
   1  -5  -3    0.70    0.69
  -1  -5   3    0.24    0.27
   1  -5  -3    0.38    0.40
  -1  -5   3    0.70    0.51
   1  -5  -3   -0.34    0.39
   1  -5  -3   -0.51    0.49
  -1  -5   3    0.21    0.49
   1  -5  -3   -0.43    0.29
  -1  -5   3    0.35    0.54
  -1   5   3    0.23    0.37
   1   5  -3    0.37    0.48
   1   5  -3    0.37    0.55
  -1   5   3    0.31    0.43
   1   5  -3    0.48    0.58
  -1   5   3    0.13    0.44
   0  -5   3    0.55    0.68
   0  -5  -3    0.28    0.61
   0  -5   3    0.00    0.52
   0  -5   3    0.87    0.41
   0  -5  -3    0.51    0.45
   0  -5   3    1.23    0.74
   0  -5  -3    0.22    0.63
   0  -5   3   -0.04    0.57
   0   5  -3    0.33    0.64
   0   5  -3    1.86    0.69
   0   5  -3    1.06    0.56
   0   5   3    0.72    0.27
   0   5   3    0.92    0.45
   0   5   3    0.56    0.50
   0   5   3    1.14    0.62
   1  -5   3    0.95    0.63
  -1  -5  -3    0.01    0.54
   1  -5   3    0.62    0.68
  -1  -5  -3   -0.27    0.54
   1  -5   3    0.89    0.67
   1  -5   3    0.37    0.72
   1   5   3    0.11    0.40
   1   5   3    0.05    0.45
  -1   5  -3    0.14    0.51
   1   5   3    0.92    0.39
   1   5   3    0.17    0.50
  -1   5  -3    0.26    0.44
  -1   5  -3    1.24    0.72
   2  -5   3    9.96    1.52
   2  -5   3   14.09    1.95
   2  -5   3   12.42    1.78
  -2  -5  -3   13.63    1.17
  -2  -5  -3   12.86    1.73
   2  -5   3   17.13    1.92
  -2  -5  -3   10.44    1.54
   2   5   3   12.14    1.23
  -2   5  -3   12.20    1.69
  -2   5  -3   12.97    1.64
  -2   5  -3   12.44    1.00
   2   5   3   14.02    1.55
   2   5   3   15.29    1.85
   2   5   3   13.28    1.72
  -3  -5  -3    0.06    0.60
   3  -5   3    0.35    0.68
   3  -5   3    0.67    0.79
   3  -5   3    0.99    0.72
   3  -5   3    1.51    0.89
  -3  -5  -3    1.09    0.71
  -3  -5  -3    0.50    0.45
   3   5   3    0.16    0.59
   3   5   3    0.28    0.65
  -3   5  -3    0.62    0.65
  -3   5  -3    0.60    0.30
  -3   5  -3    0.13    0.53
   3   5   3   -0.09    0.46
   3   5   3    0.23    0.57
   4  -5   3   10.87    1.94
  -4  -5  -3    9.41    1.57
   4  -5   3   10.01    1.57
  -4  -5  -3   11.00    1.13
   4  -5   3    9.17    1.31
   4  -5   3   11.88    1.91
   4  -5   3   10.36    1.75
   4   5   3    8.77    1.42
   4   5   3   12.21    1.53
   4   5   3    7.99    1.48
   4   5   3    8.76    1.67
  -4   5  -3   10.64    1.81
   5  -5   3    4.86    1.38
   5  -5   3    4.00    1.39
  -5  -5  -3    4.02    1.28
   5  -5   3    1.21    0.93
   5  -5   3    4.88    1.52
   5  -5   3    3.99    1.06
   5   5   3    2.63    1.01
  -5   5  -3    3.40    1.18
   5   5   3    3.34    1.07
   5   5   3    2.78    1.19
   5   5   3    2.15    0.95
  -6  -5  -3   38.36    3.19
   6  -5   3   39.48    3.36
   6  -5   3   35.10    3.10
   6  -5   3   40.30    4.07
   6  -5   3   39.13    2.97
   6  -5   3   39.87    2.56
   6   5   3   38.36    3.10
   6   5   3   44.23    3.00
   6   5   3   39.98    2.91
   6   5   3   37.45    3.13
   7  -5   3    2.59    1.46
   7  -5   3    1.81    1.15
   7  -5   3    2.58    1.48
   7  -5   3    2.80    1.42
   7   5   3    4.52    1.63
   7   5   3    4.35    1.40
   7   5   3    3.28    1.38
   7   5   3    3.61    1.28
   7   5   3    4.55    1.60
   7  -6  -3   56.11    4.12
   7  -6  -3   60.68    3.54
   7  -6  -3   61.42    4.82
   7  -6  -3   56.01    3.40
   7   6  -3   61.23    4.40
   7   6  -3   56.26    3.87
   7   6  -3   54.82    3.54
   7   6  -3   54.89    3.94
   6  -6  -3    4.65    1.58
   6  -6  -3    3.33    1.13
   6  -6  -3    4.84    1.43
   6  -6  -3    5.72    1.34
   6   6  -3    4.36    1.25
   6   6  -3    0.87    0.99
   6   6  -3    4.04    1.38
   6   6  -3    6.69    1.91
   5  -6  -3   72.47    4.51
   5  -6  -3   81.96    4.07
   5  -6  -3   79.90    3.81
   5  -6  -3   76.26    3.64
   5   6  -3   81.86    4.21
   5   6  -3   71.62    3.69
   5   6  -3   74.32    4.35
   5   6  -3   77.84    3.88
   4  -6  -3    1.12    1.07
   4  -6  -3   -0.20    0.55
   4  -6  -3   -0.67    0.55
   4  -6  -3   -0.22    0.56
   4   6  -3    1.19    0.78
   4   6  -3   -0.15    0.61
   4   6  -3    0.65    0.77
   4   6  -3    0.57    0.80
   3  -6  -3   82.87    3.57
   3  -6  -3   82.49    4.35
   3  -6  -3   77.69    3.97
   3  -6  -3   75.37    3.41
   3  -6  -3   81.33    3.74
   3   6  -3   82.54    4.03
   3   6  -3   79.15    3.92
   3   6  -3   81.45    3.65
   2  -6  -3    1.91    0.82
  -2  -6   3    0.49    0.70
   2  -6  -3    1.63    0.99
   2  -6  -3    0.29    0.58
  -2  -6   3    2.39    0.94
   2  -6  -3    1.41    0.71
   2  -6  -3    0.09    0.74
   2   6  -3    2.10    1.02
  -2   6   3    1.13    0.55
   2   6  -3    1.35    0.75
   2   6  -3    1.41    0.80
  -1  -6   3   12.61    1.91
  -1  -6   3   10.97    0.89
   1  -6  -3   15.43    1.70
  -1  -6   3    9.94    1.75
   1  -6  -3   11.81    1.76
   1  -6  -3   12.59    1.42
  -1  -6   3   13.35    1.64
   1  -6  -3   11.34    1.92
   1   6  -3   10.37    1.49
  -1   6   3   14.72    1.75
   1   6  -3   11.92    1.65
   1   6  -3   13.33    1.99
  -1   6   3   12.99    1.58
   0  -6  -3   10.86    1.84
   0  -6  -3   13.81    1.83
   0  -6   3   15.25    2.04
   0  -6   3   15.50    2.10
   0  -6   3   13.79    1.12
   0  -6   3   15.38    2.15
   0  -6   3   14.75    1.85
   0   6   3   16.72    1.84
   0   6  -3   18.27    1.91
   0   6  -3   14.05    1.78
   0   6   3   17.52    2.04
   0   6   3   15.08    0.64
   0   6  -3   17.59    2.28
  -1  -6  -3   16.05    1.97
   1  -6   3   16.73    2.10
   1  -6   3   15.52    2.08
   1  -6   3   15.85    2.09
  -1  -6  -3   18.68    2.33
   1  -6   3   20.89    2.20
   1   6   3   18.73    2.07
  -1   6  -3   19.04    2.06
  -1   6  -3   18.20    2.22
  -1   6  -3   18.83    1.47
   1   6   3   18.15    1.09
   1   6   3   19.27    2.16
   1   6   3   20.25    1.99
   2  -6   3    2.94    0.96
   2  -6   3    2.93    1.26
  -2  -6  -3    5.43    1.31
   2  -6   3    1.27    0.92
   2  -6   3    4.44    1.24
  -2  -6  -3    2.88    1.00
   2   6   3    2.56    0.96
   2   6   3    3.73    0.99
   2   6   3    3.39    1.05
  -2   6  -3    4.94    1.19
  -2   6  -3    3.59    0.76
   2   6   3    2.88    0.65
  -2   6  -3    2.25    0.98
   3  -6   3   63.55    3.85
  -3  -6  -3   70.52    2.63
  -3  -6  -3   64.26    3.67
   3  -6   3   65.70    3.84
   3  -6   3   61.66    3.58
   3  -6   3   65.79    3.48
  -3  -6  -3   69.36    3.55
  -3   6  -3   70.86    3.86
   3   6   3   66.88    3.27
   3   6   3   66.08    3.60
   3   6   3   65.97    2.80
   3   6   3   68.06    3.63
   4  -6   3    1.17    0.97
  -4  -6  -3    2.51    1.06
   4  -6   3    0.38    0.84
   4  -6   3    1.54    1.08
   4  -6   3    3.19    1.27
  -4   6  -3    2.54    1.03
   4   6   3    2.38    0.94
   4   6   3    2.41    1.01
   4   6   3    3.45    1.28
   4   6   3    0.68    0.86
   5  -6   3  100.19    5.20
   5  -6   3   95.38    4.58
   5  -6   3   85.76    4.63
   5  -6   3   88.07    4.90
  -5  -6  -3   94.90    4.63
   5   6   3   94.11    4.80
  -5   6  -3   97.65    4.79
   5   6   3   97.89    4.40
   5   6   3   95.67    4.83
   5   6   3   94.81    4.13
   6  -6   3    2.05    1.17
   6  -6   3    0.31    1.02
  -6  -6  -3    2.77    1.35
   6  -6   3    1.74    1.19
   6  -6   3   -0.21    0.85
   6   6   3    3.87    1.29
   6   6   3    2.40    1.19
   6   6   3    1.99    1.17
   6   6   3    3.00    1.31
   6  -7  -3    7.60    1.66
   6  -7  -3    8.46    2.38
   6  -7  -3    6.65    1.56
   6  -7  -3    6.28    1.79
   6   7  -3    3.64    1.67
   6   7  -3    6.41    1.61
   6   7  -3    5.15    1.64
   6   7  -3    8.52    1.95
   5  -7  -3    1.77    0.89
   5  -7  -3    1.51    1.13
   5  -7  -3    3.25    1.21
   5  -7  -3    1.46    1.16
   5   7  -3    3.24    1.53
   5   7  -3    2.82    1.30
   5   7  -3    2.49    1.16
   5   7  -3    2.26    1.07
   4  -7  -3   48.03    3.54
   4  -7  -3   44.38    3.12
   4  -7  -3   43.36    3.60
   4  -7  -3   46.75    3.03
   4  -7  -3   49.42    3.20
   4   7  -3   48.47    3.46
   4   7  -3   45.43    2.96
   4   7  -3   47.98    3.12
   4   7  -3   45.25    3.36
   3  -7  -3   88.82    4.33
   3  -7  -3   87.83    4.85
   3  -7  -3   78.64    3.79
  -3  -7   3   87.09    4.60
   3  -7  -3   86.78    4.49
   3  -7  -3   87.33    4.03
   3   7  -3   93.81    4.23
   3   7  -3   89.47    4.63
   3   7  -3   83.91    4.32
   2  -7  -3    0.22    0.58
   2  -7  -3   -0.82    0.71
   2  -7  -3   -0.04    0.65
   2  -7  -3   -0.22    0.62
   2  -7  -3    0.78    0.93
  -2  -7   3    0.21    0.73
   2   7  -3   -0.69    0.62
   2   7  -3    0.71    0.73
  -2   7   3   -0.10    0.49
   2   7  -3   -0.22    0.63
   1  -7  -3  120.11    5.48
   1  -7  -3  127.42    4.70
   1  -7  -3  116.59    4.10
   1  -7  -3  123.83    5.01
  -1  -7   3  112.33    4.95
  -1  -7   3  111.89    5.12
   1   7  -3  120.88    4.68
  -1   7   3  121.09    4.31
   1   7  -3  119.38    4.72
  -1   7   3  120.62    4.66
   1   7  -3  115.59    5.16
   0  -7  -3    0.12    0.68
   0  -7   3   -0.01    0.79
   0  -7   3    0.69    0.88
   0  -7   3   -0.31    0.60
   0  -7  -3    0.41    0.90
   0  -7   3    0.01    0.47
   0   7   3   -0.13    0.49
   0   7   3    0.97    0.74
   0   7  -3   -0.31    0.48
   0   7  -3    0.59    0.75
   0   7  -3   -0.30    0.70
   1  -7   3  135.27    5.13
   1  -7   3  137.14    5.52
  -1  -7  -3  142.32    5.23
   1  -7   3  135.15    5.77
   1  -7   3  132.83    4.11
  -1  -7  -3  138.15    5.82
   1  -7   3  132.31    5.56
  -1   7  -3  136.11    4.37
  -1   7  -3  141.14    5.15
   1   7   3  128.49    5.18
   1   7   3  136.76    5.08
  -1   7  -3  139.74    5.74
   2  -7   3    0.03    0.93
   2  -7   3    2.18    1.17
  -2  -7  -3    0.85    0.82
  -2  -7  -3    0.64    0.88
   2  -7   3    0.82    0.99
   2  -7   3    0.77    0.91
   2   7   3    1.54    0.58
   2   7   3    0.59    0.81
  -2   7  -3    1.19    0.86
   2   7   3    1.40    0.90
  -2   7  -3    1.98    0.87
   3  -7   3   53.49    3.59
   3  -7   3   55.00    3.81
  -3  -7  -3   51.20    3.64
   3  -7   3   52.94    3.69
   3  -7   3   54.58    3.42
  -3  -7  -3   53.51    3.34
   3   7   3   46.68    3.34
   3   7   3   53.51    3.54
  -3   7  -3   54.57    3.68
   3   7   3   51.94    2.56
  -4  -7  -3   27.03    2.99
   4  -7   3   22.62    2.65
   4  -7   3   34.84    3.87
   4  -7   3   29.80    3.38
   4  -7   3   33.95    3.66
   4   7   3   29.34    2.19
   4   7   3   31.68    3.45
   4   7   3   23.40    2.90
  -4   7  -3   33.75    3.63
   5  -7   3    0.29    1.02
   5  -7   3   -0.24    0.81
   5  -7   3   -0.36    0.82
  -5  -7  -3    0.54    0.91
   5  -7   3   -0.01    0.99
   5   7   3    1.56    1.12
   5   7   3    0.47    0.81
   5   7   3    0.92    0.98
   6  -7   3   13.83    2.68
  -6  -7  -3   20.56    2.89
   6  -7   3   17.82    2.73
   6  -7   3   22.05    3.38
   6  -7   3   13.87    2.65
   6   7   3   13.75    2.11
   6   7   3   15.99    2.73
   6   7   3   14.43    2.61
   5  -8  -3    1.87    1.28
   5  -8  -3    1.87    1.11
   5  -8  -3    0.87    1.05
   5  -8  -3    0.22    1.14
   5  -8  -3   -0.60    1.14
   5   8  -3    0.95    0.96
   5   8  -3    0.72    0.97
   5   8  -3    0.99    1.11
   5   8  -3    0.80    1.29
   4  -8  -3   10.60    2.35
   4  -8  -3    7.96    1.98
   4  -8  -3   10.66    1.91
   4  -8  -3    6.77    1.74
   4  -8  -3    8.61    1.71
   4   8  -3    9.29    1.66
   4   8  -3   12.27    2.36
   4   8  -3    6.40    1.60
   4   8  -3    7.86    1.91
   3  -8  -3   -0.09    0.99
   3  -8  -3   -0.47    0.69
   3  -8  -3    0.83    0.98
   3  -8  -3    0.11    0.79
   3  -8  -3    1.67    1.05
  -3  -8   3   -0.06    1.04
   3   8  -3    0.12    0.66
   3   8  -3   -0.63    0.77
   3   8  -3   -0.35    0.81
   3   8  -3    0.35    0.81
   2  -8  -3   10.17    1.92
  -2  -8   3   14.14    2.39
   2  -8  -3   16.44    2.33
   2  -8  -3   10.44    2.18
   2  -8  -3   11.75    1.78
   2   8  -3   14.81    2.21
   2   8  -3   10.17    2.24
   2   8  -3   10.55    1.87
   1  -8  -3    2.02    1.07
  -1  -8   3   -0.49    0.89
   1  -8  -3    1.23    1.15
  -1  -8   3    1.17    1.03
   1   8  -3   -0.59    0.71
  -1   8   3    0.25    0.65
   1   8  -3   -0.05    0.79
  -1   8   3   -0.41    0.66
   1   8  -3    0.90    0.92
   0  -8  -3   56.62    3.53
   0  -8  -3   50.01    3.75
   0  -8   3   56.99    3.97
   0  -8   3   59.62    3.85
   0   8   3   48.11    3.05
   0   8   3   52.08    3.42
   0   8  -3   52.04    3.03
   0   8  -3   52.13    3.73
   1  -8   3    3.73    1.58
  -1  -8  -3    6.30    1.74
   1  -8   3    3.60    1.32
   1  -8   3    5.86    1.66
  -1  -8  -3    5.11    1.49
  -1   8  -3    4.27    1.43
   1   8   3    4.48    1.44
   1   8   3    6.68    1.62
  -1   8  -3    4.53    1.13
   2  -8   3   21.42    2.17
  -2  -8  -3   23.75    3.21
   2  -8   3   24.12    3.15
   2  -8   3   27.51    3.47
  -2  -8  -3   26.50    2.87
   2  -8   3   23.63    2.94
  -2   8  -3   22.80    2.95
   2   8   3   19.80    2.64
   2   8   3   17.28    2.38
  -3  -8  -3    1.14    1.05
   3  -8   3    0.16    1.04
   3  -8   3    0.74    1.15
   3  -8   3    0.61    1.01
   3  -8   3   -0.70    0.97
  -3  -8  -3    0.78    1.02
   3   8   3   -0.76    0.78
  -3   8  -3   -0.13    0.98
   3   8   3    0.54    0.91
   4  -8   3   21.45    3.15
   4  -8   3   13.87    2.51
   4  -8   3   18.68    2.99
   4  -8   3   14.51    2.24
  -4  -8  -3   17.22    2.63
   4   8   3   13.76    2.35
  -4   8  -3   10.55    2.19
   4   8   3   16.29    2.75
   5  -8   3   -0.11    1.25
   5  -8   3    2.17    1.40
   5  -8   3    1.45    1.28
   5  -8   3   -0.34    0.94
  -5  -8  -3    1.48    1.01
   5   8   3    0.70    1.24
   5   8   3    1.30    1.59
   5   8   3    0.50    1.18
   3  -9  -3    7.28    2.01
   3  -9  -3    7.66    1.81
  -3  -9   3    5.95    1.97
   3  -9  -3    3.49    1.59
   3   9  -3    3.90    1.67
   3   9  -3    8.18    2.01
   2  -9  -3    1.63    1.40
   2  -9  -3   -0.94    0.84
  -2  -9   3    0.47    1.13
   2  -9  -3    1.95    1.15
   2   9  -3    1.04    1.14
   2   9  -3    2.21    1.23
  -1  -9   3   77.14    4.65
  -1  -9   3   65.74    4.49
   1  -9  -3   59.03    4.51
   1  -9  -3   67.67    4.22
   1   9  -3   68.39    3.96
   1   9  -3   62.57    4.50
  -1   9   3   63.06    3.50
   0  -9   3   -0.05    1.15
   0  -9   3   -0.47    0.93
   0  -9  -3    0.64    1.00
   0  -9  -3    0.91    1.13
   0   9  -3    1.39    1.12
   0   9   3    0.13    0.88
   0   9  -3    0.31    0.89
   0   9   3    0.27    0.95
  -1  -9  -3   58.17    4.42
   1  -9   3   66.53    4.39
   1  -9   3   55.05    4.09
  -1  -9  -3   55.02    3.74
   1  -9   3   54.96    4.29
   1   9   3   62.34    3.84
  -1   9  -3   57.58    4.23
   1   9   3   53.43    3.89
   2  -9   3    0.58    1.24
  -2  -9  -3   -0.03    1.09
   2  -9   3    0.40    1.15
   2  -9   3   -0.23    1.06
  -2  -9  -3   -0.19    0.92
  -2   9  -3    0.14    0.95
   2   9   3   -0.69    0.88
   2   9   3   -0.13    0.96
   3  -9   3   19.17    2.99
  -3  -9  -3   12.51    2.27
   3  -9   3   25.01    3.47
  -3  -9  -3   14.84    2.77
   3  -9   3   18.38    3.26
   3   9   3   12.72    2.32
   3   9   3   17.93    2.95
  -3   9  -3   13.93    2.61
   8   0  -4   46.83    3.22
   8   0  -4   51.10    2.36
   8   0  -4   55.36    3.77
   7   0  -4    0.38    0.65
   7   0  -4    0.00    0.36
   7   0  -4    0.42    0.42
   7   0  -4   -0.19    0.67
   7   0  -4    0.60    0.74
   6   0  -4    2.72    0.92
   6   0  -4    3.04    0.91
   6   0  -4    3.23    0.55
   6   0  -4    2.48    0.54
   5   0  -4   -0.28    0.42
   5   0  -4    0.19    0.12
   5   0  -4    0.31    0.51
   5   0  -4    0.37    0.22
   4   0  -4   17.76    0.67
   4   0  -4   17.81    0.68
   4   0  -4   19.68    1.58
   4   0  -4   17.48    0.60
   3   0  -4   -0.01    0.11
   3   0  -4   -0.20    0.08
   2   0  -4  201.60    3.18
   2   0  -4  196.98    4.48
   2   0  -4  200.63    3.52
   1   0  -4    0.19    0.23
   1   0  -4    0.13    0.24
   1   0  -4    0.74    0.40
   1   0  -4   -0.34    0.14
  -1   0   4    0.20    0.22
   0   0   4  960.48   15.24
   0   0  -4  982.47   15.05
   0   0   4  970.33   15.21
   0   0  -4  992.92   15.22
   0   0  -4  996.76   15.34
   0   0   4 1000.00   14.94
   0   0  -4  928.72   15.64
   0   0   4  977.22   14.96
   0   0  -4  961.07   15.04
  -1   0  -4    0.17    0.26
  -1   0  -4    0.46    0.38
  -1   0  -4    0.25    0.36
   1   0   4   -0.22    0.32
   1   0   4   -0.19    0.15
   1   0   4    0.19    0.31
  -1   0  -4   -0.03    0.28
   1   0   4    0.02    0.38
   1   0   4   -0.02    0.27
   2   0   4  250.25    5.51
  -2   0  -4  251.34    5.58
   2   0   4  231.53    5.14
   2   0   4  238.75    5.60
  -2   0  -4  240.12    5.17
   2   0   4  242.57    5.07
  -2   0  -4  247.10    5.65
   3   0   4    0.14    0.38
   3   0   4   -0.22    0.38
  -3   0  -4    0.27    0.49
  -3   0  -4    0.82    0.51
   3   0   4    0.60    0.45
   3   0   4    0.47    0.51
   4   0   4  152.67    4.47
   4   0   4  149.26    4.39
  -4   0  -4  159.72    4.85
   4   0   4  151.08    4.84
   4   0   4  153.89    4.56
  -5   0  -4   -0.46    0.49
   5   0   4    0.13    0.57
   5   0   4   -0.11    0.40
   5   0   4   -0.34    0.44
   5   0   4    0.30    0.57
   5   0   4   -0.46    0.56
   6   0   4   28.34    2.18
   6   0   4   28.47    2.39
  -6   0  -4   29.87    2.24
   6   0   4   30.85    2.32
   6   0   4   30.52    1.87
   6   0   4   29.67    2.36
   7   0   4    0.01    0.68
   7   0   4   -0.47    0.78
   7   0   4    0.54    0.73
   7   0   4    0.21    0.77
   8   0   4   45.97    3.53
   8   0   4   44.95    3.22
   8   0   4   48.42    3.57
   8   0   4   42.78    3.29
   8  -1  -4    9.59    1.19
   8  -1  -4   12.74    2.21
   8  -1  -4   10.06    1.76
   8   1  -4    8.56    1.85
   8   1  -4   10.00    1.32
   8   1  -4    8.65    1.56
   8   1  -4    8.73    2.09
   8   1  -4   10.62    1.82
   7  -1  -4    5.05    0.82
   7  -1  -4    6.24    0.89
   7  -1  -4    2.87    1.16
   7  -1  -4    5.77    1.27
   7  -1  -4    5.21    1.30
   7   1  -4    6.14    1.01
   7   1  -4    5.45    1.40
   7   1  -4    2.77    1.10
   7   1  -4    5.53    0.90
   6  -1  -4   22.35    1.76
   6  -1  -4   23.97    1.15
   6  -1  -4   24.40    1.80
   6  -1  -4   24.57    2.54
   6  -1  -4   23.38    1.20
   6   1  -4   23.07    1.36
   6   1  -4   21.03    2.25
   6   1  -4   23.03    2.32
   6   1  -4   23.75    1.32
   5  -1  -4   55.73    2.48
   5  -1  -4   52.58    1.50
   5  -1  -4   52.98    2.75
   5  -1  -4   51.72    1.42
   5  -1  -4   55.64    2.58
   5   1  -4   55.13    2.88
   5   1  -4   52.77    1.78
   5   1  -4   54.28    2.73
   5   1  -4   54.20    1.87
   4   1  -4  124.55    2.91
   4   1  -4  130.36    4.34
   4   1  -4  125.46    2.79
   4   1  -4  130.64    3.33
   4   1  -4  128.18    2.98
   3   1  -4   86.05    2.50
   3   1  -4   83.88    2.15
   3   1  -4   85.69    2.17
   3   1  -4   83.63    2.03
   3   1  -4   82.66    3.20
   2  -1  -4   10.16    0.50
   2  -1  -4   10.96    0.39
   2  -1  -4    9.45    0.37
   2   1  -4   10.56    0.76
   2   1  -4    9.66    0.63
   2   1  -4   11.13    0.75
   2   1  -4   10.86    0.82
   1  -1  -4  166.77    3.09
  -1  -1   4  160.88    2.99
   1  -1  -4  154.26    3.49
   1  -1  -4  147.99    3.79
   1  -1  -4  166.62    3.32
  -1  -1   4  164.40    3.57
   1   1  -4  159.32    3.09
   1   1  -4  164.96    3.70
   1   1  -4  153.96    3.73
   1   1  -4  167.10    3.17
  -1   1   4  163.31    3.10
   1   1  -4  158.31    3.43
   0  -1   4   20.47    0.96
   0  -1  -4   22.65    0.74
   0  -1   4   23.01    1.32
   0  -1   4   23.31    1.32
   0  -1  -4   24.01    1.06
   0  -1  -4   23.91    0.97
   0  -1  -4   21.10    1.12
   0  -1  -4   22.57    1.28
   0  -1  -4   22.00    1.35
   0   1  -4   22.22    1.35
   0   1  -4   22.53    1.19
   0   1  -4   22.50    1.27
   0   1  -4   21.75    0.59
   0   1   4   22.11    1.12
   0   1   4   23.97    0.98
   0   1  -4   21.73    0.95
   0   1   4   22.77    0.98
   1  -1   4  111.92    3.02
   1  -1   4  113.18    2.25
  -1  -1  -4  114.41    3.21
   1  -1   4  108.32    3.25
  -1  -1  -4  115.26    2.27
  -1  -1  -4  111.99    3.19
   1  -1   4  109.64    3.27
  -1  -1  -4  111.19    2.90
   1  -1   4  108.41    3.17
   1   1   4  110.24    2.84
   1   1   4  111.42    3.13
   1   1   4  113.97    2.65
  -1   1  -4  108.89    2.99
  -1   1  -4  117.01    3.44
   1   1   4  110.10    3.04
   1   1   4  110.36    2.38
  -1   1  -4  110.14    2.88
   2  -1   4    1.56    0.56
   2  -1   4    1.48    0.47
   2  -1   4    2.37    0.64
   2  -1   4    1.70    0.58
  -2  -1  -4    2.21    0.60
  -2  -1  -4    1.21    0.41
  -2  -1  -4    1.18    0.54
  -2   1  -4    1.26    0.49
   2   1   4    1.72    0.59
   2   1   4    1.30    0.45
   2   1   4    1.12    0.38
   2   1   4    0.62    0.41
  -2   1  -4    0.89    0.50
   3  -1   4   25.51    1.58
   3  -1   4   24.71    1.63
  -3  -1  -4   21.11    1.53
   3  -1   4   23.61    1.72
  -3  -1  -4   21.06    1.61
   3  -1   4   23.79    1.63
   3   1   4   24.92    1.52
  -3   1  -4   24.67    1.82
   3   1   4   22.90    1.53
   3   1   4   24.28    1.70
   3   1   4   24.18    1.51
   3   1   4   22.82    1.39
  -4  -1  -4  134.79    4.30
   4  -1   4  139.00    4.42
   4  -1   4  134.26    4.20
   4  -1   4  139.09    4.37
  -4  -1  -4  140.89    4.76
   4  -1   4  136.77    4.63
   4   1   4  134.93    4.05
   4   1   4  143.61    4.22
   4   1   4  141.15    4.40
   4   1   4  140.33    4.09
  -4   1  -4  141.54    4.69
   4   1   4  136.60    4.61
   5  -1   4   14.19    1.81
  -5  -1  -4   15.18    1.75
   5  -1   4   18.03    1.99
   5  -1   4   17.49    1.79
   5  -1   4   13.24    1.64
   5   1   4   16.17    1.91
  -5   1  -4   14.62    1.84
   5   1   4   20.36    1.72
   5   1   4   20.63    2.24
   5   1   4   16.97    1.73
   5   1   4   16.57    1.81
   6  -1   4    9.77    1.61
   6  -1   4    7.25    1.47
   6  -1   4    8.77    1.51
   6  -1   4    5.56    1.41
  -6  -1  -4    6.73    1.32
   6   1   4    5.81    1.22
  -6   1  -4    6.36    1.43
   6   1   4    5.50    1.24
   6   1   4    7.94    1.57
   6   1   4    8.16    1.46
   6   1   4    8.41    1.37
   7  -1   4    0.82    0.86
   7  -1   4    2.49    1.11
   7  -1   4    0.01    0.80
   7  -1   4    2.00    1.15
   7   1   4    2.78    0.92
   7   1   4    0.21    0.85
   7   1   4    1.38    1.02
   7   1   4    1.51    0.91
   7   1   4    0.79    0.94
   8  -1   4   31.38    3.18
   8  -1   4   28.68    3.34
   8  -1   4   33.59    3.70
   8  -1   4   27.43    2.85
   8   1   4   28.64    3.32
   8   1   4   28.38    3.10
   8   1   4   28.87    3.22
   8   1   4   29.65    3.01
   8  -2  -4    3.33    1.14
   8  -2  -4    2.61    1.39
   8  -2  -4    3.29    0.83
   8   2  -4    4.61    1.52
   8   2  -4    2.87    0.88
   8   2  -4    5.85    1.51
   8   2  -4    4.85    1.07
   7  -2  -4   58.30    2.96
   7  -2  -4   57.84    3.55
   7  -2  -4   53.48    2.24
   7  -2  -4   60.19    2.33
   7   2  -4   58.31    2.65
   7   2  -4   63.41    3.62
   7   2  -4   58.28    2.56
   7   2  -4   60.13    3.49
   6  -2  -4    6.21    1.35
   6  -2  -4    7.70    0.86
   6  -2  -4    9.40    1.30
   6  -2  -4    7.56    0.93
   6  -2  -4    9.28    1.25
   6   2  -4    7.35    0.98
   6   2  -4    8.09    1.10
   6   2  -4    8.31    1.64
   6   2  -4    8.73    1.50
   5  -2  -4   90.12    3.14
   5  -2  -4   90.29    2.40
   5  -2  -4   90.34    3.62
   5  -2  -4   89.01    2.29
   5  -2  -4   88.84    3.08
   5   2  -4   93.88    2.45
   5   2  -4   95.66    2.83
   5   2  -4   89.28    3.95
   5   2  -4   93.63    2.96
   5   2  -4   91.02    3.75
   4  -2  -4   11.57    0.63
   4  -2  -4    9.41    1.21
   4  -2  -4   12.28    0.99
   4  -2  -4   11.05    0.66
   4  -2  -4   12.70    0.70
   4   2  -4   10.25    0.94
   4   2  -4   12.32    0.94
   4   2  -4   14.90    0.84
   4   2  -4    9.60    1.43
   4   2  -4   10.00    1.00
   3  -2  -4   43.31    1.17
   3  -2  -4   39.85    1.81
   3  -2  -4   41.97    2.22
   3  -2  -4   41.96    1.24
   3  -2  -4   44.10    1.35
   3  -2  -4   43.86    1.35
   3   2  -4   41.45    1.66
   3   2  -4   43.94    1.78
   3   2  -4   42.77    1.48
   3   2  -4   45.91    1.61
   3   2  -4   44.06    1.75
   3   2  -4   43.66    1.59
   3   2  -4   36.09    2.24
   2  -2  -4  109.78    2.32
   2  -2  -4  110.62    3.44
   2  -2  -4  108.03    2.38
   2  -2  -4  111.65    2.55
  -2  -2   4  112.98    2.89
   2  -2  -4  110.84    2.74
   2   2  -4  113.47    2.92
   2   2  -4  111.05    3.12
  -2   2   4  110.87    2.02
   2   2  -4  110.64    2.94
   2   2  -4  113.14    2.84
   2   2  -4  110.26    2.13
   2   2  -4  103.62    3.07
   2   2  -4  111.16    3.69
  -2   2   4  108.08    2.10
  -1  -2   4   10.22    0.76
   1  -2  -4    8.85    1.06
   1  -2  -4   12.01    1.24
   1  -2  -4    9.07    0.75
   1  -2  -4    8.46    0.52
   1  -2  -4   10.01    0.71
   1  -2  -4   11.47    0.80
  -1  -2   4    9.54    1.03
  -1   2   4   10.24    0.71
  -1   2   4   10.21    0.52
   1   2  -4   10.51    1.14
   1   2  -4   11.79    0.93
   1   2  -4   11.35    0.95
   1   2  -4   10.46    1.14
   1   2  -4    8.03    0.72
   0  -2  -4   42.54    1.72
   0  -2  -4   42.25    1.58
   0  -2   4   40.05    1.38
   0  -2   4   38.74    1.92
   0  -2   4   38.13    1.94
   0  -2  -4   39.23    1.44
   0  -2  -4   43.24    1.97
   0  -2  -4   37.62    1.81
   0  -2   4   39.27    1.19
   0  -2   4   38.09    1.68
   0  -2  -4   40.63    1.68
   0   2  -4   39.44    1.77
   0   2  -4   41.00    1.42
   0   2   4   39.46    1.41
   0   2   4   43.27    1.95
   0   2   4   41.90    1.60
   0   2  -4   43.18    1.96
   0   2   4   38.87    1.63
  -1  -2  -4   13.28    0.97
   1  -2   4   15.57    1.57
   1  -2   4   12.28    0.84
  -1  -2  -4   12.60    0.93
  -1  -2  -4   11.32    0.99
   1  -2   4   11.56    0.88
  -1  -2  -4   14.45    1.21
   1  -2   4   13.62    1.49
   1  -2   4   13.55    1.11
  -1   2  -4   13.14    1.11
   1   2   4   12.75    1.09
   1   2   4   13.21    0.51
  -1   2  -4   10.74    1.28
   1   2   4   12.72    0.94
   1   2   4   12.01    0.96
  -2  -2  -4  191.32    5.04
   2  -2   4  197.90    5.17
   2  -2   4  187.69    4.71
  -2  -2  -4  164.65    5.38
   2  -2   4  195.55    4.31
   2  -2   4  194.41    4.87
  -2  -2  -4  182.49    4.51
   2  -2   4  190.13    5.17
   2   2   4  188.17    4.86
   2   2   4  193.87    3.80
   2   2   4  188.07    4.92
   2   2   4  190.29    4.52
   2   2   4  187.35    4.50
   3  -2   4  141.63    4.17
   3  -2   4  144.03    4.64
   3  -2   4  138.26    4.13
  -3  -2  -4  140.04    3.93
  -3  -2  -4  137.70    4.40
   3  -2   4  141.04    3.86
   3  -2   4  140.38    4.41
   3   2   4  141.45    4.10
   3   2   4  147.09    4.28
   3   2   4  135.20    4.37
  -3   2  -4  137.74    4.62
   3   2   4  145.20    4.05
   3   2   4  137.40    3.54
   4  -2   4    9.80    1.48
   4  -2   4    9.09    1.45
   4  -2   4    8.77    1.33
  -4  -2  -4    8.32    1.20
  -4  -2  -4    7.91    1.35
   4  -2   4    6.52    1.12
   4   2   4    8.51    1.24
   4   2   4    8.27    1.40
   4   2   4    8.66    1.29
   4   2   4    8.41    1.16
   4   2   4    9.58    1.31
  -4   2  -4    8.24    1.48
   5  -2   4  114.29    4.48
   5  -2   4  114.20    4.20
   5  -2   4  107.94    4.11
  -5  -2  -4  110.93    4.69
   5  -2   4  114.69    4.64
  -5  -2  -4  113.69    3.89
   5   2   4  115.75    4.03
   5   2   4  114.94    4.55
   5   2   4  110.99    4.08
   5   2   4  108.13    4.20
   5   2   4  115.19    4.14
  -5   2  -4  120.17    4.74
  -6  -2  -4    7.74    1.28
   6  -2   4    8.24    1.60
   6  -2   4   10.41    1.84
   6  -2   4    7.99    1.48
   6  -2   4    8.11    1.53
   6   2   4    6.98    1.30
   6   2   4   11.42    1.93
   6   2   4    7.12    1.36
  -6   2  -4    7.69    1.59
   6   2   4    7.68    1.50
   6   2   4   10.71    1.65
   7  -2   4   18.45    2.52
   7  -2   4   18.20    2.53
   7  -2   4   22.28    2.59
   7  -2   4   27.87    2.81
   7   2   4   23.27    2.42
   7   2   4   19.77    2.49
   7   2   4   24.64    2.93
   7   2   4   19.45    2.40
   7   2   4   24.74    2.57
   8  -2   4    0.75    1.18
   8  -2   4    0.24    1.03
   8  -2   4    0.29    1.08
   8  -2   4    0.25    0.95
   8   2   4   -0.32    0.79
   8   2   4    0.38    1.03
   8   2   4    0.04    0.86
   8   2   4    0.56    1.02
   8  -3  -4   30.42    2.04
   8  -3  -4   32.56    3.49
   8  -3  -4   29.60    3.58
   8   3  -4   38.52    3.30
   8   3  -4   35.10    2.37
   8   3  -4   31.86    2.39
   8   3  -4   33.57    3.39
   7  -3  -4    0.84    0.58
   7  -3  -4    1.03    0.75
   7  -3  -4    0.05    0.89
   7  -3  -4    1.50    0.65
   7  -3  -4    1.09    0.98
   7   3  -4    0.70    0.57
   7   3  -4    2.39    1.17
   7   3  -4    2.00    0.82
   7   3  -4    2.97    1.27
   6  -3  -4  114.87    4.61
   6  -3  -4  113.39    3.38
   6  -3  -4  115.78    3.42
   6  -3  -4  110.79    5.14
   6  -3  -4  115.05    3.77
   6   3  -4  123.59    3.86
   6   3  -4  124.84    4.87
   6   3  -4  115.69    3.96
   6   3  -4  117.00    5.00
   5  -3  -4    7.49    0.91
   5  -3  -4    6.11    0.90
   5  -3  -4    7.77    1.28
   5  -3  -4    6.72    1.49
   5  -3  -4    7.75    0.90
   5  -3  -4    6.86    0.87
   5   3  -4    7.35    1.51
   5   3  -4    6.29    1.26
   5   3  -4    4.99    0.98
   5   3  -4    6.77    1.02
   4  -3  -4  115.87    4.52
   4  -3  -4  127.06    3.14
   4  -3  -4  121.34    3.14
   4  -3  -4  121.34    3.17
   4  -3  -4  120.76    2.95
   4  -3  -4  122.41    3.89
   4   3  -4  120.24    3.55
   4   3  -4  122.96    2.72
   4   3  -4  110.89    4.46
   4   3  -4  124.64    3.85
   4   3  -4  120.00    3.45
   3  -3  -4    3.84    0.61
   3  -3  -4    1.26    0.42
   3  -3  -4    1.36    0.39
   3  -3  -4    1.73    0.47
   3  -3  -4    1.42    0.39
   3  -3  -4    1.20    0.47
   3  -3  -4    1.70    0.76
   3   3  -4    1.21    0.53
   3   3  -4    2.75    0.45
   3   3  -4    1.43    0.79
  -3   3   4    1.95    0.27
   3   3  -4    1.78    0.63
   3   3  -4    1.19    0.49
   3   3  -4    1.23    0.42
   3   3  -4    1.75    0.36
   2  -3  -4  190.82    5.23
  -2  -3   4  198.72    4.76
   2  -3  -4  184.89    3.94
   2  -3  -4  190.78    5.26
   2  -3  -4  184.10    4.05
   2  -3  -4  196.03    4.29
   2  -3  -4  191.76    4.12
   2   3  -4  182.45    4.91
   2   3  -4  189.28    4.30
   2   3  -4  188.98    4.51
   2   3  -4  190.54    5.37
  -2   3   4  187.51    3.84
   2   3  -4  194.90    4.92
   2   3  -4  191.87    4.67
   1  -3  -4   73.54    1.79
   1  -3  -4   72.92    2.41
   1  -3  -4   69.67    2.15
  -1  -3   4   70.67    2.75
   1  -3  -4   74.44    2.90
   1  -3  -4   68.36    1.79
  -1  -3   4   69.61    2.43
  -1  -3   4   69.20    2.33
  -1   3   4   74.16    1.89
   1   3  -4   67.07    2.76
   1   3  -4   70.54    2.54
   1   3  -4   69.02    2.52
   1   3  -4   70.91    2.61
   1   3  -4   68.54    2.81
  -1   3   4   75.66    2.32
   0  -3   4    6.63    0.49
   0  -3   4    6.80    1.16
   0  -3   4    6.95    1.12
   0  -3  -4    6.98    0.57
   0  -3  -4    8.24    1.17
   0  -3  -4    7.65    1.19
   0  -3  -4    7.47    0.88
   0  -3   4    6.68    0.87
   0  -3   4    7.21    0.99
   0   3  -4    8.00    1.22
   0   3  -4    8.29    1.13
   0   3  -4    6.07    1.00
   0   3  -4    6.36    0.97
   0   3   4    6.15    0.84
   0   3   4    6.31    0.75
   0   3   4    7.23    0.78
   1  -3   4   39.83    2.26
   1  -3   4   39.75    1.80
  -1  -3  -4   36.95    1.84
  -1  -3  -4   37.45    1.76
  -1  -3  -4   35.11    2.03
   1  -3   4   40.27    2.31
   1  -3   4   37.81    1.96
   1  -3   4   37.37    1.99
  -1  -3  -4   39.07    1.93
   1   3   4   37.82    1.61
   1   3   4   39.67    1.75
   1   3   4   37.04    1.93
  -1   3  -4   38.65    2.02
   1   3   4   35.28    1.97
   1   3   4   38.11    1.06
  -1   3  -4   41.64    2.24
  -2  -3  -4   55.81    2.24
   2  -3   4   55.87    2.80
  -2  -3  -4   55.94    2.62
  -2  -3  -4   54.44    2.38
   2  -3   4   56.93    2.83
   2  -3   4   55.26    2.49
   2  -3   4   56.26    2.32
   2  -3   4   58.95    2.52
   2   3   4   58.40    2.34
   2   3   4   53.24    2.55
   2   3   4   52.25    2.49
   2   3   4   59.64    2.26
   3  -3   4    4.96    0.99
   3  -3   4    5.83    1.24
   3  -3   4    6.29    1.09
  -3  -3  -4    4.85    1.07
   3  -3   4    6.11    1.22
  -3  -3  -4    5.92    0.91
   3  -3   4    6.53    1.10
  -3   3  -4    6.98    0.80
   3   3   4    6.74    1.04
   3   3   4    5.90    0.82
   3   3   4    7.05    1.10
   3   3   4    6.02    1.14
  -3   3  -4    8.32    1.44
   3   3   4    6.35    1.23
   4  -3   4   53.76    2.75
   4  -3   4   50.57    3.01
   4  -3   4   49.61    2.56
   4  -3   4   52.19    2.65
   4  -3   4   48.25    2.89
  -4  -3  -4   48.21    2.30
  -4  -3  -4   47.92    2.87
   4   3   4   51.47    2.79
  -4   3  -4   47.79    2.98
   4   3   4   53.41    2.64
   4   3   4   50.46    2.28
   4   3   4   48.31    2.53
   4   3   4   58.28    3.06
   5  -3   4    2.97    0.92
  -5  -3  -4    4.21    0.93
   5  -3   4    2.51    0.95
   5  -3   4    3.85    1.23
   5  -3   4    3.55    1.13
  -5  -3  -4    3.85    1.23
   5  -3   4    4.63    1.12
   5   3   4    4.57    1.17
   5   3   4    2.50    0.87
   5   3   4    2.59    0.82
   5   3   4    3.16    1.05
  -5   3  -4    3.22    1.14
   5   3   4    3.85    1.07
   6  -3   4  185.18    6.57
   6  -3   4  175.32    5.96
   6  -3   4  178.63    6.15
   6  -3   4  177.98    6.62
   6  -3   4  179.47    5.83
  -6  -3  -4  179.48    6.59
   6   3   4  181.30    6.08
   6   3   4  168.43    5.54
   6   3   4  175.81    6.33
   6   3   4  174.34    5.76
   6   3   4  175.84    5.94
   7  -3   4   19.64    2.76
   7  -3   4   18.51    2.46
   7  -3   4   18.59    2.51
   7  -3   4   16.75    2.41
   7  -3   4   22.32    2.80
   7   3   4   16.38    2.17
   7   3   4   18.92    2.54
   7   3   4   20.24    2.47
   7   3   4   22.77    2.98
   7   3   4   21.38    2.58
   8  -3   4   49.90    3.58
   8  -3   4   58.25    4.10
   8  -3   4   50.08    4.02
   8  -3   4   53.02    4.10
   8  -3   4   50.94    3.68
   8   3   4   54.08    3.67
   8   3   4   51.04    3.79
   8   3   4   48.78    3.60
   8   3   4   58.77    4.11
   8   3   4   52.63    3.45
   7  -4  -4   44.63    3.28
   7  -4  -4   40.09    2.33
   7  -4  -4   44.86    3.74
   7  -4  -4   40.07    2.23
   7   4  -4   42.25    2.60
   7   4  -4   38.59    3.18
   7   4  -4   41.47    3.38
   7   4  -4   39.05    2.68
   6  -4  -4    1.02    1.07
   6  -4  -4    1.19    0.65
   6  -4  -4    1.38    0.59
   6  -4  -4    0.35    0.73
   6   4  -4    2.55    0.93
   6   4  -4    0.57    0.61
   6   4  -4    4.42    1.26
   6   4  -4   -0.40    0.80
   5  -4  -4   20.22    1.52
   5  -4  -4   22.56    1.57
   5  -4  -4   19.87    1.47
   5  -4  -4   21.47    2.28
   5  -4  -4   21.38    2.73
   5   4  -4   21.29    1.84
   5   4  -4   19.44    1.87
   5   4  -4   22.11    2.32
   5   4  -4   17.33    2.26
   4  -4  -4    6.00    0.67
   4  -4  -4    4.47    0.84
   4  -4  -4    5.49    1.05
   4  -4  -4    6.89    1.01
   4  -4  -4    7.36    1.55
   4  -4  -4    7.07    0.93
   4   4  -4    6.72    1.09
   4   4  -4    4.84    1.22
   4   4  -4    5.59    1.15
   3  -4  -4   15.99    1.12
   3  -4  -4   11.14    1.64
   3  -4  -4   13.53    1.22
   3  -4  -4   14.78    1.24
   3  -4  -4   17.42    1.86
   3  -4  -4   12.35    0.67
   3  -4  -4   13.94    1.19
   3   4  -4   11.31    1.32
  -3   4   4   13.03    0.90
   3   4  -4   10.02    1.59
   3   4  -4   14.98    1.76
   3   4  -4   10.55    1.27
   3   4  -4   12.79    0.88
   2  -4  -4   33.08    1.57
   2  -4  -4   29.34    1.67
   2  -4  -4   32.72    2.28
   2  -4  -4   28.58    1.58
   2  -4  -4   27.06    1.45
   2  -4  -4   29.11    2.08
  -2  -4   4   30.95    1.98
  -2   4   4   30.60    1.51
   2   4  -4   29.14    2.01
   2   4  -4   35.77    1.96
   2   4  -4   30.41    1.87
   2   4  -4   31.53    2.14
   2   4  -4   30.99    1.54
  -1  -4   4   24.07    1.51
   1  -4  -4   23.44    0.70
  -1  -4   4   21.79    1.74
   1  -4  -4   21.20    1.83
   1  -4  -4   23.59    1.78
   1  -4  -4   22.50    1.17
   1  -4  -4   22.49    1.35
  -1  -4   4   21.09    1.53
  -1   4   4   22.41    1.01
  -1   4   4   20.78    1.38
   1   4  -4   20.98    1.65
   1   4  -4   23.76    1.87
   1   4  -4   25.02    1.58
   1   4  -4   23.90    1.77
  -1   4   4   24.18    1.20
   1   4  -4   21.74    1.56
   0  -4   4   28.46    1.04
   0  -4  -4   30.42    1.62
   0  -4  -4   30.78    1.08
   0  -4  -4   26.05    1.91
   0  -4  -4   28.61    1.97
   0  -4   4   29.67    1.79
   0  -4   4   28.57    1.82
   0  -4   4   29.84    2.14
   0  -4   4   27.42    1.98
   0   4  -4   30.75    1.87
   0   4  -4   30.70    1.91
   0   4   4   26.73    1.75
   0   4   4   29.55    0.98
   0   4  -4   27.69    1.76
   0   4  -4   31.88    1.89
   0   4   4   28.50    1.72
   0   4   4   28.68    1.21
   1  -4   4   58.42    2.66
   1  -4   4   52.71    2.47
  -1  -4  -4   53.05    2.66
   1  -4   4   51.81    2.85
   1  -4   4   52.80    2.90
  -1  -4  -4   57.06    2.38
  -1  -4  -4   58.63    2.76
  -1   4  -4   54.19    2.87
   1   4   4   50.87    2.55
   1   4   4   49.98    2.17
   1   4   4   53.28    1.94
  -1   4  -4   53.96    2.58
  -1   4  -4   50.47    2.20
   1   4   4   53.71    1.62
   1   4   4   57.85    2.63
  -1   4  -4   51.56    2.65
   2  -4   4  117.11    4.02
  -2  -4  -4  115.84    3.48
  -2  -4  -4  107.32    3.92
  -2  -4  -4  117.18    4.14
   2  -4   4  115.70    4.48
   2  -4   4  101.02    4.20
   2  -4   4  109.71    3.78
  -2   4  -4  110.14    4.34
   2   4   4  106.92    3.53
  -2   4  -4  113.14    3.93
   2   4   4  105.00    3.92
   2   4   4  107.53    3.95
   2   4   4  105.79    3.27
  -2   4  -4  110.83    3.11
   3  -4   4    7.47    1.23
   3  -4   4    6.96    1.25
   3  -4   4   12.01    1.66
  -3  -4  -4    6.34    1.00
   3  -4   4    5.20    1.19
   3  -4   4    8.05    1.57
  -3  -4  -4    7.88    1.47
   3   4   4    6.93    1.12
  -3   4  -4    6.97    1.21
   3   4   4    6.82    1.27
   3   4   4    6.79    1.29
  -3   4  -4    5.71    1.23
  -3   4  -4    6.11    0.75
   3   4   4    7.66    1.21
  -3   4  -4    5.77    1.38
   4  -4   4   42.80    2.97
   4  -4   4   41.70    2.39
   4  -4   4   41.42    2.58
  -4  -4  -4   44.28    2.83
   4  -4   4   38.26    2.79
  -4  -4  -4   44.22    2.12
   4  -4   4   40.97    2.59
   4   4   4   36.97    2.53
   4   4   4   44.08    2.83
   4   4   4   37.65    2.35
  -4   4  -4   38.82    2.83
  -4   4  -4   37.48    2.81
   4   4   4   41.85    2.40
   5  -4   4   21.90    2.59
  -5  -4  -4   22.64    2.65
   5  -4   4   21.03    2.38
   5  -4   4   20.27    2.12
   5  -4   4   20.59    2.36
   5  -4   4   22.80    2.83
   5   4   4   24.05    2.78
   5   4   4   26.05    2.74
   5   4   4   20.08    1.72
   5   4   4   21.90    2.23
   5   4   4   21.71    2.20
  -5   4  -4   20.59    2.54
   6  -4   4    8.70    1.81
  -6  -4  -4   10.41    2.02
   6  -4   4    5.48    1.35
   6  -4   4    8.95    1.67
   6  -4   4    9.74    1.94
   6  -4   4   10.02    2.10
   6   4   4    8.75    1.62
   6   4   4   12.46    1.83
   6   4   4   12.55    2.04
   6   4   4    7.78    1.67
  -6   4  -4    7.06    1.62
   6   4   4   11.50    1.69
   7  -4   4   60.51    4.24
   7  -4   4   62.06    3.62
   7  -4   4   67.99    4.00
   7  -4   4   67.43    4.18
   7  -4   4   61.98    4.30
   7   4   4   63.78    3.65
   7   4   4   69.53    4.09
   7   4   4   66.51    3.81
   7   4   4   59.41    3.80
   7   4   4   65.42    4.16
   7  -5  -4   -1.15    0.89
   7  -5  -4   -0.32    0.58
   7  -5  -4   -1.07    0.79
   7  -5  -4    0.38    0.60
   7   5  -4    0.24    0.82
   7   5  -4    0.21    0.93
   7   5  -4    0.50    1.05
   7   5  -4    0.20    0.73
   6  -5  -4    8.18    2.09
   6  -5  -4   13.54    2.07
   6  -5  -4   10.90    1.50
   6  -5  -4    7.44    1.28
   6   5  -4    8.83    2.00
   6   5  -4    8.46    1.56
   6   5  -4    9.07    1.53
   6   5  -4   10.86    2.01
   5  -5  -4    8.41    1.51
   5  -5  -4    6.81    1.18
   5  -5  -4    7.28    1.78
   5  -5  -4    7.79    1.24
   5   5  -4    5.60    1.39
   5   5  -4    8.38    1.46
   5   5  -4    8.97    1.58
   5   5  -4    8.17    1.77
   4  -5  -4   11.68    1.47
   4  -5  -4   14.19    1.65
   4  -5  -4   16.01    2.36
   4  -5  -4   13.07    1.64
   4   5  -4   13.52    1.89
   4   5  -4   12.36    1.98
   4   5  -4   16.35    1.90
   3  -5  -4  188.94    5.12
   3  -5  -4  188.92    5.08
   3  -5  -4  191.53    6.51
   3  -5  -4  183.51    6.13
   3  -5  -4  197.44    5.40
   3   5  -4  178.54    5.79
   3   5  -4  178.61    6.04
   3   5  -4  195.64    5.58
   2  -5  -4    0.80    0.55
  -2  -5   4    1.18    0.68
   2  -5  -4    1.49    0.65
   2  -5  -4    2.46    0.98
   2  -5  -4    1.66    0.90
   2  -5  -4    1.79    0.57
  -2  -5   4    1.25    0.74
   2   5  -4    3.35    0.60
  -2   5   4    1.96    0.62
   2   5  -4    1.61    0.79
   2   5  -4    2.00    0.78
   2   5  -4    2.78    0.91
   1  -5  -4  156.93    5.43
   1  -5  -4  144.90    4.23
   1  -5  -4  149.59    3.75
  -1  -5   4  149.54    4.48
  -1  -5   4  150.44    5.12
   1  -5  -4  148.61    5.05
  -1  -5   4  140.95    4.64
   1   5  -4  149.74    4.77
   1   5  -4  157.76    4.82
   1   5  -4  151.76    4.37
  -1   5   4  154.06    3.85
   1   5  -4  144.88    5.14
  -1   5   4  152.01    4.45
   1   5  -4  148.60    4.81
   0  -5   4   -0.03    0.52
   0  -5  -4    1.13    0.76
   0  -5   4    1.36    0.64
   0  -5  -4    0.20    0.53
   0  -5   4    0.53    0.73
   0  -5  -4    0.19    0.63
   0  -5   4    0.44    0.71
   0  -5   4    0.76    0.35
   0   5   4    0.41    0.36
   0   5  -4    0.65    0.58
   0   5   4    0.56    0.30
   0   5   4    0.75    0.58
   0   5   4    0.12    0.28
   0   5  -4    0.39    0.53
   0   5  -4    1.53    0.80
   0   5   4    0.85    0.56
   0   5  -4    1.29    0.65
   1  -5   4  155.29    5.47
  -1  -5  -4  143.55    4.93
   1  -5   4  149.24    5.35
   1  -5   4  157.67    4.96
  -1  -5  -4  148.24    5.13
   1  -5   4  152.87    4.84
   1   5   4  150.46    4.84
   1   5   4  145.22    3.58
   1   5   4  157.69    4.41
  -1   5  -4  148.84    4.27
   1   5   4  150.98    4.84
   1   5   4  148.04    3.59
  -1   5  -4  160.38    4.96
  -1   5  -4  140.78    4.91
  -2  -5  -4   12.42    1.43
   2  -5   4   12.04    1.67
   2  -5   4   13.91    1.98
   2  -5   4   10.37    1.75
  -2  -5  -4   14.12    1.80
  -2  -5  -4    8.87    1.46
   2  -5   4   12.41    1.70
   2   5   4   16.88    1.79
   2   5   4   10.69    1.57
  -2   5  -4   18.57    2.24
  -2   5  -4   14.24    1.16
  -2   5  -4   17.20    2.28
   2   5   4   14.99    1.23
   2   5   4   16.24    2.03
  -2   5  -4   11.33    1.47
   3  -5   4  129.67    5.33
   3  -5   4  124.14    4.60
  -3  -5  -4  116.67    3.69
  -3  -5  -4  126.20    4.83
  -3  -5  -4  127.67    4.83
   3  -5   4  124.81    5.15
   3  -5   4  119.03    4.55
  -3   5  -4  121.68    5.11
   3   5   4  132.08    4.92
   3   5   4  125.93    4.31
   3   5   4  126.26    4.85
  -3   5  -4  125.41    5.08
  -3   5  -4  120.60    4.46
   3   5   4  128.78    4.04
  -3   5  -4  126.32    3.07
   4  -5   4   24.95    1.94
   4  -5   4   20.78    2.42
  -4  -5  -4   23.23    1.61
   4  -5   4   26.09    2.59
   4  -5   4   17.99    2.40
   4  -5   4   21.62    2.66
  -4  -5  -4   22.34    2.44
   4   5   4   24.32    2.35
  -4   5  -4   19.51    2.35
   4   5   4   23.40    2.21
   4   5   4   22.06    2.50
   4   5   4   27.29    2.92
   5  -5   4   13.52    2.22
   5  -5   4   13.76    2.18
  -5  -5  -4   12.27    2.04
   5  -5   4   12.94    2.01
   5  -5   4   15.26    2.49
   5  -5   4    9.26    1.53
   5   5   4   13.66    2.14
   5   5   4   13.85    1.92
   5   5   4   15.02    1.91
   5   5   4   14.50    2.28
  -5   5  -4   12.96    2.15
  -6  -5  -4    3.34    1.41
   6  -5   4    5.78    1.67
   6  -5   4    6.44    1.43
   6  -5   4    4.90    1.68
   6  -5   4    3.92    1.54
   6  -5   4    6.33    1.54
   6   5   4    5.25    1.45
   6   5   4    6.18    1.58
   6   5   4    4.62    1.46
   6   5   4    4.20    1.18
   6   5   4    5.55    1.50
   7  -5   4    4.46    1.68
   7  -5   4    1.96    1.22
   7  -5   4    3.03    1.25
   7  -5   4    3.01    1.58
   7  -5   4    4.17    1.68
   7   5   4    3.45    1.43
   7   5   4    3.68    1.53
   7   5   4    1.71    1.20
   7   5   4    3.97    1.39
   7   5   4    2.10    1.10
   6  -6  -4    0.46    0.69
   6  -6  -4   -0.47    0.60
   6  -6  -4    1.42    1.25
   6  -6  -4   -0.01    0.88
   6   6  -4    0.71    1.05
   6   6  -4    1.00    0.85
   6   6  -4    0.09    0.98
   6   6  -4   -0.60    0.83
   5  -6  -4    8.15    1.42
   5  -6  -4    6.75    1.53
   5  -6  -4    4.84    1.11
   5  -6  -4    7.27    2.04
   5   6  -4    6.23    1.57
   5   6  -4    7.05    1.50
   5   6  -4    6.22    1.36
   5   6  -4    7.66    1.79
   4  -6  -4   17.39    2.08
   4  -6  -4   14.82    2.37
   4  -6  -4   12.38    1.64
   4  -6  -4   15.36    1.92
   4  -6  -4   15.25    2.48
   4   6  -4   18.26    2.40
   4   6  -4   14.71    1.94
   4   6  -4   16.72    2.44
   3  -6  -4    5.04    1.17
   3  -6  -4    5.03    1.12
   3  -6  -4    5.14    1.57
   3  -6  -4    7.45    1.24
   3  -6  -4    4.86    1.40
   3   6  -4    5.39    1.43
   3   6  -4    5.59    1.25
   3   6  -4    3.31    1.22
  -2  -6   4   57.12    3.27
  -2  -6   4   63.94    3.45
   2  -6  -4   62.88    3.74
   2  -6  -4   70.72    2.97
   2  -6  -4   63.61    3.53
   2  -6  -4   61.80    2.98
   2   6  -4   57.04    3.12
   2   6  -4   59.57    3.49
  -2   6   4   62.08    2.87
   2   6  -4   62.18    3.40
   1  -6  -4    5.53    1.48
  -1  -6   4    5.49    1.28
   1  -6  -4    5.09    0.95
   1  -6  -4    6.38    1.38
  -1  -6   4    7.02    1.48
   1   6  -4    3.01    0.92
  -1   6   4    5.05    1.08
   1   6  -4    4.40    1.13
   1   6  -4    4.07    1.12
   0  -6  -4   76.83    4.01
   0  -6  -4   74.90    3.64
   0  -6   4   83.03    3.61
   0  -6   4   76.48    3.63
   0  -6   4   76.07    3.94
   0  -6   4   78.07    4.02
   0  -6   4   78.02    2.29
   0   6  -4   80.06    3.63
   0   6  -4   82.39    3.42
   0   6   4   78.26    3.51
   0   6   4   68.33    3.27
   0   6  -4   85.83    4.18
   1  -6   4   70.53    3.78
   1  -6   4   70.69    3.51
  -1  -6  -4   69.22    3.52
   1  -6   4   74.02    3.52
  -1  -6  -4   67.04    3.70
   1  -6   4   65.96    3.75
  -1   6  -4   67.48    3.36
  -1   6  -4   60.36    3.61
   1   6   4   63.83    3.26
   1   6   4   68.35    3.39
   1   6   4   67.85    2.23
  -1   6  -4   71.03    2.93
   2  -6   4   84.71    3.93
   2  -6   4   89.52    4.46
  -2  -6  -4   77.29    3.17
  -2  -6  -4   87.44    4.19
   2  -6   4   84.17    4.36
   2  -6   4   85.30    3.98
  -2  -6  -4   87.56    4.05
  -2   6  -4   86.51    4.34
   2   6   4   80.34    3.91
  -2   6  -4   82.90    2.93
  -2   6  -4   86.49    3.82
   2   6   4   87.59    4.01
   2   6   4   82.22    2.90
  -3  -6  -4    5.91    1.35
   3  -6   4   12.17    1.89
  -3  -6  -4   11.62    1.95
   3  -6   4    9.57    1.74
  -3  -6  -4    9.18    1.27
   3  -6   4   12.50    2.17
   3  -6   4   11.62    2.10
   3   6   4   11.77    2.55
   3   6   4   11.06    1.90
   3   6   4    8.51    1.26
  -3   6  -4    7.05    1.55
   3   6   4    8.09    1.64
   4  -6   4   42.60    3.05
   4  -6   4   39.30    3.29
   4  -6   4   37.00    3.22
   4  -6   4   38.04    2.92
  -4  -6  -4   38.56    2.99
   4   6   4   42.13    3.09
  -4   6  -4   43.86    3.29
   4   6   4   36.53    2.95
   4   6   4   42.38    2.52
  -5  -6  -4   11.49    2.07
   5  -6   4   12.64    2.08
   5  -6   4   10.51    2.21
   5  -6   4   18.28    2.65
   5  -6   4   12.91    2.44
   5   6   4    9.92    2.05
  -5   6  -4   12.13    2.06
   5   6   4   12.26    1.81
   5   6   4    9.69    1.92
   6  -6   4    2.89    1.46
   6  -6   4    1.11    1.11
   6  -6   4    1.65    1.31
   6  -6   4    2.56    1.46
  -6  -6  -4    2.96    1.35
   6   6   4    1.36    1.21
   6   6   4    2.54    1.14
   6   6   4    3.99    1.43
   6  -7  -4   15.27    2.83
   6  -7  -4   16.90    2.14
   6  -7  -4   21.58    3.31
   6  -7  -4   20.28    2.45
   6   7  -4   23.89    2.93
   5  -7  -4    4.44    1.40
   5  -7  -4    3.82    1.17
   5  -7  -4    5.00    1.46
   5  -7  -4    1.35    1.30
   5  -7  -4    1.72    1.37
   5   7  -4    0.89    0.93
   5   7  -4    2.33    1.46
   5   7  -4    1.98    1.20
   5   7  -4    2.64    1.24
   4  -7  -4   15.26    2.17
   4  -7  -4   13.53    1.89
   4  -7  -4   15.82    2.49
   4  -7  -4   13.02    2.47
   4  -7  -4   16.85    2.17
   4   7  -4   15.00    2.42
   4   7  -4   16.06    2.39
   4   7  -4   12.83    1.99
   4   7  -4   14.06    2.03
   3  -7  -4    3.18    1.44
   3  -7  -4    6.41    1.33
   3  -7  -4    1.17    1.08
   3  -7  -4    4.34    1.22
   3  -7  -4    0.30    0.72
   3   7  -4    1.72    1.03
   3   7  -4    2.84    1.04
   3   7  -4    1.49    0.94
   2  -7  -4   26.68    1.98
   2  -7  -4   27.62    2.27
  -2  -7   4   20.46    2.51
   2  -7  -4   23.02    2.91
   2  -7  -4   20.33    2.53
  -2  -7   4   22.34    2.57
   2   7  -4   27.44    2.89
   2   7  -4   26.23    2.66
   2   7  -4   27.11    3.12
  -1  -7   4   67.64    3.99
  -1  -7   4   72.60    3.82
   1  -7  -4   70.19    3.86
   1  -7  -4   66.07    4.14
  -1   7   4   65.60    3.39
   1   7  -4   64.70    3.93
   1   7  -4   66.37    3.61
   1   7  -4   68.84    3.55
   0  -7   4    5.28    1.37
   0  -7   4    8.34    1.87
   0  -7  -4    4.73    1.42
   0  -7  -4    5.58    1.41
   0   7  -4    8.09    1.58
   0   7  -4    4.32    1.32
   0   7   4    5.87    1.38
   0   7  -4    7.04    1.34
   0   7   4    6.03    1.33
   1  -7   4   49.27    3.27
   1  -7   4   51.97    3.66
  -1  -7  -4   53.18    3.63
   1  -7   4   53.80    3.64
  -1  -7  -4   58.75    3.46
  -1   7  -4   52.48    3.16
  -1   7  -4   53.70    2.72
   1   7   4   52.24    3.23
  -1   7  -4   54.23    3.65
   1   7   4   53.15    3.18
   2  -7   4    3.33    1.32
  -2  -7  -4    1.68    0.84
  -2  -7  -4    2.73    1.26
  -2  -7  -4    1.71    0.99
   2  -7   4    1.70    1.05
   2  -7   4    1.11    0.90
   2  -7   4    2.49    1.07
  -2   7  -4    2.00    1.15
   2   7   4    1.95    1.01
   2   7   4    2.92    1.18
   3  -7   4    4.46    1.53
   3  -7   4    5.60    1.77
   3  -7   4    4.85    1.42
   3  -7   4    5.02    1.70
  -3  -7  -4    4.54    1.49
  -3  -7  -4    1.81    1.20
  -3   7  -4    6.38    1.73
   3   7   4    3.06    1.23
   3   7   4    3.52    1.30
   3   7   4    5.39    1.11
   4  -7   4    0.87    1.16
   4  -7   4    3.30    1.32
  -4  -7  -4    1.88    1.11
   4  -7   4    4.10    1.53
   4  -7   4    1.39    1.04
   4   7   4    0.90    0.74
  -4   7  -4    4.05    1.59
   4   7   4    3.24    1.32
   4   7   4    0.09    0.91
   5  -7   4   25.79    3.15
   5  -7   4   28.25    3.62
   5  -7   4   23.34    2.80
  -5  -7  -4   27.93    3.33
   5  -7   4   33.13    4.03
   5   7   4   20.20    2.99
   5   7   4   24.15    2.60
   5   7   4   28.35    3.50
   4  -8  -4    3.77    1.36
   4  -8  -4    2.37    1.23
   4  -8  -4    3.35    1.67
   4  -8  -4    2.03    1.41
   4   8  -4    1.91    1.18
   4   8  -4    3.42    1.45
   4   8  -4    4.72    1.47
   4   8  -4    3.20    1.47
   3  -8  -4   30.47    3.04
   3  -8  -4   34.68    3.84
   3  -8  -4   35.70    3.84
   3   8  -4   33.83    3.61
   3   8  -4   34.20    3.35
   3   8  -4   33.83    3.75
  -2  -8   4    0.57    1.03
   2  -8  -4    0.50    0.95
   2  -8  -4    0.71    1.05
   2   8  -4    0.21    0.90
   2   8  -4    0.05    0.78
   2   8  -4    0.20    0.90
   1  -8  -4   -0.30    0.98
  -1  -8   4    1.22    0.99
  -1  -8   4    0.44    1.03
   1  -8  -4   -0.29    0.83
   1   8  -4    0.46    0.79
   1   8  -4    0.15    0.74
   1   8  -4   -0.20    0.77
   0  -8   4    3.76    1.43
   0  -8   4    3.86    1.51
   0  -8  -4    4.87    1.70
   0  -8  -4    2.36    1.22
   0   8   4    4.01    1.30
   0   8  -4    3.53    1.39
   0   8   4    4.65    1.39
   0   8  -4    4.40    1.23
   1  -8   4    0.22    0.97
  -1  -8  -4    1.38    1.09
   1  -8   4    0.65    0.94
  -1  -8  -4    1.60    1.23
   1  -8   4   -0.49    0.81
   1   8   4    0.10    0.73
   1   8   4    1.75    1.08
  -1   8  -4    1.20    0.87
  -1   8  -4    0.08    0.85
   2  -8   4    6.30    1.73
  -2  -8  -4    1.37    1.17
   2  -8   4    4.99    1.58
  -2  -8  -4    2.63    1.23
   2  -8   4    4.87    1.67
  -2   8  -4    4.54    1.49
   2   8   4    6.25    1.66
   2   8   4    4.92    1.50
  -3  -8  -4   74.14    4.38
   3  -8   4   75.73    4.59
   3  -8   4   72.98    4.76
  -3  -8  -4   83.81    4.98
   3  -8   4   73.86    4.82
   3   8   4   78.17    4.59
  -3   8  -4   85.12    4.95
   3   8   4   77.13    4.60
   4  -8   4   -0.28    1.06
   4  -8   4   -1.85    0.93
   4  -8   4   -0.15    0.98
  -4  -8  -4    1.64    1.23
  -4   8  -4    0.00    1.01
   4   8   4   -1.12    0.93
   4   8   4   -0.82    0.71
   3  -9  -4    6.30    2.18
   3  -9  -4    5.21    1.88
   3  -9  -4    5.54    1.56
   3   9  -4    5.04    1.77
   3   9  -4    3.17    1.72
   3   9  -4    3.61    2.35
   3   9  -4    4.34    1.35
  -2  -9   4   -0.24    1.08
   2  -9  -4    0.15    1.08
   2  -9  -4    0.23    1.11
   2   9  -4   -0.36    0.86
   2   9  -4   -0.13    1.02
   1  -9  -4   17.71    2.75
  -1  -9   4   19.30    2.99
  -1  -9   4   18.50    2.78
   1  -9  -4   25.62    3.57
   1   9  -4   15.50    2.33
   1   9  -4   22.22    3.12
   0  -9  -4   -0.72    0.84
   0  -9   4   -0.38    0.95
   0  -9  -4    0.68    1.15
   0  -9   4    0.90    1.19
   0   9  -4   -0.38    0.90
   0   9  -4    1.07    0.93
   0   9   4   -1.36    0.77
   1  -9   4    5.78    1.74
   1  -9   4    5.46    1.90
  -1  -9  -4    8.21    2.15
  -1  -9  -4    6.65    1.73
   1   9   4    5.34    1.60
   1   9   4    7.61    1.90
  -1   9  -4    5.23    1.69
  -2  -9  -4    0.27    1.17
   2  -9   4    0.29    1.26
  -2  -9  -4    1.05    1.15
   2  -9   4    0.89    1.29
   2  -9   4   -0.66    1.02
   2   9   4    1.68    1.14
  -2   9  -4    1.86    1.34
   2   9   4   -0.73    0.81
   3  -9   4    0.45    1.25
  -3  -9  -4    0.03    1.04
  -3  -9  -4   -0.73    0.93
   3  -9   4    0.09    1.28
   3  -9   4   -1.16    1.15
   3   9   4    0.56    0.99
   3   9   4   -1.06    0.81
  -3   9  -4    0.00    1.16
   8   0  -5   -0.47    0.82
   8   0  -5    0.27    0.46
   8   0  -5   -0.01    0.88
   7   0  -5  107.57    4.91
   7   0  -5  108.77    4.47
   7   0  -5  107.14    2.98
   7   0  -5  113.32    4.53
   6   0  -5   -0.07    0.57
   6   0  -5   -0.19    0.19
   6   0  -5    0.37    0.25
   6   0  -5    0.06    0.63
   5   0  -5    5.91    0.46
   5   0  -5    5.06    1.07
   5   0  -5    5.45    0.45
   5   0  -5    5.47    1.19
   5   0  -5    5.83    0.40
   3   0  -5   12.11    1.32
   3   0  -5   11.82    0.54
   3   0  -5   10.08    0.40
   3   0  -5   12.35    0.51
   2   0  -5    0.25    0.21
   2   0  -5    0.17    0.25
   2   0  -5    0.50    0.20
   2   0  -5   -0.13    0.26
   1   0  -5   38.02    1.40
   1   0  -5   37.40    1.81
   1   0  -5   35.65    1.52
  -1   0   5   34.46    1.38
   1   0  -5   36.73    1.22
   1   0  -5   38.19    1.47
   0   0   5   -0.58    0.23
   0   0  -5    0.07    0.30
   0   0  -5    0.13    0.36
   0   0   5   -0.21    0.25
   0   0  -5   -0.27    0.27
   0   0  -5   -0.50    0.22
   0   0  -5   -0.59    0.32
   1   0   5   79.97    2.43
  -1   0  -5   78.76    2.28
   1   0   5   72.93    2.39
   1   0   5   78.10    1.62
  -1   0  -5   76.89    2.49
   1   0   5   77.02    2.79
  -1   0  -5   79.23    2.60
   1   0   5   76.06    2.67
  -1   0  -5   76.05    2.84
  -2   0  -5   -0.23    0.41
   2   0   5   -0.27    0.29
  -2   0  -5    0.94    0.50
   2   0   5    0.32    0.38
   2   0   5   -0.42    0.34
   2   0   5   -0.25    0.24
  -2   0  -5    0.23    0.31
   2   0   5    0.02    0.46
   3   0   5    6.20    1.03
   3   0   5    6.26    0.98
  -3   0  -5    3.34    0.86
   3   0   5    4.78    1.00
   3   0   5    3.93    0.92
  -3   0  -5    5.40    1.06
  -4   0  -5    0.65    0.61
   4   0   5    0.25    0.53
   4   0   5   -0.41    0.46
  -4   0  -5    2.83    0.89
   4   0   5   -0.29    0.49
   4   0   5   -0.06    0.49
   5   0   5   31.36    2.29
   5   0   5   30.16    2.12
   5   0   5   30.05    2.16
  -5   0  -5   29.37    2.30
   5   0   5   32.95    2.46
   6   0   5   -0.62    0.50
   6   0   5    0.13    0.70
   6   0   5    0.15    0.64
   6   0   5    0.00    0.66
  -6   0  -5    0.26    0.64
   7   0   5   51.40    3.31
   7   0   5   49.11    3.50
   7   0   5   54.38    3.48
   7   0   5   53.90    3.46
  -7   0  -5   54.94    3.41
   8   0   5   -0.69    0.93
   8   0   5   -0.02    0.92
   8   0   5   -0.35    0.92
   8   0   5   -0.24    0.78
   8  -1  -5   43.15    2.01
   8  -1  -5   44.89    3.03
   8  -1  -5   48.06    3.62
   8   1  -5   44.98    3.28
   8   1  -5   53.21    3.42
   8   1  -5   45.87    2.23
   7  -1  -5    0.58    0.72
   7  -1  -5   -0.43    0.57
   7  -1  -5    0.22    0.78
   7  -1  -5    0.94    0.38
   7   1  -5    0.98    0.60
   7   1  -5    0.14    0.71
   7   1  -5    1.23    0.50
   7   1  -5    0.78    0.84
   6  -1  -5  142.04    3.03
   6  -1  -5  143.27    5.23
   6  -1  -5  144.88    4.85
   6  -1  -5  145.60    4.77
   6   1  -5  146.49    3.50
   6   1  -5  150.07    5.39
   6   1  -5  152.57    3.55
   6   1  -5  141.75    5.05
   6   1  -5  150.68    4.15
   5  -1  -5    1.57    0.70
   5  -1  -5    0.96    0.53
   5  -1  -5    1.43    0.23
   5   1  -5    2.67    0.99
   5   1  -5    1.89    0.42
   5   1  -5    1.61    0.55
   5   1  -5    1.07    0.38
   4   1  -5  175.53    4.36
   4   1  -5  173.67    5.39
   4   1  -5  173.56    3.58
   4   1  -5  170.62    3.63
   4   1  -5  170.91    3.52
   3  -1  -5  117.58    2.07
   3   1  -5  119.67    2.59
   3   1  -5  115.87    2.84
   3   1  -5  117.63    3.35
   3   1  -5  119.07    2.89
   2  -1  -5  178.11    4.50
   2  -1  -5  178.26    3.43
   2  -1  -5  181.29    3.25
   2  -1  -5  179.36    4.30
   2   1  -5  177.75    3.99
   2   1  -5  179.29    3.73
   2   1  -5  181.80    3.78
   2   1  -5  174.47    4.31
  -1  -1   5    6.21    0.81
  -1  -1   5    5.85    0.57
   1  -1  -5    5.65    0.69
   1  -1  -5    5.44    0.61
   1  -1  -5    6.11    0.76
   1  -1  -5    3.66    0.74
   1  -1  -5    6.66    0.93
  -1   1   5    5.17    0.61
   1   1  -5    5.38    0.60
   1   1  -5    5.12    0.82
   1   1  -5    5.51    0.43
   1   1  -5    5.49    0.77
   1   1  -5    6.52    0.79
   0  -1   5    0.94    0.39
   0  -1   5    0.40    0.35
   0  -1  -5    0.90    0.29
   0  -1  -5    0.23    0.25
   0  -1  -5    0.19    0.34
   0  -1   5    0.44    0.43
   0  -1  -5    1.13    0.27
   0  -1  -5    0.71    0.43
   0  -1   5   -0.02    0.35
   0  -1  -5    1.20    0.49
   0   1  -5   -0.25    0.31
   0   1   5    1.43    0.33
   0   1  -5    1.37    0.47
   0   1  -5    0.81    0.39
   0   1   5    0.47    0.32
   0   1   5    1.02    0.35
   0   1  -5    0.42    0.31
   1  -1   5   26.61    1.63
  -1  -1  -5   28.39    1.00
   1  -1   5   27.48    1.68
   1  -1   5   25.33    1.43
  -1  -1  -5   27.15    1.43
  -1  -1  -5   25.25    1.53
   1  -1   5   27.63    0.81
  -1  -1  -5   26.81    1.63
   1   1   5   28.27    1.63
   1   1   5   25.60    1.15
   1   1   5   25.62    1.53
  -1   1  -5   27.56    1.50
   1   1   5   29.22    1.15
   1   1   5   27.28    1.35
  -1   1  -5   25.39    1.38
   2  -1   5  103.08    3.57
   2  -1   5   95.28    3.31
   2  -1   5  100.57    3.45
  -2  -1  -5  102.48    3.17
   2  -1   5  101.94    3.23
  -2  -1  -5  104.61    3.47
  -2  -1  -5  105.06    3.51
  -2   1  -5  104.73    3.35
   2   1   5  106.12    3.50
   2   1   5  102.36    2.74
   2   1   5  104.86    3.17
  -2   1  -5  103.01    3.70
   2   1   5   99.22    3.30
   3  -1   5   58.57    2.55
   3  -1   5   52.17    2.70
  -3  -1  -5   55.95    2.75
   3  -1   5   59.20    2.64
  -3  -1  -5   57.31    2.65
   3  -1   5   58.30    2.69
  -3   1  -5   57.41    2.70
   3   1   5   56.24    2.72
   3   1   5   54.79    2.42
   3   1   5   57.19    2.22
  -3   1  -5   57.40    2.93
   3   1   5   58.81    2.68
   4  -1   5  155.69    4.96
  -4  -1  -5  164.04    5.06
   4  -1   5  163.36    5.00
   4  -1   5  164.56    5.37
  -4  -1  -5  160.59    5.34
   4  -1   5  164.27    4.84
   4   1   5  156.78    4.92
   4   1   5  166.78    5.32
  -4   1  -5  154.47    5.29
   4   1   5  164.20    4.81
   4   1   5  164.58    4.58
  -5  -1  -5    2.04    0.89
   5  -1   5    1.97    0.76
   5  -1   5    1.60    0.87
   5  -1   5    1.48    0.88
   5  -1   5    1.84    0.89
  -5  -1  -5    1.37    0.77
   5   1   5    1.53    0.78
   5   1   5    1.31    0.81
   5   1   5    1.72    0.74
   5   1   5    2.10    0.82
   5   1   5    1.23    0.67
  -5   1  -5    2.77    1.03
   6  -1   5  164.07    5.51
   6  -1   5  157.34    5.63
   6  -1   5  162.87    6.07
   6  -1   5  158.39    5.74
  -6  -1  -5  161.20    5.51
   6   1   5  161.43    5.09
   6   1   5  159.18    5.65
  -6   1  -5  168.67    6.04
   6   1   5  156.61    5.45
   6   1   5  157.16    5.41
   6   1   5  160.92    6.08
  -7  -1  -5    0.58    0.75
   7  -1   5    3.09    1.29
   7  -1   5    2.46    1.21
   7  -1   5    1.90    1.04
   7  -1   5   -0.24    0.63
   7   1   5    0.70    0.80
   7   1   5    1.68    1.09
  -7   1  -5   -0.75    0.70
   7   1   5    0.95    1.00
   7   1   5    0.44    0.89
   8  -1   5   56.92    4.07
   8  -1   5   51.01    3.62
   8  -1   5   50.47    3.71
   8  -1   5   48.28    3.77
   8   1   5   44.88    3.68
   8   1   5   54.51    3.76
   8   1   5   48.55    3.64
   8   1   5   50.98    3.53
   8  -2  -5    9.10    1.12
   8  -2  -5    8.79    1.64
   8  -2  -5    7.43    1.91
   8   2  -5    8.44    1.23
   8   2  -5    8.19    1.92
   8   2  -5    9.03    2.03
   7  -2  -5    1.05    0.68
   7  -2  -5    1.66    0.96
   7  -2  -5    0.01    0.39
   7   2  -5    0.94    0.50
   7   2  -5    1.68    0.66
   7   2  -5    1.20    0.77
   7   2  -5    0.42    0.92
   6  -2  -5    8.74    0.82
   6  -2  -5    8.96    1.40
   6  -2  -5    8.90    1.55
   6  -2  -5   11.28    1.45
   6   2  -5    9.88    1.10
   6   2  -5   10.51    1.88
   6   2  -5    9.59    1.16
   6   2  -5    9.35    1.69
   5  -2  -5   19.64    0.91
   5  -2  -5   20.33    1.47
   5  -2  -5   22.08    1.80
   5  -2  -5   18.93    0.87
   5  -2  -5   17.29    2.13
   5  -2  -5   17.85    0.71
   5   2  -5   20.22    1.20
   5   2  -5   19.62    1.20
   5   2  -5   19.51    1.30
   5   2  -5   20.53    1.26
   5   2  -5   19.17    2.29
   4  -2  -5   60.92    1.46
   4  -2  -5   62.01    1.55
   4  -2  -5   59.04    3.00
   4  -2  -5   57.26    2.55
   4   2  -5   62.55    2.15
   4   2  -5   63.83    2.29
   4   2  -5   64.37    3.32
   4   2  -5   62.84    2.18
   4   2  -5   61.71    2.06
   3  -2  -5    1.47    0.28
   3  -2  -5    1.55    0.67
   3  -2  -5    1.28    0.28
   3  -2  -5    1.52    0.52
   3  -2  -5    1.63    0.30
   3   2  -5    1.38    0.42
   3   2  -5    1.68    0.54
   3   2  -5    2.52    0.87
   3   2  -5    1.70    0.49
   3   2  -5    1.41    0.46
   2  -2  -5  279.21    6.37
  -2  -2   5  287.38    5.66
   2  -2  -5  289.48    5.44
   2  -2  -5  285.27    5.06
   2  -2  -5  282.86    6.59
   2  -2  -5  285.31    5.28
   2   2  -5  291.59    6.05
   2   2  -5  289.12    5.76
   2   2  -5  291.56    6.14
  -2   2   5  285.26    4.52
   2   2  -5  278.43    6.14
   2   2  -5  286.35    4.76
   1  -2  -5   20.26    1.47
  -1  -2   5   18.20    1.04
   1  -2  -5   19.97    1.30
   1  -2  -5   19.39    1.14
  -1  -2   5   19.97    1.35
   1  -2  -5   20.47    0.75
   1  -2  -5   19.36    1.01
   1   2  -5   17.72    1.29
   1   2  -5   21.45    1.29
  -1   2   5   17.47    0.99
   1   2  -5   20.23    0.72
   1   2  -5   22.96    1.42
   1   2  -5   19.32    0.99
   0  -2   5  291.89    6.64
   0  -2   5  288.65    5.03
   0  -2  -5  288.03    6.46
   0  -2  -5  288.74    5.83
   0  -2   5  286.14    5.18
   0  -2  -5  297.37    6.10
   0  -2   5  285.78    6.54
   0  -2  -5  290.18    5.74
   0  -2  -5  290.60    6.49
   0   2  -5  297.41    6.27
   0   2  -5  290.43    5.21
   0   2  -5  283.36    5.07
   0   2   5  296.34    5.95
   0   2   5  291.08    5.47
   0   2  -5  292.59    6.59
   1  -2   5   25.23    1.79
   1  -2   5   24.61    1.74
   1  -2   5   22.77    1.49
  -1  -2  -5   24.36    1.66
  -1  -2  -5   22.61    1.37
   1  -2   5   24.99    1.09
  -1  -2  -5   24.30    1.28
  -1  -2  -5   23.88    1.57
   1   2   5   23.80    1.53
  -1   2  -5   23.11    1.72
   1   2   5   22.73    1.30
  -1   2  -5   21.77    1.51
   1   2   5   22.82    1.43
   2  -2   5  384.64    7.85
   2  -2   5  378.10    6.94
  -2  -2  -5  371.33    8.16
   2  -2   5  380.77    8.27
   2  -2   5  370.57    8.41
   2  -2   5  373.55    8.05
  -2  -2  -5  327.33    8.78
  -2  -2  -5  371.27    7.80
   2   2   5  379.06    7.73
   2   2   5  373.72    8.06
   2   2   5  369.87    7.49
   2   2   5  381.33    6.48
  -3  -2  -5   11.15    1.55
   3  -2   5    6.83    0.97
  -3  -2  -5    7.31    1.17
   3  -2   5    8.42    1.26
   3  -2   5   10.16    1.53
   3  -2   5    8.54    1.44
   3  -2   5    7.39    1.22
   3   2   5    8.03    1.14
  -3   2  -5    6.31    1.27
   3   2   5    8.10    0.95
   3   2   5    8.41    1.31
   3   2   5    7.03    1.10
   3   2   5    6.08    1.10
   4  -2   5   67.11    3.17
   4  -2   5   72.10    3.59
  -4  -2  -5   74.69    3.56
  -4  -2  -5   72.81    3.13
   4  -2   5   67.71    3.30
   4  -2   5   68.53    3.12
   4   2   5   72.85    3.46
   4   2   5   68.98    2.70
  -4   2  -5   72.46    3.59
   4   2   5   70.96    3.06
   4   2   5   74.09    3.25
   4   2   5   72.85    3.20
   5  -2   5    4.13    1.09
  -5  -2  -5    4.24    1.09
   5  -2   5    3.75    1.17
   5  -2   5    2.86    1.06
   5  -2   5    4.26    1.09
  -5  -2  -5    3.78    1.22
   5   2   5    5.44    1.33
   5   2   5    3.08    1.03
   5   2   5    3.37    0.95
   5   2   5    6.39    1.14
  -5   2  -5    4.07    1.23
   5   2   5    4.76    1.18
  -6  -2  -5    0.49    0.69
   6  -2   5    0.08    0.86
   6  -2   5   -0.66    0.66
   6  -2   5    0.38    0.82
   6  -2   5    0.13    0.68
   6   2   5    0.62    0.70
   6   2   5    0.03    0.62
   6   2   5   -0.92    0.67
   6   2   5    0.20    0.59
   6   2   5   -0.19    0.55
  -6   2  -5   -0.11    0.73
   7  -2   5   -0.61    0.72
   7  -2   5   -0.57    0.75
   7  -2   5    1.05    1.03
   7  -2   5    1.10    1.05
   7   2   5    2.26    1.06
   7   2   5    0.71    0.86
   7   2   5   -0.02    0.76
   7   2   5    2.19    1.09
   7   2   5    1.02    0.86
   8  -2   5    4.88    1.65
   8  -2   5    7.29    1.85
   8  -2   5    6.83    1.74
   8  -2   5    9.79    2.14
   8   2   5    4.56    1.55
   8   2   5    8.73    1.92
   8   2   5    7.01    1.84
   8   2   5    7.03    1.78
   8  -3  -5    4.27    1.61
   8   3  -5    1.70    1.31
   8   3  -5    6.09    1.66
   7  -3  -5   -0.25    0.90
   7  -3  -5    0.59    0.50
   7  -3  -5   -0.22    0.77
   7   3  -5    0.25    0.91
   7   3  -5    1.19    1.06
   7   3  -5    1.05    0.60
   7   3  -5    0.41    0.57
   6  -3  -5    6.92    0.90
   6  -3  -5    9.59    1.80
   6  -3  -5    8.66    1.57
   6  -3  -5    6.59    0.78
   6  -3  -5    8.05    1.19
   6   3  -5    7.25    1.15
   6   3  -5    9.60    1.82
   6   3  -5    8.63    1.83
   6   3  -5    6.73    1.15
   5  -3  -5   44.65    1.78
   5  -3  -5   49.68    2.68
   5  -3  -5   43.92    1.70
   5  -3  -5   45.34    1.66
   5  -3  -5   43.08    2.97
   5  -3  -5   43.43    2.01
   5   3  -5   47.02    2.21
   5   3  -5   44.11    2.25
   5   3  -5   49.73    3.24
   4  -3  -5   10.23    1.32
   4  -3  -5    9.80    1.64
   4  -3  -5    9.34    1.01
   4  -3  -5    9.50    0.72
   4  -3  -5    8.58    0.87
   4   3  -5    8.44    1.02
   4   3  -5    9.40    1.61
   4   3  -5    9.47    1.25
   4   3  -5    9.41    1.14
   4   3  -5    9.36    0.81
   3  -3  -5   18.63    0.98
   3  -3  -5   24.80    2.00
   3  -3  -5   19.06    1.08
   3  -3  -5   21.09    1.32
   3  -3  -5   22.77    1.18
   3  -3  -5   21.27    1.82
   3   3  -5   21.75    1.61
   3   3  -5   16.47    1.42
   3   3  -5   18.50    1.14
   3   3  -5   21.80    0.71
   3   3  -5   20.92    0.71
   3   3  -5   19.76    2.20
   3   3  -5   19.48    1.43
   3   3  -5   20.05    1.37
  -2  -3   5   18.81    1.38
   2  -3  -5   21.10    1.21
   2  -3  -5   19.77    1.07
   2  -3  -5   18.62    1.05
   2  -3  -5   18.66    1.59
   2  -3  -5   19.81    1.69
   2   3  -5   19.53    1.42
   2   3  -5   20.77    1.35
   2   3  -5   19.86    1.57
   2   3  -5   23.03    1.45
   2   3  -5   20.19    2.11
   1  -3  -5  165.47    4.83
  -1  -3   5  162.94    4.01
   1  -3  -5  166.16    2.97
   1  -3  -5  162.92    4.60
  -1  -3   5  162.07    4.53
   1  -3  -5  171.29    4.16
   1  -3  -5  163.71    3.82
   1   3  -5  160.69    4.43
   1   3  -5  158.39    4.32
   1   3  -5  157.93    4.37
  -1   3   5  160.40    3.90
   1   3  -5  168.39    4.86
   0  -3   5    1.32    0.54
   0  -3   5    0.41    0.56
   0  -3   5    0.13    0.35
   0  -3  -5    0.55    0.30
   0  -3   5    0.50    0.25
   0  -3  -5    1.80    0.56
   0  -3  -5    0.10    0.50
   0  -3   5   -0.39    0.39
   0   3  -5    0.32    0.47
   0   3   5    0.41    0.39
   0   3  -5    0.14    0.31
   0   3   5    0.64    0.36
   0   3  -5    0.38    0.50
  -1  -3  -5  114.91    3.95
  -1  -3  -5  111.00    3.67
  -1  -3  -5  115.61    3.42
  -1  -3  -5  116.12    3.55
   1  -3   5  120.89    3.78
   1  -3   5  117.11    4.19
   1  -3   5  114.19    4.13
   1  -3   5  108.02    3.14
  -1   3  -5  117.39    3.75
   1   3   5  116.05    3.75
  -1   3  -5  119.37    4.15
   1   3   5  114.69    3.30
   1   3   5  114.69    3.27
  -2  -3  -5    2.66    0.82
  -2  -3  -5    2.74    0.71
   2  -3   5    2.47    0.86
   2  -3   5    1.28    0.55
   2  -3   5    1.02    0.75
   2  -3   5    1.98    0.72
  -2  -3  -5    2.44    0.70
   2   3   5    2.17    0.41
   2   3   5    0.46    0.60
   2   3   5    1.65    0.66
   2   3   5    1.79    0.60
  -2   3  -5    1.31    0.68
   2   3   5    1.56    0.54
  -3  -3  -5   24.88    2.04
   3  -3   5   21.61    1.79
   3  -3   5   22.77    1.82
  -3  -3  -5   23.57    1.67
   3  -3   5   23.50    2.12
   3  -3   5   25.77    1.72
   3  -3   5   18.92    2.09
   3   3   5   25.58    1.76
   3   3   5   23.19    1.92
   3   3   5   21.59    1.60
   3   3   5   22.95    1.82
   3   3   5   24.14    1.32
  -3   3  -5   23.47    2.04
   4  -3   5    7.21    1.54
   4  -3   5    6.74    1.28
  -4  -3  -5    3.09    0.84
   4  -3   5    5.49    1.11
   4  -3   5    4.68    1.33
   4  -3   5    8.63    1.37
  -4  -3  -5    4.69    1.18
   4   3   5    5.01    0.89
   4   3   5    4.92    1.18
  -4   3  -5    4.74    1.21
   4   3   5    4.08    0.97
   4   3   5    4.63    1.10
   4   3   5    7.00    1.23
   5  -3   5   19.91    2.29
   5  -3   5   26.24    2.81
   5  -3   5   22.74    2.33
   5  -3   5   28.48    2.59
  -5  -3  -5   27.77    2.00
   5  -3   5   23.41    2.04
  -5  -3  -5   21.50    2.52
   5   3   5   21.45    2.41
   5   3   5   27.52    2.73
  -5   3  -5   24.82    2.83
   5   3   5   24.81    1.86
   5   3   5   29.19    2.24
   5   3   5   26.32    2.60
   6  -3   5    8.91    1.97
   6  -3   5    9.56    1.76
  -6  -3  -5    9.43    1.96
   6  -3   5    9.39    1.66
   6  -3   5    9.15    1.92
   6  -3   5    9.38    1.72
   6   3   5    9.80    2.00
   6   3   5   11.22    1.81
   6   3   5    9.38    1.79
  -6   3  -5    9.46    1.96
   6   3   5    7.30    1.51
   6   3   5    7.95    1.43
   7  -3   5    1.74    1.11
   7  -3   5    1.43    1.05
   7  -3   5    2.18    1.30
   7  -3   5   -0.08    0.87
   7  -3   5   -0.39    0.95
   7   3   5    1.84    1.02
   7   3   5    0.22    0.91
   7   3   5   -0.39    0.78
   7   3   5    1.65    1.07
   7   3   5    0.72    0.86
   7  -4  -5    7.97    1.76
   7  -4  -5    7.68    2.08
   7  -4  -5    7.26    1.14
   7   4  -5    6.81    1.46
   7   4  -5    7.83    1.36
   7   4  -5    8.06    2.04
   7   4  -5    4.61    1.52
   6  -4  -5   10.31    1.17
   6  -4  -5   11.45    2.28
   6  -4  -5    8.63    1.65
   6  -4  -5    8.53    1.15
   6   4  -5    6.14    1.73
   6   4  -5    7.78    1.62
   6   4  -5    7.79    1.36
   6   4  -5    7.81    1.29
   5  -4  -5   40.13    1.95
   5  -4  -5   45.31    2.10
   5  -4  -5   46.25    2.67
   5  -4  -5   48.95    3.36
   5   4  -5   40.42    3.08
   5   4  -5   44.64    2.47
   5   4  -5   47.20    2.65
   4  -4  -5   13.45    1.99
   4  -4  -5   10.91    1.09
   4  -4  -5    8.81    0.93
   4  -4  -5   12.20    1.26
   4  -4  -5    9.53    1.08
   4  -4  -5   11.51    1.46
   4   4  -5    8.49    1.36
   4   4  -5    9.64    1.30
   4   4  -5   10.31    1.83
   3  -4  -5   29.39    1.62
   3  -4  -5   32.54    1.16
   3  -4  -5   30.59    2.32
   3  -4  -5   31.32    1.65
   3  -4  -5   26.68    2.25
   3  -4  -5   33.68    1.63
   3   4  -5   29.92    2.40
   3   4  -5   29.88    2.09
   3   4  -5   32.44    2.03
   3   4  -5   29.32    1.57
   2  -4  -5   63.25    2.13
  -2  -4   5   68.79    2.95
   2  -4  -5   63.12    1.64
   2  -4  -5   61.73    2.37
   2  -4  -5   67.95    2.60
   2  -4  -5   56.23    3.06
   2  -4  -5   63.77    3.21
   2  -4  -5   64.10    2.32
   2   4  -5   64.63    2.83
   2   4  -5   61.83    2.69
  -2   4   5   62.78    2.19
   2   4  -5   61.68    3.12
   2   4  -5   63.20    2.53
   2   4  -5   65.10    3.11
  -1  -4   5   -0.06    0.32
   1  -4  -5   -0.10    0.31
  -1  -4   5    0.85    0.62
  -1  -4   5    0.51    0.46
   1  -4  -5    0.85    0.61
   1  -4  -5    0.31    0.55
   1  -4  -5    0.40    0.24
   1   4  -5   -0.10    0.43
   1   4  -5    0.82    0.46
  -1   4   5   -0.04    0.33
   1   4  -5   -1.12    0.30
   1   4  -5   -0.31    0.37
   1   4  -5    0.08    0.53
   0  -4   5  310.01    6.74
   0  -4   5  314.79    7.97
   0  -4   5  304.54    7.70
   0  -4  -5  296.18    7.33
   0  -4   5  312.49    7.09
   0  -4  -5  312.03    7.66
   0  -4   5  308.81    5.11
   0  -4  -5  308.61    6.63
   0   4  -5  306.59    7.21
   0   4  -5  312.67    7.22
   0   4  -5  311.47    7.41
   0   4  -5  314.73    7.36
   0   4   5  304.38    6.88
   0   4   5  309.59    6.29
   0   4  -5  310.45    7.91
   1  -4   5    2.25    0.83
  -1  -4  -5    2.18    0.81
  -1  -4  -5    2.04    0.56
   1  -4   5    2.12    0.68
   1  -4   5    1.04    0.81
  -1  -4  -5    1.67    0.83
   1  -4   5    0.62    0.58
  -1  -4  -5    2.57    0.74
  -1   4  -5    2.86    0.73
   1   4   5    2.18    0.60
  -1   4  -5    0.80    0.64
   1   4   5    0.85    0.58
   1   4   5    1.80    0.58
   1   4   5    1.38    0.62
  -1   4  -5    1.54    0.74
  -1   4  -5    1.11    0.74
  -2  -4  -5   53.91    2.94
  -2  -4  -5   51.39    2.49
   2  -4   5   55.59    3.19
   2  -4   5   57.51    3.22
   2  -4   5   51.99    2.74
  -2  -4  -5   50.18    2.65
   2  -4   5   61.84    2.65
  -2   4  -5   53.48    3.13
   2   4   5   52.41    2.46
  -2   4  -5   50.50    2.97
   2   4   5   57.81    2.91
   2   4   5   52.48    1.58
   2   4   5   56.30    1.76
   2   4   5   53.59    2.84
  -2   4  -5   63.82    2.98
   2   4   5   54.72    2.36
  -2   4  -5   58.56    2.32
  -3  -4  -5   49.55    2.42
   3  -4   5   46.41    3.07
   3  -4   5   47.84    2.56
  -3  -4  -5   51.36    2.99
   3  -4   5   50.12    3.14
   3  -4   5   45.64    2.68
   3   4   5   46.05    2.38
   3   4   5   47.90    1.86
   3   4   5   48.91    2.91
   3   4   5   51.27    2.88
  -3   4  -5   45.15    2.63
   3   4   5   45.25    2.45
  -3   4  -5   50.13    3.14
   4  -4   5   39.27    2.99
   4  -4   5   38.89    2.53
   4  -4   5   39.28    2.64
   4  -4   5   37.56    2.94
   4  -4   5   40.14    2.50
  -4  -4  -5   42.66    2.88
  -4  -4  -5   39.48    2.22
   4   4   5   40.55    2.02
   4   4   5   42.13    2.77
   4   4   5   37.93    2.45
   4   4   5   39.94    2.48
   4   4   5   39.04    2.80
  -4   4  -5   38.56    2.89
   5  -4   5   41.47    3.23
  -5  -4  -5   35.79    2.24
   5  -4   5   40.55    2.76
  -5  -4  -5   44.65    3.24
   5  -4   5   37.41    2.61
   5  -4   5   37.52    3.15
   5  -4   5   35.23    2.71
   5   4   5   34.51    2.55
   5   4   5   35.69    2.58
  -5   4  -5   35.16    3.03
   5   4   5   35.71    2.69
   5   4   5   40.94    2.30
   5   4   5   38.87    2.98
   6  -4   5    2.08    1.25
   6  -4   5    4.31    1.41
   6  -4   5    0.29    0.90
   6  -4   5    0.71    0.97
   6  -4   5    2.79    1.15
  -6  -4  -5    1.11    0.98
   6   4   5    3.05    1.07
   6   4   5    2.08    1.12
   6   4   5    1.29    1.01
   6   4   5    3.34    1.10
   6   4   5    1.16    1.05
   7  -4   5   12.44    2.23
   7  -4   5   12.07    2.35
   7  -4   5    7.92    1.96
   7  -4   5    9.88    2.00
   7  -4   5    8.06    1.80
   7   4   5    6.94    1.62
   7   4   5    9.89    2.09
   7   4   5   10.73    2.06
   7   4   5    7.72    1.82
   7   4   5    8.61    2.03
   7  -5  -5    0.53    0.98
   7  -5  -5    0.98    0.70
   7  -5  -5   -0.20    1.20
   7   5  -5    0.42    0.81
   7   5  -5    1.67    1.20
   7   5  -5    0.95    1.06
   7   5  -5   -1.02    0.54
   6  -5  -5   47.49    3.14
   6  -5  -5   48.24    3.84
   6  -5  -5   46.70    2.49
   6  -5  -5   46.77    2.42
   6   5  -5   49.00    3.74
   6   5  -5   48.74    3.11
   6   5  -5   43.07    2.80
   6   5  -5   42.69    3.22
   5  -5  -5    0.16    0.52
   5  -5  -5    1.17    1.07
   5  -5  -5    0.44    0.47
   5  -5  -5    1.10    0.78
   5   5  -5    0.48    0.69
   5   5  -5   -0.69    0.71
   5   5  -5    0.70    0.70
   4  -5  -5  173.08    4.78
   4  -5  -5  163.92    5.02
   4  -5  -5  169.03    6.30
   4  -5  -5  177.60    6.54
   4   5  -5  158.38    5.55
   4   5  -5  169.52    5.34
   3  -5  -5    6.09    1.49
   3  -5  -5    6.71    1.12
   3  -5  -5    5.72    1.01
   3  -5  -5    5.41    1.43
   3   5  -5    3.07    1.11
   3   5  -5    5.78    1.31
   3   5  -5    4.57    0.84
   3   5  -5    5.12    1.10
   2  -5  -5    4.79    0.84
   2  -5  -5    5.39    1.32
   2  -5  -5    4.68    0.92
   2  -5  -5    4.94    1.26
  -2  -5   5    2.32    0.84
   2   5  -5    3.98    1.00
   2   5  -5    3.55    1.10
   2   5  -5    3.10    0.98
  -2   5   5    5.04    0.93
   2   5  -5    6.72    0.99
   1  -5  -5    4.69    0.61
   1  -5  -5    4.81    1.29
  -1  -5   5    3.35    1.04
   1  -5  -5    7.22    1.51
  -1  -5   5    3.06    0.92
   1   5  -5    4.51    1.11
   1   5  -5    4.87    1.02
   1   5  -5    4.70    1.12
  -1   5   5    4.93    0.99
   1   5  -5    5.24    1.37
   0  -5   5    7.01    1.47
   0  -5   5    5.95    1.15
   0  -5   5    7.92    1.59
   0  -5   5    5.94    0.56
   0  -5  -5    5.51    1.29
   0  -5  -5    5.43    1.26
   0  -5   5    5.35    1.14
   0   5  -5    5.44    1.08
   0   5  -5    3.06    1.01
   0   5  -5    5.30    1.12
   0   5  -5    5.78    1.12
   0   5   5    7.60    1.27
   1  -5   5    4.45    1.06
   1  -5   5    3.36    0.97
  -1  -5  -5    3.32    0.93
  -1  -5  -5    3.74    1.13
  -1  -5  -5    2.10    0.99
   1  -5   5    2.43    0.98
   1  -5   5    3.65    1.11
   1   5   5    3.79    1.02
  -1   5  -5    4.06    1.10
  -1   5  -5    3.67    1.09
   1   5   5    3.55    0.98
  -1   5  -5    4.15    0.93
   1   5   5    4.95    1.33
  -1   5  -5    3.23    1.05
   1   5   5    4.32    0.79
   2  -5   5    5.71    1.33
   2  -5   5    4.24    1.10
  -2  -5  -5    7.11    1.18
  -2  -5  -5    6.70    1.41
  -2  -5  -5    5.12    1.18
   2  -5   5    6.03    1.27
   2  -5   5    7.16    1.67
  -2   5  -5    6.17    0.98
   2   5   5    7.40    1.09
   2   5   5    5.56    1.07
  -2   5  -5    7.69    1.44
   2   5   5    5.21    1.33
   2   5   5    5.72    1.23
  -2   5  -5    2.74    0.97
  -2   5  -5    4.16    1.14
   3  -5   5    9.96    1.57
   3  -5   5    8.68    1.77
  -3  -5  -5    7.40    1.24
   3  -5   5    8.81    1.76
  -3  -5  -5    5.39    1.41
   3  -5   5   10.86    1.70
  -3  -5  -5    7.10    1.41
  -3   5  -5    7.36    1.30
   3   5   5    4.87    1.21
  -3   5  -5    5.78    1.33
   3   5   5   10.34    1.52
   3   5   5    7.02    1.19
  -3   5  -5    7.12    1.50
  -3   5  -5    9.49    1.08
   3   5   5    7.19    1.44
   4  -5   5  120.74    5.54
   4  -5   5  120.82    5.42
  -4  -5  -5  115.39    5.10
   4  -5   5  121.21    4.80
  -4  -5  -5  121.51    4.06
   4  -5   5  115.93    4.82
  -4   5  -5  120.55    5.29
   4   5   5  123.85    3.73
  -4   5  -5  120.74    5.45
   4   5   5  119.04    4.41
   4   5   5  118.37    4.57
   4   5   5  122.46    5.05
   4   5   5  124.13    5.22
   5  -5   5    5.25    1.30
   5  -5   5    2.15    1.23
   5  -5   5    1.96    1.18
   5  -5   5    1.60    1.06
  -5  -5  -5    2.55    1.17
   5  -5   5    4.52    1.43
   5   5   5    2.22    1.08
  -5   5  -5    2.95    1.19
   5   5   5    3.48    1.36
   5   5   5    2.11    1.06
   5   5   5    3.47    0.97
   6  -5   5   44.95    3.08
   6  -5   5   43.54    3.37
  -6  -5  -5   47.17    3.75
   6  -5   5   47.40    3.92
   6  -5   5   45.92    3.86
   6  -5   5   50.53    3.55
   6   5   5   50.07    3.29
   6   5   5   45.01    3.33
   6   5   5   45.34    3.59
  -7  -5  -5    1.45    1.25
   7  -5   5    1.55    1.21
   7  -5   5   -0.12    1.17
   7  -5   5    0.86    1.27
   7  -5   5    2.11    1.16
   7   5   5    0.28    1.01
   7   5   5    1.42    1.23
   6  -6  -5   11.71    1.67
   6  -6  -5    9.21    1.93
   6  -6  -5    9.92    2.48
   6  -6  -5   10.67    1.59
   6   6  -5   10.28    2.00
   6   6  -5    5.90    1.48
   6   6  -5    8.24    1.99
   6   6  -5   10.84    2.25
   5  -6  -5   64.28    3.20
   5  -6  -5   56.79    2.98
   5  -6  -5   62.82    3.41
   5  -6  -5   59.98    4.35
   5  -6  -5   61.51    4.17
   5   6  -5   66.01    3.88
   5   6  -5   65.29    3.52
   5   6  -5   65.02    4.21
   5   6  -5   55.62    3.57
   4  -6  -5    0.80    1.03
   4  -6  -5   -0.19    0.48
   4  -6  -5   -0.27    0.55
   4  -6  -5    0.02    0.98
   4   6  -5   -0.55    0.60
   4   6  -5    0.43    0.68
   4   6  -5    0.89    1.04
   3  -6  -5   39.88    3.21
   3  -6  -5   43.49    2.49
   3  -6  -5   40.95    3.15
   3  -6  -5   39.04    2.26
   3   6  -5   39.15    2.70
   3   6  -5   41.64    3.04
   3   6  -5   42.52    3.05
  -2  -6   5    0.57    0.74
   2  -6  -5    1.01    0.97
  -2  -6   5   -0.37    0.64
   2  -6  -5    1.45    0.92
   2  -6  -5    0.26    0.71
   2   6  -5    2.93    0.97
   2   6  -5   -0.20    0.57
   2   6  -5    0.47    0.76
  -1  -6   5    7.96    1.54
   1  -6  -5    4.86    1.39
  -1  -6   5    6.47    1.33
   1  -6  -5    4.51    1.34
   1   6  -5    5.77    1.26
   1   6  -5    3.59    1.01
   1   6  -5    4.39    1.23
  -1   6   5    4.53    1.03
   1   6  -5    5.18    1.33
   0  -6   5   63.76    3.66
   0  -6  -5   56.92    3.37
   0  -6   5   58.91    3.14
   0  -6  -5   59.59    3.53
   0  -6   5   55.52    3.49
   0   6  -5   65.61    3.36
   0   6  -5   58.25    3.12
   0   6  -5   60.33    3.65
   0   6  -5   57.58    2.96
   0   6   5   59.03    3.07
  -1  -6  -5    5.59    1.46
   1  -6   5    5.80    1.28
   1  -6   5    4.85    1.36
   1  -6   5    5.75    1.41
  -1  -6  -5    3.85    1.16
   1  -6   5    5.36    1.75
   1   6   5    4.44    1.15
  -1   6  -5    4.45    1.26
  -1   6  -5    5.53    1.24
  -1   6  -5    5.44    1.37
  -1   6  -5    4.62    1.01
   1   6   5    4.83    0.80
   1   6   5    3.94    1.10
  -2  -6  -5    0.16    0.70
  -2  -6  -5    1.74    0.74
   2  -6   5    1.91    1.05
   2  -6   5    0.17    0.68
  -2  -6  -5    0.57    0.70
   2  -6   5    0.82    0.91
   2  -6   5    0.31    0.84
  -2   6  -5   -0.14    0.64
  -2   6  -5    0.12    0.74
   2   6   5    0.61    0.72
  -2   6  -5   -0.12    0.71
   2   6   5    0.47    0.53
  -2   6  -5    0.99    0.60
   2   6   5    0.67    0.83
  -3  -6  -5   54.55    2.71
   3  -6   5   53.50    3.21
  -3  -6  -5   50.65    3.34
   3  -6   5   49.45    3.62
  -3  -6  -5   46.84    3.31
   3  -6   5   51.35    3.68
   3  -6   5   54.22    3.29
   3   6   5   50.89    3.31
  -3   6  -5   45.57    3.39
   3   6   5   48.11    3.25
   3   6   5   52.25    2.61
  -4  -6  -5    7.89    1.71
   4  -6   5   10.89    2.13
   4  -6   5   10.95    1.89
   4  -6   5   10.27    1.93
   4  -6   5    9.36    2.16
   4   6   5   13.03    2.23
   4   6   5   10.75    2.02
  -4   6  -5   10.94    2.12
   4   6   5   12.19    1.74
   5  -6   5   48.48    3.51
  -5  -6  -5   53.36    3.88
   5  -6   5   44.83    3.88
   5  -6   5   50.15    3.52
   5  -6   5   51.45    4.01
   5   6   5   50.06    3.16
  -5   6  -5   54.68    3.89
   5   6   5   54.39    3.76
   5   6   5   47.42    3.65
   6  -6   5    5.64    1.69
   6  -6   5    3.67    1.44
   6  -6   5    6.00    1.93
   6  -6   5    6.40    2.05
  -6  -6  -5    5.61    1.74
   6   6   5    5.68    1.60
   6   6   5    5.84    1.73
   6   6   5    4.92    1.62
   5  -7  -5    5.40    1.77
   5  -7  -5    4.40    1.28
   5  -7  -5    4.04    1.77
   5   7  -5    4.90    1.65
   5   7  -5    4.01    1.50
   5   7  -5    5.66    1.70
   5   7  -5    5.26    1.47
   4  -7  -5   -0.32    0.96
   4  -7  -5   -0.35    0.85
   4  -7  -5   -0.59    0.61
   4   7  -5    0.04    0.85
   4   7  -5    0.19    1.07
   4   7  -5    0.48    0.96
   3  -7  -5   10.35    2.29
   3  -7  -5   10.01    1.61
   3  -7  -5   11.50    2.32
   3   7  -5   12.47    2.20
   3   7  -5    7.22    1.72
   3   7  -5    8.81    1.65
  -2  -7   5   20.26    2.48
   2  -7  -5   23.27    2.89
  -2  -7   5   19.42    2.50
   2  -7  -5   17.69    2.65
   2   7  -5   18.85    2.26
   2   7  -5   22.21    2.61
   2   7  -5   17.94    2.64
   1  -7  -5   75.08    4.40
   1  -7  -5   76.05    4.17
  -1  -7   5   68.84    4.03
  -1  -7   5   71.33    3.79
   1   7  -5   68.75    3.69
   1   7  -5   66.21    4.10
   1   7  -5   70.53    3.79
   0  -7  -5    0.28    0.87
   0  -7   5    1.62    1.02
   0  -7  -5    1.12    1.00
   0  -7   5    1.36    0.93
   0   7  -5    1.08    0.87
   0   7   5    0.89    0.74
   0   7  -5    0.34    0.86
   0   7  -5    0.93    0.80
   1  -7   5   51.14    3.18
  -1  -7  -5   38.75    3.07
   1  -7   5   37.22    3.18
  -1  -7  -5   41.54    3.24
   1  -7   5   43.48    3.45
   1   7   5   47.33    3.15
  -1   7  -5   43.35    3.01
   1   7   5   44.08    3.05
  -1   7  -5   38.84    3.25
  -1   7  -5   43.27    2.56
   2  -7   5   10.57    2.14
   2  -7   5   10.45    1.86
  -2  -7  -5   10.71    1.97
  -2  -7  -5   10.83    2.01
   2  -7   5    9.97    1.96
  -2  -7  -5   10.54    1.60
  -2   7  -5   10.79    2.05
   2   7   5   12.32    2.04
   2   7   5   11.05    1.96
  -3  -7  -5   11.23    2.16
   3  -7   5   11.42    2.26
   3  -7   5    8.51    1.81
  -3  -7  -5   10.60    2.14
   3  -7   5   10.95    2.29
   3   7   5    8.85    1.86
  -3   7  -5    9.56    2.11
   3   7   5    9.76    2.02
   4  -7   5    0.81    1.15
   4  -7   5    0.20    1.02
   4  -7   5   -0.89    0.91
  -4  -7  -5    0.20    0.98
   4   7   5    0.80    0.81
   4   7   5    1.74    1.08
   4   7   5   -0.14    0.77
  -4   7  -5    0.91    1.00
   5  -7   5    1.67    1.31
   5  -7   5    1.43    1.27
   5  -7   5    2.07    1.43
  -5  -7  -5    1.77    1.36
   5   7   5    0.78    1.00
   5   7   5    2.00    1.17
  -5   7  -5    0.26    1.01
   5   7   5    0.85    1.09
   4  -8  -5   23.76    3.46
   4  -8  -5   15.39    3.01
   4  -8  -5   17.92    2.31
   4   8  -5   19.71    2.71
   4   8  -5   18.55    2.96
   4   8  -5   14.74    2.46
   4   8  -5   17.48    2.45
   3  -8  -5    8.34    2.20
   3  -8  -5    2.66    1.60
   3   8  -5    3.45    1.47
   3   8  -5    4.77    1.70
   3   8  -5    6.52    1.68
  -2  -8   5   67.53    4.08
  -2  -8   5   56.17    3.90
   2  -8  -5   57.14    4.02
   2  -8  -5   48.27    4.03
   2   8  -5   57.01    3.71
   2   8  -5   58.11    3.79
   2   8  -5   47.08    3.79
  -1  -8   5   10.08    2.10
   1  -8  -5    9.44    2.20
   1  -8  -5    9.96    2.09
  -1  -8   5    6.35    1.61
   1   8  -5    7.72    1.72
   1   8  -5    7.14    1.54
   1   8  -5    9.55    2.07
   0  -8   5   22.89    2.82
   0  -8  -5   29.46    3.34
   0  -8  -5   30.50    3.48
   0  -8   5   30.11    3.55
   0   8  -5   25.38    3.38
   0   8  -5   23.28    2.59
   1  -8   5    0.63    1.12
  -1  -8  -5    2.75    1.33
   1  -8   5    2.64    1.32
  -1  -8  -5    5.45    1.70
   1  -8   5    3.82    1.34
   1   8   5    3.27    1.39
   1   8   5    3.93    1.38
  -1   8  -5    4.68    1.47
   2  -8   5   68.25    4.65
  -2  -8  -5   69.12    4.49
  -2  -8  -5   67.36    4.24
   2  -8   5   76.74    4.39
  -2  -8  -5   69.40    3.72
   2  -8   5   63.76    4.40
  -2   8  -5   64.53    4.40
   2   8   5   67.90    4.16
   2   8   5   64.24    4.10
  -3  -8  -5   -0.72    1.03
   3  -8   5    0.69    1.14
  -3  -8  -5    0.93    1.20
   3  -8   5   -0.67    1.04
   3  -8   5   -0.19    1.01
   3   8   5   -1.28    0.79
  -3   8  -5    1.22    1.09
   3   8   5   -0.38    0.83
  -4  -8  -5   10.25    2.18
   4  -8   5   14.67    2.65
   4  -8   5   16.24    2.66
   4  -8   5   18.78    3.06
   4   8   5   11.94    2.31
  -4   8  -5   17.29    2.76
   4   8   5   20.48    3.15
   2  -9  -5   18.53    3.03
   2  -9  -5   18.20    3.19
  -2  -9   5   21.04    3.03
   2   9  -5   20.89    3.34
   2   9  -5   12.20    2.22
  -1  -9   5   35.54    4.13
   1  -9  -5   31.83    3.88
  -1  -9   5   25.95    3.31
   1  -9  -5   33.32    3.89
   1   9  -5   31.03    3.91
   1   9  -5   37.15    3.14
   0  -9   5   -1.76    0.98
   0  -9  -5    0.62    1.39
   0  -9  -5    0.86    1.26
   0  -9   5    1.19    1.11
   0   9  -5   -0.40    0.88
   0   9  -5   -0.08    1.17
  -1  -9  -5   55.44    4.41
  -1  -9  -5   57.53    4.15
   1  -9   5   57.39    4.47
   1  -9   5   61.34    4.14
  -1   9  -5   53.85    4.36
   1   9   5   54.81    3.87
   2  -9   5    8.92    2.43
   2  -9   5    6.49    1.83
  -2  -9  -5   10.34    2.13
   2  -9   5    7.11    2.11
  -2  -9  -5    6.96    2.04
  -2   9  -5    7.44    2.01
   2   9   5    7.12    1.91
   2   9   5    9.77    2.14
   8   0  -6   20.63    2.68
   8   0  -6   15.59    1.20
   8   0  -6   20.50    2.88
   7   0  -6    0.76    0.92
   7   0  -6    0.02    0.60
   7   0  -6    0.10    0.28
   6   0  -6    0.95    0.71
   6   0  -6    0.32    0.24
   6   0  -6    1.09    0.87
   5   0  -6   -0.32    0.51
   5   0  -6    0.45    0.48
   5   0  -6   -0.06    0.15
   4   0  -6   97.46    1.90
   4   0  -6   98.82    3.52
   3   0  -6    0.11    0.18
   3   0  -6    0.05    0.17
   3   0  -6   -0.03    0.37
   3   0  -6   -0.34    0.36
   2   0  -6  401.70    7.77
   2   0  -6  405.15    7.15
   2   0  -6  410.32    8.43
   2   0  -6  405.42    7.03
   1   0  -6    0.31    0.22
   1   0  -6    0.38    0.48
  -1   0   6   -0.03    0.30
   1   0  -6   -0.17    0.28
   1   0  -6   -0.08    0.24
   0   0  -6  384.08    7.64
   0   0  -6  375.51    7.38
   0   0  -6  378.40    8.06
   0   0  -6  383.38    7.26
   0   0   6  387.00    7.00
   0   0   6  364.48    7.41
   1   0   6   -0.29    0.33
  -1   0  -6   -0.31    0.34
   1   0   6   -0.28    0.35
  -1   0  -6   -0.51    0.13
   1   0   6   -0.05    0.38
   1   0   6    0.13    0.34
  -1   0  -6    0.39    0.53
  -2   0  -6  392.10    8.79
   2   0   6  392.67    8.59
   2   0   6  403.22    6.86
   2   0   6  400.75    8.62
  -2   0  -6  402.53    8.45
   2   0   6  399.18    7.90
   2   0   6  409.39    8.14
  -2   0  -6  386.73    8.45
   3   0   6    0.50    0.51
  -3   0  -6   -0.07    0.43
  -3   0  -6    0.79    0.66
   3   0   6    0.07    0.47
   3   0   6    1.26    0.55
   3   0   6   -0.51    0.35
   4   0   6   29.26    2.16
   4   0   6   27.71    2.23
  -4   0  -6   27.58    2.23
  -4   0  -6   28.30    2.27
   4   0   6   28.07    2.00
   4   0   6   27.63    1.96
   5   0   6    0.09    0.62
  -5   0  -6    0.18    0.65
   5   0   6    0.09    0.57
   5   0   6   -0.26    0.60
   5   0   6   -0.35    0.62
   6   0   6   16.95    2.13
   6   0   6   16.54    2.14
   6   0   6   15.30    2.19
  -6   0  -6   12.21    1.97
   6   0   6   17.29    2.35
   7   0   6    0.82    1.01
  -7   0  -6    0.74    0.95
   7   0   6   -0.52    0.75
   7   0   6    0.67    0.96
   7   0   6   -0.82    0.59
   8  -1  -6   18.69    2.32
   8  -1  -6   19.62    2.69
   8  -1  -6   18.41    1.22
   8   1  -6   16.43    2.47
   8   1  -6   17.12    2.45
   8   1  -6   19.65    1.44
   7  -1  -6   -0.29    0.71
   7  -1  -6   -0.62    0.63
   7  -1  -6    0.13    0.28
   7  -1  -6    0.90    0.74
   7   1  -6    0.97    0.91
   7   1  -6    0.53    0.96
   7   1  -6   -0.42    0.29
   6  -1  -6   52.00    2.77
   6  -1  -6   45.52    1.24
   6  -1  -6   43.65    2.87
   6  -1  -6   49.50    2.99
   6   1  -6   47.07    3.13
   6   1  -6   49.79    2.98
   6   1  -6   44.91    1.90
   6   1  -6   45.77    1.72
   5   1  -6    5.40    0.60
   5   1  -6    4.40    0.59
   5   1  -6    4.73    0.87
   5   1  -6    4.32    0.61
   5   1  -6    4.20    1.18
   4   1  -6   33.78    2.42
   4   1  -6   35.51    1.33
   4   1  -6   32.42    1.85
   4   1  -6   33.35    1.36
   4   1  -6   32.85    1.24
   3  -1  -6   26.27    1.75
   3  -1  -6   28.57    0.90
   3  -1  -6   27.95    0.92
   3  -1  -6   24.96    1.66
   3   1  -6   26.38    1.31
   3   1  -6   26.91    1.34
   3   1  -6   28.38    1.67
   3   1  -6   28.49    1.25
   3   1  -6   28.34    1.46
   2  -1  -6   31.37    1.19
   2  -1  -6   28.16    1.86
   2  -1  -6   32.85    1.64
   2  -1  -6   32.19    1.28
   2  -1  -6   34.91    1.89
   2   1  -6   33.53    1.42
   2   1  -6   30.04    1.41
   2   1  -6   29.29    1.73
   2   1  -6   30.64    1.49
   1  -1  -6   43.93    1.54
  -1  -1   6   42.53    1.90
   1  -1  -6   43.08    2.04
   1  -1  -6   44.98    1.77
   1  -1  -6   45.71    1.64
   1  -1  -6   45.81    1.65
   1  -1  -6   39.46    2.15
  -1   1   6   43.70    1.63
   1   1  -6   44.73    1.20
   1   1  -6   42.25    2.14
   1   1  -6   43.54    1.86
   1   1  -6   45.47    1.65
   1   1  -6   49.51    1.98
   0  -1  -6    5.51    0.96
   0  -1  -6    8.09    0.55
   0  -1   6    7.04    0.87
   0  -1  -6    7.51    0.55
   0  -1  -6    6.21    0.78
   0  -1  -6    7.80    1.04
   0  -1   6    7.54    1.08
   0  -1  -6    6.89    1.10
   0   1  -6    7.25    1.20
   0   1   6    6.98    0.91
   0   1   6    7.08    0.78
   0   1  -6    8.53    1.04
   0   1  -6    6.30    0.81
  -1  -1  -6   63.07    2.65
  -1  -1  -6   67.35    2.44
  -1  -1  -6   67.46    2.85
   1  -1   6   64.15    2.45
  -1  -1  -6   67.41    1.77
   1  -1   6   61.19    2.58
   1  -1   6   66.03    2.78
   1   1   6   68.51    1.96
   1   1   6   64.57    1.85
  -1   1  -6   65.01    2.93
   1   1   6   63.36    2.66
   1   1   6   70.65    2.71
  -1   1  -6   65.60    2.50
  -1   1  -6   64.06    2.39
  -2  -1  -6   65.67    2.93
   2  -1   6   64.04    2.64
   2  -1   6   58.27    2.83
   2  -1   6   63.92    2.76
   2  -1   6   66.76    1.83
  -2  -1  -6   64.89    2.59
  -2  -1  -6   59.92    2.78
   2  -1   6   61.15    2.85
   2   1   6   69.04    2.95
  -2   1  -6   61.91    3.00
   2   1   6   70.81    2.62
   2   1   6   65.91    2.22
   2   1   6   68.08    2.88
  -2   1  -6   62.22    2.66
   3  -1   6   74.20    3.42
   3  -1   6   76.19    3.09
  -3  -1  -6   82.56    3.43
   3  -1   6   76.75    3.20
   3  -1   6   74.78    3.33
  -3  -1  -6   71.34    3.31
   3   1   6   76.31    3.02
   3   1   6   79.09    2.75
  -3   1  -6   77.19    3.58
  -3   1  -6   77.65    3.28
   3   1   6   72.87    3.18
   3   1   6   77.07    3.41
   4  -1   6   17.16    1.84
  -4  -1  -6   17.97    2.15
   4  -1   6   17.71    2.07
   4  -1   6   16.91    1.88
  -4  -1  -6   14.99    1.89
   4  -1   6   20.92    2.37
   4   1   6   15.90    2.03
  -4   1  -6   17.09    2.21
   4   1   6   15.24    1.61
   4   1   6   15.03    1.70
   4   1   6   17.43    2.05
   5  -1   6   21.76    2.29
  -5  -1  -6   23.58    2.49
  -5  -1  -6   22.34    2.68
   5  -1   6   18.51    2.15
   5  -1   6   24.57    2.52
   5  -1   6   17.26    2.19
   5   1   6   20.82    1.78
   5   1   6   24.19    2.44
  -5   1  -6   20.50    2.49
   5   1   6   18.93    2.14
   5   1   6   27.81    2.88
   6  -1   6   91.01    4.40
   6  -1   6   92.94    4.71
  -6  -1  -6   90.39    4.24
   6  -1   6   96.44    4.35
   6  -1   6   93.06    4.39
   6   1   6   94.13    4.12
   6   1   6   83.62    4.00
  -6   1  -6   91.88    4.55
   6   1   6   90.81    4.64
   6   1   6   82.06    4.15
   7  -1   6   10.03    2.25
   7  -1   6    7.80    1.74
   7  -1   6    9.54    1.96
   7  -1   6    6.48    1.58
  -7  -1  -6   13.18    2.04
   7   1   6    4.69    1.48
   7   1   6    8.45    1.90
   7   1   6    8.35    1.71
  -7   1  -6    8.48    1.87
   7   1   6    7.08    1.79
   7  -2  -6   27.38    2.14
   7  -2  -6   25.14    3.14
   7  -2  -6   25.04    2.86
   7  -2  -6   25.90    1.27
   7   2  -6   24.85    2.97
   7   2  -6   25.49    1.62
   7   2  -6   25.58    2.85
   6  -2  -6    0.71    0.69
   6  -2  -6    0.68    0.30
   6  -2  -6    1.35    0.92
   6  -2  -6    0.14    0.71
   6  -2  -6    0.86    0.61
   6   2  -6    0.36    0.44
   6   2  -6    0.72    0.96
   6   2  -6    0.40    0.81
   6   2  -6    1.37    0.56
   5  -2  -6   50.56    1.33
   5  -2  -6   47.26    2.62
   5  -2  -6   47.98    3.01
   5  -2  -6   51.89    2.42
   5  -2  -6   46.56    1.32
   5   2  -6   47.98    2.00
   5   2  -6   51.09    1.97
   5   2  -6   50.13    2.11
   5   2  -6   49.95    3.22
   5   2  -6   44.53    1.92
   4  -2  -6    9.09    1.52
   4  -2  -6    7.67    0.51
   4  -2  -6    7.99    1.19
   4  -2  -6    7.45    0.48
   4   2  -6    7.03    0.87
   4   2  -6    8.61    1.05
   4   2  -6    6.96    0.93
   4   2  -6    7.82    0.98
   4   2  -6    4.81    1.26
   3  -2  -6   49.96    2.62
   3  -2  -6   49.68    2.57
   3  -2  -6   48.97    1.44
   3  -2  -6   50.85    1.55
   3  -2  -6   50.85    2.08
   3   2  -6   51.89    2.20
   3   2  -6   50.36    2.18
   3   2  -6   48.96    1.96
   3   2  -6   46.06    1.96
   3   2  -6   47.31    2.14
   3   2  -6   50.16    1.66
   2  -2  -6   48.32    1.70
  -2  -2   6   48.58    1.94
   2  -2  -6   47.54    1.74
   2  -2  -6   47.20    2.45
   2  -2  -6   52.98    2.37
   2  -2  -6   49.06    1.63
   2   2  -6   49.07    2.01
   2   2  -6   51.71    2.28
   2   2  -6   51.68    2.26
  -2   2   6   49.03    1.21
   2   2  -6   47.30    2.16
   2   2  -6   47.83    1.39
   1  -2  -6   36.68    1.75
  -1  -2   6   42.32    1.63
   1  -2  -6   41.29    1.21
   1  -2  -6   41.68    1.12
   1  -2  -6   42.15    2.20
  -1  -2   6   41.90    2.06
   1  -2  -6   40.98    1.62
   1  -2  -6   42.39    1.79
   1   2  -6   42.09    1.94
   1   2  -6   39.75    1.28
   1   2  -6   40.87    1.44
  -1   2   6   41.29    1.63
   1   2  -6   39.95    2.10
   1   2  -6   39.70    2.33
   0  -2  -6  152.89    4.51
   0  -2  -6  147.82    3.83
   0  -2   6  153.88    3.44
   0  -2   6  156.08    4.58
   0  -2   6  154.74    4.05
   0  -2   6  152.97    4.58
   0  -2  -6  150.24    4.55
   0  -2  -6  154.47    3.71
   0   2   6  156.76    3.55
   0   2  -6  155.11    4.65
   0   2  -6  156.51    3.45
   0   2  -6  155.80    4.27
   0   2   6  149.89    3.99
   0   2  -6  153.01    2.80
  -1  -2  -6    2.02    0.68
   1  -2   6    1.99    0.68
  -1  -2  -6    1.50    0.46
   1  -2   6    2.21    0.79
  -1  -2  -6    1.94    0.57
   1  -2   6    1.07    0.62
  -1  -2  -6    1.56    0.66
   1  -2   6    1.16    0.31
   1   2   6    1.74    0.61
  -1   2  -6    0.69    0.60
  -1   2  -6    1.87    0.54
  -1   2  -6    2.32    0.72
   1   2   6    2.18    0.68
   2  -2   6   24.00    1.22
  -2  -2  -6   21.45    1.76
   2  -2   6   25.62    1.96
   2  -2   6   25.02    1.76
   2  -2   6   23.15    1.90
  -2  -2  -6   25.64    1.84
   2  -2   6   19.28    1.96
   2   2   6   23.87    1.13
  -2   2  -6   23.28    1.98
   2   2   6   20.90    1.49
   2   2   6   26.22    1.79
   2   2   6   21.50    1.72
  -3  -2  -6    8.14    1.38
   3  -2   6    8.54    1.04
   3  -2   6    8.74    1.50
   3  -2   6    7.34    1.44
  -3  -2  -6    5.89    1.26
   3  -2   6    6.01    1.26
   3  -2   6    9.56    1.40
  -3   2  -6    6.54    1.32
   3   2   6    7.12    1.29
   3   2   6    9.57    1.47
   3   2   6    8.40    1.00
   3   2   6   11.52    1.45
   4  -2   6   12.97    1.89
  -4  -2  -6   13.89    1.74
  -4  -2  -6   13.57    1.85
   4  -2   6   16.02    1.42
   4  -2   6   15.58    2.03
   4  -2   6   15.06    1.90
   4  -2   6   11.13    1.66
   4   2   6   16.14    1.95
  -4   2  -6   15.44    2.12
   4   2   6   16.52    1.40
   4   2   6   11.86    1.52
   4   2   6   16.66    2.21
   5  -2   6   32.40    2.78
  -5  -2  -6   33.77    2.49
   5  -2   6   35.43    2.63
   5  -2   6   34.41    2.66
   5  -2   6   35.78    2.54
  -5  -2  -6   32.62    2.75
   5   2   6   33.08    2.16
   5   2   6   35.34    2.58
   5   2   6   35.85    2.48
   5   2   6   28.16    2.48
  -5   2  -6   32.77    2.75
   6  -2   6   -0.39    0.80
   6  -2   6    0.81    0.82
   6  -2   6    0.90    0.95
  -6  -2  -6    0.08    0.81
  -6  -2  -6    0.51    0.82
   6  -2   6   -0.41    0.76
  -6   2  -6    0.00    0.79
   6   2   6    0.77    0.86
   6   2   6   -0.23    0.66
   6   2   6    0.90    0.97
   6   2   6   -0.67    0.62
   7  -2   6   65.94    3.92
   7  -2   6   62.14    4.15
   7  -2   6   61.06    4.27
   7  -2   6   62.81    3.89
   7   2   6   62.42    3.89
   7   2   6   67.31    4.41
  -7   2  -6   68.07    4.37
   7   2   6   59.28    3.58
   7   2   6   62.91    3.83
   7  -3  -6    2.57    1.10
   7  -3  -6    3.15    0.66
   7  -3  -6    3.59    1.51
   7   3  -6    1.39    1.13
   7   3  -6    1.53    1.25
   7   3  -6    3.29    0.90
   7   3  -6    5.05    1.00
   6  -3  -6  115.26    3.05
   6  -3  -6  118.94    4.68
   6  -3  -6  109.37    4.26
   6  -3  -6  117.49    5.39
   6   3  -6  116.96    3.85
   6   3  -6  116.65    3.80
   6   3  -6  118.97    5.44
   6   3  -6  116.68    5.02
   5  -3  -6    3.69    1.01
   5  -3  -6    2.12    0.71
   5  -3  -6    3.37    1.18
   5  -3  -6    4.51    0.63
   5  -3  -6    4.39    0.64
   5   3  -6    3.97    1.26
   5   3  -6    4.11    0.90
   5   3  -6    3.11    0.79
   4  -3  -6  139.91    3.27
   4  -3  -6  140.91    3.20
   4  -3  -6  139.02    5.18
   4  -3  -6  144.35    4.27
   4  -3  -6  139.79    5.15
   4   3  -6  138.13    4.25
   4   3  -6  138.52    5.40
   4   3  -6  153.47    5.89
   4   3  -6  147.62    3.86
   4   3  -6  142.96    4.12
   3  -3  -6    3.55    0.56
   3  -3  -6    3.05    1.01
   3  -3  -6    3.93    1.12
   3  -3  -6    2.50    0.56
   3   3  -6    3.02    0.73
   3   3  -6    3.21    0.63
   3   3  -6    2.10    0.65
   3   3  -6    2.33    0.94
   3   3  -6    1.56    0.65
   2  -3  -6   32.06    1.45
   2  -3  -6   32.90    2.25
   2  -3  -6   35.15    1.70
   2  -3  -6   33.76    1.34
   2  -3  -6   30.00    2.05
  -2  -3   6   31.77    1.82
   2   3  -6   32.54    2.32
   2   3  -6   29.57    1.84
   2   3  -6   32.05    1.83
   2   3  -6   32.03    2.04
   2   3  -6   32.13    1.80
  -1  -3   6    5.21    0.81
  -1  -3   6    5.93    1.06
   1  -3  -6    5.98    0.80
   1  -3  -6    4.61    1.01
   1  -3  -6    6.05    0.89
   1  -3  -6    4.94    0.95
   1   3  -6    4.96    0.93
  -1   3   6    7.16    0.89
   1   3  -6    5.76    1.13
   1   3  -6    5.25    1.03
   0  -3   6    1.51    0.71
   0  -3   6    0.05    0.24
   0  -3  -6    1.09    0.55
   0  -3   6    1.34    0.42
   0  -3  -6    0.66    0.41
   0  -3   6    0.94    0.72
   0  -3   6   -0.03    0.28
   0  -3  -6    0.54    0.56
   0  -3  -6    0.40    0.60
   0   3   6    0.29    0.39
   0   3  -6    0.47    0.54
   0   3  -6   -0.14    0.30
   0   3  -6    1.20    0.61
   0   3   6    1.21    0.41
   1  -3   6   11.52    1.60
   1  -3   6   12.50    1.49
   1  -3   6   15.70    1.06
   1  -3   6   13.71    1.74
  -1  -3  -6   13.15    1.63
  -1  -3  -6   13.44    1.70
  -1  -3  -6   15.32    1.21
  -1  -3  -6   14.77    1.49
   1   3   6   17.57    1.65
   1   3   6   16.11    1.43
  -1   3  -6   15.79    1.91
  -1   3  -6   15.52    1.71
   2  -3   6   74.34    3.56
  -2  -3  -6   77.20    3.20
   2  -3   6   69.33    2.49
   2  -3   6   72.59    3.16
  -2  -3  -6   76.72    3.44
   2  -3   6   73.80    3.51
   2   3   6   74.67    1.79
   2   3   6   76.59    3.01
  -2   3  -6   69.31    3.49
   2   3   6   73.03    2.86
   2   3   6   72.60    3.23
  -3  -3  -6   28.40    2.72
   3  -3   6   28.85    2.10
   3  -3   6   24.28    1.64
   3  -3   6   25.39    2.30
  -3  -3  -6   25.24    1.88
   3  -3   6   25.86    2.45
   3  -3   6   21.78    2.31
   3   3   6   24.24    1.32
   3   3   6   26.05    1.84
   3   3   6   25.73    1.89
   3   3   6   23.66    2.00
   3   3   6   22.36    2.01
   4  -3   6  213.63    6.90
   4  -3   6  216.22    5.77
   4  -3   6  220.36    6.41
   4  -3   6  217.25    6.48
  -4  -3  -6  209.24    6.80
  -4  -3  -6  215.03    6.11
   4  -3   6  216.76    7.10
   4   3   6  214.39    6.47
   4   3   6  211.70    6.70
  -4   3  -6  216.47    7.15
   4   3   6  215.49    6.24
   4   3   6  217.77    5.22
   4   3   6  211.62    6.07
   5  -3   6    2.17    0.85
  -5  -3  -6    4.77    1.37
   5  -3   6    3.64    1.30
   5  -3   6    1.82    1.08
   5  -3   6    3.27    1.16
   5  -3   6    1.27    0.84
  -5  -3  -6    4.30    1.16
   5   3   6    4.83    1.35
   5   3   6    4.99    1.30
   5   3   6    4.84    1.05
   5   3   6    4.14    1.16
  -5   3  -6    3.42    1.25
   5   3   6    2.29    0.91
   6  -3   6   69.23    3.87
   6  -3   6   67.54    3.66
   6  -3   6   69.14    4.25
   6  -3   6   72.51    4.00
   6  -3   6   66.45    4.29
  -6  -3  -6   65.97    4.28
   6   3   6   73.99    3.90
   6   3   6   68.40    3.37
   6   3   6   68.29    3.72
  -6   3  -6   70.39    4.37
   6   3   6   76.66    4.44
   6   3   6   62.16    3.65
   7  -3   6    0.14    0.99
   7  -3   6    0.16    1.03
   7  -3   6    0.77    1.04
   7  -3   6    0.14    0.87
   7  -3   6   -0.96    0.84
   7   3   6    0.42    0.97
   7   3   6    2.72    1.15
   7   3   6    0.18    0.82
   7   3   6   -1.12    0.70
   7  -4  -6   19.00    2.58
   7  -4  -6   19.44    1.51
   7  -4  -6   14.35    2.75
   7   4  -6   15.74    1.98
   7   4  -6   19.47    2.98
   7   4  -6   14.57    2.38
   7   4  -6   18.66    2.02
   6  -4  -6   10.31    1.17
   6  -4  -6    9.00    2.02
   6  -4  -6    8.96    1.69
   6   4  -6    8.29    1.34
   6   4  -6    8.51    2.07
   6   4  -6    8.40    1.41
   6   4  -6    6.89    1.54
   5  -4  -6   23.78    1.97
   5  -4  -6   25.75    2.94
   5  -4  -6   28.74    3.16
   5  -4  -6   21.36    1.40
   5   4  -6   26.74    2.04
   5   4  -6   28.87    3.23
   5   4  -6   21.61    1.83
   4  -4  -6   31.32    1.65
   4  -4  -6   34.63    2.03
   4  -4  -6   37.85    2.81
   4  -4  -6   31.15    2.63
   4  -4  -6   37.52    1.76
   4   4  -6   35.30    2.18
   4   4  -6   36.54    2.36
   4   4  -6   33.07    2.70
   3  -4  -6   21.28    2.40
   3  -4  -6   21.35    1.37
   3  -4  -6   19.19    1.24
   3  -4  -6   18.82    2.32
   3  -4  -6   20.60    1.39
   3   4  -6   22.89    1.54
   3   4  -6   20.04    2.40
   3   4  -6   22.01    1.76
   3   4  -6   20.91    2.17
   2  -4  -6   66.25    2.45
   2  -4  -6   76.32    3.62
  -2  -4   6   69.13    3.02
   2  -4  -6   68.49    2.10
   2  -4  -6   65.15    3.32
   2   4  -6   72.49    3.41
   2   4  -6   71.53    2.93
   2   4  -6   70.24    3.09
   2   4  -6   72.31    3.57
   1  -4  -6   -0.19    0.32
   1  -4  -6   -0.16    0.58
  -1  -4   6    0.80    0.45
   1  -4  -6    1.02    0.73
  -1  -4   6    1.09    0.69
  -1   4   6    0.29    0.40
   1   4  -6    1.25    0.62
   1   4  -6    0.06    0.47
   1   4  -6    0.69    0.60
   1   4  -6    0.41    0.57
   0  -4   6   87.13    2.89
   0  -4  -6   89.68    3.53
   0  -4  -6   80.19    3.45
   0  -4   6   86.54    3.94
   0  -4  -6   89.22    3.80
   0  -4   6   89.80    3.85
   0  -4   6   82.38    3.26
   0  -4   6   81.47    1.96
   0  -4  -6   85.67    3.10
   0   4  -6   85.48    3.47
   0   4  -6   88.19    3.54
   0   4   6   84.69    3.22
   0   4  -6   83.48    3.60
   0   4  -6   81.99    3.76
   1  -4   6    4.97    0.91
   1  -4   6    4.25    1.00
   1  -4   6    5.63    1.40
   1  -4   6    3.70    1.14
  -1  -4  -6    3.52    1.01
  -1  -4  -6    3.72    1.15
  -1  -4  -6    2.93    0.85
  -1   4  -6    4.27    1.03
   1   4   6    3.12    0.87
  -1   4  -6    1.96    0.89
   1   4   6    6.33    1.01
  -1   4  -6    3.69    1.10
   2  -4   6   25.03    1.71
   2  -4   6   24.78    2.01
  -2  -4  -6   22.21    1.81
  -2  -4  -6   25.56    2.57
   2  -4   6   23.28    2.49
   2  -4   6   29.67    3.08
  -2  -4  -6   22.61    1.83
   2   4   6   25.14    1.73
   2   4   6   21.41    1.93
  -2   4  -6   27.53    2.30
   2   4   6   23.62    1.99
   2   4   6   22.28    1.67
   3  -4   6   22.49    1.75
   3  -4   6   25.91    2.14
   3  -4   6   30.45    2.58
  -3  -4  -6   22.82    1.86
   3  -4   6   19.74    2.39
  -3  -4  -6   19.75    2.32
   3   4   6   25.27    1.91
   3   4   6   23.52    2.13
   3   4   6   27.98    2.00
  -3   4  -6   20.86    2.44
   3   4   6   26.69    1.31
   3   4   6   24.59    2.57
  -4  -4  -6   12.07    1.92
   4  -4   6   12.57    2.23
  -4  -4  -6   16.27    1.85
   4  -4   6   16.69    2.41
   4  -4   6   16.07    2.13
   4  -4   6   14.60    1.78
   4  -4   6   12.34    1.87
  -4   4  -6   12.26    2.02
   4   4   6    9.80    2.05
   4   4   6   15.24    1.26
   4   4   6   13.23    1.96
   4   4   6   16.65    1.96
   4   4   6   12.55    1.94
  -5  -4  -6   24.12    2.06
   5  -4   6   27.93    2.33
   5  -4   6   23.92    3.05
   5  -4   6   30.71    3.01
   5  -4   6   24.11    2.93
  -5  -4  -6   32.11    3.38
   5  -4   6   29.50    2.99
   5   4   6   25.21    2.79
   5   4   6   30.58    2.54
   5   4   6   29.76    2.42
   5   4   6   29.40    3.32
  -5   4  -6   30.29    3.49
   6  -4   6   -1.32    0.76
   6  -4   6   -0.10    0.78
  -6  -4  -6   -0.16    0.96
   6  -4   6   -0.62    0.78
   6  -4   6    0.03    0.86
   6  -4   6    0.59    1.06
   6   4   6    0.81    0.88
   6   4   6   -0.06    0.69
   6   4   6    0.88    1.05
  -6   4  -6    0.80    1.15
   7  -4   6    6.22    1.82
   7  -4   6    5.02    1.64
   7  -4   6    3.39    1.59
  -7  -4  -6    4.16    1.69
   7  -4   6    6.08    1.87
   7  -4   6    5.42    1.63
   7   4   6    4.85    1.62
   7   4   6    0.15    1.08
   7   4   6    6.28    1.75
   6  -5  -6    4.19    1.64
   6  -5  -6    4.14    0.90
   6  -5  -6    3.87    1.27
   6  -5  -6    5.35    1.62
   6   5  -6    3.23    1.09
   6   5  -6    3.79    1.45
   6   5  -6    5.94    1.90
   6   5  -6    1.67    0.90
   5  -5  -6    0.09    0.43
   5  -5  -6    1.24    0.74
   5  -5  -6    0.72    1.01
   5  -5  -6    0.70    0.96
   5   5  -6    0.56    0.72
   5   5  -6    0.46    1.00
   5   5  -6    0.00    0.52
   4  -5  -6   13.33    2.18
   4  -5  -6   12.98    2.26
   4  -5  -6   11.09    1.32
   4  -5  -6   11.02    1.46
   4   5  -6   11.69    1.76
   4   5  -6    9.48    1.80
   4   5  -6    9.13    1.53
   3  -5  -6   16.38    2.24
   3  -5  -6   17.97    1.49
   3  -5  -6   18.92    2.18
   3  -5  -6   18.44    2.43
   3   5  -6   18.76    2.50
   3   5  -6   19.46    2.28
   3   5  -6   18.55    1.55
   3   5  -6   21.11    2.20
   2  -5  -6   12.12    1.92
   2  -5  -6   15.90    2.17
  -2  -5   6   13.40    1.82
   2   5  -6    9.63    1.47
   2   5  -6   12.86    1.99
   2   5  -6   11.68    1.83
   2   5  -6   12.70    1.54
   1  -5  -6  135.03    5.05
  -1  -5   6  131.09    4.92
  -1  -5   6  131.62    4.31
   1  -5  -6  137.82    5.13
  -1   5   6  132.10    4.14
   1   5  -6  138.41    4.94
   1   5  -6  127.45    4.42
   1   5  -6  131.32    5.16
   1   5  -6  130.16    4.68
   0  -5   6   -0.21    0.63
   0  -5   6    0.74    0.71
   0  -5  -6    0.47    0.74
   0  -5  -6   -0.11    0.61
   0  -5   6    0.62    0.58
   0   5   6    0.44    0.53
   0   5  -6    0.05    0.66
   0   5  -6    0.57    0.60
   0   5  -6   -0.28    0.53
   0   5  -6    0.18    0.57
   1  -5   6  139.07    4.39
   1  -5   6  138.26    5.39
  -1  -5  -6  130.88    4.64
  -1  -5  -6  142.91    5.25
   1  -5   6  134.10    5.36
  -1  -5  -6  136.04    4.89
  -1   5  -6  136.52    5.44
   1   5   6  136.50    3.88
  -1   5  -6  135.42    4.85
  -1   5  -6  128.73    4.36
   1   5   6  140.83    4.84
  -1   5  -6  134.39    5.12
  -2  -5  -6    0.11    0.56
   2  -5   6   -0.09    0.72
  -2  -5  -6    0.92    0.89
   2  -5   6    0.73    0.67
  -2  -5  -6   -0.23    0.54
   2  -5   6    1.43    0.90
   2  -5   6    0.84    0.99
  -2   5  -6    1.21    0.65
  -2   5  -6    0.67    0.64
  -2   5  -6    0.25    0.61
   2   5   6    1.21    0.76
  -2   5  -6    2.14    0.95
   2   5   6    0.52    0.65
   2   5   6    0.97    0.64
  -3  -5  -6   37.19    2.34
   3  -5   6   37.87    2.71
   3  -5   6   37.12    3.06
   3  -5   6   39.08    3.17
  -3  -5  -6   34.19    2.73
   3  -5   6   34.92    2.33
   3   5   6   33.08    2.20
  -3   5  -6   41.89    5.01
   3   5   6   39.58    2.86
  -3   5  -6   37.54    1.94
  -3   5  -6   34.61    2.91
  -3   5  -6   34.43    2.88
   3   5   6   31.01    2.56
  -4  -5  -6    3.40    0.98
  -4  -5  -6    6.45    1.62
   4  -5   6    2.14    1.00
   4  -5   6    4.31    1.53
   4  -5   6    5.26    1.55
   4  -5   6    4.71    1.43
   4   5   6    1.69    0.96
  -4   5  -6    4.86    1.52
   4   5   6    5.25    1.28
  -4   5  -6    3.96    1.36
   4   5   6    4.22    1.37
   5  -5   6   39.93    3.51
   5  -5   6   46.33    3.31
   5  -5   6   46.82    3.83
   5  -5   6   44.28    3.05
  -5  -5  -6   31.08    3.32
   5   5   6   48.84    3.61
   5   5   6   46.17    3.38
  -5   5  -6   48.53    3.74
  -5   5  -6   41.90    3.44
   5   5   6   47.10    3.02
   6  -5   6    6.33    1.81
   6  -5   6    6.51    1.85
  -6  -5  -6    8.79    2.13
   6  -5   6    5.11    1.69
   6  -5   6    8.35    1.84
   6  -5   6   10.69    1.95
  -6   5  -6    6.61    1.88
   6   5   6    9.61    1.98
   6   5   6    9.12    2.07
   6   5   6    9.35    2.11
   6  -6  -6    1.27    0.74
   6  -6  -6    1.59    1.41
   6  -6  -6    0.95    1.27
   6   6  -6    3.34    1.28
   6   6  -6    0.41    0.80
   6   6  -6    2.17    1.49
   6   6  -6    0.76    1.15
   5  -6  -6    8.45    1.97
   5  -6  -6    8.89    2.26
   5  -6  -6    8.82    1.37
   5   6  -6   10.97    1.86
   5   6  -6    6.97    1.97
   5   6  -6    8.94    1.81
   4  -6  -6   26.08    2.02
   4  -6  -6   33.43    3.79
   4  -6  -6   38.10    3.91
   4   6  -6   30.12    2.49
   4   6  -6   26.84    3.26
   4   6  -6   30.03    2.71
   3  -6  -6   13.92    2.37
   3  -6  -6   10.29    1.99
   3   6  -6   13.30    2.14
   3   6  -6   10.86    1.71
   3   6  -6   11.60    2.09
  -2  -6   6   56.67    3.40
   2  -6  -6   57.37    3.64
   2  -6  -6   53.51    3.61
   2   6  -6   56.84    3.28
   2   6  -6   54.99    2.72
   2   6  -6   62.86    3.62
   2   6  -6   59.46    3.63
   1  -6  -6    3.31    1.20
  -1  -6   6    2.61    1.16
  -1  -6   6    1.91    0.84
   1  -6  -6    3.26    1.20
   1   6  -6    3.66    1.15
   1   6  -6    2.66    0.95
   1   6  -6    2.08    0.90
   1   6  -6    2.50    1.09
   0  -6  -6   90.23    4.36
   0  -6  -6   86.28    4.27
   0  -6   6   87.10    3.74
   0  -6   6   97.53    4.63
   0   6  -6   91.86    4.16
   0   6   6   92.53    3.88
   0   6  -6   89.76    4.06
   0   6  -6   85.38    3.83
   0   6  -6   93.49    4.68
   1  -6   6    8.15    1.69
   1  -6   6    8.91    1.50
  -1  -6  -6    8.60    1.67
   1  -6   6    6.99    1.69
  -1  -6  -6    8.62    1.49
  -1  -6  -6    9.11    1.82
  -1   6  -6   11.13    1.56
   1   6   6   11.04    1.77
  -1   6  -6    8.62    1.83
  -1   6  -6    9.54    1.74
  -1   6  -6    7.02    1.47
  -2  -6  -6   56.47    3.01
   2  -6   6   63.32    3.98
   2  -6   6   58.39    3.20
  -2  -6  -6   60.74    3.54
   2  -6   6   60.37    3.92
  -2  -6  -6   61.06    3.66
  -2   6  -6   56.72    3.78
   2   6   6   53.89    3.44
   2   6   6   62.88    3.56
   2   6   6   55.69    2.56
  -2   6  -6   54.97    2.66
  -2   6  -6   60.29    3.42
  -2   6  -6   57.51    3.61
  -3  -6  -6    9.13    1.93
   3  -6   6   10.59    2.14
   3  -6   6   13.63    2.00
   3  -6   6   10.91    2.14
  -3  -6  -6   10.19    1.90
  -3  -6  -6    8.67    1.52
   3   6   6   10.79    1.60
   3   6   6   12.70    2.15
  -3   6  -6   13.32    2.35
   3   6   6    9.53    1.81
  -3   6  -6   10.01    1.95
  -4  -6  -6   15.46    2.44
   4  -6   6   15.01    2.14
   4  -6   6   15.96    2.63
   4  -6   6   18.52    2.75
  -4   6  -6   17.81    2.61
   4   6   6   14.72    2.27
   4   6   6   19.44    2.28
   4   6   6   17.52    2.52
   5  -6   6    6.05    1.67
   5  -6   6    6.07    1.98
   5  -6   6    7.50    2.15
  -5  -6  -6    4.75    1.63
   5   6   6    7.04    1.82
   5   6   6    7.78    1.89
   5   6   6    5.37    1.45
  -5   6  -6    6.96    1.80
   6  -6   6    2.39    1.50
   5  -7  -6   -0.13    1.04
   5  -7  -6    1.76    0.87
   5  -7  -6    3.15    1.67
   5   7  -6    3.42    1.21
   5   7  -6    0.71    1.25
   5   7  -6    1.33    1.27
   5   7  -6    2.13    1.24
   4  -7  -6   16.96    2.06
   4  -7  -6   19.34    3.10
   4  -7  -6   14.74    2.60
   4   7  -6   15.92    2.42
   4   7  -6   18.22    2.72
   4   7  -6   21.48    2.74
   3  -7  -6   30.18    3.75
   3  -7  -6   32.16    3.65
   3   7  -6   25.06    3.14
   3   7  -6   27.37    2.85
   3   7  -6   28.42    3.38
   2  -7  -6    0.50    1.03
   2  -7  -6    2.72    1.34
   2   7  -6    1.23    0.99
   2   7  -6    0.06    0.77
   2   7  -6    1.77    1.16
  -1  -7   6   28.33    2.43
   1  -7  -6   25.82    3.01
   1  -7  -6   30.02    3.37
  -1  -7   6   31.03    3.32
   1   7  -6   35.07    3.13
   1   7  -6   26.00    2.75
   1   7  -6   30.66    3.16
   0  -7   6    1.20    1.09
   0  -7   6    1.77    0.92
   0  -7  -6    1.73    1.18
   0  -7  -6    3.57    1.42
   0   7  -6    1.65    1.13
   0   7  -6    3.65    1.21
   0   7  -6    3.46    1.21
  -1  -7  -6   42.58    3.28
  -1  -7  -6   39.81    2.76
   1  -7   6   42.56    2.91
  -1  -7  -6   41.70    3.31
   1  -7   6   41.03    3.40
   1  -7   6   38.39    3.32
   1   7   6   43.40    3.02
  -1   7  -6   44.90    3.55
  -1   7  -6   40.22    2.56
  -1   7  -6   36.89    2.92
   2  -7   6    7.99    1.85
   2  -7   6   11.64    1.90
  -2  -7  -6    9.71    1.67
  -2  -7  -6   10.45    2.06
   2  -7   6    8.25    2.00
  -2  -7  -6    9.18    1.98
  -2   7  -6    7.20    1.77
   2   7   6   12.56    2.22
   2   7   6   10.21    1.84
  -3  -7  -6   30.03    3.36
   3  -7   6   28.12    3.65
   3  -7   6   29.62    3.07
  -3  -7  -6   33.71    3.03
   3  -7   6   34.98    3.80
  -3   7  -6   24.54    3.23
   3   7   6   33.58    3.66
   3   7   6   31.85    3.42
   4  -7   6   36.95    3.12
   4  -7   6   35.88    4.22
   4  -7   6   47.60    4.04
  -4  -7  -6   39.50    4.05
   4   7   6   37.00    3.37
  -4   7  -6   42.45    3.68
   4   7   6   45.40    3.63
   5  -7   6    2.54    1.31
   5  -7   6    1.83    1.56
  -5  -7  -6    1.66    1.39
   5  -7   6    3.43    1.76
   5   7   6   -0.15    0.94
   5   7   6    1.12    1.14
   5   7   6    1.52    1.33
  -5   7  -6    1.02    1.30
   3  -8  -6   40.15    4.30
   3  -8  -6   32.45    3.99
   3   8  -6   40.89    3.49
   3   8  -6   41.06    3.57
   3   8  -6   33.65    3.38
  -2  -8   6   -0.52    0.84
   2  -8  -6    1.24    1.12
   2  -8  -6   -0.37    1.18
   2   8  -6    1.24    1.09
   2   8  -6   -1.01    0.80
   2   8  -6   -0.20    0.90
   1  -8  -6   17.33    2.83
   1  -8  -6   18.28    2.94
  -1  -8   6   13.46    2.16
  -1  -8   6   18.81    2.88
   1   8  -6   13.62    2.61
   1   8  -6   12.71    2.05
   1   8  -6   11.48    2.02
   0  -8   6    4.80    1.73
   0  -8  -6    3.71    1.55
   0  -8   6    4.97    1.51
   0  -8  -6    6.06    1.84
   0   8  -6    4.89    1.74
   0   8  -6    3.33    1.25
  -1  -8  -6    8.65    2.03
  -1  -8  -6    8.02    1.68
   1  -8   6    3.92    1.35
   1  -8   6    5.70    1.82
  -1  -8  -6    8.56    2.01
   1  -8   6    8.76    2.06
  -1   8  -6    2.95    1.34
   2  -8   6    1.10    1.21
  -2  -8  -6    2.06    1.35
  -2  -8  -6    0.80    0.93
  -2  -8  -6    1.71    1.24
   2  -8   6    2.20    1.34
   2  -8   6    1.08    0.97
   2   8   6    1.65    1.15
   2   8   6    1.80    1.20
  -2   8  -6    0.49    1.09
   3  -8   6    8.55    2.28
  -3  -8  -6   13.63    2.56
   3  -8   6   17.07    2.99
  -3  -8  -6   12.77    2.59
   3  -8   6   11.13    2.17
  -3   8  -6    9.89    2.12
   3   8   6   14.52    2.55
   3   8   6    8.83    1.91
   1  -9  -6    0.70    1.28
   1   9  -6    0.55    1.06
   1   9  -6    1.06    1.19
   0  -9  -6    0.87    1.42
   0  -9  -6   -0.52    0.97
   0  -9   6    0.72    1.32
   0  -9   6    1.48    1.16
   0   9  -6    0.54    1.26
   1  -9   6    7.04    2.09
   7   0  -7    9.48    1.75
   7   0  -7   14.63    2.28
   7   0  -7   13.32    0.81
   6   0  -7   -0.89    0.54
   6   0  -7    0.11    0.20
   6   0  -7   -0.08    0.48
   6   0  -7   -0.74    0.53
   6   0  -7    0.15    0.18
   5   0  -7  152.84    4.90
   5   0  -7  153.32    2.90
   5   0  -7  150.14    2.91
   5   0  -7  146.26    5.52
   4   0  -7    0.31    0.23
   4   0  -7    0.58    0.52
   4   0  -7    0.43    0.49
   3   0  -7   75.16    2.87
   3   0  -7   77.02    2.16
   3   0  -7   76.98    2.17
   3   0  -7   78.68    3.23
  -2   0   7    0.28    0.25
   2   0  -7    0.53    0.52
   2   0  -7    0.45    0.39
   2   0  -7    0.24    0.16
  -1   0   7    1.83    0.56
   1   0  -7    1.14    0.65
   1   0  -7    1.78    0.59
   1   0  -7    1.65    0.58
   1   0  -7    1.34    0.44
   1   0  -7    1.73    0.30
   0   0   7    0.26    0.37
   0   0  -7   -0.10    0.28
   0   0  -7    0.41    0.57
   0   0  -7    0.27    0.38
   0   0   7   -0.03    0.33
  -1   0  -7   51.12    2.37
   1   0   7   50.42    2.44
  -1   0  -7   46.36    2.57
   1   0   7   47.81    2.07
  -1   0  -7   50.40    2.27
   2   0   7    0.78    0.62
   2   0   7    1.54    0.36
   2   0   7   -0.11    0.36
  -2   0  -7    0.18    0.47
  -2   0  -7    0.04    0.55
   2   0   7   -0.06    0.49
   2   0   7    0.04    0.45
   3   0   7   67.41    3.00
   3   0   7   66.62    3.28
   3   0   7   71.91    3.01
  -3   0  -7   69.34    3.28
  -3   0  -7   67.89    3.46
   3   0   7   69.88    3.39
   4   0   7    0.07    0.46
   4   0   7    0.60    0.69
   4   0   7    0.22    0.64
   4   0   7    0.55    0.60
  -4   0  -7   -0.02    0.64
  -4   0  -7    0.14    0.69
   5   0   7   75.96    4.07
   5   0   7   72.49    3.78
  -5   0  -7   70.38    3.91
   5   0   7   66.97    3.45
   5   0   7   68.94    3.45
   6   0   7   -0.33    0.70
   6   0   7   -0.46    0.67
  -6   0  -7   -0.42    0.78
   6   0   7    1.17    0.91
   6   0   7    0.55    0.83
   7   0   7   39.85    3.52
   7   0   7   38.97    3.87
   7   0   7   43.95    3.27
  -7   0  -7   38.79    3.31
   7  -1  -7    2.41    0.99
   7  -1  -7    1.27    1.04
   7  -1  -7    0.01    0.83
   7   1  -7    1.64    1.08
   7   1  -7    2.37    1.24
   7   1  -7    2.09    0.52
   6  -1  -7   65.82    3.48
   6  -1  -7   58.03    3.07
   6  -1  -7   60.65    3.50
   6   1  -7   63.50    2.03
   6   1  -7   62.82    2.02
   6   1  -7   63.24    3.83
   5   1  -7   12.41    0.90
   5   1  -7   13.66    0.96
   5   1  -7   14.19    1.62
   5   1  -7   14.82    0.81
   5   1  -7   16.67    2.33
   4  -1  -7  117.72    4.29
   4  -1  -7  115.55    4.09
   4  -1  -7  111.97    2.20
   4  -1  -7  113.25    4.13
   4   1  -7  114.10    2.90
   4   1  -7  107.64    3.74
   4   1  -7  110.90    3.44
   4   1  -7  107.50    2.84
   3  -1  -7    4.17    0.87
   3  -1  -7    1.58    0.40
   3  -1  -7    3.15    0.85
   3  -1  -7    2.50    0.90
   3  -1  -7    2.26    0.44
   3   1  -7    2.43    0.70
   3   1  -7    2.64    0.63
   3   1  -7    1.00    0.42
   3   1  -7    2.56    0.57
   2  -1  -7   15.48    1.60
   2  -1  -7   17.98    0.99
   2  -1  -7   14.57    0.96
   2  -1  -7   17.78    1.19
   2  -1  -7   13.95    1.64
   2   1  -7   18.11    1.05
   2   1  -7   17.53    1.12
   2   1  -7   18.29    1.22
   2   1  -7   16.62    1.72
   2   1  -7   21.74    1.34
   1  -1  -7  141.11    4.57
  -1  -1   7  138.63    3.92
   1  -1  -7  142.74    4.18
   1  -1  -7  142.96    3.45
   1  -1  -7  140.48    3.21
   1  -1  -7  134.08    3.74
   1  -1  -7  142.09    3.56
  -1   1   7  138.16    3.52
   1   1  -7  142.00    4.05
   1   1  -7  134.76    3.48
   1   1  -7  142.01    3.87
   1   1  -7  138.59    4.43
   0  -1   7    1.13    0.60
   0  -1   7    1.30    0.54
   0  -1  -7    1.51    0.68
   0  -1  -7    1.60    0.28
   0  -1  -7    2.62    0.76
   0  -1  -7    0.85    0.42
   0  -1  -7    1.15    0.41
   0   1  -7    0.91    0.42
   0   1  -7    1.82    0.59
   0   1  -7    0.21    0.52
   0   1   7    1.21    0.51
   0   1   7    2.13    0.52
  -1  -1  -7   79.32    2.90
  -1  -1  -7   78.29    2.10
   1  -1   7   81.00    3.10
   1  -1   7   77.95    3.23
  -1  -1  -7   81.87    3.19
  -1  -1  -7   80.85    3.42
   1   1   7   77.30    3.24
   1   1   7   72.72    2.98
   1   1   7   82.69    1.97
  -1   1  -7   75.28    2.95
   1   1   7   77.57    2.68
  -1   1  -7   80.98    3.50
   1   1   7   80.83    2.27
  -1   1  -7   80.04    2.89
  -2  -1  -7   59.72    2.99
   2  -1   7   59.58    1.55
  -2  -1  -7   59.97    2.90
   2  -1   7   55.03    2.58
   2  -1   7   64.07    1.57
   2  -1   7   58.66    2.76
   2  -1   7   58.25    3.01
   2  -1   7   56.38    2.94
  -2   1  -7   58.72    2.69
   2   1   7   60.44    2.04
   2   1   7   61.99    2.25
   2   1   7   59.68    2.89
   2   1   7   58.16    2.55
   2   1   7   57.68    2.86
  -2   1  -7   57.68    3.15
  -3  -1  -7    9.40    1.53
   3  -1   7   12.47    1.63
   3  -1   7   10.87    1.61
   3  -1   7    7.92    1.40
  -3  -1  -7   11.63    1.69
   3  -1   7   11.24    0.93
   3  -1   7   11.43    1.53
  -3   1  -7   11.57    1.58
   3   1   7   10.67    1.57
  -3   1  -7    7.12    1.39
   3   1   7    9.97    1.24
   3   1   7    9.13    1.29
   3   1   7    9.67    1.53
   4  -1   7  138.90    5.35
   4  -1   7  134.41    5.10
  -4  -1  -7  131.54    5.05
   4  -1   7  140.37    4.83
   4  -1   7  141.00    4.98
  -4  -1  -7  149.45    5.44
   4   1   7  141.22    5.08
   4   1   7  145.52    4.47
   4   1   7  136.87    5.26
   4   1   7  140.00    4.73
  -4   1  -7  133.70    5.38
   5  -1   7   51.83    3.48
   5  -1   7   58.72    3.33
   5  -1   7   60.89    3.33
  -5  -1  -7   58.58    3.48
  -5  -1  -7   61.64    3.74
   5  -1   7   64.12    3.61
   5   1   7   58.42    3.20
   5   1   7   56.86    2.94
  -5   1  -7   60.47    3.69
   5   1   7   54.92    3.51
   5   1   7   57.11    3.41
   6  -1   7   52.84    3.74
   6  -1   7   54.37    3.53
   6  -1   7   54.41    3.51
   6  -1   7   50.77    3.29
  -6  -1  -7   55.08    3.54
   6   1   7   51.93    3.50
   6   1   7   50.41    3.11
  -6   1  -7   51.07    3.65
   6   1   7   50.64    3.62
  -7  -1  -7    1.66    1.13
   7  -1   7    2.14    1.13
   7  -1   7    2.01    1.37
   7  -1   7    1.62    1.23
   7   1   7    2.17    1.16
   7   1   7    1.90    1.29
  -7   1  -7    2.27    1.33
   7   1   7   -0.24    0.85
   7  -2  -7   30.28    3.27
   7  -2  -7   27.46    2.20
   7  -2  -7   32.49    3.54
   7   2  -7   26.96    3.25
   7   2  -7   29.66    3.29
   7   2  -7   28.68    1.72
   6  -2  -7   16.87    2.19
   6  -2  -7   20.12    2.63
   6  -2  -7   19.47    1.99
   6  -2  -7   22.22    2.49
   6   2  -7   21.14    2.80
   6   2  -7   18.51    1.34
   5  -2  -7    0.37    0.53
   5  -2  -7    1.46    0.93
   5  -2  -7    1.06    0.80
   5  -2  -7    1.07    0.24
   5   2  -7    3.47    1.25
   5   2  -7    0.89    0.56
   5   2  -7    0.20    0.42
   5   2  -7    0.71    0.48
   4  -2  -7   35.41    2.04
   4  -2  -7   37.46    1.18
   4  -2  -7   33.06    2.36
   4  -2  -7   32.57    2.33
   4   2  -7   34.27    1.99
   4   2  -7   33.92    1.78
   4   2  -7   38.80    2.84
   4   2  -7   35.64    1.79
   4   2  -7   34.97    1.69
   4   2  -7   33.73    1.65
   3  -2  -7    1.12    0.45
   3  -2  -7    2.43    0.85
   3  -2  -7    1.38    0.71
   3  -2  -7    1.43    0.34
   3   2  -7    2.80    0.63
   3   2  -7    1.80    0.65
   3   2  -7    1.54    0.42
   3   2  -7    0.94    0.55
   2  -2  -7  107.91    3.91
   2  -2  -7  103.08    3.50
   2  -2  -7   99.49    3.11
  -2  -2   7  111.15    3.18
   2  -2  -7  107.75    4.09
   2  -2  -7  106.00    2.82
   2   2  -7  107.34    2.51
  -2   2   7   87.23    2.64
   2   2  -7  107.75    3.36
   2   2  -7  100.52    3.63
   2   2  -7  108.46    3.67
   1  -2  -7   17.01    1.78
   1  -2  -7   21.52    1.30
   1  -2  -7   18.85    0.84
  -1  -2   7   16.24    1.43
   1  -2  -7   18.49    1.22
   1  -2  -7   19.64    1.31
   1  -2  -7   22.91    2.33
   1   2  -7   19.29    0.86
  -1   2   7   18.47    1.18
   1   2  -7   20.10    1.02
   1   2  -7   18.44    1.49
   1   2  -7   18.00    1.61
   0  -2  -7  243.41    4.97
   0  -2  -7  232.96    6.19
   0  -2   7  238.35    5.55
   0  -2  -7  232.88    6.39
   0  -2   7  239.64    6.26
   0  -2  -7  240.29    5.51
   0   2   7  241.87    4.98
   0   2  -7  239.58    4.97
   0   2   7  240.66    5.67
   0   2  -7  237.20    5.91
   0   2  -7  236.75    6.44
  -1  -2  -7   22.54    1.58
   1  -2   7   25.19    1.74
   1  -2   7   22.28    1.88
  -1  -2  -7   21.84    1.83
  -1  -2  -7   22.25    1.82
   1  -2   7   24.05    1.90
  -1  -2  -7   24.98    1.23
  -1   2  -7   24.54    2.02
  -1   2  -7   24.06    1.48
   1   2   7   23.68    1.73
   1   2   7   21.42    1.40
   1   2   7   23.43    1.74
  -1   2  -7   25.03    1.81
  -2  -2  -7   43.54    2.60
   2  -2   7   39.29    2.56
  -2  -2  -7   39.79    2.46
   2  -2   7   38.03    2.25
   2  -2   7   38.88    2.53
   2  -2   7   37.58    1.38
   2   2   7   39.38    2.37
   2   2   7   40.79    2.12
   2   2   7   38.93    2.34
   2   2   7   37.90    1.47
  -2   2  -7   34.58    2.55
   3  -2   7    8.93    1.61
   3  -2   7    7.50    1.42
  -3  -2  -7    5.94    1.31
   3  -2   7    6.66    0.94
   3  -2   7    7.75    1.59
   3  -2   7    3.52    0.96
  -3  -2  -7    5.45    1.20
   3   2   7    4.65    1.13
   3   2   7    5.88    0.89
   3   2   7    5.92    1.09
   3   2   7    7.81    1.42
  -3   2  -7    4.55    1.29
   4  -2   7   15.49    1.38
   4  -2   7   14.47    2.07
  -4  -2  -7   20.01    2.40
   4  -2   7   18.14    2.18
   4  -2   7   16.68    2.03
   4  -2   7   17.25    2.25
  -4  -2  -7   18.55    2.20
   4   2   7   18.53    1.50
   4   2   7   16.91    2.01
  -4   2  -7   15.60    2.18
   4   2   7   21.08    2.22
   4   2   7   16.06    2.10
  -5  -2  -7    1.64    0.85
   5  -2   7    1.98    1.03
   5  -2   7    3.09    1.24
  -5  -2  -7    0.71    0.84
   5  -2   7    2.29    0.85
   5  -2   7    2.39    1.15
   5  -2   7    0.75    0.86
   5   2   7    2.34    0.88
  -5   2  -7    2.63    1.26
   5   2   7    2.59    1.05
   5   2   7    1.24    0.83
  -6  -2  -7    0.29    0.81
   6  -2   7    0.23    0.71
   6  -2   7    1.17    0.89
  -6  -2  -7    0.78    0.92
   6  -2   7    0.87    0.99
   6  -2   7    0.24    1.01
   6  -2   7    1.20    1.07
  -6   2  -7   -0.13    0.85
   6   2   7   -0.44    0.77
   6   2   7    0.52    0.75
   6   2   7    0.39    0.89
   7  -2   7   14.48    2.54
   7  -2   7   23.97    3.17
   7  -2   7   19.24    2.85
   7   2   7   18.49    2.92
   7   2   7   18.27    2.40
  -7   2  -7   17.73    2.75
   7   2   7   15.15    2.44
   7  -3  -7    3.32    1.45
   7  -3  -7    4.80    1.33
   7  -3  -7    2.57    0.53
   7   3  -7    1.97    0.76
   7   3  -7    3.98    1.53
   7   3  -7    2.96    1.45
   6  -3  -7    1.79    1.05
   6  -3  -7    0.71    0.69
   6  -3  -7    2.34    1.19
   6  -3  -7    1.40    0.39
   6   3  -7    0.62    1.13
   6   3  -7    0.85    0.61
   6   3  -7    1.90    0.69
   5  -3  -7   -0.14    0.24
   5  -3  -7    0.08    0.44
   5  -3  -7    0.41    0.30
   5  -3  -7    0.10    0.85
   5  -3  -7    0.59    0.79
   5  -3  -7   -0.55    0.41
   5   3  -7    0.39    0.48
   5   3  -7    0.82    0.59
   5   3  -7    1.32    1.00
   4  -3  -7    3.21    1.13
   4  -3  -7    1.84    0.43
   4  -3  -7    1.36    0.58
   4  -3  -7    2.74    1.12
   4   3  -7    3.43    0.83
   4   3  -7    2.84    0.82
   4   3  -7    2.19    1.04
   4   3  -7    2.70    0.68
   3  -3  -7  101.07    2.77
   3  -3  -7  105.80    4.33
   3  -3  -7  103.60    3.06
   3  -3  -7  103.45    4.15
   3   3  -7  101.32    3.52
   3   3  -7  105.61    3.83
   3   3  -7   99.76    4.45
   3   3  -7  100.06    3.56
   2  -3  -7   42.43    1.46
   2  -3  -7   45.64    1.87
   2  -3  -7   41.02    2.60
  -2  -3   7   47.75    2.32
   2  -3  -7   44.46    2.48
   2   3  -7   42.19    2.26
   2   3  -7   43.81    2.51
   2   3  -7   45.72    2.45
   2   3  -7   44.75    2.63
   1  -3  -7   74.87    3.03
  -1  -3   7   79.00    3.26
   1  -3  -7   81.95    2.74
   1  -3  -7   73.39    3.44
   1  -3  -7   74.99    3.44
   1   3  -7   79.64    3.50
   1   3  -7   75.67    3.34
   1   3  -7   77.97    3.37
  -1   3   7   76.51    2.60
   0  -3  -7    0.63    0.68
   0  -3  -7   -0.12    0.32
   0  -3  -7    0.82    0.67
   0  -3   7   -0.52    0.53
   0  -3   7   -0.23    0.42
   0  -3  -7   -0.30    0.42
   0   3  -7   -0.37    0.44
   0   3   7   -0.05    0.38
   1  -3   7  150.73    5.27
  -1  -3  -7  158.46    4.23
  -1  -3  -7  156.00    5.04
   1  -3   7  156.83    5.30
  -1  -3  -7  159.66    5.24
   1  -3   7  159.15    3.43
   1  -3   7  158.57    4.79
   1   3   7  156.18    4.80
   1   3   7  153.49    4.58
  -1   3  -7  158.31    5.46
   2  -3   7    4.33    1.22
   2  -3   7    4.05    0.71
  -2  -3  -7    3.24    0.99
   2  -3   7    2.62    0.95
  -2  -3  -7    2.61    0.97
   2  -3   7    1.49    0.99
   2   3   7    1.89    0.76
   2   3   7    2.76    0.88
  -2   3  -7    0.73    0.68
   3  -3   7  159.88    4.33
  -3  -3  -7  157.81    5.25
  -3  -3  -7  160.28    5.70
   3  -3   7  160.59    5.30
   3  -3   7  160.79    5.74
   3  -3   7  158.75    5.89
  -3   3  -7  161.18    6.01
   3   3   7  157.82    4.23
   3   3   7  167.20    5.65
   3   3   7  158.10    5.14
   4  -3   7    4.17    1.29
  -4  -3  -7    5.20    1.29
   4  -3   7    4.15    1.30
   4  -3   7    5.10    1.28
   4  -3   7    7.72    1.24
  -4  -3  -7    6.48    1.58
   4  -3   7    6.84    1.48
   4   3   7    5.86    1.18
  -4   3  -7    5.90    1.56
   4   3   7    3.64    1.22
   4   3   7    5.89    1.36
   5  -3   7    7.89    1.81
   5  -3   7   10.06    1.55
  -5  -3  -7   10.93    2.04
   5  -3   7    8.49    1.62
   5  -3   7   12.94    2.07
   5  -3   7   10.07    1.97
  -5  -3  -7    9.83    1.74
   5   3   7    9.38    1.86
  -5   3  -7   10.30    2.12
   5   3   7    9.08    1.70
   6  -3   7    7.40    1.57
   6  -3   7    7.39    1.85
  -6  -3  -7    6.02    1.70
   6  -3   7    6.81    1.72
   6  -3   7    9.15    2.01
   6   3   7    4.68    1.41
  -6   3  -7    7.98    1.96
   6   3   7    7.69    1.88
   7  -3   7    4.38    1.80
   7  -3   7    1.02    1.21
   7  -3   7    3.78    1.54
  -7   3  -7    2.62    1.52
   7   3   7    4.55    1.60
   7   3   7    5.14    1.57
   6  -4  -7    7.68    1.85
   6  -4  -7    8.45    2.12
   6  -4  -7    7.15    0.94
   6  -4  -7    9.40    2.14
   6   4  -7    9.81    1.49
   6   4  -7    8.10    1.33
   6   4  -7    4.35    1.51
   5  -4  -7   48.80    3.59
   5  -4  -7   46.30    1.98
   5  -4  -7   52.92    2.90
   5  -4  -7   56.34    3.68
   5   4  -7   49.44    2.83
   5   4  -7   61.28    3.97
   5   4  -7   52.28    2.75
   4  -4  -7   36.95    2.91
   4  -4  -7   40.79    3.04
   4  -4  -7   36.23    2.32
   4   4  -7   38.15    3.01
   4   4  -7   36.98    2.45
   4   4  -7   38.72    2.36
   3  -4  -7   82.13    4.10
   3  -4  -7   89.68    4.12
   3   4  -7   83.74    3.50
   3   4  -7   81.31    3.21
   3   4  -7   77.86    4.10
   3   4  -7   82.19    3.71
   2  -4  -7   97.76    4.09
  -2  -4   7  110.84    3.99
   2  -4  -7  100.80    4.38
   2   4  -7  101.36    3.83
   2   4  -7  108.63    4.37
   2   4  -7  102.92    4.49
   2   4  -7  106.00    3.95
   1  -4  -7   53.27    2.82
   1  -4  -7   53.21    3.11
  -1  -4   7   55.16    2.94
  -1   4   7   52.48    2.32
   1   4  -7   53.54    3.10
   1   4  -7   55.26    3.04
   1   4  -7   46.15    2.72
   1   4  -7   54.51    2.86
   0  -4  -7   28.86    2.30
   0  -4   7   31.54    2.39
   0  -4  -7   34.16    2.37
   0  -4  -7   35.58    2.20
   0  -4   7   33.73    1.67
   0   4   7   34.10    2.05
   0   4  -7   31.33    2.45
   0   4  -7   29.19    2.15
   0   4  -7   35.22    2.46
  -1  -4  -7    6.49    1.09
   1  -4   7    8.55    1.60
   1  -4   7    8.49    1.60
   1  -4   7    7.98    1.01
  -1  -4  -7    6.65    1.34
  -1  -4  -7    9.20    1.64
   1   4   7    6.95    1.15
   1   4   7    6.41    1.20
  -1   4  -7    6.06    1.39
  -1   4  -7    6.17    1.36
   2  -4   7  148.55    5.73
  -2  -4  -7  154.42    5.58
   2  -4   7  150.03    4.20
  -2  -4  -7  158.23    5.15
  -2  -4  -7  149.06    4.73
   2  -4   7  147.19    5.63
   2   4   7  151.92    5.23
  -2   4  -7  141.26    5.58
   2   4   7  149.45    4.69
   3  -4   7   20.10    1.66
   3  -4   7   23.23    2.67
  -3  -4  -7   25.19    2.79
  -3  -4  -7   21.93    1.96
   3  -4   7   25.06    2.95
  -3   4  -7   23.08    2.83
   3   4   7   24.05    2.64
   3   4   7   23.20    2.30
   4  -4   7    6.29    1.66
  -4  -4  -7    6.78    1.58
   4  -4   7    6.98    1.75
   4  -4   7    7.73    1.39
  -4  -4  -7    5.36    1.26
   4   4   7    7.90    1.73
   4   4   7    6.98    1.44
  -4   4  -7   10.09    2.05
   5  -4   7   58.22    4.01
   5  -4   7   65.24    3.75
  -5  -4  -7   56.46    3.32
   5  -4   7   57.64    3.19
   5  -4   7   55.66    4.07
  -5  -4  -7   60.90    4.02
   5   4   7   55.77    3.82
   5   4   7   58.24    3.70
   5   4   7   58.52    3.56
  -5   4  -7   59.66    4.06
   6  -4   7    1.26    1.14
  -6  -4  -7    1.56    1.24
   6  -4   7   -0.23    0.99
   6  -4   7    3.33    1.66
   6   4   7    2.70    1.39
   6   4   7    5.57    1.61
   6   4   7    0.57    0.93
  -6   4  -7    1.33    1.28
   6  -5  -7   43.95    3.94
   6  -5  -7   33.90    3.57
   6  -5  -7   40.63    2.15
   6   5  -7   47.53    3.98
   6   5  -7   38.24    3.77
   6   5  -7   41.76    2.82
   6   5  -7   43.73    2.94
   5  -5  -7    5.96    1.75
   5  -5  -7    5.74    1.80
   5  -5  -7    5.94    1.01
   5   5  -7    7.49    1.92
   5   5  -7    4.76    1.29
   5   5  -7    4.93    1.31
   4  -5  -7    0.53    0.90
   4  -5  -7    0.83    1.00
   4   5  -7    1.09    0.86
   4   5  -7    0.51    0.60
   4   5  -7    2.40    1.23
   3  -5  -7    1.10    0.93
   3  -5  -7   -0.30    0.56
   3   5  -7    0.02    0.71
   3   5  -7    0.39    0.68
   3   5  -7   -0.20    0.89
   2  -5  -7   32.59    3.29
   2  -5  -7   29.99    2.57
   2   5  -7   30.29    2.58
   2   5  -7   34.40    2.25
   2   5  -7   40.03    2.63
   2   5  -7   31.58    2.60
   1  -5  -7    1.89    0.88
   1  -5  -7    0.82    0.78
  -1  -5   7    1.45    0.87
   1   5  -7   -0.40    0.60
   1   5  -7    2.56    1.01
   1   5  -7    1.85    0.84
   1   5  -7    1.88    0.86
   0  -5  -7   16.62    2.23
   0  -5  -7   15.64    1.98
   0  -5  -7   13.11    1.88
   0  -5   7    8.97    1.60
   0  -5   7   13.98    1.53
   0   5  -7    9.55    1.70
   0   5  -7   12.00    1.71
   0   5  -7   12.20    1.80
   0   5  -7   13.05    1.87
   0   5   7   12.34    1.62
   1  -5   7   -0.04    0.68
  -1  -5  -7   -0.35    0.64
  -1  -5  -7    0.53    0.65
   1  -5   7    0.32    0.86
   1  -5   7    0.25    0.51
  -1  -5  -7   -0.25    0.52
  -1   5  -7   -0.22    0.58
  -1   5  -7    0.04    0.58
   1   5   7    1.09    0.54
   1   5   7   -0.10    0.52
  -1   5  -7   -0.29    0.59
  -1   5  -7    0.52    0.55
   2  -5   7   39.22    3.15
  -2  -5  -7   41.49    3.00
  -2  -5  -7   39.47    2.62
   2  -5   7   39.73    2.32
   2  -5   7   42.80    3.21
  -2  -5  -7   37.92    2.61
  -2   5  -7   37.39    3.05
   2   5   7   41.38    2.37
   2   5   7   39.58    2.77
  -2   5  -7   45.77    3.23
  -2   5  -7   42.25    2.88
  -2   5  -7   39.92    2.33
  -3  -5  -7    0.11    0.81
   3  -5   7    0.21    0.68
   3  -5   7    0.81    0.96
   3  -5   7   -0.22    0.83
  -3  -5  -7   -0.03    0.64
   3   5   7    0.06    0.65
  -3   5  -7    0.88    0.96
   3   5   7    0.33    0.74
  -3   5  -7   -0.40    0.53
   4  -5   7    4.02    1.60
  -4  -5  -7    2.54    1.12
   4  -5   7    4.66    1.27
   4  -5   7    5.20    1.63
  -4  -5  -7    3.14    1.05
  -4   5  -7    5.45    1.67
   4   5   7    5.14    1.34
   4   5   7    3.55    1.31
   4   5   7    6.38    1.72
  -4   5  -7    7.63    1.84
  -5  -5  -7    2.11    1.25
   5  -5   7    0.38    1.26
   5  -5   7    1.66    1.38
  -5   5  -7    0.08    0.98
   5   5   7    0.36    0.87
  -5   5  -7    0.73    1.10
   5   5   7    0.16    0.82
   5   5   7    0.30    0.80
  -6  -5  -7   65.00    4.65
   6  -5   7   60.15    4.71
   6  -5   7   62.18    4.00
   6  -5   7   61.97    4.61
   6   5   7   58.31    4.28
   6   5   7   62.05    4.18
   6   5   7   57.76    3.89
  -6   5  -7   53.25    4.23
   5  -6  -7   53.17    4.08
   5  -6  -7   49.68    2.65
   5  -6  -7   48.23    4.04
   5   6  -7   51.44    3.54
   5   6  -7   49.13    3.92
   5   6  -7   52.42    3.35
   4  -6  -7   18.65    2.94
   4  -6  -7   11.23    2.20
   4   6  -7   12.96    2.28
   4   6  -7   13.99    2.16
   4   6  -7   14.25    2.05
   3  -6  -7   59.68    3.96
   3  -6  -7   57.48    3.93
   3   6  -7   55.75    3.63
   3   6  -7   54.52    3.74
   3   6  -7   59.80    3.47
   2  -6  -7    9.86    2.02
   2  -6  -7    8.21    1.82
   2   6  -7   10.26    1.51
   2   6  -7    9.65    1.85
   2   6  -7   16.39    2.23
   2   6  -7   10.11    1.88
  -1  -6   7   16.22    2.26
   1  -6  -7   19.73    2.65
   1  -6  -7   18.55    2.53
  -1  -6   7   18.98    2.05
   1   6  -7   15.63    2.33
   1   6  -7   19.85    2.36
   1   6  -7   17.26    2.32
   1   6  -7   19.06    2.19
   0  -6  -7   16.42    2.34
   0  -6  -7   18.64    2.39
   0  -6   7   14.33    1.77
   0  -6  -7   13.49    2.24
   0  -6   7   17.51    2.38
   0   6  -7   12.92    2.09
   0   6  -7   14.79    2.00
   0   6  -7   15.15    2.14
   0   6  -7   12.75    1.89
   1  -6   7    7.34    1.73
  -1  -6  -7    3.60    1.20
   1  -6   7    7.02    1.76
  -1  -6  -7    5.33    1.29
  -1  -6  -7    5.46    1.52
   1  -6   7    4.28    1.12
  -1   6  -7    6.20    1.57
   1   6   7    2.78    1.00
  -1   6  -7    4.28    1.28
  -1   6  -7    5.73    1.26
  -1   6  -7    7.05    1.87
   2  -6   7    6.22    1.83
   2  -6   7   10.65    1.63
   2  -6   7    9.88    2.02
  -2  -6  -7    7.88    1.61
  -2  -6  -7    7.95    1.55
  -2  -6  -7    8.63    1.91
  -2   6  -7   11.49    1.61
  -2   6  -7   13.15    2.10
  -2   6  -7   10.00    2.00
   2   6   7    7.06    1.49
   2   6   7    8.72    1.77
  -2   6  -7   10.34    1.96
   3  -6   7   40.57    4.23
  -3  -6  -7   30.44    2.42
   3  -6   7   35.97    3.89
  -3  -6  -7   25.28    3.05
   3  -6   7   32.25    2.78
   3   6   7   28.56    3.08
  -3   6  -7   23.63    3.05
   3   6   7   29.87    2.22
  -3   6  -7   29.67    3.32
   3   6   7   28.51    3.12
  -4  -6  -7    3.75    1.52
   4  -6   7    1.79    1.31
   4  -6   7    0.81    1.25
  -4   6  -7    0.19    1.15
   4   6   7    3.02    1.17
  -4   6  -7    3.40    1.37
   4   6   7    5.11    1.50
   4   6   7    2.84    1.42
  -5  -6  -7   56.20    4.31
   5  -6   7   53.78    4.30
   5  -6   7   55.46    4.60
  -5   6  -7   55.89    4.29
   5   6   7   56.56    4.09
   5   6   7   48.76    3.91
   5   6   7   47.75    3.36
   4  -7  -7   34.39    3.99
   4  -7  -7   36.40    4.02
   4   7  -7   40.12    4.28
   4   7  -7   37.69    3.36
   4   7  -7   37.56    3.13
   3  -7  -7   32.17    3.74
   3  -7  -7   33.46    3.80
   3   7  -7   34.09    3.71
   3   7  -7   33.56    3.70
   3   7  -7   30.08    3.16
   2  -7  -7    1.53    1.09
   2  -7  -7   -0.35    0.98
   2   7  -7    0.80    0.85
   2   7  -7    0.55    0.86
   2   7  -7    0.01    0.89
  -1  -7   7   54.41    3.72
   1  -7  -7   47.35    3.68
  -1  -7   7   42.96    2.90
   1  -7  -7   42.98    3.50
   1   7  -7   51.96    3.47
   1   7  -7   45.95    3.67
   1   7  -7   45.43    2.97
   1   7  -7   53.68    3.40
   0  -7  -7    2.98    1.26
   0  -7   7    4.96    1.71
   0  -7   7    2.89    1.13
   0  -7  -7    5.89    1.47
   0  -7  -7    5.73    1.75
   0   7  -7    3.67    1.20
   0   7  -7    3.76    1.19
   0   7  -7    2.83    1.31
   0   7  -7    3.82    1.30
   1  -7   7   85.15    5.00
  -1  -7  -7   92.68    4.38
   1  -7   7   85.13    4.84
   1  -7   7   84.36    4.06
  -1  -7  -7   86.09    4.60
  -1  -7  -7   88.50    4.89
  -1   7  -7   85.53    3.87
  -1   7  -7   91.36    5.14
  -1   7  -7   89.84    4.65
  -1   7  -7   87.58    5.22
  -2  -7  -7    0.08    0.82
   2  -7   7    0.92    1.13
  -2  -7  -7    1.48    1.14
   2  -7   7    0.59    1.01
  -2  -7  -7    0.70    0.89
  -2   7  -7    0.63    0.93
   2   7   7    0.03    0.75
  -2   7  -7   -0.57    0.80
   3  -7   7   61.95    4.47
  -3  -7  -7   70.52    4.53
   3  -7   7   62.56    4.54
  -3   7  -7   60.33    4.40
   3   7   7   66.33    4.29
   3   7   7   58.88    4.01
  -4  -7  -7   28.57    3.49
   4  -7   7   25.20    3.47
   4  -7   7   24.11    3.47
   4   7   7   26.79    3.41
  -4   7  -7   23.51    3.38
   4   7   7   23.44    3.03
   3  -8  -7    1.12    1.29
   3   8  -7    1.77    1.37
   2  -8  -7   16.65    2.89
   2  -8  -7   12.42    2.44
   2   8  -7   15.23    2.60
   2   8  -7   13.18    2.33
   2   8  -7   14.52    2.44
   1  -8  -7    8.77    2.21
   1  -8  -7    6.79    1.94
   1   8  -7    8.20    1.80
   1   8  -7    8.53    2.20
   1   8  -7    6.84    1.83
   0  -8  -7   61.49    3.90
   0  -8   7   50.81    4.10
   0  -8  -7   58.16    4.25
   0  -8  -7   64.69    4.44
   0   8  -7   51.81    3.42
   0   8  -7   57.56    4.37
  -1  -8  -7    0.87    1.22
  -1  -8  -7   -0.28    0.96
   1  -8   7    0.25    1.16
  -1  -8  -7    0.97    0.92
  -1   8  -7   -0.28    1.00
   2  -8   7    3.35    1.56
  -2  -8  -7    4.89    1.68
  -2  -8  -7    6.86    1.64
  -2  -8  -7    4.30    1.62
   2  -8   7    5.34    1.94
  -2   8  -7    5.85    1.96
   7   0  -8   -0.16    0.96
   7   0  -8    0.21    0.88
   6   0  -8    3.87    0.46
   6   0  -8    3.26    1.35
   6   0  -8    3.94    1.11
   6   0  -8    4.06    0.45
   6   0  -8    2.54    0.99
   5   0  -8   -0.23    0.54
   5   0  -8    0.20    0.25
   5   0  -8   -0.40    0.44
   4   0  -8   25.31    2.05
   4   0  -8   22.83    1.02
   4   0  -8   23.40    1.77
   4   0  -8   23.85    1.18
   3   0  -8   -0.08    0.45
   3   0  -8   -0.34    0.25
   3   0  -8    0.20    0.50
   3   0  -8    1.52    0.58
   2   0  -8  106.93    3.48
   2   0  -8  104.81    4.04
   2   0  -8  106.39    3.09
   2   0  -8  102.81    2.82
   1   0  -8    0.06    0.55
   1   0  -8    0.06    0.41
  -1   0   8    0.77    0.48
   1   0  -8    0.04    0.35
   0   0  -8  193.92    5.12
   0   0  -8  196.03    5.05
   0   0  -8  194.07    5.90
   0   0   8  191.75    5.16
  -1   0  -8    1.60    0.80
   1   0   8   -0.37    0.38
   1   0   8    0.02    0.49
  -1   0  -8    0.46    0.55
   2   0   8  101.17    4.05
   2   0   8  101.91    4.17
   2   0   8  104.18    3.56
  -2   0  -8   98.84    4.28
  -2   0  -8  104.22    3.96
   3   0   8   -0.49    0.49
  -3   0  -8    0.37    0.67
  -3   0  -8   -0.36    0.55
   3   0   8    0.74    0.79
   3   0   8    0.30    0.56
   4   0   8   37.55    2.86
  -4   0  -8   41.98    2.93
  -4   0  -8   38.57    2.89
   4   0   8   35.07    2.40
   4   0   8   41.75    2.95
   5   0   8    1.00    0.94
  -5   0  -8    0.52    0.92
   5   0   8   -0.26    0.71
   5   0   8    0.12    0.75
   6   0   8    1.06    0.98
  -6   0  -8    1.62    1.13
   6   0   8    2.79    1.35
   6   0   8    1.99    1.20
   7   0   8    0.11    0.98
  -7   0  -8    0.71    1.14
   7   0   8    0.26    1.24
   7   0   8    0.38    1.10
   7  -1  -8    0.64    0.98
   7  -1  -8   -0.26    0.82
   7  -1  -8    0.90    0.80
   7  -1  -8    0.17    0.73
   7  -1  -8    0.37    0.84
   7   1  -8    0.54    0.91
   7   1  -8   -1.13    0.94
   7   1  -8   -0.29    0.33
   6  -1  -8   13.82    1.96
   6  -1  -8   13.47    2.00
   6  -1  -8   15.40    2.32
   6  -1  -8   17.70    2.44
   6  -1  -8   12.57    1.85
   6  -1  -8   12.26    1.91
   6   1  -8   16.74    1.08
   6   1  -8   12.32    2.30
   5  -1  -8   11.73    1.80
   5  -1  -8   17.13    2.14
   5  -1  -8   15.89    1.97
   5   1  -8   11.28    1.56
   5   1  -8   15.46    1.08
   5   1  -8   13.37    1.02
   5   1  -8   17.56    2.52
   4  -1  -8    9.48    1.62
   4  -1  -8    9.24    0.66
   4  -1  -8    9.92    1.55
   4  -1  -8   11.16    1.61
   4   1  -8   11.27    1.32
   4   1  -8   12.39    1.15
   4   1  -8    9.10    0.99
   4   1  -8   11.26    1.58
   3  -1  -8   63.41    2.91
   3  -1  -8   62.35    2.71
   3  -1  -8   59.85    1.95
   3  -1  -8   61.94    3.21
   3   1  -8   60.60    2.30
   3   1  -8   64.34    3.02
   3   1  -8   58.91    2.42
   3   1  -8   62.26    2.41
   2  -1  -8    9.16    0.97
   2  -1  -8   10.82    1.19
   2  -1  -8   11.35    1.48
   2  -1  -8   12.15    1.74
   2   1  -8   11.85    1.64
   2   1  -8   10.64    1.20
   2   1  -8   12.55    1.21
  -1  -1   8  101.10    3.40
   1  -1  -8   93.50    2.33
   1  -1  -8   90.47    3.81
   1  -1  -8   96.71    3.03
   1  -1  -8   90.91    3.47
  -1   1   8   94.87    2.95
   1   1  -8   98.26    3.86
   1   1  -8   91.51    2.90
   1   1  -8   96.40    3.23
   0  -1   8    0.20    0.44
   0  -1  -8    0.87    0.51
   0  -1  -8    0.32    0.61
   0  -1  -8    1.61    0.69
   0   1  -8    0.40    0.63
   0   1  -8    0.42    0.45
   0   1   8    0.62    0.51
   0   1  -8    0.09    0.56
   1  -1   8   95.40    3.83
   1  -1   8   93.85    3.52
  -1  -1  -8   98.30    4.10
  -1  -1  -8  103.63    3.88
   1   1   8   95.21    3.60
  -1   1  -8  103.61    3.51
  -1   1  -8   90.18    4.05
  -2  -1  -8    3.12    0.99
   2  -1   8    2.79    0.93
   2  -1   8    3.56    1.08
  -2  -1  -8    2.10    0.88
   2   1   8    3.29    0.95
   2   1   8    2.74    0.70
  -2   1  -8    3.40    1.14
   2   1   8    1.88    0.81
  -2   1  -8    4.51    1.05
  -3  -1  -8   50.75    3.05
   3  -1   8   50.93    2.84
  -3  -1  -8   48.60    3.05
   3  -1   8   48.76    2.98
   3  -1   8   55.02    3.24
  -3   1  -8   51.11    3.24
  -3   1  -8   52.57    2.95
   3   1   8   49.01    2.99
   3   1   8   49.88    2.35
   3   1   8   53.58    3.11
  -4  -1  -8   31.01    2.56
   4  -1   8   31.46    2.43
   4  -1   8   29.86    2.64
  -4  -1  -8   27.69    2.86
   4  -1   8   29.47    2.95
  -4   1  -8   28.69    3.11
   4   1   8   25.81    1.94
   4   1   8   23.14    2.58
   4   1   8   26.00    2.82
  -5  -1  -8   22.84    2.90
   5  -1   8   23.43    3.01
   5  -1   8   19.68    2.46
   5  -1   8   25.66    2.96
  -5  -1  -8   23.88    2.95
   5   1   8   23.94    2.37
  -5   1  -8   22.68    2.90
   5   1   8   18.23    2.48
   5   1   8   17.74    2.46
  -6  -1  -8    4.44    1.46
   6  -1   8    5.29    1.66
   6  -1   8    2.45    1.16
   6  -1   8    2.90    1.28
   6   1   8    3.58    1.41
  -6   1  -8    1.61    1.18
   6   1   8    3.26    1.26
   6   1   8    2.59    1.30
   7  -1   8    0.84    1.24
   7  -1   8    0.00    1.06
   7  -1   8    0.31    1.09
  -7  -1  -8   -0.11    1.05
   7   1   8    0.26    1.08
   7   1   8    0.06    1.12
  -7   1  -8   -0.35    1.01
   7  -2  -8   75.83    4.14
   7  -2  -8   70.36    4.18
   7  -2  -8   74.07    4.64
   7   2  -8   71.98    4.28
   7   2  -8   69.13    4.61
   7   2  -8   64.59    2.55
   6  -2  -8    0.22    0.64
   6  -2  -8    0.09    0.84
   6  -2  -8   -0.53    0.47
   6  -2  -8   -0.07    0.77
   6   2  -8    0.72    0.48
   6   2  -8   -0.52    0.98
   5  -2  -8   75.69    3.92
   5  -2  -8   76.13    3.40
   5  -2  -8   78.20    1.81
   5  -2  -8   76.86    3.86
   5   2  -8   73.96    2.60
   5   2  -8   75.39    4.32
   5   2  -8   76.18    2.76
   5   2  -8   71.17    4.59
   4  -2  -8    2.23    0.95
   4  -2  -8    3.52    0.83
   4  -2  -8    3.00    0.95
   4  -2  -8    3.94    1.14
   4  -2  -8    2.49    0.44
   4   2  -8    4.39    1.42
   4   2  -8    3.23    0.75
   4   2  -8    3.12    0.75
   4   2  -8    1.37    0.68
   3  -2  -8   74.14    2.24
   3  -2  -8   69.73    2.53
   3  -2  -8   66.39    3.28
   3  -2  -8   66.35    3.08
   3  -2  -8   77.88    3.73
   3   2  -8   71.48    3.13
   3   2  -8   64.94    3.76
   3   2  -8   70.15    2.92
   2  -2  -8   35.33    2.49
   2  -2  -8   31.60    1.57
   2  -2  -8   35.39    2.32
   2  -2  -8   31.80    1.88
   2   2  -8   33.36    2.24
   2   2  -8   35.16    1.41
   2   2  -8   33.47    2.37
   2   2  -8   34.19    2.20
  -1  -2   8   11.24    1.43
   1  -2  -8    9.81    1.16
   1  -2  -8    8.26    1.38
   1  -2  -8    7.54    1.45
   1  -2  -8    9.69    1.10
   1   2  -8    7.50    1.36
  -1   2   8    9.19    1.21
   1   2  -8   10.94    1.03
   0  -2  -8   52.69    1.82
   0  -2   8   55.74    2.88
   0  -2  -8   50.53    2.91
   0  -2  -8   52.36    2.81
   0   2  -8   50.57    2.03
   0   2  -8   52.03    2.95
   0   2   8   57.48    2.52
  -1  -2  -8    7.33    1.38
   1  -2   8    6.39    1.28
  -1  -2  -8    8.23    1.53
   1  -2   8    7.88    1.38
  -1   2  -8    7.61    1.46
   1   2   8    6.89    1.21
  -1   2  -8    9.11    1.12
  -2  -2  -8   48.90    2.90
   2  -2   8   56.78    3.04
   2  -2   8   58.90    3.28
  -2  -2  -8   50.43    2.94
   2   2   8   45.10    2.75
  -2   2  -8   48.81    2.50
  -2   2  -8   49.91    3.20
   2   2   8   48.99    2.83
   3  -2   8   64.88    3.58
   3  -2   8   68.63    3.79
  -3  -2  -8   73.36    3.68
  -3  -2  -8   73.24    3.75
   3  -2   8   72.41    3.65
  -3   2  -8   81.35    4.22
   3   2   8   77.69    3.82
   3   2   8   72.87    3.62
  -4  -2  -8    2.14    1.03
   4  -2   8    3.87    1.18
  -4  -2  -8    3.83    1.24
   4  -2   8    5.38    1.57
   4  -2   8    4.50    1.36
   4   2   8    2.44    1.08
  -4   2  -8    5.01    1.51
   4   2   8    1.54    0.95
  -5  -2  -8  100.20    4.75
   5  -2   8   96.96    4.81
   5  -2   8   95.65    4.80
   5  -2   8   98.89    5.13
  -5  -2  -8  101.70    5.10
   5   2   8   93.34    4.55
  -5   2  -8   96.94    5.07
   5   2   8  100.38    5.00
   6  -2   8    1.78    1.26
  -6  -2  -8    3.21    1.31
   6  -2   8    1.06    1.21
   6  -2   8    3.12    1.34
  -6  -2  -8    1.62    1.12
   6   2   8    0.74    1.10
  -6   2  -8    0.43    0.87
   6   2   8    1.41    1.24
   6  -3  -8   47.08    3.47
   6  -3  -8   46.77    3.59
   6   3  -8   41.57    3.60
   6   3  -8   43.12    2.33
   5  -3  -8    0.03    0.86
   5  -3  -8   -0.42    0.24
   5  -3  -8   -0.63    0.62
   5   3  -8    0.23    0.51
   5   3  -8   -0.45    0.43
   5   3  -8   -0.63    0.76
   4  -3  -8   64.48    3.58
   4  -3  -8   63.46    2.08
   4  -3  -8   62.20    3.58
   4   3  -8   63.26    2.90
   4   3  -8   65.02    3.99
   4   3  -8   62.00    2.92
   4   3  -8   64.07    2.88
   3  -3  -8   11.53    1.80
   3  -3  -8   15.01    2.03
   3  -3  -8   16.74    2.06
   3  -3  -8   13.80    1.12
   3   3  -8   14.25    1.76
   3   3  -8   12.42    1.53
   3   3  -8   12.29    1.63
   3   3  -8    7.87    1.82
   2  -3  -8   29.41    2.29
   2  -3  -8   30.33    2.04
   2  -3  -8   27.90    2.34
   2   3  -8   28.74    2.11
   2   3  -8   26.85    2.12
   1  -3  -8   33.43    2.41
  -1  -3   8   32.53    2.20
   1  -3  -8   30.15    1.87
   1   3  -8   28.91    2.26
   1   3  -8   32.76    2.40
   0  -3  -8    0.18    0.62
   0  -3  -8    0.52    0.72
   0  -3   8    0.82    0.71
   0  -3  -8    0.50    0.44
   0   3  -8    0.07    0.57
   0   3   8    1.03    0.55
   1  -3   8   34.56    2.55
  -1  -3  -8   34.84    2.53
  -1  -3  -8   36.44    2.54
  -1  -3  -8   33.89    1.81
   1  -3   8   38.01    2.70
  -1   3  -8   38.69    2.72
   1   3   8   34.48    2.24
   2  -3   8   18.40    2.37
   2  -3   8   19.46    2.35
  -2  -3  -8   20.23    2.42
  -2  -3  -8   23.94    2.56
   2   3   8   22.55    2.03
  -2   3  -8   18.82    2.47
   2   3   8   22.19    2.28
  -3  -3  -8    3.42    1.06
  -3  -3  -8    6.17    1.47
   3  -3   8    2.32    1.18
   3  -3   8    7.56    1.78
   3   3   8    3.36    1.13
   3   3   8    5.76    1.32
  -3   3  -8    4.28    1.37
   4  -3   8   33.45    3.07
  -4  -3  -8   36.67    3.60
   4  -3   8   35.26    3.40
   4  -3   8   35.61    3.00
  -4  -3  -8   34.68    2.72
  -4   3  -8   34.41    3.60
   4   3   8   37.69    2.72
   4   3   8   36.65    2.90
  -5  -3  -8    1.20    1.13
   5  -3   8    2.37    1.15
   5  -3   8    0.88    1.08
  -5  -3  -8   -0.16    0.76
   5  -3   8    0.36    1.07
  -5   3  -8    2.23    1.24
   5   3   8    2.75    1.15
   5   3   8    1.78    1.01
   6  -3   8   70.21    4.34
   6  -3   8   62.72    4.52
  -6  -3  -8   64.83    4.46
   6  -3   8   66.66    4.52
  -6   3  -8   66.94    4.56
   6   3   8   65.77    4.17
   6   3   8   54.27    4.08
   6  -4  -8    4.24    1.70
   6  -4  -8    5.00    1.69
   6   4  -8    0.19    0.71
   6   4  -8    2.83    1.47
   6   4  -8    2.00    0.88
   5  -4  -8   40.59    3.29
   5  -4  -8   41.01    3.33
   5   4  -8   34.56    2.37
   5   4  -8   37.56    2.50
   4  -4  -8    4.11    1.35
   4  -4  -8    8.39    1.80
   4   4  -8    4.14    0.99
   4   4  -8    4.33    1.48
   4   4  -8    5.54    1.23
   3  -4  -8   14.49    2.07
   3  -4  -8   13.27    2.05
   3   4  -8   13.13    2.20
   3   4  -8   13.20    1.69
   3   4  -8   15.76    1.85
   3   4  -8   15.06    1.99
   2  -4  -8    5.82    1.33
   2  -4  -8    6.35    1.46
   2  -4  -8    5.45    1.27
   2   4  -8    3.67    1.13
   2   4  -8    4.79    1.27
   2   4  -8    5.18    1.17
   2   4  -8    3.33    0.97
   1  -4  -8    5.71    1.25
   1  -4  -8    3.77    1.16
   1  -4  -8    4.97    1.31
  -1  -4   8    2.80    0.96
   1   4  -8    3.38    1.01
   1   4  -8    2.01    0.93
   1   4  -8    4.18    1.15
   0  -4   8    6.96    1.51
   0  -4  -8    6.91    1.22
   0  -4  -8    8.63    1.70
   0  -4  -8    5.26    1.33
   0   4   8    8.68    1.36
   0   4  -8    8.30    1.68
   0   4  -8    7.73    1.61
  -1  -4  -8    3.56    1.25
   1  -4   8    5.32    1.40
  -1  -4  -8    3.71    1.10
  -1  -4  -8    4.22    0.97
   1  -4   8    4.50    1.33
  -1   4  -8    4.48    1.32
   1   4   8    3.53    1.02
   2  -4   8   11.18    1.88
  -2  -4  -8   13.09    2.12
  -2  -4  -8   12.80    1.86
   2  -4   8   12.31    2.04
   2   4   8   11.13    1.63
  -2   4  -8   10.38    1.92
   2   4   8   11.03    1.70
   3  -4   8    9.46    1.95
  -3  -4  -8    9.58    1.67
  -3  -4  -8    7.89    1.65
   3  -4   8    7.21    1.65
   3   4   8    9.51    1.77
   3   4   8    9.25    1.57
  -3   4  -8    9.45    1.86
  -4  -4  -8    1.62    1.05
  -4  -4  -8    4.56    1.33
   4  -4   8    5.48    1.75
   4  -4   8    5.76    1.69
   4   4   8    5.65    1.57
   4   4   8    3.68    1.25
  -4   4  -8    3.35    1.43
   5  -4   8   23.69    3.14
  -5  -4  -8   17.07    2.37
  -5  -4  -8   21.77    2.97
   5  -4   8   22.27    2.86
   5  -4   8   25.67    3.30
  -5   4  -8   24.47    3.36
   5   4   8   22.98    2.76
   5   4   8   22.48    2.87
   6  -4   8    4.16    1.71
   6  -4   8    4.65    1.63
  -6  -4  -8    4.04    1.70
   6  -4   8    4.02    1.82
   6   4   8    1.89    1.32
  -6   4  -8    1.69    1.46
   6   4   8    4.28    1.60
   5  -5  -8    6.78    1.79
   5  -5  -8    7.70    2.06
   5   5  -8    6.84    1.51
   5   5  -8    6.79    1.50
   5   5  -8    7.56    1.99
   4  -5  -8   17.47    2.64
   4  -5  -8   18.99    2.82
   4   5  -8   13.43    2.03
   4   5  -8   17.07    2.79
   4   5  -8   15.52    1.99
   3  -5  -8   59.22    3.82
   3  -5  -8   63.55    3.81
   3   5  -8   53.43    3.15
   3   5  -8   55.88    3.47
   3   5  -8   54.86    3.72
   2  -5  -8    8.81    1.82
   2  -5  -8    9.97    1.84
   2   5  -8    6.42    1.33
   2   5  -8    6.55    1.35
   2   5  -8    9.91    1.87
   2   5  -8    8.53    1.88
   1  -5  -8  158.60    5.61
   1  -5  -8  168.22    6.24
   1  -5  -8  160.81    5.96
  -1  -5   8  149.45    6.46
   1   5  -8  165.15    6.20
   1   5  -8  167.09    6.03
   1   5  -8  158.13    5.60
   1   5  -8  161.33    5.59
   0  -5  -8   -0.16    0.63
   0  -5  -8    0.81    0.69
   0  -5  -8   -0.36    0.74
   0  -5   8    0.74    0.89
   0   5  -8    0.10    0.66
   0   5  -8    0.60    0.73
   0   5  -8   -0.21    0.64
   0   5  -8    0.24    0.67
  -1  -5  -8  157.74    5.28
   1  -5   8  169.87    6.34
   1  -5   8  171.57    6.47
  -1  -5  -8  163.28    5.86
  -1  -5  -8  158.13    6.16
  -1   5  -8  164.80    5.87
  -1   5  -8  160.17    6.12
  -1   5  -8  159.84    5.40
   1   5   8  163.85    5.55
  -1   5  -8  171.17    6.48
   2  -5   8    5.73    1.62
  -2  -5  -8    9.33    1.72
  -2  -5  -8    8.17    1.80
  -2  -5  -8   11.23    1.76
   2  -5   8    8.17    1.89
  -2   5  -8    8.52    1.81
   2   5   8   10.77    1.60
  -2   5  -8    6.41    1.68
  -2   5  -8    9.85    1.82
   2   5   8   10.13    1.82
  -2   5  -8    7.58    1.38
  -3  -5  -8   86.25    4.16
  -3  -5  -8   86.63    4.70
   3  -5   8   87.40    4.97
   3  -5   8   84.02    4.77
  -3   5  -8   90.14    4.94
  -3   5  -8   90.22    5.02
   3   5   8   87.97    3.95
   3   5   8   85.94    4.41
   4  -5   8   15.55    2.72
  -4  -5  -8   14.57    2.51
   4  -5   8   15.62    2.74
  -4  -5  -8   15.51    2.21
  -4   5  -8   14.64    2.62
   4   5   8   14.27    2.06
   4   5   8   13.27    2.18
  -4   5  -8    7.16    1.86
   5  -5   8   -0.40    1.07
  -5  -5  -8    1.17    1.28
   5  -5   8   -0.58    1.01
  -5   5  -8    1.78    1.35
   5   5   8    0.63    0.97
  -5   5  -8    0.64    1.16
   5   5   8    0.15    0.93
   4  -6  -8    9.20    2.15
   4  -6  -8   10.76    2.23
   4   6  -8    8.52    1.86
   4   6  -8    6.30    1.89
   4   6  -8   10.47    1.91
   3  -6  -8   21.23    2.90
   3  -6  -8   15.20    2.45
   3   6  -8   16.17    2.68
   3   6  -8   20.46    2.50
   3   6  -8   22.37    2.74
   2  -6  -8   31.94    3.42
   2  -6  -8   29.82    3.28
   2   6  -8   36.37    3.06
   2   6  -8   32.01    2.94
   2   6  -8   34.11    2.76
   2   6  -8   35.20    2.65
   1  -6  -8    2.24    1.22
   1  -6  -8    3.84    1.41
   1  -6  -8    4.30    1.33
   1   6  -8    3.27    1.21
   1   6  -8    2.11    1.09
   1   6  -8    3.60    1.32
   1   6  -8    4.17    1.35
   0  -6   8   36.17    3.12
   0  -6  -8   41.87    3.02
   0  -6  -8   42.34    3.34
   0  -6  -8   37.67    2.92
   0   6  -8   36.24    2.75
   0   6  -8   39.19    2.98
   0   6  -8   42.47    3.07
   0   6  -8   41.88    3.39
  -1  -6  -8    5.65    1.78
   1  -6   8    4.94    1.62
  -1  -6  -8    7.73    1.65
  -1  -6  -8    7.01    1.51
   1  -6   8    5.07    1.72
  -1   6  -8    8.36    1.93
  -1   6  -8    6.83    1.69
  -1   6  -8    7.92    1.49
  -1   6  -8    8.26    1.77
   2  -6   8   28.44    3.30
   2  -6   8   34.62    3.75
  -2  -6  -8   25.10    3.07
  -2  -6  -8   29.84    2.60
  -2  -6  -8   34.34    2.74
  -2   6  -8   34.63    3.83
   2   6   8   29.12    2.65
  -2   6  -8   26.41    3.05
  -2   6  -8   36.72    2.47
  -3  -6  -8   14.50    2.20
  -3  -6  -8   10.03    2.12
   3  -6   8   15.43    2.71
   3  -6   8   15.14    2.72
  -3   6  -8   16.13    2.66
  -3   6  -8   13.36    2.51
   3   6   8   15.28    2.46
   3   6   8   13.58    2.85
  -4  -6  -8   17.73    2.81
   4  -6   8   17.05    2.88
   4  -6   8   15.09    2.88
   4   6   8   13.93    2.45
  -4   6  -8   17.89    2.91
  -4   6  -8   20.01    2.98
   4   6   8   23.01    2.66
   3  -7  -8   12.28    2.63
   3  -7  -8   13.69    2.51
   3   7  -8   11.57    2.40
   3   7  -8    9.58    1.89
   3   7  -8    9.21    2.18
   2  -7  -8   -0.35    0.90
   2  -7  -8    0.76    1.19
   2   7  -8    0.86    1.04
   2   7  -8   -0.01    1.00
   2   7  -8   -0.27    0.76
   1  -7  -8   24.09    3.25
   1  -7  -8   18.94    2.71
   1   7  -8   21.51    3.04
   1   7  -8   19.55    2.51
   1   7  -8   23.87    2.72
   1   7  -8   26.19    2.80
   0  -7   8    0.53    1.14
   0  -7  -8   -0.68    0.87
   0  -7  -8    0.87    1.14
   0  -7  -8   -0.24    0.73
   0   7  -8    0.29    0.88
   0   7  -8    1.61    1.01
   0   7  -8    0.58    0.82
   0   7  -8    0.88    0.99
  -1  -7  -8   24.48    2.87
  -1  -7  -8   20.23    2.64
  -1  -7  -8   20.67    3.02
   1  -7   8   26.49    3.36
  -1   7  -8   17.10    2.75
  -1   7  -8   15.89    2.44
  -1   7  -8   18.43    2.29
  -2  -7  -8    0.59    0.96
  -2  -7  -8    1.57    1.26
   2  -7   8    2.29    1.51
  -2  -7  -8    1.47    1.26
   2  -7   8    0.25    1.06
  -2   7  -8    0.91    1.10
  -2   7  -8   -0.19    0.93
   3  -7   8    9.85    2.45
  -3  -7  -8    5.52    1.91
   3  -7   8    6.84    2.04
  -3   7  -8    6.54    1.90
  -3   7  -8    8.41    2.18
   3   7   8    3.89    1.51
   1  -8  -8    5.91    2.04
   1  -8  -8    9.42    2.24
   1   8  -8    5.40    1.64
   1   8  -8    5.39    1.68
   1   8  -8    8.46    1.86
   0  -8  -8    3.88    1.52
   0  -8  -8    5.64    1.81
   0  -8  -8    2.27    1.48
   0   8  -8    1.28    1.12
   0   8  -8    2.64    1.27
  -1  -8  -8    1.60    1.42
  -1  -8  -8    3.21    1.45
  -1  -8  -8    1.90    1.23
   1  -8   8    2.00    1.45
  -1   8  -8    2.06    1.37
   6   0  -9    0.15    0.27
   6   0  -9   -0.04    0.25
   6   0  -9   -0.15    0.68
   6   0  -9    0.64    1.09
   5   0  -9   17.25    2.18
   5   0  -9   14.73    1.84
   5   0  -9   15.35    0.95
   4   0  -9    0.22    0.33
   4   0  -9   -0.06    0.42
   4   0  -9   -0.42    0.55
   4   0  -9   -0.19    0.28
   3   0  -9   18.21    1.32
   3   0  -9   18.98    2.25
   3   0  -9   19.18    1.58
   2   0  -9    0.39    0.59
   2   0  -9   -0.64    0.33
   1   0  -9   10.50    1.41
   1   0  -9    9.71    1.64
   0   0  -9    0.21    0.60
   0   0   9   -0.07    0.42
   0   0  -9    0.22    0.51
  -1   0  -9   92.75    3.65
  -1   0  -9   85.04    4.08
   1   0   9   86.74    3.70
   2   0   9   -0.14    0.50
   2   0   9    0.13    0.59
  -2   0  -9   -0.16    0.62
  -2   0  -9    0.42    0.61
  -3   0  -9    9.30    1.85
   3   0   9   10.89    1.92
   3   0   9    8.27    1.57
  -3   0  -9    8.88    1.62
   3   0   9    8.76    1.46
   4   0   9   -0.05    0.68
  -4   0  -9   -0.31    0.74
   4   0   9    0.13    0.75
  -4   0  -9    1.06    0.95
   4   0   9    0.72    0.89
   5   0   9   52.79    3.77
   5   0   9   49.94    3.21
  -5   0  -9   51.77    3.76
   5   0   9   53.58    3.64
  -6   0  -9   -0.34    0.93
   6   0   9    0.41    1.06
   6   0   9   -0.90    0.86
   6   0   9    0.81    1.08
   6  -1  -9   56.64    3.33
   6  -1  -9   55.31    3.53
   6  -1  -9   52.27    3.42
   6  -1  -9   50.31    3.20
   6  -1  -9   50.58    3.63
   6   1  -9   51.62    1.97
   6   1  -9   52.66    3.94
   5  -1  -9    1.01    0.29
   5  -1  -9    0.87    0.85
   5  -1  -9    0.13    0.65
   5  -1  -9    0.05    0.63
   5   1  -9   -0.14    0.88
   5   1  -9    0.71    0.73
   5   1  -9    0.75    0.42
   4  -1  -9   71.35    3.73
   4  -1  -9   68.27    3.28
   4  -1  -9   75.57    2.19
   4  -1  -9   73.86    3.46
   4   1  -9   72.73    3.47
   4   1  -9   71.60    2.54
   3  -1  -9   86.92    4.12
   3  -1  -9   90.38    4.65
   3  -1  -9   91.94    3.71
   3  -1  -9   96.56    2.80
   3   1  -9   94.48    3.99
   3   1  -9   90.85    3.30
   3   1  -9   95.37    3.15
   2  -1  -9   89.26    4.05
   2  -1  -9   91.43    3.61
   2   1  -9   84.27    2.95
   2   1  -9   85.73    3.86
   1  -1  -9    7.46    1.41
   1  -1  -9   11.18    1.55
   1   1  -9   10.43    1.29
   1   1  -9    9.80    1.62
   0  -1  -9    2.84    0.86
   0  -1  -9    3.37    1.12
   0  -1   9    3.29    0.93
   0   1  -9    3.29    0.82
   0   1  -9    4.16    1.20
   0   1   9    2.92    0.80
   1  -1   9   42.21    2.63
  -1  -1  -9   37.59    2.46
   1  -1   9   37.85    2.26
  -1  -1  -9   44.29    2.84
  -1   1  -9   38.37    2.24
   1   1   9   35.57    2.30
  -1   1  -9   36.65    2.77
  -2  -1  -9   17.38    2.09
  -2  -1  -9   22.81    2.62
   2  -1   9   23.59    2.61
   2  -1   9   20.31    2.17
  -2   1  -9   18.76    2.51
   2   1   9   23.54    2.51
   2   1   9   15.53    2.07
  -2   1  -9   16.33    1.88
  -3  -1  -9   41.50    3.01
   3  -1   9   43.58    2.78
  -3  -1  -9   46.92    3.06
   3  -1   9   39.51    2.94
   3  -1   9   34.46    2.81
   3   1   9   44.00    3.03
  -3   1  -9   46.20    3.26
   3   1   9   41.16    2.92
  -3   1  -9   43.10    2.83
   4  -1   9   44.94    2.99
  -4  -1  -9   40.85    3.11
   4  -1   9   44.81    3.35
  -4  -1  -9   38.45    3.06
   4  -1   9   43.47    3.21
   4   1   9   37.95    3.03
   4   1   9   42.47    3.16
  -4   1  -9   43.56    3.40
  -5  -1  -9   12.72    2.25
   5  -1   9   10.49    2.07
  -5  -1  -9    6.60    1.72
   5  -1   9   11.45    2.20
   5  -1   9   12.24    2.10
   5   1   9    8.58    1.83
  -5   1  -9   12.76    2.35
   5   1   9   13.73    2.38
   6  -1   9   66.70    4.25
  -6  -1  -9   64.71    4.35
   6  -1   9   76.31    4.66
   6  -1   9   75.28    4.89
   6   1   9   80.92    4.74
  -6   1  -9   74.58    4.69
   6   1   9   68.82    4.56
   6  -2  -9   11.92    2.14
   6  -2  -9    8.57    1.81
   6  -2  -9   13.10    2.27
   6   2  -9   10.32    1.23
   6   2  -9   12.05    2.42
   5  -2  -9   14.95    2.26
   5  -2  -9   13.27    0.78
   5  -2  -9   14.11    2.22
   5  -2  -9   16.63    2.25
   5   2  -9   15.59    1.53
   5   2  -9   15.36    2.61
   4  -2  -9   11.39    1.90
   4  -2  -9   12.52    0.92
   4  -2  -9    9.82    1.71
   4  -2  -9   15.30    2.09
   4   2  -9   12.42    1.42
   4   2  -9   14.94    2.46
   4   2  -9   12.11    1.43
   4   2  -9   12.54    1.71
   3  -2  -9   -0.05    0.49
   3  -2  -9    0.09    0.56
   3  -2  -9    0.12    0.73
   3   2  -9    0.58    0.58
   3   2  -9   -0.48    0.45
   2  -2  -9   66.14    3.58
   2  -2  -9   64.08    3.27
   2  -2  -9   63.26    2.84
   2   2  -9   64.85    3.36
   1  -2  -9    9.51    1.49
   1  -2  -9    6.94    1.39
   1   2  -9    9.14    1.63
   1   2  -9    8.35    1.01
   0  -2  -9   69.01    3.40
   0  -2  -9   69.91    3.63
   0  -2   9   67.83    3.35
   0   2  -9   66.43    2.52
   0   2  -9   63.67    3.51
  -1  -2  -9   16.04    2.05
   1  -2   9   21.49    2.27
  -1  -2  -9   19.56    2.29
   1  -2   9   17.46    2.14
  -1   2  -9   16.98    2.33
  -1   2  -9   17.01    1.68
   1   2   9   17.67    1.95
  -2  -2  -9  172.09    5.90
  -2  -2  -9  175.46    6.09
   2  -2   9  166.91    5.64
   2  -2   9  164.39    5.99
   2   2   9  168.77    5.65
  -2   2  -9  172.75    6.39
   2   2   9  160.24    5.61
  -2   2  -9  169.26    5.14
   3  -2   9   14.51    2.09
  -3  -2  -9   13.42    2.07
   3  -2   9   12.05    2.04
  -3  -2  -9   15.63    2.26
  -3   2  -9   15.83    2.45
   3   2   9   12.86    2.03
   3   2   9   13.76    2.06
   4  -2   9   33.27    3.55
   4  -2   9   31.93    2.77
   4  -2   9   35.93    2.94
  -4  -2  -9   38.34    3.06
  -4  -2  -9   28.65    3.07
  -4   2  -9   35.49    3.14
   4   2   9   33.78    3.32
   4   2   9   34.12    2.90
   5  -2   9    3.06    1.34
   5  -2   9    1.06    1.05
  -5  -2  -9    0.86    1.09
   5  -2   9   -0.12    0.95
  -5  -2  -9    0.61    1.10
   5   2   9    1.51    1.11
   5   2   9    3.90    1.49
  -5   2  -9    2.07    1.25
  -6  -2  -9    1.64    1.29
   6  -2   9    5.49    1.80
   6  -2   9    1.27    1.30
   6  -2   9    2.04    1.41
  -6  -2  -9    1.65    1.28
   6   2   9    3.01    1.46
  -6   2  -9    4.25    1.75
   6   2   9    3.20    1.36
   6  -3  -9    0.76    1.04
   6  -3  -9   -1.11    0.82
   6  -3  -9    0.87    1.02
   6   3  -9   -0.89    0.91
   6   3  -9   -0.09    0.55
   5  -3  -9   35.35    3.55
   5  -3  -9   33.19    2.97
   5  -3  -9   34.99    2.91
   5   3  -9   27.32    3.42
   5   3  -9   33.08    2.12
   5   3  -9   32.85    2.14
   4  -3  -9   10.21    1.87
   4  -3  -9   10.69    1.90
   4  -3  -9    7.67    1.57
   4   3  -9    9.23    1.47
   4   3  -9   10.76    1.57
   4   3  -9    6.82    1.21
   4   3  -9    8.94    2.08
   3  -3  -9   26.66    2.86
   3  -3  -9   32.64    2.37
   3  -3  -9   30.50    2.54
   3   3  -9   28.35    2.22
   3   3  -9   28.63    2.08
   3   3  -9   31.91    2.33
   2  -3  -9   10.58    1.77
   2  -3  -9   12.76    1.92
   2  -3  -9   12.11    1.57
   2   3  -9   10.31    1.73
   2   3  -9   12.21    1.77
   1  -3  -9  157.38    5.60
   1  -3  -9  162.46    4.53
   1  -3  -9  151.40    5.68
   1   3  -9  160.99    5.75
   1   3  -9  161.90    5.72
   0  -3  -9   -0.48    0.60
   0  -3   9   -0.59    0.58
   0  -3  -9    0.17    0.59
   0   3  -9    0.11    0.61
   1  -3   9   77.39    3.91
  -1  -3  -9   81.46    4.00
   1  -3   9   83.98    4.13
  -1  -3  -9   80.55    4.04
  -1   3  -9   83.33    4.27
   1   3   9   79.71    3.62
   2  -3   9    0.41    0.76
   2  -3   9    1.89    1.06
  -2  -3  -9    0.50    0.72
  -2  -3  -9    1.40    0.92
   2   3   9    0.58    0.67
  -2   3  -9    1.57    1.00
   2   3   9    1.28    0.87
   3  -3   9   16.76    2.44
   3  -3   9   15.49    2.21
  -3  -3  -9   14.49    2.21
  -3  -3  -9   16.97    2.28
   3   3   9   16.62    2.25
  -3   3  -9   16.11    2.53
   3   3   9   14.59    2.18
   4  -3   9   15.72    2.47
  -4  -3  -9   16.69    2.54
  -4  -3  -9   17.99    2.45
   4  -3   9   15.90    2.38
  -4   3  -9   28.14    3.40
   4   3   9   16.47    2.26
   4   3   9   18.04    2.42
  -5  -3  -9   16.67    2.47
   5  -3   9   15.73    2.73
  -5  -3  -9   16.18    2.68
   5  -3   9   16.65    2.67
   5  -3   9   18.29    2.58
   5   3   9   23.96    3.23
  -5   3  -9   22.15    3.07
   5   3   9   19.30    2.72
   6  -3   9    3.41    1.59
   5  -4  -9   47.76    3.70
   5  -4  -9   57.06    3.93
   5   4  -9   54.66    3.09
   5   4  -9   54.63    4.11
   5   4  -9   55.30    3.05
   4  -4  -9    1.49    1.07
   4  -4  -9    1.02    0.99
   4   4  -9    0.36    0.72
   4   4  -9    1.57    1.11
   4   4  -9    1.81    0.85
   3  -4  -9   24.33    2.81
   3  -4  -9   18.05    2.45
   3  -4  -9   24.30    2.59
   3   4  -9   22.71    2.37
   3   4  -9   20.67    2.18
   3   4  -9   23.82    2.59
   2  -4  -9   32.19    2.40
   2  -4  -9   29.63    3.13
   2  -4  -9   30.97    3.18
   2   4  -9   27.82    2.28
   2   4  -9   30.36    2.57
   2   4  -9   33.94    2.81
   2   4  -9   28.40    2.38
   1  -4  -9    0.06    0.70
   1  -4  -9    0.27    0.63
   1  -4  -9   -0.09    0.53
   1   4  -9    0.07    0.74
   1   4  -9    0.18    0.57
   1   4  -9    0.95    0.85
   0  -4   9  152.99    5.71
   0  -4  -9  164.32    6.03
   0  -4  -9  156.21    4.71
   0  -4  -9  155.76    5.86
   0   4  -9  151.90    5.89
   0   4  -9  146.46    5.91
   1  -4   9    5.35    1.46
   1  -4   9    4.46    1.44
  -1  -4  -9    6.15    1.30
  -1  -4  -9    5.27    1.30
  -1  -4  -9   12.20    1.99
  -1   4  -9   10.38    1.94
  -2  -4  -9   13.52    2.08
   2  -4   9   12.88    2.17
  -2  -4  -9   16.78    2.30
   2  -4   9   14.31    2.34
   2   4   9   13.93    1.97
  -2   4  -9   10.74    2.04
   2   4   9   14.81    1.94
  -3  -4  -9   77.29    4.41
   3  -4   9   72.33    4.32
   3  -4   9   77.91    4.61
  -3  -4  -9   71.90    3.94
   3   4   9   73.31    4.08
  -3   4  -9   69.67    4.42
   3   4   9   79.34    3.93
   4  -4   9   29.03    3.43
   4  -4   9   37.25    4.16
  -4  -4  -9   30.86    2.73
  -4  -4  -9   39.05    3.97
  -4   4  -9   31.05    3.60
   4   4   9   35.41    2.85
   4   4   9   33.85    3.03
  -5  -4  -9   44.82    3.76
   5  -4   9   51.50    4.03
   5  -4   9   44.96    4.02
  -5  -4  -9   45.55    3.50
  -5   4  -9   43.22    3.86
   5   4   9   44.62    3.44
   5   4   9   44.57    3.67
   5  -5  -9    0.28    1.10
   5  -5  -9    1.10    1.30
   5   5  -9    0.40    1.10
   5   5  -9   -0.80    0.70
   5   5  -9   -0.14    0.76
   4  -5  -9   65.05    4.16
   4  -5  -9   65.86    4.26
   4   5  -9   62.23    3.70
   4   5  -9   68.14    4.46
   4   5  -9   62.47    3.52
   3  -5  -9    0.03    0.90
   3  -5  -9    1.55    1.10
   3   5  -9    0.51    1.02
   3   5  -9    1.02    0.97
   3   5  -9    1.02    0.79
   2  -5  -9    0.62    0.78
   2  -5  -9    1.50    1.11
   2  -5  -9    0.77    0.93
   2   5  -9    1.46    1.03
   2   5  -9   -0.42    0.64
   2   5  -9   -0.17    0.76
   2   5  -9    0.94    0.81
   1  -5  -9    0.22    0.81
   1  -5  -9    0.38    0.76
   1  -5  -9    0.04    0.62
   1   5  -9    0.33    0.78
   1   5  -9    0.69    0.75
   1   5  -9    0.04    0.80
   1   5  -9    0.48    0.76
   0  -5  -9   17.58    2.46
   0  -5  -9   19.91    2.19
   0  -5  -9   13.34    2.08
   0   5  -9   15.74    2.10
   0   5  -9   19.34    2.50
   0   5  -9   20.61    2.79
   0   5  -9   18.53    2.50
  -1  -5  -9    0.71    0.73
   1  -5   9   -0.05    0.86
   1  -5   9    1.95    1.29
  -1  -5  -9    1.36    1.05
  -1  -5  -9    2.58    1.12
  -1   5  -9    0.58    0.86
  -1   5  -9    1.21    0.94
  -1   5  -9    1.08    0.86
  -1   5  -9    1.59    1.01
  -2  -5  -9    0.26    0.83
  -2  -5  -9    0.76    0.85
   2  -5   9    0.21    1.10
   2  -5   9    1.74    1.19
  -2   5  -9   -0.31    0.82
   2   5   9    0.04    0.74
  -2   5  -9    0.24    0.75
  -2   5  -9    0.53    0.76
   2   5   9    0.55    0.72
  -3  -5  -9    4.42    1.36
   3  -5   9    6.16    1.84
   3  -5   9    3.54    1.40
  -3  -5  -9    4.61    1.57
  -3   5  -9    2.96    1.47
  -3   5  -9    1.63    1.29
   3   5   9    3.32    1.18
   3   5   9    3.07    1.33
  -4  -5  -9   50.36    3.98
   4  -5   9   53.73    4.33
  -4  -5  -9   42.98    3.30
   4  -5   9   36.78    3.93
   4   5   9   45.18    3.63
  -4   5  -9   46.13    3.88
  -4   5  -9   51.70    4.17
   4   5   9   47.81    3.32
   4  -6  -9    3.21    1.65
   4  -6  -9    3.19    1.57
   4   6  -9    2.96    1.28
   4   6  -9    1.19    1.29
   4   6  -9    1.70    1.03
   3  -6  -9   33.96    3.74
   3  -6  -9   24.10    3.29
   3   6  -9   27.17    3.25
   3   6  -9   29.12    3.30
   3   6  -9   28.46    3.01
   2  -6  -9    1.13    1.12
   2  -6  -9    2.92    1.32
   2  -6  -9    1.11    1.05
   2   6  -9    0.98    1.04
   2   6  -9    1.50    1.00
   2   6  -9   -0.25    0.76
   1  -6  -9    2.37    1.11
   1  -6  -9    2.70    1.28
   1  -6  -9    2.51    1.28
   1   6  -9    3.09    1.27
   1   6  -9    3.54    1.33
   1   6  -9    2.38    1.08
   1   6  -9    3.15    1.27
   0  -6  -9   19.21    2.46
   0  -6  -9   16.56    2.55
   0  -6  -9   11.99    2.12
   0   6  -9   11.84    1.98
   0   6  -9   12.57    2.25
   0   6  -9   18.23    2.50
   0   6  -9   12.91    2.04
  -1  -6  -9    3.76    1.42
  -1  -6  -9    4.18    1.24
  -1  -6  -9    3.44    1.39
   1  -6   9    4.59    1.70
  -1   6  -9    6.03    1.74
  -1   6  -9    3.32    1.25
  -1   6  -9    5.52    1.58
  -1   6  -9    5.24    1.56
  -2  -6  -9    4.78    1.68
  -2  -6  -9    4.61    1.59
   2  -6   9    4.54    1.62
  -2  -6  -9    3.77    1.38
   2  -6   9    6.02    1.81
  -2   6  -9    2.23    1.52
  -2   6  -9    4.34    1.50
  -3  -6  -9   38.27    4.22
   3  -6   9   35.35    3.93
  -3  -6  -9   36.13    3.08
   3  -6   9   26.36    3.42
  -3   6  -9   32.39    3.78
  -3   6  -9   42.90    3.73
   3   6   9   38.06    5.08
   2  -7  -9   10.75    2.21
   2  -7  -9   13.97    2.40
   2  -7  -9   12.08    2.38
   2   7  -9   12.39    2.33
   2   7  -9   10.66    2.22
   2   7  -9   13.29    2.30
   1  -7  -9   67.72    4.26
   1  -7  -9   74.73    4.84
   1  -7  -9   77.63    4.65
   1   7  -9   83.78    4.60
   1   7  -9   81.52    4.59
   1   7  -9   78.28    4.94
   0  -7  -9    1.68    1.13
   0  -7  -9    3.63    1.45
   0  -7  -9    1.17    1.30
   0   7  -9    2.92    1.38
   0   7  -9    3.34    1.41
   0   7  -9    1.73    1.27
   0   7  -9    2.67    1.30
  -1  -7  -9   42.33    3.28
  -1  -7  -9   48.90    4.79
  -1  -7  -9   40.06    3.35
   1  -7   9   50.04    5.48
  -1   7  -9   45.86    3.60
  -1   7  -9   44.82    4.85
  -1   7  -9   50.20    4.14
   2  -7   9    5.91    1.98
  -2  -7  -9    6.92    1.81
  -2  -7  -9    4.76    1.74
   2  -7   9    7.41    2.07
  -2   7  -9    7.60    2.09
  -2   7  -9    4.96    1.62
   6   0 -10   -0.20    1.02
   6   0 -10    0.84    0.36
   5   0 -10   -0.13    0.74
   4   0 -10    8.57    1.63
   3   0 -10    0.23    0.75
   3   0 -10    0.69    0.61
   2   0 -10  125.63    4.20
   2   0 -10  123.84    5.05
   1   0 -10    0.19    0.46
   1   0 -10   -0.06    0.71
   0   0 -10  281.89    7.09
   0   0 -10  275.35    8.20
  -1   0 -10   -0.22    0.51
  -1   0 -10   -0.35    0.66
   1   0  10   -0.20    0.61
   2   0  10  173.29    6.03
  -2   0 -10  167.51    5.73
  -2   0 -10  168.09    6.41
   3   0  10   -0.53    0.62
  -3   0 -10   -0.24    0.67
  -3   0 -10   -0.98    0.70
   3   0  10   -0.15    0.67
   4   0  10   62.07    3.98
  -4   0 -10   55.50    3.71
  -4   0 -10   57.87    4.03
   4   0  10   58.81    3.85
   5   0  10    0.10    0.89
   5   0  10    0.55    0.89
  -5   0 -10   -0.03    0.93
   6  -1 -10   19.08    2.63
   6  -1 -10   21.15    3.08
   6   1 -10   21.89    3.25
   6   1 -10   20.13    1.36
   5  -1 -10   17.52    2.14
   5  -1 -10   17.89    2.67
   5   1 -10   13.61    1.98
   5   1 -10   13.19    1.34
   5   1 -10   16.87    2.81
   4  -1 -10   52.21    2.98
   4  -1 -10   53.65    3.45
   4   1 -10   53.95    2.34
   4   1 -10   55.55    3.29
   3  -1 -10   19.34    2.17
   3  -1 -10   22.54    2.69
   3   1 -10   17.14    2.24
   3   1 -10   17.92    1.88
   2  -1 -10    8.91    1.75
   2  -1 -10    7.83    1.44
   2   1 -10    9.78    1.75
   1  -1 -10   31.13    2.27
   1  -1 -10   28.49    2.46
   1   1 -10   30.37    1.86
   1   1 -10   28.78    2.49
   0  -1 -10    3.77    1.23
   0  -1 -10    4.10    1.11
   0   1 -10    4.74    1.38
   0   1 -10    5.87    1.09
   1  -1  10   17.87    2.19
  -1  -1 -10   15.98    2.27
  -1  -1 -10   18.67    2.21
   1   1  10   16.86    3.14
  -1   1 -10   23.91    2.85
  -1   1 -10   19.95    2.05
  -2  -1 -10    7.47    1.72
  -2  -1 -10    6.26    1.51
   2  -1  10    5.81    1.30
   2  -1  10    9.05    1.77
  -2   1 -10    5.25    1.55
  -2   1 -10    5.14    1.20
   2   1  10    5.33    1.34
   3  -1  10   13.53    2.21
  -3  -1 -10   11.51    2.09
  -3  -1 -10    8.32    1.66
   3  -1  10   12.31    1.83
  -3   1 -10   11.54    2.21
   3   1  10   14.64    2.29
   3   1  10   15.87    2.35
  -3   1 -10   10.68    1.80
  -4  -1 -10   25.32    2.99
  -4  -1 -10   28.37    3.31
   4  -1  10   21.95    2.91
   4  -1  10   24.98    3.18
   4  -1  10   21.81    2.50
  -4   1 -10   22.97    3.13
   4   1  10   22.45    2.93
   4   1  10   25.04    2.95
   5  -1  10    4.66    1.65
   5  -1  10    4.36    1.55
  -5  -1 -10    7.78    2.02
   5  -1  10    3.27    1.42
  -5  -1 -10    1.40    1.18
  -5   1 -10    6.35    1.78
   5   1  10    5.26    1.69
   5   1  10    3.61    1.36
   5  -2 -10   30.74    3.44
   5  -2 -10   32.67    3.20
   5   2 -10   35.82    4.01
   5   2 -10   29.70    1.96
   4  -2 -10    7.75    1.57
   4  -2 -10    8.00    1.82
   4   2 -10    6.92    1.47
   4   2 -10    8.58    1.29
   4   2 -10    7.25    1.17
   3  -2 -10    8.51    1.57
   3  -2 -10    6.94    1.73
   3   2 -10    6.59    1.46
   3   2 -10    8.20    1.42
   2  -2 -10   26.15    2.60
   2  -2 -10   27.84    2.94
   2   2 -10   28.59    2.43
   1  -2 -10    1.35    0.90
   1  -2 -10   -0.28    0.60
   1   2 -10   -0.20    0.72
   0  -2 -10   36.41    2.85
   0  -2 -10   38.64    2.68
   0   2 -10   33.32    2.81
   1  -2  10    3.01    1.12
  -1  -2 -10    3.70    1.24
  -1  -2 -10    5.41    1.48
  -1   2 -10    4.69    0.97
  -1   2 -10    3.98    1.37
   2  -2  10   37.72    2.71
  -2  -2 -10   39.41    3.06
  -2  -2 -10   38.50    2.91
   2  -2  10   43.89    3.18
  -2   2 -10   39.13    3.20
  -2   2 -10   35.29    2.36
   2   2  10   42.26    2.91
  -3  -2 -10   21.21    2.67
  -3  -2 -10   20.34    2.60
   3  -2  10   20.91    2.65
   3  -2  10   23.90    2.70
   3   2  10   20.25    2.52
  -3   2 -10   21.48    2.97
   3   2  10   24.51    2.79
  -4  -2 -10    5.21    1.61
  -4  -2 -10    6.44    1.74
   4  -2  10    7.62    1.96
   4  -2  10    5.07    1.61
  -4   2 -10    6.61    1.94
   4   2  10    6.78    1.77
   4   2  10    6.46    1.69
   5  -2  10   17.83    2.82
  -5  -2 -10   19.75    2.97
  -5  -2 -10   24.82    3.32
   5  -2  10   17.25    2.61
   5  -2  10   22.92    3.02
   5   2  10   26.90    3.43
   5   2  10   22.94    3.00
  -5   2 -10   20.94    3.14
   5  -3 -10    0.04    0.94
   5  -3 -10   -0.10    0.91
   5   3 -10    1.67    1.36
   5   3 -10    0.52    0.53
   4  -3 -10   65.26    4.09
   4  -3 -10   78.04    4.20
   4   3 -10   65.66    3.21
   4   3 -10   68.23    3.33
   3  -3 -10    0.27    0.86
   3  -3 -10    0.41    0.82
   3   3 -10    0.22    0.57
   3   3 -10   -0.35    0.68
   3   3 -10    0.55    0.70
   2  -3 -10   71.66    3.85
   2  -3 -10   67.85    3.96
   2   3 -10   66.61    3.68
   2   3 -10   70.24    3.69
   1  -3 -10   13.89    2.22
   1  -3 -10   16.55    2.31
   1   3 -10   16.87    2.29
   1   3 -10   17.34    2.34
   0  -3 -10    3.68    1.25
   0  -3 -10    1.97    1.14
   0   3 -10    3.40    1.19
   1  -3  10    3.31    1.29
  -1  -3 -10    3.03    1.16
  -1  -3 -10    4.97    1.41
  -1   3 -10    4.44    1.35
   2  -3  10   20.32    2.67
  -2  -3 -10   18.96    2.47
   2  -3  10   25.21    2.73
  -2  -3 -10   17.47    2.39
   2   3  10   20.48    2.80
  -2   3 -10   22.39    3.03
   3  -3  10    1.07    1.02
  -3  -3 -10    0.54    0.93
  -3  -3 -10   -0.29    0.80
   3  -3  10    0.81    0.95
  -3   3 -10    1.38    1.08
   3   3  10   -0.07    0.82
   3   3  10   -0.57    0.69
  -4  -3 -10   66.21    4.17
  -4  -3 -10   66.67    4.39
   4  -3  10   60.55    4.04
   4  -3  10   69.88    4.60
  -4   3 -10   63.08    4.47
   4   3  10   63.03    4.13
   4   3  10   63.79    4.00
  -5  -3 -10   -1.14    0.89
   5  -3  10    1.45    1.23
  -5  -3 -10    2.22    1.23
   5  -3  10    2.44    1.54
   5   3  10    0.76    1.18
   5   3  10    0.31    1.07
  -5   3 -10    0.06    1.11
   4  -4 -10    2.90    1.40
   4  -4 -10    2.84    1.31
   4   4 -10    8.99    1.71
   4   4 -10    7.25    1.44
   4   4 -10    9.52    2.21
   3  -4 -10   11.44    2.19
   3  -4 -10   11.86    2.14
   3   4 -10   10.66    1.79
   3   4 -10   10.76    1.91
   3   4 -10    9.54    1.62
   3   4 -10    8.26    1.89
   2  -4 -10   27.97    3.29
   2  -4 -10   21.45    2.70
   2   4 -10   28.85    2.89
   2   4 -10   25.60    2.94
   2   4 -10   20.15    2.75
   2   4 -10   21.58    2.61
   1  -4 -10    2.02    1.14
   1  -4 -10    2.65    1.08
   1   4 -10    2.40    1.05
   1   4 -10    3.47    1.30
   1   4 -10    1.89    0.93
   0  -4 -10   27.20    3.09
   0  -4 -10   31.14    3.32
   0   4 -10   32.43    2.90
   0   4 -10   31.40    3.36
  -1  -4 -10    3.24    1.24
  -1  -4 -10    5.96    1.54
   1  -4  10    1.15    1.24
  -1   4 -10    5.63    1.53
   2  -4  10   40.96    3.31
  -2  -4 -10   34.77    3.00
  -2  -4 -10   38.74    3.26
   2  -4  10   44.79    3.54
  -2   4 -10   37.85    3.33
  -3  -4 -10    4.22    1.52
   3  -4  10    4.70    1.73
   3  -4  10    4.38    1.56
  -3  -4 -10    3.18    1.30
   3   4  10    5.40    1.58
   3   4  10    4.88    1.42
  -3   4 -10    5.76    1.73
  -4  -4 -10   22.67    3.19
   4  -4  10   19.60    3.05
  -4  -4 -10   23.00    2.98
   4  -4  10   23.59    3.13
  -4   4 -10   19.85    3.02
   4   4  10   25.11    2.98
   4   4  10   27.01    3.38
   4  -5 -10    2.42    1.40
   4  -5 -10    1.27    1.20
   4   5 -10    4.00    1.37
   4   5 -10    4.31    1.64
   4   5 -10    6.08    1.51
   3  -5 -10   49.35    3.69
   3  -5 -10   47.73    3.70
   3   5 -10   42.45    3.10
   3   5 -10   52.62    3.59
   3   5 -10   50.43    3.99
   2  -5 -10    0.96    1.10
   2  -5 -10    2.23    1.11
   2   5 -10    0.55    0.97
   2   5 -10    1.10    1.02
   2   5 -10    0.04    0.80
   2   5 -10    1.84    1.23
   1  -5 -10   51.38    3.66
   1  -5 -10   45.77    3.52
   1   5 -10   46.45    3.46
   1   5 -10   43.25    3.16
   1   5 -10   41.89    3.19
   1   5 -10   48.39    3.59
   0  -5 -10    0.54    0.85
   0  -5 -10    0.10    0.81
   0   5 -10   -0.06    0.77
   0   5 -10    0.23    0.81
   0   5 -10    0.85    0.90
   0   5 -10    0.08    0.73
  -1  -5 -10   57.85    3.97
  -1  -5 -10   53.24    3.69
  -1   5 -10   53.45    3.41
  -1   5 -10   53.33    3.95
  -1   5 -10   52.80    3.57
  -1   5 -10   56.27    3.91
   2  -5  10    0.54    1.01
  -2  -5 -10    2.06    1.26
  -2  -5 -10    0.94    1.05
   2  -5  10    2.41    1.32
  -2   5 -10    0.59    0.95
  -2   5 -10    2.67    1.31
  -2   5 -10    1.41    1.17
   3  -5  10   21.39    3.16
  -3  -5 -10   15.60    2.71
  -3  -5 -10   18.20    2.64
   3  -5  10   21.59    3.16
  -3   5 -10   18.94    2.91
  -3   5 -10   18.21    2.97
   3   5  10   20.49    2.50
   2  -6 -10   22.23    3.17
   2  -6 -10   26.47    3.40
   2   6 -10   33.14    3.78
   2   6 -10   24.02    3.24
   2   6 -10   27.24    3.00
   1  -6 -10   -1.39    0.98
   1  -6 -10    0.14    0.95
   1   6 -10   -0.35    0.77
   1   6 -10    0.33    1.03
   1   6 -10    0.61    0.92
   1   6 -10    2.23    1.27
   0  -6 -10   43.14    3.54
   0  -6 -10   45.48    3.75
   0   6 -10   44.20    3.45
   0   6 -10   43.79    3.70
   0   6 -10   50.95    3.72
   0   6 -10   45.40    3.42
  -1  -6 -10    4.47    1.62
  -1  -6 -10    6.05    1.68
  -1   6 -10    3.60    1.48
  -1   6 -10    8.69    1.88
  -1   6 -10    5.74    1.71
  -1   6 -10    7.59    1.82
   2  -6  10   43.08    3.88
  -2  -6 -10   36.51    3.20
   2  -6  10   35.42    3.85
  -2  -6 -10   45.49    3.83
  -2   6 -10   43.01    4.66
  -2   6 -10   38.18    4.11
   5   0 -11   36.97    3.08
   4   0 -11   -0.15    0.78
   3   0 -11    7.82    1.74
   2   0 -11   -0.93    0.62
   2   0 -11    1.18    0.71
   1   0 -11    0.10    0.56
   1   0 -11   -0.91    0.64
   0   0 -11   -0.99    0.46
   0   0 -11   -0.32    0.61
  -1   0 -11   20.68    2.31
  -1   0 -11   18.43    2.60
  -2   0 -11   -0.27    0.84
  -2   0 -11   -0.28    0.64
  -3   0 -11   22.01    2.73
  -3   0 -11   15.15    2.48
   3   0  11   24.42    2.97
   4   0  11   -0.08    0.89
  -4   0 -11   -0.03    0.90
  -4   0 -11    0.95    1.13
   4   0  11    0.20    1.00
   5  -1 -11    1.61    1.11
   5   1 -11    4.21    1.47
   5   1 -11    1.71    1.36
   5   1 -11    3.12    0.82
   4  -1 -11   83.86    4.54
   4   1 -11   91.75    4.49
   3  -1 -11    0.99    0.96
   3  -1 -11    1.37    0.90
   3   1 -11    0.46    0.70
   3   1 -11    1.14    0.86
   2  -1 -11   26.25    2.60
   2  -1 -11   23.56    2.86
   2   1 -11   29.54    3.25
   1  -1 -11   34.93    2.99
   1  -1 -11   33.39    2.46
   1   1 -11   35.53    2.98
   0  -1 -11   -1.45    0.51
   0  -1 -11    0.28    0.82
   0   1 -11    0.54    0.59
   0   1 -11    1.05    0.98
  -1  -1 -11    7.54    1.52
  -1  -1 -11    8.59    1.96
  -1   1 -11    9.40    1.95
  -1   1 -11    9.52    1.49
  -2  -1 -11   30.64    3.43
  -2  -1 -11   38.55    2.93
  -2   1 -11   36.61    2.65
  -2   1 -11   42.57    3.44
  -3  -1 -11    2.70    1.26
   3  -1  11    0.88    0.99
  -3  -1 -11    1.48    1.06
  -3   1 -11    0.66    0.88
  -3   1 -11    4.30    1.56
   3   1  11    1.28    1.07
   4  -1  11   94.96    5.25
  -4  -1 -11   93.66    5.25
  -4  -1 -11   84.48    4.80
   4   1  11   93.46    5.06
   4   1  11   94.37    5.09
  -4   1 -11   81.98    5.17
   4  -2 -11   19.77    2.52
   4  -2 -11   21.31    2.98
   4   2 -11   21.42    1.82
   4   2 -11   20.54    2.03
   4   2 -11   21.70    2.57
   3  -2 -11    1.26    0.85
   3  -2 -11   -0.42    0.76
   3   2 -11    1.02    0.99
   3   2 -11    0.41    0.76
   2  -2 -11   82.37    4.04
   2  -2 -11   79.24    4.48
   2   2 -11   85.25    4.41
   2   2 -11   87.46    4.19
   1  -2 -11    2.06    1.06
   1  -2 -11    4.34    1.40
   1   2 -11    2.10    1.13
   0  -2 -11  159.94    6.40
   0  -2 -11  170.65    6.05
   0   2 -11  170.03    6.63
  -1  -2 -11    7.61    1.67
  -1  -2 -11   12.56    2.22
  -1   2 -11    7.95    1.86
   2  -2  11   47.06    3.10
  -2  -2 -11   49.14    3.64
  -2  -2 -11   48.97    3.46
  -2   2 -11   49.64    2.93
  -2   2 -11   48.97    3.73
   3  -2  11    5.29    1.70
  -3  -2 -11    7.13    1.84
  -3  -2 -11    6.10    1.69
   3  -2  11    5.62    1.51
  -3   2 -11    7.42    2.07
  -4  -2 -11   22.72    3.14
   4  -2  11   26.92    3.32
  -4  -2 -11   25.72    3.22
   4  -2  11   35.68    4.24
   4   2  11   24.26    3.09
   4   2  11   22.32    3.03
  -4   2 -11   13.62    2.55
   4  -3 -11    2.56    1.15
   4  -3 -11    1.51    1.13
   4   3 -11    2.21    0.89
   4   3 -11    2.49    0.99
   4   3 -11    2.54    1.29
   3  -3 -11   31.87    3.55
   3  -3 -11   36.62    2.98
   3   3 -11   31.66    2.42
   3   3 -11   26.72    2.41
   3   3 -11   30.49    3.11
   2  -3 -11    9.61    1.87
   2  -3 -11   10.96    2.14
   2   3 -11    8.44    1.90
   2   3 -11    9.83    1.81
   1  -3 -11   11.55    2.08
   1  -3 -11   17.03    2.39
   1   3 -11   16.67    2.49
   1   3 -11   18.10    2.60
   0  -3 -11    0.43    0.91
   0  -3 -11   -0.05    0.78
   0   3 -11    0.49    0.92
  -1  -3 -11   44.40    3.33
  -1  -3 -11   47.94    3.59
  -1   3 -11   40.98    3.45
   2  -3  11   -0.43    0.74
  -2  -3 -11   -0.43    0.78
  -2  -3 -11    0.68    0.87
  -2   3 -11    0.73    1.13
   3  -3  11   46.06    3.80
  -3  -3 -11   43.38    3.57
  -3  -3 -11   42.27    3.50
   3  -3  11   43.23    3.37
  -3   3 -11   45.88    3.88
   3   3  11   40.36    3.28
  -4  -3 -11    4.49    1.57
  -4  -3 -11    4.03    1.53
   4  -3  11    7.82    1.94
   4  -3  11    8.19    2.13
   4   3  11    5.44    1.59
  -4   3 -11    7.70    2.16
   4   3  11    3.88    1.77
   3  -4 -11   24.61    3.14
   3  -4 -11   22.71    3.09
   3   4 -11   20.62    2.62
   3   4 -11   20.79    2.43
   3   4 -11   24.80    3.40
   2  -4 -11   48.00    3.58
   2  -4 -11   47.37    3.72
   2   4 -11   46.76    3.42
   2   4 -11   49.13    3.22
   2   4 -11   49.95    3.77
   2   4 -11   50.15    3.54
   1  -4 -11   11.49    2.16
   1  -4 -11   10.33    2.13
   1   4 -11   10.94    1.81
   1   4 -11   11.90    2.12
   1   4 -11   12.02    2.10
   0  -4 -11   32.16    3.55
   0  -4 -11   28.22    3.17
   0   4 -11   27.66    3.34
   0   4 -11   28.04    3.31
  -1  -4 -11    5.05    1.59
  -1  -4 -11    3.74    1.50
  -1   4 -11    3.33    1.49
  -2  -4 -11   91.90    4.97
  -2  -4 -11   94.53    5.07
   2  -4  11   81.65    4.70
  -2   4 -11   93.13    5.38
   3  -4  11    4.24    1.58
   3  -4  11    2.18    1.57
  -3  -4 -11    1.68    1.30
  -3  -4 -11    0.82    1.17
  -3   4 -11    2.52    1.41
   3   4  11    2.65    1.32
   2  -5 -11   24.65    3.32
   2  -5 -11   23.91    3.43
   2   5 -11   26.93    2.99
   2   5 -11   30.12    3.61
   2   5 -11   34.90    3.47
   2   5 -11   22.34    2.94
   1  -5 -11    3.92    1.48
   1  -5 -11    3.69    1.54
   1   5 -11    2.24    1.31
   1   5 -11    5.46    1.69
   1   5 -11    2.02    1.14
   1   5 -11    2.94    1.33
   0  -5 -11    5.81    1.73
   0  -5 -11    2.45    1.36
   0   5 -11    4.53    1.50
   0   5 -11    3.37    1.46
   0   5 -11    6.48    1.75
   0   5 -11    4.00    1.42
  -1  -5 -11    2.80    1.41
  -1  -5 -11   -0.32    0.90
  -1   5 -11   -0.27    0.78
  -1   5 -11   -0.27    0.79
  -1   5 -11   -0.13    1.02
  -2  -5 -11   20.09    3.00
   2  -5  11   19.36    2.92
  -2  -5 -11   16.32    2.73
  -2   5 -11   18.47    2.99
  -2   5 -11   17.64    2.99
   4   0 -12   45.42    3.52
   3   0 -12    0.03    0.97
   2   0 -12   95.46    4.94
   1   0 -12    0.51    1.01
   0   0 -12   82.67    3.85
   0   0 -12   76.22    4.63
  -1   0 -12   -0.55    0.79
  -1   0 -12   -0.15    0.69
  -2   0 -12   95.30    5.37
  -2   0 -12   99.21    4.64
  -3   0 -12    0.82    0.91
  -3   0 -12    1.64    1.18
   3  -1 -12   13.17    2.39
   3   1 -12   16.53    2.08
   3   1 -12   13.95    2.33
   2  -1 -12   16.68    2.19
   2  -1 -12   17.10    2.73
   2   1 -12   14.82    2.47
   1  -1 -12   16.09    2.06
   1  -1 -12   15.04    2.59
   1   1 -12   18.46    2.68
   0  -1 -12    7.96    1.88
   0  -1 -12    4.71    1.36
   0   1 -12    7.98    2.00
  -1  -1 -12   35.70    2.89
  -1  -1 -12   29.52    3.36
  -1   1 -12   37.75    3.36
  -2  -1 -12    9.27    1.86
  -2  -1 -12   14.34    2.61
  -2   1 -12   11.87    1.92
  -2   1 -12   10.01    2.12
  -3  -1 -12   30.38    3.33
  -3  -1 -12   32.20    3.86
  -3   1 -12   31.31    3.20
  -3   1 -12   25.02    3.45
   3  -2 -12   41.11    3.06
   3  -2 -12   31.39    3.53
   3   2 -12   31.74    2.58
   3   2 -12   34.93    3.04
   2  -2 -12   14.47    2.22
   2  -2 -12   14.43    2.64
   2   2 -12   15.57    2.51
   2   2 -12   18.80    2.44
   1  -2 -12   18.63    2.45
   1  -2 -12   21.28    3.03
   1   2 -12   20.62    2.90
   0  -2 -12   48.95    3.73
   0  -2 -12   52.20    3.47
   0   2 -12   45.06    3.71
  -1  -2 -12    0.84    1.02
  -1  -2 -12    0.24    0.91
  -1   2 -12    0.44    1.02
  -2  -2 -12    9.22    1.97
  -2  -2 -12    8.73    2.11
  -2   2 -12    5.86    1.87
  -3  -2 -12    4.84    1.61
  -3  -2 -12    5.89    1.82
  -3   2 -12    4.83    1.94
   3  -3 -12    5.94    1.64
   3  -3 -12    5.51    1.79
   3   3 -12    4.66    1.63
   3   3 -12    7.72    1.63
   3   3 -12    5.15    1.33
   2  -3 -12    4.34    1.39
   2  -3 -12    2.70    1.40
   2   3 -12    2.63    1.18
   2   3 -12    3.54    1.48
   1  -3 -12   -0.28    0.90
   1  -3 -12   -1.31    0.86
   1   3 -12    0.63    0.96
   1   3 -12    0.54    1.07
   0  -3 -12   -0.61    0.93
   0  -3 -12   -0.85    0.81
   0   3 -12   -0.20    0.91
  -1  -3 -12    9.34    2.13
  -1  -3 -12   11.18    2.18
  -1   3 -12   13.22    2.57
  -2  -3 -12   20.71    3.06
  -2  -3 -12   16.92    2.67
  -2   3 -12   24.54    3.33
   1  -4 -12    0.07    1.01
   1  -4 -12   -0.47    0.95
   1   4 -12    0.40    1.06
   1   4 -12    0.31    0.81
   1   4 -12    2.09    1.16
   0  -4 -12   19.24    2.90
   0  -4 -12   11.62    2.42
   0   4 -12   12.71    2.33
   0   4 -12   14.98    2.67
  -1  -4 -12    0.75    1.30
  -1  -4 -12    1.13    1.25
  -1   4 -12    2.11    1.31
  -1   4 -12    1.92    1.42
   2   0 -13    0.05    0.92
   1   0 -13   10.80    2.30
   0   0 -13    0.33    0.98
  -1   0 -13    7.84    2.08
   1  -1 -13   10.63    2.32
   1   1 -13   10.71    2.29
   0  -1 -13    0.51    0.91
   0  -1 -13    0.19    0.78
   0   1 -13   -0.81    0.94
  -1  -1 -13   40.46    4.44
  -1  -1 -13   27.56    3.11
  -1   1 -13   35.63    4.08
   1  -2 -13   -0.11    1.10
   1  -2 -13    0.84    0.96
   1   2 -13   -1.58    0.92
   0  -2 -13   25.31    3.08
   0  -2 -13   17.72    2.80
   0   2 -13   19.96    3.04
   0   0   0    0.00    0.00
;
_shelx_hkl_checksum              64987
loop_
_space_group_symop_operation_xyz
'x, y, z'
'x+1/2, -y, z+1/2'
loop_
_atom_site_label
_atom_site_type_symbol
_atom_site_fract_x
_atom_site_fract_y
_atom_site_fract_z
_atom_site_U_iso_or_equiv
_atom_site_adp_type
_atom_site_occupancy
_atom_site_site_symmetry_order
_atom_site_calc_flag
_atom_site_refinement_flags_posn
_atom_site_refinement_flags_adp
_atom_site_refinement_flags_occupancy
_atom_site_disorder_assembly
_atom_site_disorder_group
Ba1 Ba 0.26582(18) 0.3419(4) 0.97379(13) 0.0137(8) Uani 1 1 d . . . . .
Ba2 Ba 0.68861(19) -0.1578(4) 0.97524(13) 0.0144(8) Uani 1 1 d . . . . .
P1 P 0.184(3) 0.863(2) 0.7846(16) 0.009(3) Uani 1 1 d . . . . .
P2 P -0.225(3) 0.366(2) 1.1624(16) 0.012(3) Uani 1 1 d . . . . .
S1 S -0.211(2) 0.2753(19) 0.9756(17) 0.014(3) Uani 1 1 d . . . . .
S2 S 0.164(2) 0.777(2) 0.9776(17) 0.018(3) Uani 1 1 d . . . . .
S3 S 0.053(2) 0.457(2) 0.6824(13) 0.012(3) Uani 1 1 d . . . . .
S4 S 0.032(2) 0.452(2) 1.2462(14) 0.013(3) Uani 1 1 d . . . . .
S5 S 0.403(2) 0.044(2) 0.7580(14) 0.016(3) Uani 1 1 d . . . . .
S6 S 0.424(2) 0.0481(19) 1.2039(15) 0.014(3) Uani 1 1 d . . . . .
loop_
_atom_site_aniso_label
_atom_site_aniso_U_11
_atom_site_aniso_U_22
_atom_site_aniso_U_33
_atom_site_aniso_U_23
_atom_site_aniso_U_13
_atom_site_aniso_U_12
Ba1 0.0136(19) 0.0168(18) 0.0108(15) -0.0004(14) 0.0001(15) 0.0017(14)
Ba2 0.0136(18) 0.0170(18) 0.0126(15) -0.0015(14) -0.0011(15) -0.0001(14)
P1 0.007(8) 0.010(7) 0.010(7) 0.000(5) -0.001(6) 0.005(6)
P2 0.013(9) 0.013(7) 0.009(7) 0.003(6) 0.000(6) 0.004(7)
S1 0.015(8) 0.019(6) 0.008(6) 0.003(6) 0.002(5) -0.009(6)
S2 0.020(9) 0.024(7) 0.009(6) 0.004(6) -0.002(5) -0.003(7)
S3 0.013(6) 0.012(6) 0.012(6) 0.005(4) -0.001(4) -0.001(5)
S4 0.011(7) 0.021(8) 0.009(6) 0.003(6) 0.001(5) -0.006(8)
S5 0.015(7) 0.016(7) 0.019(6) -0.004(5) -0.004(5) -0.004(6)
S6 0.010(7) 0.014(7) 0.019(7) -0.005(6) -0.004(5) 0.001(7)
loop_
_atom_type_symbol
_atom_type_description
_atom_type_scat_dispersion_real
_atom_type_scat_dispersion_imag
_atom_type_scat_source
P P 0.1023 0.0942 'International Tables Vol C Tables 4.2.6.8 and 6.1.1.4'
S S 0.1246 0.1234 'International Tables Vol C Tables 4.2.6.8 and 6.1.1.4'
Ba Ba -0.3244 2.2819 'International Tables Vol C Tables 4.2.6.8 and 6.1.1.4'
loop_
_geom_angle_atom_site_label_1
_geom_angle_atom_site_label_2
_geom_angle_atom_site_label_3
_geom_angle
_geom_angle_site_symmetry_1
_geom_angle_site_symmetry_3
_geom_angle_publ_flag
S3 Ba1 S1 130.9(4) 2_565 . ?
S3 Ba1 S5 125.6(5) 2_565 . ?
S1 Ba1 S5 101.0(4) . . ?
S3 Ba1 S4 68.6(4) 2_565 . ?
S1 Ba1 S4 62.8(4) . . ?
S5 Ba1 S4 150.5(4) . . ?
S3 Ba1 S4 83.9(4) 2_565 2_564 ?
S1 Ba1 S4 128.7(4) . 2_564 ?
S5 Ba1 S4 73.0(4) . 2_564 ?
S4 Ba1 S4 136.43(14) . 2_564 ?
S3 Ba1 S3 133.3(2) 2_565 . ?
S1 Ba1 S3 68.9(4) . . ?
S5 Ba1 S3 74.2(3) . . ?
S4 Ba1 S3 116.8(4) . . ?
S4 Ba1 S3 60.4(4) 2_564 . ?
S3 Ba1 S6 72.0(4) 2_565 . ?
S1 Ba1 S6 101.2(4) . . ?
S5 Ba1 S6 84.4(4) . . ?
S4 Ba1 S6 75.7(3) . . ?
S4 Ba1 S6 127.8(5) 2_564 . ?
S3 Ba1 S6 153.7(4) . . ?
S3 Ba1 S2 69.4(4) 2_565 . ?
S1 Ba1 S2 87.2(5) . . ?
S5 Ba1 S2 138.1(4) . . ?
S4 Ba1 S2 68.9(4) . . ?
S4 Ba1 S2 70.1(4) 2_564 . ?
S3 Ba1 S2 70.7(4) . . ?
S6 Ba1 S2 134.7(4) . . ?
S3 Ba1 S1 58.5(4) 2_565 1_655 ?
S1 Ba1 S1 162.9(5) . 1_655 ?
S5 Ba1 S1 67.1(4) . 1_655 ?
S4 Ba1 S1 121.7(4) . 1_655 ?
S4 Ba1 S1 61.3(4) 2_564 1_655 ?
S3 Ba1 S1 116.7(4) . 1_655 ?
S6 Ba1 S1 66.6(3) . 1_655 ?
S2 Ba1 S1 109.8(4) . 1_655 ?
S3 Ba1 Ba2 91.3(3) 2_565 . ?
S1 Ba1 Ba2 118.0(3) . . ?
S5 Ba1 Ba2 43.2(3) . . ?
S4 Ba1 Ba2 120.1(3) . . ?
S4 Ba1 Ba2 92.5(3) 2_564 . ?
S3 Ba1 Ba2 117.4(3) . . ?
S6 Ba1 Ba2 44.4(2) . . ?
S2 Ba1 Ba2 154.7(3) . . ?
S1 Ba1 Ba2 44.9(2) 1_655 . ?
S3 Ba1 Ba2 42.5(3) 2_565 1_565 ?
S1 Ba1 Ba2 135.8(3) . 1_565 ?
S5 Ba1 Ba2 112.1(3) . 1_565 ?
S4 Ba1 Ba2 95.3(3) . 1_565 ?
S4 Ba1 Ba2 45.0(2) 2_564 1_565 ?
S3 Ba1 Ba2 92.3(3) . 1_565 ?
S6 Ba1 Ba2 110.2(3) . 1_565 ?
S2 Ba1 Ba2 48.6(3) . 1_565 ?
S1 Ba1 Ba2 61.2(2) 1_655 1_565 ?
Ba2 Ba1 Ba2 106.13(2) . 1_565 ?
S3 Ba2 S2 100.5(4) 2 1_645 ?
S3 Ba2 S5 126.1(5) 2 . ?
S2 Ba2 S5 130.3(4) 1_645 . ?
S3 Ba2 S5 75.9(3) 2 2 ?
S2 Ba2 S5 67.3(4) 1_645 2 ?
S5 Ba2 S5 134.32(19) . 2 ?
S3 Ba2 S6 149.3(4) 2 2_554 ?
S2 Ba2 S6 63.1(4) 1_645 2_554 ?
S5 Ba2 S6 67.6(4) . 2_554 ?
S5 Ba2 S6 115.8(4) 2 2_554 ?
S3 Ba2 S6 74.1(4) 2 . ?
S2 Ba2 S6 127.7(4) 1_645 . ?
S5 Ba2 S6 85.3(3) . . ?
S5 Ba2 S6 60.9(4) 2 . ?
S6 Ba2 S6 136.62(14) 2_554 . ?
S3 Ba2 S1 138.7(4) 2 1_655 ?
S2 Ba2 S1 87.1(5) 1_645 1_655 ?
S5 Ba2 S1 69.9(4) . 1_655 ?
S5 Ba2 S1 69.8(4) 2 1_655 ?
S6 Ba2 S1 69.6(4) 2_554 1_655 ?
S6 Ba2 S1 69.5(4) . 1_655 ?
S3 Ba2 S4 83.0(3) 2 2_554 ?
S2 Ba2 S4 101.6(4) 1_645 2_554 ?
S5 Ba2 S4 71.6(4) . 2_554 ?
S5 Ba2 S4 153.4(4) 2 2_554 ?
S6 Ba2 S4 75.9(3) 2_554 2_554 ?
S6 Ba2 S4 128.1(5) . 2_554 ?
S1 Ba2 S4 135.6(4) 1_655 2_554 ?
S3 Ba2 S2 66.7(4) 2 1_545 ?
S2 Ba2 S2 163.3(5) 1_645 1_545 ?
S5 Ba2 S2 59.8(4) . 1_545 ?
S5 Ba2 S2 116.9(4) 2 1_545 ?
S6 Ba2 S2 122.5(4) 2_554 1_545 ?
S6 Ba2 S2 60.9(4) . 1_545 ?
S1 Ba2 S2 109.6(4) 1_655 1_545 ?
S4 Ba2 S2 67.3(3) 2_554 1_545 ?
S3 Ba2 Ba1 112.8(3) 2 . ?
S2 Ba2 Ba1 135.7(3) 1_645 . ?
S5 Ba2 Ba1 43.5(3) . . ?
S5 Ba2 Ba1 92.7(3) 2 . ?
S6 Ba2 Ba1 95.5(3) 2_554 . ?
S6 Ba2 Ba1 45.1(3) . . ?
S1 Ba2 Ba1 48.6(3) 1_655 . ?
S4 Ba2 Ba1 110.5(3) 2_554 . ?
S2 Ba2 Ba1 61.0(2) 1_545 . ?
S3 Ba2 Ba1 42.2(3) 2 1_545 ?
S2 Ba2 Ba1 118.2(3) 1_645 1_545 ?
S5 Ba2 Ba1 91.6(3) . 1_545 ?
S5 Ba2 Ba1 118.0(3) 2 1_545 ?
S6 Ba2 Ba1 120.1(3) 2_554 1_545 ?
S6 Ba2 Ba1 92.7(3) . 1_545 ?
S1 Ba2 Ba1 154.7(3) 1_655 1_545 ?
S4 Ba2 Ba1 44.3(3) 2_554 1_545 ?
S2 Ba2 Ba1 45.2(2) 1_545 1_545 ?
Ba1 Ba2 Ba1 106.13(2) . 1_545 ?
S6 P1 S5 110.2(9) 2_464 1_565 ?
S6 P1 S2 114.1(10) 2_464 . ?
S5 P1 S2 113.5(11) 1_565 . ?
S6 P1 P2 106.7(6) 2_464 2_564 ?
S5 P1 P2 104.4(6) 1_565 2_564 ?
S2 P1 P2 107.2(6) . 2_564 ?
S1 P2 S3 111.9(11) . 2_465 ?
S1 P2 S4 116.3(11) . . ?
S3 P2 S4 112.0(9) 2_465 . ?
S1 P2 P1 105.3(6) . 2_465 ?
S3 P2 P1 104.6(6) 2_465 2_465 ?
S4 P2 P1 105.6(6) . 2_465 ?
P2 S1 Ba1 91.1(8) . . ?
P2 S1 Ba2 109.0(7) . 1_455 ?
Ba1 S1 Ba2 110.6(5) . 1_455 ?
P2 S1 Ba1 83.6(7) . 1_455 ?
Ba1 S1 Ba1 162.9(5) . 1_455 ?
Ba2 S1 Ba1 86.5(3) 1_455 1_455 ?
P1 S2 Ba2 91.6(8) . 1_465 ?
P1 S2 Ba1 106.5(7) . . ?
Ba2 S2 Ba1 110.4(5) 1_465 . ?
P1 S2 Ba2 82.3(7) . 1_565 ?
Ba2 S2 Ba2 163.3(5) 1_465 1_565 ?
Ba1 S2 Ba2 86.2(4) . 1_565 ?
P2 S3 Ba1 93.4(7) 2_564 2_464 ?
P2 S3 Ba2 100.6(7) 2_564 2_454 ?
Ba1 S3 Ba2 95.3(4) 2_464 2_454 ?
P2 S3 Ba1 87.5(7) 2_564 . ?
Ba1 S3 Ba1 159.5(5) 2_464 . ?
Ba2 S3 Ba1 104.7(5) 2_454 . ?
P2 S4 Ba1 89.8(7) . . ?
P2 S4 Ba1 88.0(7) . 2_465 ?
Ba1 S4 Ba1 164.8(5) . 2_465 ?
P2 S4 Ba2 108.9(7) . 2_455 ?
Ba1 S4 Ba2 104.2(4) . 2_455 ?
Ba1 S4 Ba2 90.8(3) 2_465 2_455 ?
P1 S5 Ba2 90.9(7) 1_545 . ?
P1 S5 Ba2 88.9(7) 1_545 2_454 ?
Ba2 S5 Ba2 161.3(6) . 2_454 ?
P1 S5 Ba1 99.4(7) 1_545 . ?
Ba2 S5 Ba1 93.3(4) . . ?
Ba2 S5 Ba1 105.2(5) 2_454 . ?
P1 S6 Ba2 90.9(7) 2_565 2_455 ?
P1 S6 Ba2 87.6(7) 2_565 . ?
Ba2 S6 Ba2 165.0(5) 2_455 . ?
P1 S6 Ba1 108.1(7) 2_565 . ?
Ba2 S6 Ba1 104.2(4) 2_455 . ?
Ba2 S6 Ba1 90.5(4) . . ?
loop_
_geom_bond_atom_site_label_1
_geom_bond_atom_site_label_2
_geom_bond_distance
_geom_bond_site_symmetry_2
_geom_bond_publ_flag
Ba1 S3 3.200(16) 2_565 ?
Ba1 S1 3.254(16) . ?
Ba1 S5 3.267(16) . ?
Ba1 S4 3.283(14) . ?
Ba1 S4 3.313(15) 2_564 ?
Ba1 S3 3.334(15) . ?
Ba1 S6 3.359(15) . ?
Ba1 S2 3.373(16) . ?
Ba1 S1 3.562(17) 1_655 ?
Ba1 Ba2 4.740(5) . ?
Ba1 Ba2 4.745(5) 1_565 ?
Ba2 S3 3.218(16) 2 ?
Ba2 S2 3.244(17) 1_645 ?
Ba2 S5 3.253(17) . ?
Ba2 S5 3.261(16) 2 ?
Ba2 S6 3.277(15) 2_554 ?
Ba2 S6 3.316(15) . ?
Ba2 S1 3.353(15) 1_655 ?
Ba2 S4 3.353(15) 2_554 ?
Ba2 S2 3.568(17) 1_545 ?
Ba2 Ba1 4.745(5) 1_545 ?
P1 S6 2.03(2) 2_464 ?
P1 S5 2.04(2) 1_565 ?
P1 S2 2.04(2) . ?
P1 P2 2.216(5) 2_564 ?
P2 S1 1.99(2) . ?
P2 S3 2.02(2) 2_465 ?
P2 S4 2.02(3) . ?
P2 P1 2.216(5) 2_465 ?
S1 Ba2 3.353(15) 1_455 ?
S1 Ba1 3.562(17) 1_455 ?
S2 Ba2 3.244(17) 1_465 ?
S2 Ba2 3.568(17) 1_565 ?
S3 P2 2.02(2) 2_564 ?
S3 Ba1 3.200(16) 2_464 ?
S3 Ba2 3.218(16) 2_454 ?
S4 Ba1 3.313(15) 2_465 ?
S4 Ba2 3.353(15) 2_455 ?
S5 P1 2.04(2) 1_545 ?
S5 Ba2 3.261(16) 2_454 ?
S6 P1 2.03(3) 2_565 ?
S6 Ba2 3.277(15) 2_455 ?
