#------------------------------------------------------------------------------
#$Date: 2021-12-04 01:56:54 +0200 (Sat, 04 Dec 2021) $
#$Revision: 271069 $
#$URL: file:///home/coder/svn-repositories/cod/cif/7/70/90/7709002.cif $
#------------------------------------------------------------------------------
#
# This file is available in the Crystallography Open Database (COD),
# http://www.crystallography.net/
#
# All data on this site have been placed in the public domain by the
# contributors.
#
data_7709002
loop_
_publ_author_name
'Feige, Felix'
'K\"ogel, Julius F.'
'Lork, Enno'
'Beckmann, Jens'
_publ_section_title
;
 Thermally stable polyfluorinated monoalkoxysilanetriols and
 dialkoxydisiloxanetetrols
;
_journal_name_full               'Dalton Transactions'
_journal_paper_doi               10.1039/D1DT03389A
_journal_year                    2021
_chemical_formula_moiety         'C38 Cl4 F30 O3 Si2'
_chemical_formula_sum            'C38 Cl4 F30 O3 Si2'
_chemical_formula_weight         1272.36
_space_group_crystal_system      triclinic
_space_group_IT_number           2
_space_group_name_Hall           '-P 1'
_space_group_name_H-M_alt        'P -1'
_audit_creation_date             2020-11-14
_audit_creation_method
;
Olex2 1.2
(compiled 2018.05.29 svn.r3508 for OlexSys, GUI svn.r5506)
;
_audit_update_record
;
2021-10-05 deposited with the CCDC.	2021-11-30 downloaded from the CCDC.
;
_cell_angle_alpha                85.373(2)
_cell_angle_beta                 78.198(2)
_cell_angle_gamma                63.964(2)
_cell_formula_units_Z            1
_cell_length_a                   9.7408(6)
_cell_length_b                   9.8621(5)
_cell_length_c                   11.9048(6)
_cell_measurement_reflns_used    3171
_cell_measurement_temperature    100(2)
_cell_measurement_theta_max      31.18
_cell_measurement_theta_min      2.37
_cell_volume                     1005.80(10)
_computing_molecular_graphics    'Olex2 (Dolomanov et al., 2009)'
_computing_publication_material  'Olex2 (Dolomanov et al., 2009)'
_computing_structure_refinement  'ShelXL (Sheldrick, 2015)'
_diffrn_ambient_temperature      100.0
_diffrn_measured_fraction_theta_full 0.995
_diffrn_measured_fraction_theta_max 0.993
_diffrn_measurement_device_type  'Bruker APEX-II CCD'
_diffrn_measurement_method       '\f and \w scans'
_diffrn_radiation_type           MoK\a
_diffrn_radiation_wavelength     0.71073
_diffrn_reflns_av_R_equivalents  0.0443
_diffrn_reflns_av_unetI/netI     0.0371
_diffrn_reflns_Laue_measured_fraction_full 0.995
_diffrn_reflns_Laue_measured_fraction_max 0.993
_diffrn_reflns_limit_h_max       12
_diffrn_reflns_limit_h_min       -12
_diffrn_reflns_limit_k_max       13
_diffrn_reflns_limit_k_min       -13
_diffrn_reflns_limit_l_max       15
_diffrn_reflns_limit_l_min       -15
_diffrn_reflns_number            28633
_diffrn_reflns_point_group_measured_fraction_full 0.995
_diffrn_reflns_point_group_measured_fraction_max 0.993
_diffrn_reflns_theta_full        25.242
_diffrn_reflns_theta_max         28.302
_diffrn_reflns_theta_min         2.298
_diffrn_standards_number         0
_exptl_absorpt_coefficient_mu    0.538
_exptl_absorpt_correction_T_max  0.7471
_exptl_absorpt_correction_T_min  0.7076
_exptl_absorpt_correction_type   none
_exptl_absorpt_process_details
;
SADABS-2016/2 (Bruker,2016/2) was used for absorption correction.
wR2(int) was 0.0845 before and 0.0506 after correction.
The Ratio of minimum to maximum transmission is 0.9471.
The \l/2 correction factor is Not present.
;
_exptl_crystal_colour            colourless
_exptl_crystal_density_diffrn    2.101
_exptl_crystal_description       block
_exptl_crystal_F_000             618
_exptl_crystal_size_max          .2
_exptl_crystal_size_mid          .2
_exptl_crystal_size_min          .15
_refine_diff_density_max         0.459
_refine_diff_density_min         -0.390
_refine_diff_density_rms         0.076
_refine_ls_extinction_method     none
_refine_ls_goodness_of_fit_ref   1.029
_refine_ls_hydrogen_treatment    undef
_refine_ls_matrix_type           full
_refine_ls_number_parameters     358
_refine_ls_number_reflns         4964
_refine_ls_number_restraints     0
_refine_ls_restrained_S_all      1.029
_refine_ls_R_factor_all          0.0686
_refine_ls_R_factor_gt           0.0445
_refine_ls_shift/su_max          0.000
_refine_ls_shift/su_mean         0.000
_refine_ls_structure_factor_coef Fsqd
_refine_ls_weighting_details
'w=1/[\s^2^(Fo^2^)+(0.0438P)^2^+1.2811P] where P=(Fo^2^+2Fc^2^)/3'
_refine_ls_weighting_scheme      calc
_refine_ls_wR_factor_gt          0.0960
_refine_ls_wR_factor_ref         0.1056
_reflns_Friedel_coverage         0.000
_reflns_number_gt                3713
_reflns_number_total             4964
_reflns_threshold_expression     'I > 2\s(I)'
_cod_data_source_file            d1dt03389a2.cif
_cod_data_source_block           feigef200831_0m
_cod_database_code               7709002
_shelx_shelxl_version_number     2018/3
_shelx_space_group_comment
;
The symmetry employed for this shelxl refinement is uniquely defined
by the following loop, which should always be used as a source of
symmetry information in preference to the above space-group names.
They are only intended as comments.
;
_olex2_refinement_description
;
1. Others
 Fixed Sof: Cl2(0.53) Cl3(0.47)
;
_shelx_res_file
;
TITL feigef200831_0m_a.res in P-1
    feigef200831_0m.res
    created by SHELXL-2018/3 at 10:11:46 on 14-Nov-2020
REM Old TITL FeigeF200831_0m in P-1
REM SHELXT solution in P-1
REM R1 0.170, Rweak 0.014, Alpha 0.086, Orientation as input
REM Formula found by SHELXT: C39 Cl1 F30 Si6
CELL 0.71073 9.7408 9.8621 11.9048 85.373 78.198 63.964
ZERR 1 0.0006 0.0005 0.0006 0.002 0.002 0.002
LATT 1
SFAC C Cl F O Si
UNIT 38 4 30 3 2

L.S. 10
PLAN  2
TEMP -173.15
CONF
list 4
MORE -1
fmap 2
acta
REM <olex2.extras>
REM <HklSrc "%.\\FeigeF200831_0m.hkl">
REM </olex2.extras>

WGHT    0.043800    1.281100
FVAR       0.21123
CL1   2    0.275832    0.789667    1.094854    11.00000    0.02807    0.02180 =
         0.02507   -0.00249   -0.01649    0.00052
SI1   5    0.126995    0.829461    0.988434    11.00000    0.01015    0.03284 =
         0.00840   -0.00202   -0.00044    0.00500
PART 1
CL2   2    0.031207    0.667804    1.029179    10.53000    0.02074    0.04783 =
         0.02149    0.00608   -0.00339   -0.02174
PART 0
F11   3    0.610023    0.461032    0.678736    11.00000    0.01282    0.01782 =
         0.02632   -0.01201   -0.00041   -0.00265
F35   3    0.378741    0.498890    0.917292    11.00000    0.02481    0.01644 =
         0.01664    0.00474   -0.01031   -0.00826
F31   3    0.228704    0.647038    0.555978    11.00000    0.03338    0.01973 =
         0.01369    0.00175   -0.00907   -0.00641
F25   3   -0.004841    0.936325    0.751337    11.00000    0.01504    0.03947 =
         0.01755    0.00277   -0.00004   -0.00988
F24   3   -0.096114    1.159867    0.606829    11.00000    0.02250    0.02247 =
         0.02773   -0.00290   -0.01325    0.00438
F15   3    0.383536    0.947129    0.850372    11.00000    0.03718    0.01088 =
         0.02929   -0.00320   -0.00304   -0.00698
F12   3    0.886924    0.427393    0.704537    11.00000    0.01153    0.02815 =
         0.03353   -0.00187   -0.00330   -0.00323
F32   3    0.185133    0.402662    0.548987    11.00000    0.02448    0.02855 =
         0.02356   -0.00661   -0.00893   -0.00874
F34   3    0.342886    0.248041    0.904101    11.00000    0.03995    0.02077 =
         0.03158    0.01243   -0.01686   -0.01738
F33   3    0.242856    0.197689    0.719439    11.00000    0.03916    0.02122 =
         0.04159    0.00130   -0.01639   -0.01759
F14   3    0.663691    0.908040    0.874885    11.00000    0.05478    0.02948 =
         0.03810   -0.00100   -0.01306   -0.03103
F23   3    0.111486    1.191372    0.426787    11.00000    0.04649    0.03394 =
         0.03552    0.02338   -0.02738   -0.02520
F13   3    0.918994    0.647361    0.802612    11.00000    0.02944    0.04695 =
         0.03787    0.00673   -0.01436   -0.02687
O1    4    0.213462    0.800221    0.860592    11.00000    0.02065    0.01469 =
         0.01050   -0.00181    0.00450    0.00270
F21   3    0.512174    0.768251    0.546057    11.00000    0.01669    0.07770 =
         0.01955    0.01425    0.00452    0.00551
F22   3    0.415476    0.988112    0.397890    11.00000    0.03147    0.09854 =
         0.02904    0.03797   -0.00793   -0.03225
O2    4    0.000000    1.000000    1.000000    10.50000    0.04922    0.05932 =
         0.02242   -0.02434   -0.01993    0.04480
C25   1    0.106191    0.951803    0.671360    11.00000    0.01568    0.01257 =
         0.01269   -0.00348   -0.00207   -0.00566
C24   1    0.055861    1.066723    0.594043    11.00000    0.01978    0.01199 =
         0.01965   -0.00303   -0.01046   -0.00415
C12   1    0.761402    0.552982    0.743863    11.00000    0.01509    0.01969 =
         0.01758    0.00376   -0.00319   -0.00575
C20   1    0.261488    0.850742    0.664242    11.00000    0.01594    0.01256 =
         0.01251    0.00049   -0.00186   -0.00447
C30   1    0.299936    0.587627    0.739968    11.00000    0.00685    0.01326 =
         0.01283   -0.00138    0.00183    0.00016
C10   1    0.481174    0.702042    0.770578    11.00000    0.01694    0.01317 =
         0.00963    0.00166   -0.00155   -0.00635
C23   1    0.159165    1.082337    0.503300    11.00000    0.03300    0.02243 =
         0.02334    0.01263   -0.01831   -0.01866
C11   1    0.615070    0.572187    0.732854    11.00000    0.01615    0.01500 =
         0.01213   -0.00065   -0.00242   -0.00598
C33   1    0.262796    0.322227    0.725925    11.00000    0.01811    0.01637 =
         0.02776   -0.00251   -0.00394   -0.00726
C31   1    0.254587    0.555047    0.646087    11.00000    0.01005    0.01688 =
         0.01302   -0.00032    0.00078    0.00040
C32   1    0.234188    0.425888    0.639593    11.00000    0.01206    0.02253 =
         0.01905   -0.00815   -0.00210   -0.00413
C35   1    0.328589    0.478823    0.825169    11.00000    0.01394    0.01664 =
         0.01453   -0.00084   -0.00212   -0.00396
C15   1    0.504269    0.814050    0.817801    11.00000    0.02809    0.01088 =
         0.01449    0.00203   -0.00272   -0.00641
C21   1    0.361376    0.867032    0.568034    11.00000    0.01440    0.03583 =
         0.01872    0.00815   -0.00213   -0.00409
C13   1    0.777322    0.664889    0.793588    11.00000    0.02372    0.03121 =
         0.01897    0.00894   -0.00868   -0.02052
C1    1    0.315911    0.732123    0.757602    11.00000    0.01299    0.01157 =
         0.00965   -0.00074    0.00145   -0.00171
C14   1    0.648669    0.796213    0.830086    11.00000    0.03650    0.02218 =
         0.01811    0.00457   -0.00879   -0.02130
C34   1    0.311803    0.348307    0.819744    11.00000    0.01831    0.01666 =
         0.02195    0.00429   -0.00477   -0.00593
C22   1    0.312607    0.980041    0.489329    11.00000    0.02610    0.04902 =
         0.01967    0.01598   -0.00674   -0.02410
PART -1
CL3   2    0.002213    0.729751    1.039680    10.47000    0.03806    0.08178 =
         0.05429    0.03497   -0.01609   -0.04356
HKLF 4




REM  feigef200831_0m_a.res in P-1
REM wR2 = 0.1056, GooF = S = 1.029, Restrained GooF = 1.029 for all data
REM R1 = 0.0445 for 3713 Fo > 4sig(Fo) and 0.0686 for all 4964 data
REM 358 parameters refined using 0 restraints

END

WGHT      0.0438      1.2724

REM Highest difference peak  0.459,  deepest hole -0.390,  1-sigma level  0.076
Q1    1   0.0056  1.0256  0.7609  11.00000  0.05    0.46
Q2    1   0.0438  1.0256  0.9956  11.00000  0.05    0.45
;
_shelx_res_checksum              68348
_shelx_hkl_file
;
  -1   0   0    2.06    0.20
  -2   0   0  196.74    4.20
  -2   0   0  206.90    4.31
  -2   0   0  206.19    4.13
  -2   0   0  201.31    4.11
  -2   0   0  201.68    4.29
  -2   0   0  203.36    4.16
   2   0   0  205.38    4.31
   2   0   0  199.80    4.16
   2   0   0  206.97    4.22
   2   0   0  201.80    4.29
   2   0   0  197.81    4.12
  -3   0   0  161.75    3.65
  -3   0   0  153.89    3.36
  -3   0   0  152.62    3.50
  -3   0   0  153.75    3.63
  -3   0   0  154.61    3.42
  -3   0   0  158.43    3.40
   3   0   0  160.00    3.53
   3   0   0  152.45    3.60
   3   0   0  157.69    3.45
   3   0   0  158.82    3.66
   3   0   0  152.18    3.36
  -4   0   0    0.35    0.36
  -4   0   0   -0.01    0.36
  -4   0   0    0.34    0.33
  -4   0   0    0.24    0.26
  -4   0   0    0.06    0.48
  -4   0   0    0.11    0.31
   4   0   0    0.66    0.31
   4   0   0    0.08    0.48
   4   0   0    0.64    0.38
   4   0   0    0.33    0.44
   4   0   0    0.58    0.43
  -5   0   0   10.33    0.74
  -5   0   0   10.98    0.69
  -5   0   0   11.66    0.79
  -5   0   0   10.96    0.79
  -5   0   0    9.97    0.92
  -5   0   0   10.92    0.85
   5   0   0   10.51    0.94
   5   0   0    9.03    1.01
   5   0   0   11.69    0.70
   5   0   0   10.85    0.89
   5   0   0   12.02    0.95
  -6   0   0    2.52    0.63
  -6   0   0    3.48    0.81
  -6   0   0    2.85    0.53
  -6   0   0    2.82    0.70
   6   0   0    2.64    0.54
   6   0   0    3.42    0.77
   6   0   0    2.50    0.64
  -7   0   0    1.10    0.66
  -7   0   0   -0.21    0.71
  -7   0   0    1.53    0.75
  -7   0   0    2.25    0.88
  -7   0   0    1.57    0.53
   7   0   0    2.46    0.85
   7   0   0   -0.31    0.97
   7   0   0    1.51    0.56
  -8   0   0   97.16    3.49
  -8   0   0   96.81    3.21
  -8   0   0   96.59    2.73
  -8   0   0   93.23    2.99
   8   0   0   94.65    2.82
   8   0   0   97.80    3.49
  -9   0   0    3.19    1.04
  -9   0   0    4.70    1.16
  -9   0   0    3.87    0.82
  -9   0   0    4.79    1.17
   9   0   0    5.13    1.14
   9   0   0    5.09    0.98
 -10   0   0   11.44    1.50
 -10   0   0   12.04    1.90
 -10   0   0   11.21    1.28
  10   0   0    9.95    1.29
  10   0   0   10.61    1.84
 -11   0   0    1.53    1.62
 -11   0   0   -0.90    1.27
  11   0   0    2.75    1.19
  11   0   0    5.84    1.81
  11  -1   0    7.06    1.64
  11  -1   0    2.13    1.33
 -11   1   0    5.86    2.28
 -11   1   0    3.38    1.62
  10  -1   0    0.46    1.06
  10  -1   0    3.67    1.32
  10  -1   0    2.82    1.44
 -10   1   0    1.63    1.32
 -10   1   0    0.37    1.03
 -10   1   0    1.83    1.48
   9  -1   0    0.54    0.99
   9  -1   0    1.08    0.86
   9  -1   0   -0.22    1.12
  -9   1   0    0.36    0.99
  -9   1   0    0.11    0.82
  -9   1   0   -1.68    1.10
   8  -1   0   10.17    1.45
   8  -1   0    9.14    1.08
  -8   1   0    8.36    1.07
  -8   1   0    8.43    1.41
  -8   1   0    8.60    1.29
  -8   1   0    8.82    1.46
   7  -1   0   42.46    2.04
   7  -1   0   45.40    1.69
   7  -1   0   41.28    1.94
  -7   1   0   42.92    2.24
  -7   1   0   43.90    1.95
  -7   1   0   42.49    1.94
  -7   1   0   41.59    1.91
  -7   1   0   44.61    1.84
   6  -1   0   48.62    1.69
   6  -1   0   48.99    1.83
   6  -1   0   44.63    1.96
  -6   1   0   48.80    1.79
  -6   1   0   47.59    2.17
  -6   1   0   48.96    1.89
  -6   1   0   47.27    1.86
   5  -1   0   22.87    1.25
   5  -1   0   21.48    1.30
   5  -1   0   23.70    1.13
   5  -1   0   22.26    1.07
  -5   1   0   22.52    1.39
  -5   1   0   22.43    1.13
  -5   1   0   23.35    1.15
  -5   1   0   23.60    1.19
   4  -1   0   11.63    0.82
   4  -1   0   11.97    0.73
   4  -1   0   11.56    0.93
   4  -1   0   10.41    0.80
   4  -1   0   11.37    0.69
  -4   1   0   11.55    0.75
  -4   1   0   12.23    0.97
  -4   1   0   11.38    0.81
  -4   1   0   12.58    0.81
  -4   1   0   10.45    0.99
   3  -1   0    8.23    0.69
   3  -1   0    9.03    0.51
   3  -1   0    7.08    0.57
   3  -1   0    8.44    0.79
   3  -1   0    8.78    0.59
  -3   1   0    7.95    0.63
  -3   1   0    8.13    0.61
  -3   1   0    7.97    0.57
  -3   1   0    7.89    0.57
  -3   1   0    7.22    0.64
   2  -1   0   54.59    1.30
   2  -1   0   55.30    1.42
   2  -1   0   52.60    1.41
   2  -1   0   55.16    1.64
   2  -1   0   55.29    1.55
  -2   1   0   52.10    1.39
  -2   1   0   55.51    1.44
  -2   1   0   55.49    1.56
  -2   1   0   53.72    1.60
  -2   1   0   54.93    1.53
   1  -1   0    2.08    0.23
   1  -1   0    2.22    0.33
   1  -1   0    2.11    0.26
   1  -1   0    1.89    0.17
   1  -1   0    2.11    0.27
  -1   1   0    1.74    0.31
  -1   1   0    2.12    0.27
  -1   1   0    2.24    0.35
  -1   1   0    1.93    0.22
   0  -1   0    1.05    0.17
   0  -1   0    1.17    0.18
   0  -1   0    0.57    0.10
   0   1   0    1.10    0.17
   0   1   0    1.11    0.15
  -1  -1   0   69.29    1.45
  -1  -1   0   60.48    1.38
  -1  -1   0   70.01    1.50
   1   1   0   70.66    1.53
   1   1   0   70.20    1.46
   1   1   0   66.16    1.39
  -2  -1   0  247.73    5.11
  -2  -1   0  254.45    5.16
  -2  -1   0  243.64    5.01
  -2  -1   0  247.92    4.99
  -2  -1   0  243.83    5.05
   2   1   0  253.68    5.13
   2   1   0  246.46    4.99
   2   1   0  247.95    5.02
   2   1   0  249.72    5.16
   2   1   0  250.62    5.07
  -3  -1   0    3.35    0.19
  -3  -1   0    2.88    0.35
  -3  -1   0    3.58    0.47
  -3  -1   0    3.39    0.54
  -3  -1   0    3.73    0.42
   3   1   0    3.70    0.49
   3   1   0    3.81    0.50
   3   1   0    3.21    0.36
   3   1   0    3.46    0.43
   3   1   0    2.99    0.50
  -4  -1   0    1.57    0.22
  -4  -1   0    2.07    0.57
  -4  -1   0    1.60    0.44
  -4  -1   0    1.27    0.35
  -4  -1   0    2.38    0.48
  -4  -1   0    1.44    0.41
   4   1   0    2.11    0.45
   4   1   0    1.39    0.31
   4   1   0    1.90    0.50
   4   1   0    0.94    0.48
   4   1   0    1.65    0.48
  -5  -1   0    0.17    0.40
  -5  -1   0    0.20    0.48
  -5  -1   0    0.07    0.21
  -5  -1   0    0.56    0.39
  -5  -1   0   -0.27    0.37
  -5  -1   0    0.19    0.39
   5   1   0    0.39    0.57
   5   1   0   -0.03    0.45
   5   1   0    0.38    0.33
   5   1   0   -0.96    0.50
   5   1   0    0.25    0.56
  -6  -1   0    0.40    0.56
  -6  -1   0    1.36    0.54
  -6  -1   0    1.36    0.36
  -6  -1   0    1.66    0.59
  -6  -1   0    0.60    0.49
  -6  -1   0    1.38    0.31
   6   1   0    1.08    0.66
   6   1   0    2.42    0.87
   6   1   0    1.19    0.45
   6   1   0    0.39    0.67
  -7  -1   0    1.87    0.67
  -7  -1   0    1.69    0.70
  -7  -1   0    1.37    0.70
  -7  -1   0    2.22    0.47
  -7  -1   0    1.54    0.70
  -7  -1   0    1.75    0.48
   7   1   0    0.70    0.76
   7   1   0    0.68    0.50
  -8  -1   0   23.08    1.45
  -8  -1   0   20.31    0.95
  -8  -1   0   21.47    1.48
  -8  -1   0   21.09    1.59
  -8  -1   0   19.65    1.05
   8   1   0   18.28    1.62
   8   1   0   18.92    1.17
  -9  -1   0    9.21    0.97
  -9  -1   0    9.32    1.11
  -9  -1   0    9.10    1.42
  -9  -1   0    7.51    1.29
  -9  -1   0    7.01    0.77
   9   1   0    8.43    1.52
 -10  -1   0    0.88    0.53
 -10  -1   0    1.65    1.12
 -10  -1   0    1.32    1.24
  10   1   0    2.02    0.93
  10   1   0    0.72    1.31
 -11  -1   0   18.74    2.29
 -11  -1   0   20.12    2.11
  11   1   0   22.01    2.65
  11   1   0   18.30    1.68
  10  -2   0    1.02    1.19
  10  -2   0   -0.48    1.42
  10  -2   0    3.09    1.35
 -10   2   0    0.56    1.54
 -10   2   0    1.17    1.34
 -10   2   0    1.73    1.33
   9  -2   0    1.37    1.30
   9  -2   0    0.36    1.00
   9  -2   0    0.53    0.98
  -9   2   0    0.41    1.06
  -9   2   0   -0.22    1.06
  -9   2   0   -0.22    1.00
   8  -2   0    0.52    1.02
   8  -2   0    0.86    0.82
   8  -2   0    0.92    0.85
  -8   2   0   -1.06    0.86
  -8   2   0    0.26    0.94
  -8   2   0    1.41    0.92
   7  -2   0   17.20    1.40
   7  -2   0   18.31    1.30
   7  -2   0   17.62    1.48
   7  -2   0   18.21    1.25
  -7   2   0   16.65    1.35
  -7   2   0   15.33    1.30
  -7   2   0   18.05    1.55
   6  -2   0   -0.54    0.69
   6  -2   0    0.58    0.70
   6  -2   0    0.78    0.54
   6  -2   0   -0.14    0.48
  -6   2   0    0.34    0.61
  -6   2   0   -0.05    0.59
  -6   2   0   -0.16    0.84
  -6   2   0    1.06    0.80
   5  -2   0  126.13    3.03
   5  -2   0  119.18    3.48
   5  -2   0  116.78    3.12
   5  -2   0  116.11    3.22
   5  -2   0  121.75    2.98
  -5   2   0  118.43    3.67
  -5   2   0  119.86    3.38
  -5   2   0  120.74    3.29
   4  -2   0   89.99    2.43
   4  -2   0   83.77    2.87
   4  -2   0   87.35    2.39
   4  -2   0   77.82    2.82
   4  -2   0   89.86    2.20
   4  -2   0   87.61    2.19
  -4   2   0   86.22    2.76
  -4   2   0   85.72    2.73
  -4   2   0   91.50    2.49
  -4   2   0   86.96    2.61
  -4   2   0   88.82    2.39
   3  -2   0   62.25    1.57
   3  -2   0   60.59    1.79
   3  -2   0   61.74    2.09
   3  -2   0   63.56    1.57
   3  -2   0   61.97    1.75
   3  -2   0   60.20    1.94
  -3   2   0   60.87    1.71
  -3   2   0   64.43    1.86
  -3   2   0   62.54    1.97
  -3   2   0   59.68    1.96
  -3   2   0   62.84    2.11
   2  -2   0    2.29    0.28
   2  -2   0    2.48    0.41
   2  -2   0    2.82    0.44
   2  -2   0    1.79    0.33
   2  -2   0    2.27    0.55
  -2   2   0    2.56    0.48
  -2   2   0    2.02    0.40
  -2   2   0    2.72    0.45
  -2   2   0    1.72    0.33
  -2   2   0    1.75    0.46
   1  -2   0  149.56    3.13
   1  -2   0  154.48    3.44
   1  -2   0  155.48    3.19
   1  -2   0  157.07    3.44
   1  -2   0  160.84    3.59
  -1   2   0  153.16    3.14
  -1   2   0  160.40    3.47
  -1   2   0  155.78    3.57
  -1   2   0  157.28    3.44
  -1   2   0  157.32    3.60
  -1   2   0  155.14    3.19
   0  -2   0   25.55    0.79
   0  -2   0   25.68    0.83
   0  -2   0   24.30    0.92
   0  -2   0   25.32    0.70
   0   2   0   26.65    0.80
   0   2   0   26.69    0.85
   0   2   0   25.58    0.58
   0   2   0   25.92    0.86
   0   2   0   25.48    0.94
   0   2   0   26.45    0.70
  -1  -2   0   50.74    1.30
  -1  -2   0   50.99    1.14
  -1  -2   0   50.97    1.28
   1   2   0   51.90    1.27
   1   2   0   51.67    1.34
   1   2   0   51.39    1.15
   1   2   0   54.01    1.33
  -2  -2   0   41.26    1.24
  -2  -2   0   39.62    1.26
  -2  -2   0   41.43    1.00
  -2  -2   0   41.81    1.11
   2   2   0   42.16    1.12
   2   2   0   41.91    1.02
   2   2   0   42.07    1.00
   2   2   0   41.21    1.24
   2   2   0   41.64    1.19
  -3  -2   0   36.91    1.06
  -3  -2   0   35.85    1.16
  -3  -2   0   39.02    1.32
  -3  -2   0   36.41    1.24
  -3  -2   0   35.67    1.12
   3   2   0   39.19    1.29
   3   2   0   40.28    1.21
   3   2   0   36.80    1.14
   3   2   0   36.60    1.30
  -4  -2   0  295.22    6.34
  -4  -2   0  284.01    6.03
  -4  -2   0  279.04    6.11
  -4  -2   0  291.95    6.00
  -4  -2   0  279.91    6.20
   4   2   0  296.18    6.26
   4   2   0  287.40    6.06
   4   2   0  279.48    5.99
   4   2   0  295.86    6.18
   4   2   0  278.40    6.30
  -5  -2   0  147.80    3.38
  -5  -2   0  139.43    3.55
  -5  -2   0  140.73    3.62
  -5  -2   0  140.73    3.50
  -5  -2   0  143.22    3.75
   5   2   0  144.00    3.37
   5   2   0  146.26    3.61
   5   2   0  145.12    3.78
   5   2   0  144.08    3.56
   5   2   0  142.62    3.66
  -6  -2   0   23.91    1.11
  -6  -2   0   20.13    1.52
  -6  -2   0   21.26    1.16
  -6  -2   0   23.44    1.25
   6   2   0   21.16    1.34
   6   2   0   22.67    1.05
   6   2   0   22.76    1.30
   6   2   0   22.69    1.33
  -7  -2   0   18.34    1.26
  -7  -2   0   17.78    1.24
  -7  -2   0   17.33    1.24
  -7  -2   0   16.64    1.12
   7   2   0   17.97    1.41
   7   2   0   18.16    1.03
  -8  -2   0    9.65    1.09
  -8  -2   0    8.48    1.09
  -8  -2   0    9.77    1.15
  -8  -2   0   10.79    1.21
   8   2   0   10.12    1.36
   8   2   0    9.10    0.93
  -9  -2   0   10.26    1.28
  -9  -2   0   12.06    1.30
  -9  -2   0   10.95    1.45
  -9  -2   0    9.82    1.39
   9   2   0    8.41    1.03
   9   2   0   11.10    1.62
 -10  -2   0    0.72    1.08
 -10  -2   0    0.62    1.04
  10   2   0    1.22    1.24
  10   2   0    0.88    0.88
 -11  -2   0    1.87    1.33
 -11  -2   0   -0.09    1.19
  11   2   0    0.91    1.00
  11   2   0   -0.32    1.49
 -12  -2   0    2.88    1.69
 -12  -2   0    0.77    1.13
  12   2   0    1.26    1.64
   9  -3   0    0.79    1.00
   9  -3   0    0.79    1.40
   9  -3   0    0.18    1.11
  -9   3   0   -1.10    1.12
  -9   3   0   -1.59    1.50
  -9   3   0   -0.29    1.11
   8  -3   0   11.35    1.35
   8  -3   0   10.73    1.80
   8  -3   0   10.85    1.66
  -8   3   0   12.23    1.60
  -8   3   0   12.34    1.69
  -8   3   0   11.64    1.92
   7  -3   0   11.62    1.06
   7  -3   0   10.73    1.29
   7  -3   0   14.69    1.36
   7  -3   0   12.16    1.61
  -7   3   0   13.65    1.38
  -7   3   0   12.58    1.75
  -7   3   0   12.21    1.56
   6  -3   0   12.08    1.33
   6  -3   0   14.30    1.07
   6  -3   0   11.54    1.10
   6  -3   0   12.16    0.90
  -6   3   0   12.63    1.51
  -6   3   0   11.80    1.41
  -6   3   0   12.01    1.09
   5  -3   0   53.77    2.22
   5  -3   0   55.92    2.11
   5  -3   0   56.71    1.65
   5  -3   0   57.66    1.72
   5  -3   0   54.61    2.01
  -5   3   0   54.39    2.30
  -5   3   0   53.57    2.34
  -5   3   0   54.82    2.26
   4  -3   0   41.12    1.25
   4  -3   0   38.93    1.72
   4  -3   0   41.64    1.24
   4  -3   0   38.28    1.54
   4  -3   0   40.65    1.55
  -4   3   0   41.35    1.70
  -4   3   0   39.99    1.45
  -4   3   0   36.93    1.99
  -4   3   0   38.55    1.90
   3  -3   0    4.77    0.65
   3  -3   0    5.62    0.65
   3  -3   0    4.64    0.40
   3  -3   0    4.46    0.42
   3  -3   0    4.58    0.92
  -3   3   0    4.46    0.52
  -3   3   0    5.28    0.81
  -3   3   0    4.72    0.75
  -3   3   0    5.20    0.88
   2  -3   0  131.69    3.27
   2  -3   0  133.36    2.83
   2  -3   0  135.86    3.33
   2  -3   0  134.27    3.58
   2  -3   0  133.93    3.06
  -2   3   0  133.76    2.98
  -2   3   0  136.32    3.55
  -2   3   0  134.97    3.40
  -2   3   0  134.03    3.55
  -2   3   0  136.76    3.34
   1  -3   0   43.47    1.05
   1  -3   0   42.04    1.51
   1  -3   0   40.96    1.37
   1  -3   0   41.08    1.05
   1  -3   0   39.28    1.34
  -1   3   0   41.48    1.49
  -1   3   0   41.17    1.55
  -1   3   0   41.44    1.05
  -1   3   0   41.93    1.04
  -1   3   0   42.36    1.39
  -1   3   0   43.73    1.42
   0  -3   0   78.33    2.05
   0  -3   0   74.65    1.95
   0  -3   0   75.74    2.02
   0  -3   0   77.24    1.79
   0   3   0   77.08    2.18
   0   3   0   78.54    1.78
   0   3   0   80.18    2.05
   0   3   0   80.28    1.99
   0   3   0   76.81    2.05
   0   3   0   75.99    1.60
  -1  -3   0   19.26    0.53
  -1  -3   0   18.09    0.74
  -1  -3   0   18.86    0.73
   1   3   0   19.71    0.82
   1   3   0   19.30    0.73
   1   3   0   19.26    0.75
   1   3   0   18.72    0.53
   1   3   0   18.96    0.73
   1   3   0   19.16    0.87
  -2  -3   0   25.00    0.78
  -2  -3   0   25.04    0.97
   2   3   0   24.50    0.72
   2   3   0   25.45    0.97
   2   3   0   26.40    0.91
   2   3   0   25.80    0.90
   2   3   0   25.97    0.79
   2   3   0   24.64    1.00
  -3  -3   0  197.75    4.16
  -3  -3   0  201.88    4.35
  -3  -3   0  207.57    4.60
   3   3   0  200.00    4.63
   3   3   0  209.89    4.60
   3   3   0  204.59    4.17
   3   3   0  200.45    4.49
   3   3   0  208.13    4.38
   3   3   0  198.16    4.19
  -4  -3   0  119.12    3.10
  -4  -3   0  119.10    2.92
  -4  -3   0  118.63    2.72
  -4  -3   0  118.71    2.90
   4   3   0  115.42    2.40
   4   3   0  120.76    3.12
   4   3   0  114.08    3.14
   4   3   0  122.06    2.96
   4   3   0  121.62    2.94
   4   3   0  121.21    2.76
   4   3   0  118.46    2.41
  -5  -3   0   14.61    1.12
  -5  -3   0   13.50    0.77
  -5  -3   0   16.23    0.87
  -5  -3   0   14.18    0.89
  -5  -3   0   14.29    0.91
   5   3   0   14.91    0.87
   5   3   0   14.67    1.07
   5   3   0   14.36    1.06
   5   3   0   17.81    1.04
   5   3   0   14.74    0.82
  -6  -3   0   -0.19    0.36
  -6  -3   0    0.75    0.50
  -6  -3   0   -0.31    0.50
  -6  -3   0    1.07    0.50
  -6  -3   0   -0.71    0.86
   6   3   0    0.88    0.42
   6   3   0    1.25    0.69
   6   3   0    0.21    0.54
   6   3   0    0.18    0.42
  -7  -3   0   27.64    1.51
  -7  -3   0   28.18    1.47
  -7  -3   0   26.63    1.33
  -7  -3   0   27.86    1.31
   7   3   0   28.10    1.68
   7   3   0   24.67    1.52
   7   3   0   29.08    1.31
  -8  -3   0   95.65    2.85
  -8  -3   0   95.89    3.15
  -8  -3   0   94.50    3.03
  -8  -3   0   99.49    3.23
   8   3   0   95.20    3.40
   8   3   0   98.86    2.81
  -9  -3   0    4.28    1.00
  -9  -3   0    3.08    1.02
  -9  -3   0    3.75    1.02
  -9  -3   0    5.04    1.08
   9   3   0    4.26    0.86
   9   3   0    3.18    1.15
 -10  -3   0    3.86    1.18
 -10  -3   0    4.22    1.13
 -10  -3   0    3.75    1.02
  10   3   0    2.17    0.99
  10   3   0    3.31    1.28
 -11  -3   0   -0.55    1.15
 -11  -3   0    1.94    1.21
  11   3   0    0.26    0.93
  11   3   0   -2.01    1.34
 -12  -3   0    8.70    1.61
 -12  -3   0    7.85    1.84
  12   3   0    6.85    1.42
  12   3   0    4.19    1.84
   9  -4   0    0.97    1.38
   9  -4   0    0.62    1.48
  -9   4   0    1.97    1.46
  -9   4   0    0.73    1.57
   8  -4   0   12.15    1.83
   8  -4   0   10.75    1.08
   8  -4   0   11.84    1.60
  -8   4   0   13.10    1.66
  -8   4   0   13.34    1.92
  -8   4   0   10.61    2.07
   7  -4   0    6.01    1.36
   7  -4   0    6.42    0.85
   7  -4   0    6.70    1.17
  -7   4   0    5.70    1.32
  -7   4   0    7.66    1.22
  -7   4   0    6.02    1.53
   6  -4   0   14.63    1.03
   6  -4   0   10.60    0.85
   6  -4   0   12.21    1.41
   6  -4   0   11.81    1.23
  -6   4   0   12.03    1.42
  -6   4   0   12.44    1.14
  -6   4   0   11.96    1.52
   5  -4   0    0.76    0.44
   5  -4   0    0.35    0.98
   5  -4   0    1.00    0.71
   5  -4   0    1.18    0.53
   5  -4   0    0.66    0.62
  -5   4   0    1.13    0.67
  -5   4   0    1.63    0.86
  -5   4   0    0.74    0.86
   4  -4   0   30.19    1.50
   4  -4   0   29.82    0.98
   4  -4   0   27.23    1.31
   4  -4   0   30.67    1.01
   4  -4   0   28.04    1.56
  -4   4   0   30.60    1.25
  -4   4   0   28.24    1.79
  -4   4   0   31.13    1.77
   3  -4   0   28.26    0.88
   3  -4   0   28.57    1.42
   3  -4   0   30.28    1.13
  -3   4   0   28.96    1.08
  -3   4   0   27.95    1.61
  -3   4   0   27.07    1.59
  -3   4   0   25.79    1.47
   2  -4   0   73.46    1.80
   2  -4   0   71.65    1.67
   2  -4   0   70.51    2.50
   2  -4   0   61.27    2.37
   2  -4   0   70.87    2.17
  -2   4   0   70.23    2.32
  -2   4   0   73.71    2.47
  -2   4   0   72.09    1.78
  -2   4   0   75.36    2.30
   1  -4   0   23.95    1.28
   1  -4   0   22.48    1.10
   1  -4   0   23.60    1.09
   1  -4   0   24.13    0.71
   1  -4   0   23.50    0.78
  -1   4   0   22.83    1.19
  -1   4   0   26.13    1.30
  -1   4   0   23.64    1.18
  -1   4   0   24.54    1.18
  -1   4   0   23.88    0.72
  -1   4   0   22.15    0.82
   0  -4   0   10.31    0.78
   0  -4   0   10.60    0.65
   0  -4   0   10.35    0.56
   0   4   0   10.84    0.34
   0   4   0   10.11    0.76
   0   4   0   10.82    0.36
   0   4   0   10.64    0.68
   0   4   0   10.10    0.78
   0   4   0   11.58    0.56
   0   4   0   10.32    0.88
  -1  -4   0  325.54    6.90
  -1  -4   0  324.14    6.82
   1   4   0  337.29    7.03
   1   4   0  320.10    6.44
   1   4   0  339.08    6.92
   1   4   0  330.80    7.17
   1   4   0  340.17    6.83
   1   4   0  332.02    6.91
  -2  -4   0    2.75    0.31
  -2  -4   0    2.48    0.44
  -2  -4   0    2.64    0.49
   2   4   0    2.73    0.51
   2   4   0    1.96    0.42
   2   4   0    3.02    0.41
   2   4   0    2.43    0.38
   2   4   0    2.09    0.45
   2   4   0    2.53    0.32
  -3  -4   0  116.98    2.69
  -3  -4   0  114.73    2.98
   3   4   0  116.36    2.55
   3   4   0  119.32    2.84
   3   4   0  119.93    2.73
   3   4   0  117.97    3.01
   3   4   0  111.98    2.99
   3   4   0  114.58    2.80
  -4  -4   0   36.22    1.25
  -4  -4   0   35.40    1.47
  -4  -4   0   36.02    1.07
   4   4   0   36.20    1.45
   4   4   0   39.17    1.59
   4   4   0   36.44    1.30
   4   4   0   36.97    1.10
   4   4   0   36.64    1.10
   4   4   0   34.08    1.40
   4   4   0   36.86    1.09
  -5  -4   0   12.44    0.96
  -5  -4   0   13.31    0.97
  -5  -4   0   13.41    0.70
  -5  -4   0   12.52    0.84
   5   4   0   14.42    0.49
   5   4   0   13.41    0.76
   5   4   0   12.50    0.45
   5   4   0   10.11    0.90
   5   4   0   12.44    1.10
   5   4   0   12.85    0.92
   5   4   0   13.60    0.97
  -6  -4   0  101.65    3.09
  -6  -4   0  100.44    2.63
  -6  -4   0  100.26    2.85
  -6  -4   0  101.66    2.84
   6   4   0  100.78    2.71
   6   4   0   99.07    3.18
   6   4   0  103.46    2.83
  -7  -4   0   24.09    1.37
  -7  -4   0   25.04    1.41
  -7  -4   0   25.59    1.21
  -7  -4   0   24.28    1.51
   7   4   0   20.73    1.55
   7   4   0   23.16    1.42
   7   4   0   26.95    1.33
  -8  -4   0    0.36    0.71
  -8  -4   0    0.49    0.83
  -8  -4   0    0.19    0.57
  -8  -4   0   -0.79    0.63
   8   4   0    0.32    0.59
   8   4   0    0.33    0.65
   8   4   0   -0.20    0.99
  -9  -4   0   -0.50    0.84
  -9  -4   0    1.54    0.68
  -9  -4   0   -0.03    1.05
  -9  -4   0    0.05    0.82
   9   4   0    1.38    0.76
   9   4   0   -0.25    1.08
 -10  -4   0    6.40    1.69
 -10  -4   0    8.40    1.24
 -10  -4   0   10.16    1.56
 -10  -4   0   11.39    1.54
  10   4   0    9.82    1.71
  10   4   0    9.50    1.24
 -11  -4   0    1.60    0.93
 -11  -4   0   -0.18    1.12
 -11  -4   0   -2.17    1.04
  11   4   0    0.42    1.00
  11   4   0   -1.25    1.37
 -12  -4   0    0.84    1.39
 -12  -4   0    2.28    1.45
  12   4   0   -0.83    1.63
  12   4   0   -1.42    1.15
   8  -5   0   -0.89    1.30
   8  -5   0   -0.45    1.21
  -8   5   0   -1.42    1.21
  -8   5   0    2.67    1.80
  -8   5   0   -2.02    1.41
   7  -5   0    7.50    1.51
   7  -5   0    7.55    1.44
  -7   5   0    5.84    1.25
  -7   5   0    5.50    1.58
  -7   5   0    4.96    1.72
   6  -5   0    1.19    1.03
   6  -5   0    0.90    0.99
   6  -5   0    1.71    0.41
  -6   5   0    1.45    1.09
  -6   5   0    0.72    1.24
  -6   5   0    0.74    0.86
   5  -5   0   12.38    0.61
   5  -5   0   10.53    1.38
   5  -5   0   12.26    1.29
   5  -5   0   11.63    1.18
  -5   5   0   13.34    1.64
  -5   5   0   11.15    1.05
  -5   5   0   14.32    1.60
   4  -5   0    3.27    0.87
   4  -5   0    2.20    0.77
   4  -5   0    2.81    0.38
   4  -5   0    2.72    0.81
  -4   5   0    0.64    0.91
  -4   5   0    2.40    0.60
  -4   5   0    1.35    0.92
   3  -5   0   30.00    1.58
   3  -5   0   29.69    1.53
   3  -5   0   31.25    1.20
   3  -5   0   30.61    0.90
  -3   5   0   27.45    1.75
  -3   5   0   29.12    1.11
  -3   5   0   30.16    1.82
   2  -5   0    4.45    0.73
   2  -5   0    4.79    0.49
   2  -5   0    4.32    0.71
   2  -5   0    4.33    0.42
  -2   5   0    4.03    0.45
  -2   5   0    5.00    0.97
  -2   5   0    4.74    0.95
   1  -5   0   12.29    0.87
   1  -5   0   10.89    0.88
   1  -5   0   12.52    1.17
   1  -5   0   12.99    0.62
  -1   5   0   12.86    0.49
  -1   5   0   13.20    1.11
  -1   5   0   11.36    0.95
  -1   5   0   12.59    0.60
  -1   5   0   12.86    1.03
  -1   5   0   11.81    1.13
   0  -5   0  104.84    2.50
   0  -5   0  103.23    2.82
   0  -5   0  106.00    2.96
   0   5   0  105.17    2.85
   0   5   0  105.33    2.09
   0   5   0  105.03    2.46
   0   5   0  104.07    2.11
   0   5   0  101.10    2.88
   0   5   0  100.75    2.87
   0   5   0  100.82    3.17
  -1  -5   0    5.60    0.63
  -1  -5   0    5.19    0.56
   1   5   0    5.97    0.30
   1   5   0    7.41    0.68
   1   5   0    6.01    0.29
   1   5   0    6.02    0.65
   1   5   0    6.46    0.87
   1   5   0    7.32    0.79
   1   5   0    5.79    0.61
  -2  -5   0  155.13    3.29
  -2  -5   0  154.56    3.75
  -2  -5   0  157.06    3.76
   2   5   0  156.41    3.72
   2   5   0  156.80    3.63
   2   5   0  157.25    3.33
   2   5   0  161.29    3.88
   2   5   0  160.81    3.77
   2   5   0  155.89    3.96
  -3  -5   0   65.65    2.10
  -3  -5   0   66.08    1.72
   3   5   0   67.71    1.79
   3   5   0   66.84    1.96
   3   5   0   67.24    2.06
   3   5   0   67.92    2.13
   3   5   0   67.74    1.71
   3   5   0   68.34    2.20
   3   5   0   70.68    1.80
  -4  -5   0    8.46    0.63
  -4  -5   0    6.65    0.79
   4   5   0    7.43    0.92
   4   5   0    7.78    0.65
   4   5   0    7.49    0.50
   4   5   0    7.21    0.82
   4   5   0    7.36    0.66
   4   5   0    8.32    0.85
  -5  -5   0   28.19    1.18
  -5  -5   0   28.86    1.01
  -5  -5   0   25.76    1.41
   5   5   0   28.37    1.00
   5   5   0   27.05    1.37
   5   5   0   28.01    1.01
   5   5   0   24.76    1.54
   5   5   0   26.96    1.43
   5   5   0   28.29    1.29
   5   5   0   28.56    1.01
  -6  -5   0  114.06    3.42
  -6  -5   0  115.54    3.16
  -6  -5   0  118.78    2.86
   6   5   0  115.63    2.47
   6   5   0  119.26    3.31
   6   5   0  115.07    2.47
   6   5   0  118.77    2.90
   6   5   0  110.41    3.53
  -7  -5   0    5.09    1.01
  -7  -5   0    5.82    0.95
  -7  -5   0    5.78    0.74
  -7  -5   0    6.50    0.99
   7   5   0    6.02    1.08
   7   5   0    6.38    0.89
   7   5   0    6.14    0.90
  -8  -5   0    3.98    0.74
  -8  -5   0    6.00    1.17
  -8  -5   0    4.97    1.15
  -8  -5   0    4.58    0.94
   8   5   0    5.34    1.00
   8   5   0    3.44    0.88
  -9  -5   0   26.99    2.09
  -9  -5   0   25.37    1.57
  -9  -5   0   29.00    1.51
  -9  -5   0   30.00    1.94
   9   5   0   27.09    2.03
   9   5   0   25.61    1.53
 -10  -5   0    2.11    1.05
 -10  -5   0    0.43    0.77
 -10  -5   0    1.20    1.11
  10   5   0    0.53    1.11
  10   5   0   -0.31    0.86
 -11  -5   0   -1.55    1.02
 -11  -5   0   -0.25    0.95
 -11  -5   0    0.88    1.20
  11   5   0    1.45    1.43
  11   5   0    0.36    1.05
 -12  -5   0    1.96    1.17
 -12  -5   0    1.63    1.54
 -12  -5   0    3.94    1.43
  12   5   0    4.93    1.58
  12   5   0    2.74    1.33
   7  -6   0    3.98    1.46
  -7   6   0    3.97    1.28
  -7   6   0    4.99    1.86
  -7   6   0    5.69    1.71
   6  -6   0    1.78    0.92
  -6   6   0    0.71    0.95
  -6   6   0    0.43    1.33
  -6   6   0    1.84    1.19
   5  -6   0    4.39    1.13
   5  -6   0    4.78    1.08
  -5   6   0    4.34    0.98
  -5   6   0    6.04    1.55
  -5   6   0    2.54    1.15
   4  -6   0   -0.31    0.75
   4  -6   0    0.25    0.81
   4  -6   0    1.49    0.68
  -4   6   0    0.66    0.55
  -4   6   0    1.98    1.07
  -4   6   0    1.70    1.12
   3  -6   0    6.13    0.38
   3  -6   0    7.06    1.15
   3  -6   0    6.63    0.39
   3  -6   0    5.50    0.69
   3  -6   0    4.88    0.98
  -3   6   0    5.51    0.61
  -3   6   0    7.21    1.31
  -3   6   0    7.00    1.19
   2  -6   0    4.14    0.48
   2  -6   0    3.38    0.43
   2  -6   0    3.03    0.79
  -2   6   0    3.63    0.42
  -2   6   0    5.47    1.13
  -2   6   0    3.56    1.00
   1  -6   0    0.23    0.34
   1  -6   0   -0.09    0.48
  -1   6   0   -0.13    0.52
  -1   6   0   -0.25    0.67
  -1   6   0    0.15    0.37
  -1   6   0    0.27    0.19
   0  -6   0    9.31    0.68
   0  -6   0    9.20    1.12
   0  -6   0    9.25    0.86
   0   6   0    7.85    0.91
   0   6   0    7.87    0.94
   0   6   0    8.81    0.68
  -1  -6   0   13.37    0.87
  -1  -6   0   13.67    0.83
   1   6   0   13.05    0.42
   1   6   0   13.22    0.41
   1   6   0   13.98    0.90
   1   6   0   13.90    0.98
   1   6   0   13.98    1.19
  -2  -6   0    3.31    0.60
  -2  -6   0    4.05    0.70
   2   6   0    2.86    0.70
   2   6   0    3.29    0.74
   2   6   0    3.52    0.71
   2   6   0    3.79    0.44
   2   6   0    3.51    0.58
   2   6   0    3.54    0.70
  -3  -6   0   99.21    2.30
  -3  -6   0   99.22    2.81
  -3  -6   0   94.47    2.74
   3   6   0   95.14    2.84
   3   6   0   88.17    2.66
   3   6   0   98.62    2.50
   3   6   0  100.07    2.43
   3   6   0   98.90    2.36
   3   6   0   99.99    2.90
   3   6   0   96.81    3.02
   3   6   0   96.43    2.79
  -4  -6   0    1.33    0.39
   4   6   0    3.21    0.84
   4   6   0    0.68    0.44
   4   6   0    1.22    0.35
   4   6   0    0.92    0.51
   4   6   0    0.59    0.59
  -5  -6   0    3.78    0.59
  -5  -6   0    3.58    0.84
   5   6   0    3.41    0.80
   5   6   0    3.61    0.58
   5   6   0    4.33    0.75
   5   6   0    3.80    0.47
   5   6   0    4.34    0.69
  -6  -6   0   68.48    2.51
  -6  -6   0   66.71    2.18
  -6  -6   0   65.88    1.87
   6   6   0   69.16    1.92
   6   6   0   69.47    2.47
   6   6   0   68.76    1.88
   6   6   0   69.21    1.90
   6   6   0   70.63    2.70
  -7  -6   0    3.14    0.55
  -7  -6   0    3.03    0.97
  -7  -6   0    3.67    0.72
   7   6   0    2.83    0.30
   7   6   0    3.14    0.72
   7   6   0    2.93    0.34
   7   6   0    3.33    0.84
   7   6   0    2.40    0.96
  -8  -6   0   12.06    0.96
  -8  -6   0   12.27    1.39
  -8  -6   0   13.79    1.24
   8   6   0   14.20    1.31
   8   6   0   11.55    1.34
   8   6   0   13.53    1.54
  -9  -6   0    2.68    1.08
  -9  -6   0    3.69    1.04
   9   6   0    2.80    0.92
   9   6   0    2.41    0.99
   9   6   0    1.29    1.20
 -10  -6   0    1.39    0.89
 -10  -6   0    0.42    1.14
 -10  -6   0    0.23    0.90
  10   6   0    0.61    1.18
  10   6   0    1.15    1.01
 -11  -6   0    8.12    1.33
 -11  -6   0    7.14    1.64
 -11  -6   0    6.86    1.29
  11   6   0    5.58    1.35
  11   6   0    5.44    1.46
 -12  -6   0    5.99    1.41
 -12  -6   0    4.84    1.30
 -12  -6   0    5.67    1.81
  12   6   0    4.46    1.45
  12   6   0    3.35    1.90
   6  -7   0   -1.08    1.15
  -6   7   0    1.07    1.53
  -6   7   0    2.59    1.06
  -6   7   0    2.13    1.66
   5  -7   0    2.35    0.94
  -5   7   0   -0.49    1.17
  -5   7   0   -0.48    1.41
   4  -7   0    0.07    0.66
  -4   7   0    2.30    1.06
  -4   7   0    0.92    1.20
  -4   7   0    0.86    0.57
   3  -7   0   33.29    1.91
   3  -7   0   37.41    1.23
  -3   7   0   34.27    1.15
  -3   7   0   35.59    2.31
  -3   7   0   35.15    2.38
   2  -7   0    0.39    0.33
   2  -7   0    0.08    0.52
  -2   7   0   -0.74    0.86
  -2   7   0    0.52    0.93
  -2   7   0   -0.07    0.25
   1  -7   0   11.03    0.75
   1  -7   0   12.42    1.02
  -1   7   0   12.66    1.47
  -1   7   0   10.72    1.33
  -1   7   0   10.89    0.77
   0  -7   0   35.14    1.31
   0  -7   0   34.51    1.57
   0   7   0   33.32    1.98
   0   7   0   33.96    1.29
   0   7   0   32.83    1.73
  -1  -7   0   18.85    1.06
  -1  -7   0   20.63    1.26
   1   7   0   21.67    1.17
   1   7   0   20.46    1.26
   1   7   0   16.82    1.33
  -2  -7   0    3.52    0.74
  -2  -7   0    5.49    0.80
   2   7   0    3.63    0.35
   2   7   0    4.77    0.60
   2   7   0    4.86    0.74
   2   7   0    6.58    0.97
   2   7   0    4.76    0.95
  -3  -7   0    4.58    0.76
  -3  -7   0    3.79    0.44
  -3  -7   0    4.38    0.86
   3   7   0    4.82    1.00
   3   7   0    3.80    0.54
   3   7   0    3.24    0.80
   3   7   0    3.24    0.91
   3   7   0    4.01    0.65
   3   7   0    3.92    0.65
  -4  -7   0    9.74    0.69
  -4  -7   0    8.51    1.00
   4   7   0   10.02    0.83
   4   7   0   10.03    0.98
   4   7   0    9.37    0.75
   4   7   0   10.92    0.81
   4   7   0   10.08    1.03
  -5  -7   0   22.45    1.04
  -5  -7   0   20.19    1.40
   5   7   0   21.42    1.02
   5   7   0   21.42    1.27
   5   7   0   20.75    1.24
   5   7   0   22.20    0.91
   5   7   0   18.28    1.22
   5   7   0   21.35    1.51
  -6  -7   0    3.00    0.94
  -6  -7   0    3.50    0.68
   6   7   0    2.01    0.71
   6   7   0    1.84    0.82
   6   7   0    2.79    0.83
   6   7   0    2.16    0.51
   6   7   0    2.91    0.62
  -7  -7   0   18.32    1.22
  -7  -7   0   17.24    0.95
  -7  -7   0   16.89    1.49
   7   7   0   17.36    0.90
   7   7   0   19.50    1.07
   7   7   0   18.49    1.64
   7   7   0   20.15    1.53
   7   7   0   17.65    1.04
  -8  -7   0    4.51    0.99
  -8  -7   0    4.89    1.22
  -8  -7   0    5.15    0.73
   8   7   0    4.91    1.09
   8   7   0    2.51    1.17
   8   7   0    4.84    0.91
  -9  -7   0    5.64    1.36
  -9  -7   0    5.29    0.86
  -9  -7   0    6.48    1.06
   9   7   0    5.02    1.20
   9   7   0    6.42    1.28
   9   7   0    4.56    1.37
 -10  -7   0    2.64    0.86
 -10  -7   0    2.51    0.91
 -10  -7   0    1.48    1.20
  10   7   0    2.55    1.15
  10   7   0    1.67    1.38
 -11  -7   0    3.24    1.07
 -11  -7   0    3.59    1.23
 -11  -7   0    1.41    1.37
  11   7   0    2.10    1.66
  11   7   0    3.03    1.26
 -12  -7   0    1.76    1.28
 -12  -7   0   -0.75    1.55
 -12  -7   0    0.61    1.35
  12   7   0    0.58    1.45
  12   7   0    0.77    1.56
   5  -8   0   14.06    1.64
  -5   8   0   14.90    2.40
  -5   8   0   12.52    2.35
   4  -8   0   14.12    1.49
  -4   8   0   14.66    2.22
  -4   8   0   13.73    0.88
  -4   8   0   13.33    2.11
   3  -8   0    0.76    0.94
  -3   8   0    0.07    1.27
  -3   8   0    0.58    0.29
  -3   8   0    1.39    1.29
   2  -8   0    0.32    0.87
  -2   8   0    0.57    1.04
  -2   8   0   -0.85    1.02
   1  -8   0   31.59    1.18
   1  -8   0   31.03    1.80
  -1   8   0   31.85    2.10
  -1   8   0   31.37    2.04
  -1   8   0   31.26    1.23
   0  -8   0   66.72    2.55
   0  -8   0   70.18    2.09
   0   8   0   69.01    2.96
   0   8   0   72.67    2.79
  -1  -8   0   -0.09    0.55
  -1  -8   0    0.33    0.66
   1   8   0   -0.17    0.76
   1   8   0   -0.60    0.82
   1   8   0    0.13    0.76
  -2  -8   0    0.35    0.61
  -2  -8   0    0.89    0.54
   2   8   0    1.49    0.72
   2   8   0    1.33    0.19
   2   8   0    1.14    0.21
   2   8   0    0.27    0.90
   2   8   0    1.38    0.86
  -3  -8   0   63.56    2.28
  -3  -8   0   60.71    2.26
   3   8   0   65.16    2.82
   3   8   0   64.22    1.67
   3   8   0   60.02    2.09
   3   8   0   62.59    2.13
   3   8   0   64.44    2.72
   3   8   0   62.74    2.59
  -4  -8   0    7.25    1.09
  -4  -8   0    7.50    0.64
   4   8   0    7.03    1.08
   4   8   0    7.05    0.85
   4   8   0    7.51    0.85
   4   8   0    7.61    0.84
   4   8   0    6.51    1.24
  -5  -8   0    8.26    1.26
  -5  -8   0    7.83    0.73
   5   8   0    7.60    1.03
   5   8   0    6.68    0.80
   5   8   0    7.09    1.29
   5   8   0    8.56    1.24
   5   8   0    9.31    0.76
   5   8   0   10.02    1.09
  -6  -8   0    1.50    0.93
  -6  -8   0    1.97    0.63
   6   8   0    1.85    0.95
   6   8   0    1.76    0.65
   6   8   0    1.61    0.89
   6   8   0    1.07    0.49
   6   8   0    1.01    0.52
  -7  -8   0    1.78    0.97
  -7  -8   0    1.53    0.71
   7   8   0    0.96    0.58
   7   8   0    1.47    0.96
   7   8   0    0.96    0.59
   7   8   0    1.78    1.04
   7   8   0    0.02    0.80
  -8  -8   0  106.72    3.32
  -8  -8   0  112.82    3.91
   8   8   0  110.77    2.77
   8   8   0  108.63    3.77
   8   8   0  106.67    2.70
   8   8   0  107.82    4.04
   8   8   0  107.65    2.84
  -9  -8   0    2.32    1.17
  -9  -8   0    1.01    0.91
  -9  -8   0   -0.45    0.61
   9   8   0   -0.09    0.84
   9   8   0    0.88    1.07
   9   8   0   -0.97    0.90
 -10  -8   0    4.69    1.49
 -10  -8   0    5.36    1.23
 -10  -8   0    3.58    0.91
  10   8   0    2.50    1.41
  10   8   0    2.98    1.28
 -11  -8   0   -0.45    0.93
 -11  -8   0   -0.58    1.34
 -11  -8   0   -1.01    1.07
  11   8   0    0.54    1.57
  11   8   0    1.56    1.23
 -12  -8   0   -0.50    1.13
 -12  -8   0    0.01    1.39
 -12  -8   0   -2.28    1.43
  12   8   0   -2.49    1.43
  12   8   0   -0.72    1.33
   4  -9   0   29.85    2.37
  -4   9   0   27.84    2.85
  -4   9   0   24.73    2.78
   3  -9   0   -0.57    1.02
  -3   9   0    0.50    1.50
  -3   9   0    0.44    1.37
   2  -9   0   13.60    1.38
  -2   9   0   14.19    1.96
  -2   9   0   13.31    2.03
   1  -9   0    8.52    0.75
   1  -9   0    8.34    1.31
  -1   9   0    9.41    1.47
  -1   9   0    8.34    1.58
  -1   9   0    8.30    1.68
   0  -9   0    0.48    0.60
   0  -9   0   -0.33    0.55
   0   9   0   -0.56    0.75
   0   9   0    0.91    1.08
   0   9   0    0.17    1.00
  -1  -9   0    0.09    0.78
  -1  -9   0    0.25    0.66
   1   9   0    2.50    1.02
   1   9   0    0.59    0.95
   1   9   0    0.14    0.88
  -2  -9   0   20.70    1.51
  -2  -9   0   22.29    1.39
   2   9   0   24.80    1.76
   2   9   0   23.82    1.88
   2   9   0   23.65    1.65
  -3  -9   0    5.36    0.94
  -3  -9   0    2.55    0.88
   3   9   0    4.91    1.15
   3   9   0    2.54    1.07
   3   9   0    3.01    1.10
   3   9   0    3.52    0.39
   3   9   0    4.04    0.87
  -4  -9   0    8.54    1.26
   4   9   0    8.38    0.91
   4   9   0    9.31    1.02
   4   9   0    8.56    1.45
   4   9   0    8.45    1.03
   4   9   0    8.39    1.28
  -5  -9   0    0.62    0.49
  -5  -9   0    0.08    0.86
   5   9   0    0.74    0.77
   5   9   0   -0.74    0.55
   5   9   0   -0.36    0.95
   5   9   0    0.16    0.83
   5   9   0   -0.44    0.62
  -6  -9   0   -0.49    0.80
  -6  -9   0   -0.38    0.60
   6   9   0   -0.06    0.52
   6   9   0    0.25    0.98
   6   9   0    0.19    0.78
   6   9   0    0.93    0.59
  -7  -9   0   15.16    1.57
  -7  -9   0   11.14    1.06
   7   9   0   11.92    1.73
   7   9   0   12.64    0.95
   7   9   0   15.89    1.70
   7   9   0   10.43    1.58
   7   9   0   12.45    0.92
  -8  -9   0    2.19    0.84
  -8  -9   0   -0.31    1.05
   8   9   0    0.23    0.62
   8   9   0    0.88    0.71
   8   9   0    2.25    1.19
   8   9   0    0.88    1.06
   8   9   0    0.82    1.13
  -9  -9   0    2.36    0.97
  -9  -9   0    2.78    1.36
   9   9   0    2.89    1.34
   9   9   0    0.63    0.53
   9   9   0    3.33    1.39
 -10  -9   0    5.79    1.64
 -10  -9   0    6.72    1.27
  10   9   0    4.33    1.51
  10   9   0    6.27    1.81
 -11  -9   0    6.98    1.26
 -11  -9   0    6.68    1.93
 -11  -9   0    9.02    1.66
  11   9   0    5.48    1.78
  11   9   0    7.05    2.09
 -12  -9   0    5.66    2.26
 -12  -9   0    0.40    1.43
  12   9   0   -0.79    1.72
  -3  10   0    0.69    1.83
   2 -10   0    2.75    1.28
  -2  10   0    0.08    1.59
  -2  10   0   -0.96    1.54
   1 -10   0    4.77    1.26
  -1  10   0    5.91    1.73
  -1  10   0    2.94    1.48
   0 -10   0    1.75    0.99
   0 -10   0    0.15    0.65
   0  10   0    0.55    1.28
   0  10   0   -0.83    1.27
  -1 -10   0    2.17    0.99
  -1 -10   0    2.71    1.40
   1  10   0    1.76    1.29
   1  10   0    3.89    1.38
  -2 -10   0    3.14    0.86
  -2 -10   0    0.99    0.69
   2  10   0    1.27    1.09
   2  10   0    1.60    1.18
  -3 -10   0    2.49    1.00
  -3 -10   0    3.49    0.96
   3  10   0    5.84    1.34
   3  10   0    2.22    0.99
   3  10   0    2.16    1.02
  -4 -10   0   18.67    1.62
   4  10   0   17.47    1.55
   4  10   0   15.94    1.74
   4  10   0   15.16    1.89
   4  10   0   17.85    1.37
   4  10   0   17.94    0.98
  -5 -10   0    0.21    0.92
   5  10   0    1.12    0.92
   5  10   0   -0.45    0.79
   5  10   0   -1.84    1.01
   5  10   0   -0.19    0.71
   5  10   0   -0.44    0.89
  -6 -10   0    2.07    0.67
  -6 -10   0    2.76    1.14
   6  10   0    0.91    1.11
   6  10   0    2.12    0.68
   6  10   0    1.67    1.00
   6  10   0    1.30    1.39
   6  10   0    1.20    0.67
  -7 -10   0   11.79    1.69
  -7 -10   0   10.53    1.04
   7  10   0    9.65    0.86
   7  10   0    8.47    1.58
   7  10   0    8.97    0.84
   7  10   0   11.10    1.43
   7  10   0    9.16    1.69
  -8 -10   0   -0.85    0.80
  -8 -10   0    0.31    1.15
   8  10   0   -0.32    0.41
   8  10   0    0.74    1.33
   8  10   0    0.26    1.31
   8  10   0    0.80    0.92
  -9 -10   0    0.51    1.01
  -9 -10   0    0.23    1.30
   9  10   0    4.12    1.58
   9  10   0    3.92    0.92
   9  10   0    2.87    1.61
 -10 -10   0    1.04    1.05
 -10 -10   0   -0.33    1.36
  10  10   0    0.96    1.19
  10  10   0    1.06    1.53
 -11 -10   0    4.87    1.82
 -11 -10   0   -0.33    1.21
  11  10   0   -0.20    1.40
  11  10   0    2.59    1.79
   1 -11   0   -0.46    1.24
  -1  11   0   -0.39    1.30
  -1  11   0   -3.33    1.68
   0 -11   0   -0.25    1.14
   0  11   0   -1.25    1.58
   0  11   0   -1.04    1.05
  -1 -11   0    1.16    0.81
   1  11   0    0.19    1.36
   1  11   0    0.84    1.34
  -2 -11   0    4.92    1.10
  -2 -11   0    4.97    1.08
   2  11   0    1.69    1.35
   2  11   0    2.80    1.28
   2  11   0    2.30    1.41
  -3 -11   0    8.99    1.43
  -3 -11   0   10.50    1.45
   3  11   0    8.44    1.75
   3  11   0    6.31    1.54
   3  11   0    7.96    1.42
  -4 -11   0   -1.08    1.01
   4  11   0    0.70    1.01
   4  11   0    0.27    1.02
   4  11   0   -1.26    1.13
  -5 -11   0    0.41    1.07
   5  11   0    0.43    1.34
   5  11   0   -0.62    1.11
   5  11   0   -0.30    0.84
  -6 -11   0    3.12    1.36
   6  11   0    3.71    1.45
   6  11   0    1.16    1.19
   6  11   0    3.13    0.80
  -7 -11   0    1.17    0.83
  -7 -11   0    2.66    1.28
   7  11   0    3.32    1.59
   7  11   0    1.51    0.74
   7  11   0    2.67    1.28
  -8 -11   0    0.04    1.32
  -8 -11   0    0.63    0.95
   8  11   0    1.17    1.13
   8  11   0    0.66    1.48
   8  11   0    0.28    1.41
  -9 -11   0   -0.95    1.47
  -9 -11   0    0.62    1.03
   9  11   0    0.21    1.15
   9  11   0    0.71    1.32
   9  11   0    3.46    1.73
 -10 -11   0    3.45    1.83
 -10 -11   0    3.49    1.25
  10  11   0    4.09    1.97
  10  11   0    4.05    1.60
   1  12   0   -0.86    1.76
   1  12   0    4.31    1.89
  -2 -12   0    1.33    0.99
  -2 -12   0    1.70    1.16
   2  12   0   -0.24    1.50
   2  12   0    0.98    1.58
   2  12   0    1.32    1.78
  -3 -12   0    0.56    1.15
  -3 -12   0    0.82    0.96
   3  12   0    1.25    1.58
   3  12   0    1.29    1.49
   3  12   0    2.01    1.44
  -4 -12   0    6.18    1.37
   4  12   0    6.55    1.42
   4  12   0    2.47    1.71
   4  12   0    2.58    1.52
  -5 -12   0    0.62    1.28
   5  12   0   -0.45    1.09
   5  12   0    1.04    1.50
  -6 -12   0    7.24    1.60
   6  12   0    7.52    1.77
   6  12   0   10.55    2.12
  -7 -12   0    7.99    1.76
   7  12   0    5.94    1.49
   7  12   0    8.54    2.10
  -8 -12   0    1.89    1.07
  -8 -12   0   -2.55    1.40
   8  12   0   -0.15    1.61
   8  12   0    0.63    1.77
   8  12   0    0.77    1.34
  -9 -12   0   -0.19    1.19
  -9 -12   0    0.40    1.67
   9  12   0    1.24    1.46
   9  12   0   -0.52    1.89
   9  12   0    1.58    1.91
  -5 -13   0    0.48    1.41
   5  13   0    0.52    1.85
  -6 -13   0   -0.52    1.47
   6  13   0    1.62    1.68
   9  12  -1    2.45    1.50
   9  12  -1    0.78    2.02
   9  12  -1    5.84    2.19
  -9 -12   1    2.24    1.79
  -9 -12   1    2.55    1.31
   8  12  -1    6.76    2.14
   8  12  -1    3.21    1.56
   8  12  -1    5.88    1.59
  -8 -12   1    3.09    1.60
  -8 -12   1    4.23    1.21
   7  12  -1   20.74    2.24
   7  12  -1   24.94    2.66
  -7 -12   1   18.41    2.28
   6  12  -1    1.98    1.34
   6  12  -1    2.78    1.44
  -6 -12   1    2.40    1.32
   5  12  -1    1.43    1.41
   5  12  -1    0.37    1.23
   5  12  -1    3.88    1.88
  -5 -12   1    1.74    1.36
   4  12  -1   12.25    2.03
   4  12  -1   16.77    2.08
   4  12  -1   13.49    1.81
  -4 -12   1   10.58    1.58
   3  12  -1   11.26    2.17
   3  12  -1    9.65    1.87
   3  12  -1    8.72    1.92
  -3 -12   1    8.31    1.48
  -3 -12   1   11.46    1.52
   2  12  -1    8.09    1.94
   2  12  -1    5.55    1.82
   2  12  -1    7.80    2.27
  -2 -12   1    8.36    1.48
  -2 -12   1    7.26    1.22
   1  12  -1    3.53    1.97
   1  12  -1    5.21    1.88
  10  11  -1    5.56    2.06
  10  11  -1    5.94    2.10
 -10 -11   1    4.41    1.47
 -10 -11   1    5.00    1.78
   9  11  -1    3.17    1.21
   9  11  -1    4.65    1.83
   9  11  -1    2.41    1.83
  -9 -11   1    3.48    1.59
  -9 -11   1    2.24    1.18
   8  11  -1   13.85    2.09
   8  11  -1   11.00    1.61
   8  11  -1   14.51    2.25
  -8 -11   1   11.18    1.96
  -8 -11   1   13.65    1.46
   7  11  -1   23.36    2.10
   7  11  -1   22.67    2.42
   7  11  -1   21.56    1.54
  -7 -11   1   21.91    1.49
  -7 -11   1   20.12    2.05
   6  11  -1   10.92    1.92
   6  11  -1   10.11    1.30
   6  11  -1    7.84    1.67
  -6 -11   1    9.27    1.66
   5  11  -1    8.44    1.35
   5  11  -1    7.52    1.77
   5  11  -1    9.52    1.64
  -5 -11   1    6.58    1.37
   4  11  -1    2.44    1.23
   4  11  -1    0.86    1.14
   4  11  -1   -1.33    1.25
   4  11  -1    0.59    0.55
  -4 -11   1   -0.14    0.92
   3  11  -1    6.69    1.52
   3  11  -1    7.70    1.48
   3  11  -1    7.61    1.71
  -3 -11   1    8.89    1.34
  -3 -11   1    9.90    1.49
   2  11  -1    2.04    1.28
   2  11  -1    2.22    1.43
  -2 -11   1    1.48    0.96
  -2 -11   1    4.00    1.04
   1  11  -1   19.05    2.33
   1  11  -1   18.72    2.14
  -1 -11   1   16.13    1.31
  -1 -11   1   16.68    1.58
   0  11  -1    2.46    1.68
   0  11  -1    2.79    1.62
   0 -11   1    1.13    1.20
  -1  11  -1    1.89    1.89
  -1  11  -1    2.70    1.82
   1 -11   1    3.54    1.54
  11  10  -1    3.92    1.75
  11  10  -1    0.93    1.98
 -11 -10   1    0.10    1.32
  10  10  -1    1.88    1.79
  10  10  -1   -1.42    1.54
 -10 -10   1   -0.59    1.41
 -10 -10   1   -0.07    1.11
   9  10  -1    0.69    0.86
   9  10  -1    1.76    1.53
   9  10  -1   -0.60    1.46
  -9 -10   1   -0.24    1.31
  -9 -10   1    0.57    1.06
   8  10  -1    3.67    1.49
   8  10  -1    3.08    0.88
   8  10  -1    3.04    1.38
   8  10  -1    0.21    0.98
  -8 -10   1    2.91    0.99
  -8 -10   1    3.86    1.33
   7  10  -1    2.22    0.85
   7  10  -1    1.30    1.24
   7  10  -1    2.54    1.34
   7  10  -1    2.06    1.02
  -7 -10   1    3.83    1.27
  -7 -10   1    1.61    0.80
   6  10  -1    7.73    1.42
   6  10  -1    7.63    1.34
   6  10  -1    7.59    1.11
  -6 -10   1    8.37    1.02
  -6 -10   1    9.13    1.50
   5  10  -1    1.38    1.21
   5  10  -1    0.15    0.80
   5  10  -1    2.03    1.09
   5  10  -1    0.99    1.04
   5  10  -1    1.52    1.04
  -5 -10   1    1.49    1.03
   4  10  -1   11.13    1.64
   4  10  -1   10.53    1.55
   4  10  -1    8.99    1.04
   4  10  -1   11.62    1.49
   4  10  -1   14.87    1.90
  -4 -10   1   12.51    1.39
   3  10  -1    0.21    0.51
   3  10  -1   -0.01    0.86
   3  10  -1    1.12    1.05
   3  10  -1    0.22    0.42
   3  10  -1    0.58    1.01
  -3 -10   1    0.04    0.80
  -3 -10   1    0.21    0.84
   2  10  -1   21.76    2.13
   2  10  -1   22.09    1.96
  -2 -10   1   23.70    1.44
  -2 -10   1   26.44    1.67
   1  10  -1    1.38    1.13
   1  10  -1    2.14    1.27
  -1 -10   1    1.34    0.96
  -1 -10   1    1.85    0.77
   0  10  -1    0.57    1.41
   0  10  -1    0.75    1.35
   0 -10   1    1.40    0.59
   0 -10   1    1.42    1.05
  -1  10  -1    5.44    1.70
  -1  10  -1    3.02    1.57
   1 -10   1    3.63    1.20
  -2  10  -1    1.40    1.59
  -2  10  -1    0.89    1.62
   2 -10   1    3.04    1.09
  -3  10  -1   12.62    2.39
  11   9  -1    4.77    1.79
  11   9  -1    6.12    1.75
 -11  -9   1    6.41    1.23
 -11  -9   1    7.45    1.73
 -11  -9   1    9.79    1.66
  10   9  -1    8.88    2.01
  10   9  -1   11.82    1.89
 -10  -9   1   11.90    1.60
 -10  -9   1   13.43    2.07
   9   9  -1    5.36    1.43
   9   9  -1    3.66    1.56
  -9  -9   1    3.35    1.01
  -9  -9   1    1.47    1.34
   8   9  -1   10.04    1.62
   8   9  -1    8.85    1.05
   8   9  -1    9.47    1.66
  -8  -9   1   12.34    1.36
  -8  -9   1    9.83    1.70
   7   9  -1    0.28    0.78
   7   9  -1    0.39    1.02
   7   9  -1    0.08    0.77
   7   9  -1    1.28    1.30
   7   9  -1   -1.02    0.95
  -7  -9   1   -0.85    0.63
  -7  -9   1   -1.04    0.88
   6   9  -1   17.84    1.30
   6   9  -1   16.69    1.50
   6   9  -1   16.89    1.24
   6   9  -1   15.20    1.73
  -6  -9   1   17.77    1.13
  -6  -9   1   18.11    1.56
   5   9  -1   14.93    1.45
   5   9  -1   14.43    1.24
   5   9  -1   14.97    1.44
   5   9  -1   14.18    1.31
   5   9  -1   15.53    1.68
  -5  -9   1   17.62    1.55
   4   9  -1   30.11    1.96
   4   9  -1   24.75    1.61
   4   9  -1   27.46    1.36
   4   9  -1   24.77    1.76
   4   9  -1   26.13    1.58
  -4  -9   1   25.24    1.58
   3   9  -1    3.04    0.99
   3   9  -1    3.54    0.57
   3   9  -1    2.04    1.13
   3   9  -1    4.73    0.68
   3   9  -1    4.42    1.13
  -3  -9   1    3.54    0.92
  -3  -9   1    3.58    0.89
   2   9  -1   45.38    2.46
   2   9  -1   41.49    1.13
   2   9  -1   39.80    2.03
   2   9  -1   43.39    2.19
  -2  -9   1   42.53    2.06
   1   9  -1    9.59    1.41
   1   9  -1    9.69    1.54
   1   9  -1   10.12    1.19
  -1  -9   1    8.08    0.91
  -1  -9   1    8.19    1.24
   0   9  -1    3.52    1.25
   0   9  -1    1.62    1.12
   0   9  -1    1.70    0.68
   0  -9   1    1.98    0.58
   0  -9   1    2.30    0.73
  -1   9  -1   36.62    2.62
  -1   9  -1   45.62    2.60
   1  -9   1   39.34    2.05
  -2   9  -1   -1.29    1.20
  -2   9  -1   -1.90    1.24
   2  -9   1    0.20    0.91
  -3   9  -1   -1.16    1.40
  -3   9  -1    5.62    1.66
   3  -9   1    2.53    1.02
  -4   9  -1   10.19    2.11
  -4   9  -1   11.28    2.28
   4  -9   1   11.34    1.83
  12   8  -1    2.73    1.62
  12   8  -1    3.61    1.98
 -12  -8   1    1.97    1.49
 -12  -8   1    2.77    1.33
  11   8  -1   -0.96    1.35
  11   8  -1    0.64    1.70
 -11  -8   1   -1.85    1.44
 -11  -8   1    1.82    1.10
 -11  -8   1   -0.26    1.10
  10   8  -1   -0.72    1.46
  10   8  -1    2.84    1.33
 -10  -8   1    1.05    0.96
 -10  -8   1    0.71    0.89
 -10  -8   1    0.33    1.26
   9   8  -1   10.12    1.83
   9   8  -1   12.53    1.71
  -9  -8   1   10.78    1.42
  -9  -8   1   11.16    1.78
  -9  -8   1   10.77    1.26
   8   8  -1    3.64    1.03
   8   8  -1    1.29    0.55
   8   8  -1    1.67    1.11
   8   8  -1    1.79    1.05
   8   8  -1    2.22    0.69
  -8  -8   1    2.59    0.71
  -8  -8   1    1.72    0.81
  -8  -8   1    1.42    0.91
   7   8  -1    2.34    0.85
   7   8  -1    3.19    0.95
   7   8  -1    3.05    0.72
   7   8  -1    2.82    1.02
   7   8  -1    1.96    1.05
  -7  -8   1    2.76    1.04
  -7  -8   1    2.62    0.79
   6   8  -1    2.54    0.71
   6   8  -1    2.47    1.01
   6   8  -1    2.02    0.96
   6   8  -1    2.48    0.75
  -6  -8   1    2.56    0.67
  -6  -8   1    3.11    1.05
   5   8  -1    2.25    0.85
   5   8  -1    2.41    1.23
   5   8  -1    1.98    0.94
   5   8  -1    1.95    0.69
   5   8  -1    2.04    0.68
   5   8  -1    1.57    0.77
  -5  -8   1    3.25    0.92
   4   8  -1   26.71    1.29
   4   8  -1   28.80    1.76
   4   8  -1   25.95    1.66
   4   8  -1   27.10    1.41
   4   8  -1   28.31    1.39
  -4  -8   1   26.24    1.15
  -4  -8   1   29.53    1.59
   3   8  -1    8.97    1.14
   3   8  -1    9.65    1.33
   3   8  -1   10.38    1.39
   3   8  -1   10.40    0.79
   3   8  -1   10.11    1.08
  -3  -8   1    9.37    0.92
  -3  -8   1   10.22    0.99
   2   8  -1   -0.36    0.35
   2   8  -1   -0.28    0.80
   2   8  -1    0.50    0.92
   2   8  -1    1.02    0.84
   2   8  -1    0.19    0.37
   2   8  -1   -1.03    0.83
  -2  -8   1    0.58    0.49
  -2  -8   1   -0.67    0.55
   1   8  -1    7.65    1.14
   1   8  -1    7.36    0.99
   1   8  -1    6.59    1.29
   1   8  -1    6.80    0.41
   1   8  -1    6.59    0.41
  -1  -8   1    7.07    1.07
  -1  -8   1    7.47    0.88
   0   8  -1    5.40    0.22
   0   8  -1    5.52    0.75
   0   8  -1    6.35    1.24
   0   8  -1    5.02    0.21
   0   8  -1    7.24    1.36
   0  -8   1    6.72    1.06
   0  -8   1    5.83    0.69
  -1   8  -1    2.27    1.10
  -1   8  -1    2.14    0.24
  -1   8  -1    3.84    1.14
  -1   8  -1    2.57    0.27
   1  -8   1    2.71    0.38
   1  -8   1    3.36    0.78
  -2   8  -1    3.69    0.41
  -2   8  -1    4.11    1.15
  -2   8  -1    6.66    1.50
   2  -8   1    3.92    1.03
  -3   8  -1   21.04    2.18
  -3   8  -1   20.14    0.91
  -3   8  -1   18.21    2.13
   3  -8   1   18.66    1.70
  -4   8  -1   11.74    2.06
  -4   8  -1    4.54    1.69
  -4   8  -1    7.48    0.90
   4  -8   1    7.96    1.48
  -5   8  -1    1.75    1.76
  -5   8  -1    2.61    1.42
   5  -8   1    0.88    1.22
  12   7  -1   -0.52    1.35
  12   7  -1   -0.66    1.73
 -12  -7   1    0.79    1.33
 -12  -7   1    2.78    1.70
 -12  -7   1    0.80    1.33
  11   7  -1    2.32    1.35
  11   7  -1    3.31    1.31
 -11  -7   1    3.13    1.14
 -11  -7   1    3.22    1.62
 -11  -7   1    1.85    1.29
  10   7  -1   14.77    1.74
  10   7  -1   18.95    1.71
 -10  -7   1   19.10    1.69
 -10  -7   1   19.31    2.01
 -10  -7   1   17.78    1.50
   9   7  -1   37.05    2.45
   9   7  -1   33.07    1.91
   9   7  -1   31.26    2.13
  -9  -7   1   34.09    1.68
  -9  -7   1   32.77    1.91
  -9  -7   1   34.25    2.23
   8   7  -1    8.17    1.27
   8   7  -1    9.51    1.26
   8   7  -1    8.94    1.38
   8   7  -1    6.66    0.33
   8   7  -1    7.70    0.36
  -8  -7   1    8.96    1.19
  -8  -7   1    8.50    0.96
  -8  -7   1    8.09    1.42
   7   7  -1   19.73    1.54
   7   7  -1   19.05    1.57
   7   7  -1   21.13    1.32
   7   7  -1   21.89    1.05
   7   7  -1   21.81    1.11
  -7  -7   1   19.79    1.62
  -7  -7   1   22.53    1.16
  -7  -7   1   21.59    1.32
   6   7  -1   21.66    1.32
   6   7  -1   21.62    1.20
   6   7  -1   23.94    1.72
   6   7  -1   21.33    1.57
   6   7  -1   22.93    1.19
  -6  -7   1   22.71    1.24
  -6  -7   1   21.08    1.51
   5   7  -1    4.94    0.83
   5   7  -1    3.44    0.92
   5   7  -1    4.38    0.83
   5   7  -1    5.14    0.81
   5   7  -1    4.82    0.69
  -5  -7   1    3.16    0.87
  -5  -7   1    3.44    0.71
   4   7  -1    6.51    1.00
   4   7  -1    6.71    1.03
   4   7  -1    7.37    1.12
   4   7  -1    7.02    0.86
   4   7  -1    6.30    0.79
   4   7  -1    7.50    0.85
  -4  -7   1    7.77    0.94
  -4  -7   1    7.15    0.67
   3   7  -1   15.83    1.62
   3   7  -1   15.21    1.05
   3   7  -1   15.08    0.84
   3   7  -1   13.76    1.22
   3   7  -1   12.76    1.02
   3   7  -1   13.10    1.18
  -3  -7   1   15.11    1.02
  -3  -7   1   13.13    1.04
   2   7  -1   42.84    1.77
   2   7  -1   42.59    2.06
   2   7  -1   42.40    1.72
   2   7  -1   41.28    1.71
   2   7  -1   44.91    1.28
  -2  -7   1   43.40    1.77
  -2  -7   1   44.29    1.67
   1   7  -1   55.10    1.78
   1   7  -1   50.68    1.32
   1   7  -1   48.74    1.35
   1   7  -1   47.89    2.29
  -1  -7   1   50.72    1.96
  -1  -7   1   51.69    1.70
   0   7  -1   23.71    1.03
   0   7  -1   23.47    1.57
   0   7  -1   21.71    0.72
   0   7  -1   20.82    1.67
   0  -7   1   21.29    0.96
   0  -7   1   20.84    1.32
  -1   7  -1    7.27    0.76
  -1   7  -1    6.55    0.49
  -1   7  -1    6.83    1.22
  -1   7  -1    7.64    1.30
   1  -7   1    6.37    0.91
   1  -7   1    7.03    0.48
  -2   7  -1   12.77    1.65
  -2   7  -1   12.73    0.71
  -2   7  -1   10.99    1.33
   2  -7   1   12.80    1.24
  -3   7  -1  109.07    2.66
  -3   7  -1  106.01    3.96
  -3   7  -1  105.06    4.07
   3  -7   1  105.47    3.54
   3  -7   1  108.49    3.65
  -4   7  -1    0.65    1.19
  -4   7  -1    1.39    0.66
  -4   7  -1    1.15    1.25
   4  -7   1    2.10    0.97
   4  -7   1    1.43    1.01
  -5   7  -1   14.60    1.30
  -5   7  -1   16.23    2.22
  -5   7  -1   16.93    2.33
   5  -7   1   14.98    1.78
   5  -7   1   15.61    1.75
  -6   7  -1   -1.21    1.08
  -6   7  -1   -1.55    1.34
  -6   7  -1    0.27    1.59
   6  -7   1    1.52    0.97
  12   6  -1    5.89    1.76
  12   6  -1    6.46    1.36
 -12  -6   1    4.54    1.39
 -12  -6   1   10.70    1.91
  11   6  -1   -0.30    1.40
  11   6  -1    0.78    1.08
 -11  -6   1    0.65    0.85
 -11  -6   1    2.84    1.19
 -11  -6   1   -0.28    0.96
  10   6  -1    0.07    0.92
  10   6  -1    0.40    1.27
 -10  -6   1   -0.39    1.09
 -10  -6   1    0.63    1.03
 -10  -6   1   -1.11    0.87
   9   6  -1    5.70    1.06
   9   6  -1    6.85    1.51
  -9  -6   1    8.67    1.13
  -9  -6   1    7.57    1.46
  -9  -6   1    6.27    1.19
   8   6  -1    5.15    1.19
   8   6  -1    6.71    1.08
   8   6  -1    6.65    1.17
  -8  -6   1    6.30    0.91
  -8  -6   1    6.35    1.10
  -8  -6   1    7.74    1.33
   7   6  -1    6.78    0.47
   7   6  -1    9.09    1.28
   7   6  -1    6.20    0.45
   7   6  -1    6.64    1.12
   7   6  -1    8.71    1.06
  -7  -6   1    5.80    1.14
  -7  -6   1    7.51    0.82
  -7  -6   1    7.80    0.92
   6   6  -1    6.75    1.03
   6   6  -1    7.20    0.66
   6   6  -1    7.40    0.86
   6   6  -1    6.86    0.75
  -6  -6   1    7.04    1.14
  -6  -6   1    7.67    0.93
  -6  -6   1    6.88    0.73
   5   6  -1   17.84    0.93
   5   6  -1   17.96    1.03
   5   6  -1   19.00    1.07
   5   6  -1   18.07    1.13
  -5  -6   1   17.83    0.92
  -5  -6   1   16.90    0.96
  -5  -6   1   17.31    1.23
   4   6  -1   30.20    1.60
   4   6  -1   34.07    1.23
   4   6  -1   33.55    1.29
   4   6  -1   32.57    1.42
   4   6  -1   30.61    1.49
   4   6  -1   33.81    1.46
  -4  -6   1   28.27    1.65
  -4  -6   1   32.98    1.22
   3   6  -1    8.01    0.78
   3   6  -1    7.25    0.73
   3   6  -1    8.81    0.83
   3   6  -1    8.31    0.98
   3   6  -1    7.20    0.64
   3   6  -1    6.61    0.83
   3   6  -1    8.58    1.00
   3   6  -1    7.33    0.71
  -3  -6   1    8.38    0.59
  -3  -6   1    8.23    0.80
  -3  -6   1    7.09    0.78
   2   6  -1  102.13    2.82
   2   6  -1  103.48    2.77
   2   6  -1  103.97    2.76
   2   6  -1  100.48    3.15
   2   6  -1   94.20    2.90
   2   6  -1  100.96    2.35
   2   6  -1   96.43    2.77
  -2  -6   1  102.87    2.75
  -2  -6   1  102.69    2.83
   1   6  -1  118.59    3.58
   1   6  -1  119.93    2.59
   1   6  -1  115.13    3.28
   1   6  -1  118.12    2.62
   1   6  -1  122.30    2.96
  -1  -6   1  117.95    3.19
  -1  -6   1  121.11    2.96
   0   6  -1   31.02    1.05
   0   6  -1   26.15    1.69
   0   6  -1   28.64    1.61
   0   6  -1   29.42    0.89
   0  -6   1   29.05    1.33
   0  -6   1   30.01    1.07
  -1   6  -1    0.56    0.74
  -1   6  -1    0.17    0.68
  -1   6  -1   -0.29    0.27
   1  -6   1   -0.09    0.23
   1  -6   1    0.43    0.52
   1  -6   1   -0.56    0.37
  -2   6  -1   25.99    0.99
  -2   6  -1   23.49    1.64
  -2   6  -1   25.77    1.62
   2  -6   1   26.06    1.55
   2  -6   1   26.65    1.02
   2  -6   1   25.26    1.38
  -3   6  -1   16.53    1.47
  -3   6  -1   18.55    1.68
  -3   6  -1   16.58    0.93
   3  -6   1   17.90    1.43
   3  -6   1   15.85    1.34
   3  -6   1   17.73    1.04
  -4   6  -1   33.05    2.09
  -4   6  -1   33.68    1.42
  -4   6  -1   37.22    2.17
   4  -6   1   32.92    1.56
   4  -6   1   31.52    1.90
   4  -6   1   35.09    1.96
  -5   6  -1    1.73    1.18
  -5   6  -1    1.72    0.81
  -5   6  -1    1.72    1.22
   5  -6   1    0.86    0.97
   5  -6   1   -0.51    0.90
  -6   6  -1    9.79    1.70
  -6   6  -1    8.34    1.76
  -6   6  -1    7.09    1.21
   6  -6   1    6.99    1.38
   6  -6   1    7.45    1.47
  -7   6  -1    2.14    1.73
  -7   6  -1   -1.20    1.46
  -7   6  -1    0.61    1.23
   7  -6   1   -0.22    1.23
   7  -6   1    0.34    1.31
  12   5  -1    0.71    2.60
 -12  -5   1    4.59    1.57
 -12  -5   1    2.04    1.52
  11   5  -1    0.33    1.44
 -11  -5   1   -1.17    1.09
 -11  -5   1    0.00    1.25
 -11  -5   1   -0.10    1.10
  10   5  -1   42.92    2.65
 -10  -5   1   41.05    2.13
 -10  -5   1   42.24    2.48
 -10  -5   1   41.27    2.19
   9   5  -1    7.73    1.44
   9   5  -1    8.56    1.05
  -9  -5   1    7.53    1.25
  -9  -5   1    8.49    1.44
  -9  -5   1    7.97    1.16
   8   5  -1    0.25    0.61
   8   5  -1    1.20    0.93
   8   5  -1    0.78    0.99
  -8  -5   1    0.55    0.64
  -8  -5   1    0.42    0.59
  -8  -5   1   -0.30    0.66
   7   5  -1    2.82    0.72
   7   5  -1    1.71    0.91
   7   5  -1    3.41    0.88
  -7  -5   1    3.95    0.71
  -7  -5   1    2.95    0.87
  -7  -5   1    4.62    0.86
   6   5  -1   -0.08    0.51
   6   5  -1   -0.07    0.25
   6   5  -1    0.15    0.23
   6   5  -1   -0.06    0.47
   6   5  -1    0.27    0.50
  -6  -5   1   -1.44    0.54
  -6  -5   1    0.12    0.38
  -6  -5   1   -0.61    0.46
   5   5  -1    1.33    0.66
   5   5  -1    0.74    0.50
   5   5  -1    0.33    0.36
   5   5  -1    0.18    0.41
   5   5  -1    0.76    0.58
   5   5  -1    0.69    0.37
  -5  -5   1    0.63    0.37
  -5  -5   1    0.37    0.56
  -5  -5   1    0.17    0.41
   4   5  -1   27.35    1.14
   4   5  -1   26.53    1.17
   4   5  -1   26.48    1.31
   4   5  -1   27.67    1.04
   4   5  -1   26.03    1.12
   4   5  -1   27.13    1.22
   4   5  -1   26.17    1.30
  -4  -5   1   26.57    1.07
  -4  -5   1   26.69    1.31
  -4  -5   1   26.48    1.04
   3   5  -1   22.24    0.92
   3   5  -1   20.75    1.08
   3   5  -1   20.67    1.15
   3   5  -1   22.27    1.11
   3   5  -1   21.77    0.89
   3   5  -1   20.77    1.11
   3   5  -1   21.54    1.04
  -3  -5   1   20.60    1.08
  -3  -5   1   21.10    0.85
   2   5  -1   22.48    1.07
   2   5  -1   23.07    0.83
   2   5  -1   21.99    1.06
   2   5  -1   22.81    1.02
   2   5  -1   22.97    1.01
   2   5  -1   23.94    1.18
   2   5  -1   23.55    1.23
  -2  -5   1   23.64    0.84
  -2  -5   1   21.04    1.04
  -2  -5   1   23.65    1.06
   1   5  -1    6.99    0.74
   1   5  -1    6.09    0.40
   1   5  -1    7.03    0.91
   1   5  -1    8.72    0.86
   1   5  -1    6.67    0.77
   1   5  -1    6.46    0.43
   1   5  -1    6.65    0.61
  -1  -5   1    7.10    0.67
  -1  -5   1    6.70    0.56
   0   5  -1   13.45    0.95
   0   5  -1   14.29    0.68
   0   5  -1   12.14    0.99
   0   5  -1   14.55    0.59
   0   5  -1   13.06    0.86
   0   5  -1   12.41    1.24
   0  -5   1   14.11    0.66
   0  -5   1   13.91    1.00
   0  -5   1   14.28    1.09
  -1   5  -1   -0.07    0.73
  -1   5  -1    1.60    0.34
  -1   5  -1    2.05    0.72
  -1   5  -1    1.31    0.70
  -1   5  -1    1.67    0.27
   1  -5   1    2.06    0.85
   1  -5   1    1.79    0.52
   1  -5   1    1.66    0.28
   1  -5   1    1.22    0.45
  -2   5  -1    0.17    0.49
  -2   5  -1    0.16    0.34
  -2   5  -1    1.32    0.73
   2  -5   1   -0.10    0.35
   2  -5   1   -0.57    0.51
   2  -5   1    0.67    0.38
  -3   5  -1   -0.03    0.41
  -3   5  -1    0.72    0.78
  -3   5  -1   -0.45    0.53
   3  -5   1    0.13    0.51
   3  -5   1    0.49    0.46
   3  -5   1   -0.17    0.62
  -4   5  -1    1.23    0.58
  -4   5  -1    0.06    0.81
  -4   5  -1    0.70    0.72
   4  -5   1    0.96    0.67
   4  -5   1    1.59    0.75
   4  -5   1    0.90    0.63
  -5   5  -1   18.59    1.84
  -5   5  -1   18.08    1.23
  -5   5  -1   17.11    1.71
   5  -5   1   16.81    1.51
   5  -5   1   16.96    1.43
  -6   5  -1    0.19    0.85
  -6   5  -1   -0.92    1.03
  -6   5  -1   -0.66    1.13
   6  -5   1    2.51    0.96
   6  -5   1    0.04    0.83
  -7   5  -1   18.71    2.23
  -7   5  -1   18.09    1.54
  -7   5  -1   16.47    2.31
   7  -5   1   15.34    1.59
   7  -5   1   17.67    1.79
  -8   5  -1    4.48    1.73
  -8   5  -1    2.84    1.40
  -8   5  -1    6.07    2.00
   8  -5   1    5.19    1.56
   8  -5   1    4.12    1.28
  12   4  -1    0.92    1.84
 -12  -4   1    6.77    1.59
 -12  -4   1    0.73    1.43
  11   4  -1   16.88    2.27
  11   4  -1   14.13    1.36
 -11  -4   1   17.43    1.81
 -11  -4   1   14.60    1.54
  10   4  -1    0.68    0.74
  10   4  -1   -0.76    0.79
 -10  -4   1    0.56    0.92
 -10  -4   1   -0.49    0.69
 -10  -4   1    1.40    1.13
   9   4  -1   18.38    1.23
   9   4  -1   17.71    1.77
  -9  -4   1   15.77    1.38
  -9  -4   1   16.78    1.48
  -9  -4   1   17.17    1.62
  -9  -4   1   16.92    1.43
   8   4  -1  115.01    3.81
   8   4  -1  115.68    3.07
  -8  -4   1  112.91    3.33
  -8  -4   1  113.50    3.47
  -8  -4   1  109.89    3.57
  -8  -4   1  110.64    3.08
   7   4  -1   -0.16    0.46
   7   4  -1    0.83    0.68
   7   4  -1   -0.50    0.72
  -7  -4   1    0.34    0.62
  -7  -4   1   -0.10    0.67
  -7  -4   1   -0.30    0.57
  -7  -4   1    0.59    0.51
   6   4  -1   18.69    1.32
   6   4  -1   20.73    1.08
   6   4  -1   19.92    1.20
  -6  -4   1   19.84    1.03
  -6  -4   1   19.35    1.29
  -6  -4   1   19.93    1.09
   5   4  -1   87.09    2.82
   5   4  -1   93.68    2.07
   5   4  -1   92.23    2.63
   5   4  -1   91.65    2.09
   5   4  -1   93.45    2.55
   5   4  -1   97.16    2.50
   5   4  -1   91.62    2.85
  -5  -4   1   93.19    2.57
  -5  -4   1   94.27    2.45
   4   4  -1   16.60    0.73
   4   4  -1   16.21    0.99
   4   4  -1   15.42    0.90
   4   4  -1   14.88    1.03
   4   4  -1   15.21    0.89
   4   4  -1   16.70    0.81
  -4  -4   1   16.50    0.99
  -4  -4   1   16.44    0.84
  -4  -4   1   16.02    0.77
   3   4  -1   40.99    1.51
   3   4  -1   38.68    1.44
   3   4  -1   40.88    1.32
   3   4  -1   40.28    1.33
   3   4  -1   39.54    1.26
   3   4  -1   41.15    1.23
  -3  -4   1   39.60    1.25
  -3  -4   1   39.27    1.42
  -3  -4   1   39.06    1.23
   2   4  -1  123.31    3.01
   2   4  -1  124.53    2.93
   2   4  -1  125.30    2.76
   2   4  -1  124.25    3.05
   2   4  -1  125.19    2.88
   2   4  -1  124.14    3.02
  -2  -4   1  123.45    2.75
  -2  -4   1  119.06    2.94
  -2  -4   1  122.53    3.00
   1   4  -1   17.40    0.78
   1   4  -1   17.39    0.60
   1   4  -1   18.53    0.81
   1   4  -1   17.49    1.00
   1   4  -1   17.25    0.92
   1   4  -1   15.79    0.86
  -1  -4   1   16.86    0.78
  -1  -4   1   16.14    0.77
   0   4  -1  250.36    5.63
   0   4  -1  252.79    5.81
   0   4  -1  244.99    5.04
   0   4  -1  250.72    5.57
   0   4  -1  251.79    5.47
   0  -4   1  253.97    5.58
   0  -4   1  245.86    5.42
   0  -4   1  248.05    5.11
  -1   4  -1  164.88    4.13
  -1   4  -1  160.37    4.22
  -1   4  -1  159.38    3.46
  -1   4  -1  166.27    4.02
  -1   4  -1  163.13    3.27
  -1   4  -1  161.30    3.91
   1  -4   1  157.65    3.92
   1  -4   1  161.18    4.14
   1  -4   1  165.63    3.45
   1  -4   1  159.89    3.85
   1  -4   1  161.99    3.28
  -2   4  -1    2.77    0.73
  -2   4  -1    0.70    0.62
  -2   4  -1    1.80    0.63
  -2   4  -1    1.89    0.39
   2  -4   1    0.65    0.48
   2  -4   1    2.02    0.67
   2  -4   1    1.63    0.53
   2  -4   1    0.60    0.38
  -3   4  -1   12.32    1.18
  -3   4  -1   12.27    1.20
  -3   4  -1   13.13    1.19
  -3   4  -1   12.10    0.79
   3  -4   1   11.79    0.91
   3  -4   1   11.92    1.00
   3  -4   1   13.61    0.83
  -4   4  -1    0.78    0.76
  -4   4  -1   -0.06    0.43
  -4   4  -1    0.69    0.62
   4  -4   1    0.38    0.68
   4  -4   1    0.87    0.63
   4  -4   1    0.88    0.52
  -5   4  -1   -0.35    0.62
  -5   4  -1    0.21    0.79
  -5   4  -1    0.22    0.64
   5  -4   1    0.57    0.28
   5  -4   1    0.73    0.72
   5  -4   1   -1.52    0.86
   5  -4   1   -0.19    0.22
   5  -4   1    0.50    0.71
  -6   4  -1   15.56    1.25
  -6   4  -1   16.65    1.67
  -6   4  -1   17.97    1.80
   6  -4   1   14.68    1.45
   6  -4   1   15.65    1.53
   6  -4   1   14.86    0.66
  -7   4  -1    4.04    1.18
  -7   4  -1    2.72    1.34
  -7   4  -1    0.66    0.98
   7  -4   1    1.01    1.01
   7  -4   1    1.89    0.80
   7  -4   1    2.24    0.66
   7  -4   1    1.92    0.47
  -8   4  -1    1.63    1.45
  -8   4  -1    3.34    1.32
  -8   4  -1    1.51    1.24
   8  -4   1    1.72    1.17
   8  -4   1    0.45    1.20
  -9   4  -1    1.76    1.84
  -9   4  -1   -0.49    1.38
  -9   4  -1   -0.33    1.25
   9  -4   1   -0.78    1.37
   9  -4   1    0.68    1.29
  12   3  -1    0.41    1.32
 -12  -3   1    2.01    1.53
 -12  -3   1    3.75    1.51
  11   3  -1    0.70    0.78
  11   3  -1   -0.34    1.47
 -11  -3   1    0.53    1.24
 -11  -3   1   -0.29    1.15
  10   3  -1    0.97    0.72
  10   3  -1    0.72    1.19
 -10  -3   1    1.44    1.04
 -10  -3   1    0.47    0.99
   9   3  -1    0.05    1.04
   9   3  -1    2.25    0.64
  -9  -3   1    1.17    0.92
  -9  -3   1    1.70    0.86
  -9  -3   1    1.46    0.86
  -9  -3   1    2.85    1.02
   8   3  -1    6.50    0.81
   8   3  -1    6.25    1.07
  -8  -3   1    8.23    1.18
  -8  -3   1    7.50    1.24
  -8  -3   1    5.62    0.85
   7   3  -1   14.88    1.20
   7   3  -1   13.57    1.50
   7   3  -1   13.77    0.88
  -7  -3   1   15.40    0.97
  -7  -3   1   14.80    1.05
  -7  -3   1   15.98    1.26
  -7  -3   1   13.59    1.09
   6   3  -1   70.64    1.98
   6   3  -1   70.08    2.29
   6   3  -1   70.86    2.49
  -6  -3   1   66.27    2.20
  -6  -3   1   71.47    1.99
  -6  -3   1   69.48    2.34
  -6  -3   1   65.92    2.52
  -6  -3   1   68.29    2.18
   5   3  -1    4.77    0.86
   5   3  -1    5.23    0.72
   5   3  -1    4.08    0.54
   5   3  -1    4.90    0.73
   5   3  -1    4.71    0.74
  -5  -3   1    4.60    0.56
  -5  -3   1    4.27    0.65
  -5  -3   1    4.17    0.57
  -5  -3   1    4.57    0.77
  -5  -3   1    4.03    0.81
   4   3  -1   -0.48    0.37
   4   3  -1   -0.88    0.36
   4   3  -1   -0.36    0.30
   4   3  -1   -0.18    0.39
   4   3  -1   -0.73    0.26
   4   3  -1   -0.01    0.16
  -4  -3   1   -0.34    0.40
  -4  -3   1   -0.06    0.26
  -4  -3   1   -0.06    0.23
   3   3  -1  158.19    3.77
   3   3  -1  179.70    3.84
   3   3  -1  172.66    3.87
   3   3  -1  178.32    4.05
   3   3  -1  173.31    4.05
   3   3  -1  176.16    3.74
  -3  -3   1  174.55    3.76
  -3  -3   1  170.25    3.80
  -3  -3   1  166.38    3.98
   2   3  -1  112.38    2.49
   2   3  -1  110.95    2.55
   2   3  -1  109.75    2.49
   2   3  -1  113.60    2.59
   2   3  -1  111.60    2.59
   2   3  -1  111.18    2.68
  -2  -3   1  106.79    2.46
  -2  -3   1  109.28    2.52
  -2  -3   1  104.71    2.63
   1   3  -1    6.29    0.45
   1   3  -1    6.58    0.53
   1   3  -1    6.96    0.48
   1   3  -1    6.57    0.57
  -1  -3   1    7.01    0.38
  -1  -3   1    7.27    0.47
  -1  -3   1    6.47    0.52
  -1  -3   1    6.65    0.43
   0   3  -1    7.52    0.39
   0   3  -1    8.21    0.60
   0   3  -1    6.89    0.38
   0   3  -1    7.64    0.55
   0   3  -1    7.83    0.63
   0  -3   1    6.75    0.37
   0  -3   1    6.78    0.51
   0  -3   1    7.66    0.53
  -1   3  -1  145.43    3.59
  -1   3  -1  144.92    3.10
  -1   3  -1  147.61    3.48
  -1   3  -1  139.25    2.85
  -1   3  -1  148.79    3.43
  -1   3  -1  141.14    3.63
   1  -3   1  142.87    3.37
   1  -3   1  147.85    3.09
   1  -3   1  138.77    2.85
   1  -3   1  144.47    3.44
   1  -3   1  148.77    3.59
  -2   3  -1    2.21    0.40
  -2   3  -1    2.00    0.56
  -2   3  -1    2.14    0.63
  -2   3  -1    3.64    0.57
  -2   3  -1    1.63    0.57
   2  -3   1    3.03    0.63
   2  -3   1    2.63    0.54
   2  -3   1    2.69    0.43
   2  -3   1    2.59    0.52
  -3   3  -1  146.66    3.40
  -3   3  -1  137.42    3.76
  -3   3  -1  149.84    3.74
  -3   3  -1  149.04    3.92
   3  -3   1  144.92    2.91
   3  -3   1  147.99    3.40
   3  -3   1  144.11    3.64
   3  -3   1  143.11    2.90
   3  -3   1  136.74    3.96
  -4   3  -1  102.79    2.68
  -4   3  -1   97.35    2.94
  -4   3  -1   98.40    3.22
  -4   3  -1   97.07    3.12
   4  -3   1  100.76    2.71
   4  -3   1   99.13    2.99
   4  -3   1   91.08    2.32
   4  -3   1  100.87    2.18
  -5   3  -1   17.39    1.34
  -5   3  -1   16.11    1.07
  -5   3  -1   18.40    1.53
   5  -3   1   17.36    0.80
   5  -3   1   14.78    1.35
   5  -3   1   18.35    0.77
   5  -3   1   15.33    1.28
   5  -3   1   18.15    1.19
  -6   3  -1   46.08    1.93
  -6   3  -1   48.53    2.46
  -6   3  -1   48.51    2.26
   6  -3   1   49.82    2.05
   6  -3   1   52.34    1.54
   6  -3   1   51.29    1.61
   6  -3   1   50.69    2.21
  -7   3  -1    6.41    1.10
  -7   3  -1    6.39    1.19
  -7   3  -1    7.36    1.44
   7  -3   1    7.68    0.84
   7  -3   1    6.21    1.10
   7  -3   1    6.24    1.13
   7  -3   1    7.01    0.96
  -8   3  -1    1.91    1.14
  -8   3  -1    2.80    1.37
  -8   3  -1    2.26    1.15
   8  -3   1    2.85    0.79
   8  -3   1    3.22    1.07
   8  -3   1    2.63    1.27
  -9   3  -1    0.90    1.24
  -9   3  -1   -0.40    1.12
  -9   3  -1   -0.87    1.22
   9  -3   1   -0.07    1.25
   9  -3   1    0.76    0.90
   9  -3   1   -2.06    1.08
  11   2  -1    4.60    1.68
  11   2  -1    2.33    0.81
 -11  -2   1    4.51    1.45
 -11  -2   1    4.91    1.47
  10   2  -1   10.73    1.08
  10   2  -1   11.05    1.77
 -10  -2   1    9.16    1.36
 -10  -2   1    9.99    1.57
   9   2  -1    2.46    0.64
   9   2  -1    1.64    1.06
  -9  -2   1    2.49    1.01
  -9  -2   1    2.05    0.96
  -9  -2   1    3.66    0.91
   8   2  -1    9.47    0.84
   8   2  -1    8.64    1.35
  -8  -2   1   10.06    0.46
  -8  -2   1    9.74    0.43
  -8  -2   1   10.02    1.17
  -8  -2   1    8.62    1.06
  -8  -2   1    9.31    1.16
   7   2  -1   74.93    2.06
   7   2  -1   71.36    2.68
  -7  -2   1   72.61    1.64
  -7  -2   1   71.09    2.52
  -7  -2   1   71.59    2.45
  -7  -2   1   73.73    1.65
  -7  -2   1   73.33    2.56
  -7  -2   1   75.05    2.11
   6   2  -1    3.73    0.89
   6   2  -1    4.53    0.55
   6   2  -1    4.99    0.86
   6   2  -1    4.15    1.01
  -6  -2   1    3.28    1.01
  -6  -2   1    4.52    0.29
  -6  -2   1    5.25    0.62
  -6  -2   1    5.21    0.83
  -6  -2   1    5.38    0.75
  -6  -2   1    5.44    0.88
   5   2  -1    5.46    0.82
   5   2  -1    5.15    0.75
   5   2  -1    5.20    0.85
   5   2  -1    4.53    0.47
   5   2  -1    3.91    0.28
   5   2  -1    4.56    0.75
  -5  -2   1    4.77    0.66
  -5  -2   1    3.70    0.25
  -5  -2   1    4.43    0.52
  -5  -2   1    4.78    0.70
  -5  -2   1    4.63    0.74
  -5  -2   1    4.75    0.76
   4   2  -1  177.32    3.99
   4   2  -1  167.34    4.11
   4   2  -1  166.76    3.43
   4   2  -1  180.38    4.15
   4   2  -1  172.39    3.99
   4   2  -1  171.44    3.70
  -4  -2   1  175.43    4.13
  -4  -2   1  173.64    3.71
  -4  -2   1  169.14    4.06
  -4  -2   1  173.46    3.95
  -4  -2   1  165.96    3.43
  -4  -2   1  169.87    3.96
   3   2  -1   12.90    0.58
   3   2  -1   12.93    0.64
   3   2  -1   13.44    0.76
   3   2  -1   12.81    0.77
   3   2  -1   12.84    0.45
   3   2  -1   12.81    0.65
  -3  -2   1   12.60    0.65
  -3  -2   1   12.79    0.75
  -3  -2   1   13.13    0.76
  -3  -2   1   12.88    0.45
  -3  -2   1   13.72    0.68
   2   2  -1  124.39    2.78
   2   2  -1  132.03    2.93
   2   2  -1  128.09    2.79
   2   2  -1  125.18    2.69
  -2  -2   1  123.10    2.69
  -2  -2   1  126.90    2.91
  -2  -2   1  126.33    2.78
  -2  -2   1  126.22    2.77
   1   2  -1    2.30    0.26
   1   2  -1    2.20    0.31
   1   2  -1    2.10    0.29
   1   2  -1    1.62    0.25
  -1  -2   1    2.24    0.28
  -1  -2   1    1.94    0.29
  -1  -2   1    1.92    0.24
  -1  -2   1    2.19    0.24
  -1  -2   1    1.91    0.31
   0   2  -1   76.66    1.96
   0   2  -1   80.69    1.84
   0   2  -1   77.08    1.70
   0   2  -1   79.03    1.97
   0   2  -1   80.16    1.91
   0   2  -1   77.47    1.68
   0  -2   1   76.78    1.67
   0  -2   1   78.65    1.91
   0  -2   1   76.19    1.81
  -1   2  -1  198.68    4.41
  -1   2  -1  203.11    4.25
  -1   2  -1  196.56    4.04
  -1   2  -1  203.31    4.29
   1  -2   1  173.62    4.09
   1  -2   1  203.86    4.41
   1  -2   1  199.01    4.26
   1  -2   1  195.21    4.22
  -2   2  -1   33.33    1.07
  -2   2  -1   34.44    1.38
  -2   2  -1   33.90    1.29
  -2   2  -1   36.21    1.26
  -2   2  -1   36.82    1.26
   2  -2   1   33.77    1.24
   2  -2   1   35.54    1.37
   2  -2   1   34.59    0.77
   2  -2   1   33.80    1.18
   2  -2   1   35.82    1.09
  -3   2  -1    4.23    0.62
  -3   2  -1    4.32    0.50
  -3   2  -1    3.66    0.61
  -3   2  -1    3.70    0.64
  -3   2  -1    3.89    0.71
   3  -2   1    3.77    0.57
   3  -2   1    3.75    0.31
   3  -2   1    3.20    0.31
   3  -2   1    3.65    0.79
   3  -2   1    4.22    0.66
   3  -2   1    4.60    0.58
  -4   2  -1   -0.27    0.52
  -4   2  -1    0.29    0.46
  -4   2  -1   -0.61    0.69
  -4   2  -1   -0.52    0.36
  -4   2  -1   -0.50    0.54
   4  -2   1   -0.19    0.29
   4  -2   1   -0.23    0.39
   4  -2   1    0.27    0.81
   4  -2   1   -0.48    0.48
   4  -2   1   -0.65    0.46
  -5   2  -1    3.08    0.89
  -5   2  -1    2.93    0.77
  -5   2  -1    3.43    0.82
  -5   2  -1    3.75    0.77
   5  -2   1    3.51    0.67
   5  -2   1    3.06    0.86
   5  -2   1    4.09    0.59
   5  -2   1    3.34    0.72
  -6   2  -1   57.21    2.32
  -6   2  -1   58.56    2.56
  -6   2  -1   58.02    2.23
  -6   2  -1   54.44    2.10
   6  -2   1   62.51    1.90
   6  -2   1   57.99    2.32
   6  -2   1   59.36    2.13
  -7   2  -1    0.70    0.77
  -7   2  -1    1.90    1.04
  -7   2  -1    2.06    0.84
   7  -2   1   -0.08    0.86
   7  -2   1    1.27    0.87
   7  -2   1    1.38    0.75
   7  -2   1    1.91    0.68
  -8   2  -1    2.22    1.01
  -8   2  -1    3.21    1.26
  -8   2  -1    3.37    1.03
   8  -2   1    3.66    1.21
   8  -2   1    5.52    0.97
   8  -2   1    1.23    1.06
   8  -2   1    4.25    1.04
  -9   2  -1   -1.26    0.97
  -9   2  -1    1.57    1.28
  -9   2  -1   -0.12    1.00
   9  -2   1    0.96    0.95
   9  -2   1    0.32    1.00
   9  -2   1   -0.81    1.11
 -10   2  -1    2.48    1.68
 -10   2  -1    4.00    1.34
 -10   2  -1    4.80    1.52
  10  -2   1    4.23    1.64
  10  -2   1    6.32    1.29
  10  -2   1    3.02    1.37
  11   1  -1   -1.05    1.52
 -11  -1   1   -0.38    1.39
 -11  -1   1   -1.84    1.29
  10   1  -1    7.50    0.97
  10   1  -1    8.32    1.68
 -10  -1   1    6.67    1.55
 -10  -1   1    5.90    0.72
 -10  -1   1    7.84    1.24
   9   1  -1    9.23    0.97
   9   1  -1    9.03    1.41
  -9  -1   1   11.07    1.56
  -9  -1   1    8.15    0.84
  -9  -1   1    8.00    1.02
  -9  -1   1    9.88    1.43
  -9  -1   1   10.02    1.19
   8   1  -1   50.43    2.44
   8   1  -1   52.49    1.72
  -8  -1   1   54.92    2.26
  -8  -1   1   50.01    1.86
  -8  -1   1   53.95    1.63
  -8  -1   1   51.70    1.70
  -8  -1   1   52.27    2.41
   7   1  -1    4.88    0.62
   7   1  -1    3.98    0.98
  -7  -1   1    4.92    0.56
  -7  -1   1    4.44    0.88
  -7  -1   1    4.57    0.84
  -7  -1   1    4.64    0.72
   6   1  -1    9.87    1.90
   6   1  -1   11.56    1.06
   6   1  -1    8.15    1.06
   6   1  -1   10.25    0.67
  -6  -1   1   11.22    0.94
  -6  -1   1   10.25    1.01
  -6  -1   1   10.70    0.62
  -6  -1   1   10.83    0.76
   5   1  -1   22.00    1.22
   5   1  -1   24.35    1.23
   5   1  -1   22.31    0.85
   5   1  -1   23.12    0.86
   5   1  -1   23.34    1.32
   5   1  -1   22.17    1.13
  -5  -1   1   23.97    1.25
  -5  -1   1   22.93    0.90
  -5  -1   1   23.97    0.82
  -5  -1   1   23.98    1.14
  -5  -1   1   22.19    1.06
  -5  -1   1   23.51    1.21
   4   1  -1    9.28    0.72
   4   1  -1    7.72    0.45
   4   1  -1    8.67    0.47
   4   1  -1    8.62    0.72
   4   1  -1    8.78    0.74
   4   1  -1    8.12    0.77
  -4  -1   1    7.88    0.69
  -4  -1   1    8.45    0.43
  -4  -1   1    9.14    0.69
  -4  -1   1    8.73    0.78
  -4  -1   1    7.70    0.52
  -4  -1   1    7.68    0.58
   3   1  -1  273.89    5.73
   3   1  -1  278.69    5.69
   3   1  -1  262.54    5.35
   3   1  -1  256.48    5.35
   3   1  -1  272.40    5.76
   3   1  -1  277.69    5.75
  -3  -1   1  270.24    5.66
  -3  -1   1  282.50    5.79
  -3  -1   1  267.70    5.71
  -3  -1   1  267.10    5.71
  -3  -1   1  261.98    5.36
  -3  -1   1  262.72    5.34
   2   1  -1    3.77    0.24
   2   1  -1    3.80    0.32
   2   1  -1    4.20    0.25
   2   1  -1    3.68    0.40
   2   1  -1    3.36    0.38
   2   1  -1    3.69    0.36
  -2  -1   1    3.81    0.24
  -2  -1   1    4.26    0.39
  -2  -1   1    3.48    0.39
  -2  -1   1    3.82    0.36
  -2  -1   1    4.04    0.25
  -2  -1   1    3.72    0.37
   1   1  -1    0.20    0.15
   1   1  -1    0.20    0.18
   1   1  -1    0.21    0.11
   1   1  -1    0.37    0.14
   1   1  -1    0.24    0.12
  -1  -1   1    0.11    0.12
  -1  -1   1    0.14    0.14
  -1  -1   1    0.29    0.16
  -1  -1   1    0.32    0.18
   0   1  -1   51.00    1.25
   0   1  -1   50.47    1.13
   0   1  -1   50.16    1.09
   0   1  -1   49.99    1.19
   0  -1   1   49.54    1.12
   0  -1   1   48.96    1.24
   0  -1   1   50.37    1.19
  -1   1  -1   96.76    2.31
  -1   1  -1   99.68    2.32
  -1   1  -1   92.18    2.30
  -1   1  -1   96.55    2.12
   1  -1   1   98.85    2.19
   1  -1   1   99.89    2.12
   1  -1   1   97.89    2.22
   1  -1   1   98.02    2.32
  -2   1  -1   44.63    1.26
  -2   1  -1   46.50    1.39
  -2   1  -1   44.05    1.45
  -2   1  -1   45.65    1.05
  -2   1  -1   45.83    1.32
  -2   1  -1   47.31    1.35
   2  -1   1   45.88    1.45
   2  -1   1   43.41    1.32
   2  -1   1   45.38    1.06
   2  -1   1   47.17    1.27
   2  -1   1   44.23    1.36
  -3   1  -1    0.64    0.36
  -3   1  -1   -0.16    0.32
  -3   1  -1    0.18    0.20
  -3   1  -1    0.28    0.33
  -3   1  -1   -0.28    0.40
  -3   1  -1    0.45    0.33
   3  -1   1    0.52    0.31
   3  -1   1   -0.08    0.32
   3  -1   1    0.42    0.38
   3  -1   1    0.81    0.40
  -4   1  -1   21.75    1.07
  -4   1  -1   20.83    1.23
  -4   1  -1   20.20    1.01
  -4   1  -1   19.63    0.81
  -4   1  -1   20.65    1.00
  -4   1  -1   21.29    1.20
  -4   1  -1   19.86    0.99
   4  -1   1   21.10    0.86
   4  -1   1   21.01    1.04
   4  -1   1   20.00    1.17
   4  -1   1   22.18    1.16
   4  -1   1   21.48    1.00
  -5   1  -1   -0.07    0.42
  -5   1  -1   -0.34    0.41
  -5   1  -1   -0.16    0.51
  -5   1  -1    0.49    0.58
  -5   1  -1    0.26    0.58
   5  -1   1   -0.23    0.38
   5  -1   1   -0.75    0.45
   5  -1   1   -0.03    0.44
   5  -1   1    0.05    0.39
   5  -1   1    0.16    0.64
  -6   1  -1   89.27    2.77
  -6   1  -1   90.95    2.73
  -6   1  -1   87.54    3.07
  -6   1  -1   92.50    2.73
  -6   1  -1   90.91    2.84
   6  -1   1   92.35    3.03
   6  -1   1   92.37    2.70
   6  -1   1   91.43    2.56
  -7   1  -1   58.22    2.13
  -7   1  -1   56.56    2.23
  -7   1  -1   57.73    2.48
  -7   1  -1   53.01    2.16
  -7   1  -1   53.70    2.26
   7  -1   1   56.32    2.07
   7  -1   1   56.51    2.46
   7  -1   1   56.49    2.08
  -8   1  -1    4.02    0.87
  -8   1  -1    4.25    1.27
  -8   1  -1    3.05    1.19
  -8   1  -1    5.73    1.14
   8  -1   1    2.92    1.26
   8  -1   1    5.24    1.26
   8  -1   1    4.34    0.96
  -9   1  -1    0.94    0.86
  -9   1  -1    0.53    0.96
  -9   1  -1    2.82    1.20
   9  -1   1    0.29    0.80
   9  -1   1    1.01    0.92
 -10   1  -1   -0.53    1.26
 -10   1  -1   -1.02    1.13
 -10   1  -1    0.86    1.05
  10  -1   1    2.85    1.17
  10  -1   1    1.10    1.40
  10  -1   1   -1.56    1.13
 -11   1  -1    9.35    2.08
 -11   1  -1    7.22    1.90
 -11   1  -1    8.87    1.73
  11  -1   1   10.98    3.32
  11  -1   1    6.86    1.58
  11  -1   1    8.30    1.62
  11   0  -1    2.01    1.51
  11   0  -1    2.61    1.67
 -11   0   1   -1.51    1.56
 -11   0   1    0.73    1.28
  10   0  -1    2.35    1.38
 -10   0   1    0.76    1.34
 -10   0   1    3.87    1.30
 -10   0   1    1.42    0.98
   9   0  -1    0.76    0.67
   9   0  -1    0.20    1.11
  -9   0   1    0.22    0.72
  -9   0   1    0.80    1.02
  -9   0   1    1.49    0.99
   8   0  -1   11.10    1.26
   8   0  -1   10.80    0.93
  -8   0   1   10.25    1.27
  -8   0   1   11.64    1.03
  -8   0   1   11.80    1.59
  -8   0   1   11.21    1.27
   7   0  -1    0.05    0.74
   7   0  -1    0.73    0.46
  -7   0   1    1.04    0.67
  -7   0   1    0.79    0.58
  -7   0   1    0.32    0.52
  -7   0   1    0.56    0.76
   6   0  -1   19.20    1.39
   6   0  -1   19.38    0.92
   6   0  -1   20.45    1.36
  -6   0   1   21.33    1.02
  -6   0   1   19.45    1.11
  -6   0   1   19.45    1.36
  -6   0   1   20.25    1.00
   5   0  -1    0.54    0.53
   5   0  -1    0.67    0.61
   5   0  -1    0.42    0.29
   5   0  -1   -0.50    0.51
   5   0  -1    0.93    0.61
  -5   0   1    0.27    0.32
  -5   0   1   -0.52    0.50
  -5   0   1    0.05    0.36
  -5   0   1   -0.08    0.33
   4   0  -1   -0.59    0.36
   4   0  -1    0.23    0.32
   4   0  -1   -0.24    0.38
   4   0  -1   -0.37    0.36
   4   0  -1   -0.60    0.43
   4   0  -1    0.13    0.23
  -4   0   1    0.13    0.35
  -4   0   1    0.41    0.28
  -4   0   1   -0.18    0.27
  -4   0   1   -0.25    0.48
  -4   0   1   -0.02    0.38
   3   0  -1  961.95   18.65
   3   0  -1  978.49   18.77
   3   0  -1  973.20   18.78
   3   0  -1  944.10   18.85
   3   0  -1 1000.00   18.99
  -3   0   1  920.85   18.73
  -3   0   1  941.96   18.61
  -3   0   1  953.21   18.48
  -3   0   1  944.83   18.93
  -3   0   1  985.01   18.90
   2   0  -1   91.01    2.12
   2   0  -1   93.56    2.25
   2   0  -1   88.63    1.87
   2   0  -1   91.52    2.10
   2   0  -1   92.04    2.14
  -2   0   1   89.73    2.09
  -2   0   1   90.76    1.89
  -2   0   1   89.13    2.04
  -2   0   1   88.73    2.21
  -2   0   1   90.24    2.16
   1   0  -1   48.18    1.14
   1   0  -1   50.05    1.16
   1   0  -1   48.54    1.23
   1   0  -1   50.10    1.16
  -1   0   1   49.35    1.15
  -1   0   1   49.54    1.15
  -1   0   1   48.25    1.23
  -1   0   1   48.78    1.15
  -1   0  -1  107.29    2.28
  -1   0  -1  108.02    2.26
  -1   0  -1  105.22    2.23
  -1   0  -1  106.18    2.28
   1   0   1  106.46    2.18
   1   0   1  104.32    2.25
   1   0   1  105.16    2.28
   1   0   1  108.42    2.24
  -2   0  -1   15.77    0.57
  -2   0  -1   14.69    0.68
  -2   0  -1   15.69    0.66
  -2   0  -1   14.74    0.70
  -2   0  -1   14.39    0.54
  -2   0  -1   14.97    0.60
   2   0   1   15.05    0.63
   2   0   1   14.98    0.55
   2   0   1   13.88    0.66
   2   0   1   14.42    0.68
   2   0   1   14.75    0.63
  -3   0  -1    4.44    0.47
  -3   0  -1    4.93    0.47
  -3   0  -1    4.39    0.40
  -3   0  -1    4.51    0.60
  -3   0  -1    4.46    0.44
  -3   0  -1    4.38    0.48
   3   0   1    4.34    0.47
   3   0   1    4.54    0.56
   3   0   1    4.64    0.50
   3   0   1    4.92    0.48
   3   0   1    4.98    0.42
  -4   0  -1   -0.36    0.26
  -4   0  -1   -0.11    0.27
  -4   0  -1   -0.26    0.37
  -4   0  -1    0.46    0.30
  -4   0  -1    0.00    0.35
  -4   0  -1   -0.30    0.34
  -4   0  -1    0.00    0.28
   4   0   1   -0.49    0.27
   4   0   1   -0.12    0.35
   4   0   1    0.56    0.46
   4   0   1    0.03    0.42
   4   0   1   -0.06    0.48
  -5   0  -1    2.91    0.69
  -5   0  -1    3.65    0.65
  -5   0  -1    3.45    0.54
  -5   0  -1    2.68    0.62
  -5   0  -1    2.99    0.81
  -5   0  -1    2.27    0.45
  -5   0  -1    2.72    0.51
   5   0   1    2.67    0.61
   5   0   1    2.70    0.53
   5   0   1    3.04    0.83
   5   0   1    3.19    0.73
  -6   0  -1   41.58    1.80
  -6   0  -1   40.34    1.46
  -6   0  -1   44.92    1.52
  -6   0  -1   39.66    1.69
  -6   0  -1   41.08    1.65
  -6   0  -1   40.45    1.52
   6   0   1   42.74    1.67
   6   0   1   40.30    1.56
   6   0   1   39.38    1.85
  -7   0  -1   60.07    2.24
  -7   0  -1   63.10    2.01
  -7   0  -1   61.05    2.02
  -7   0  -1   65.02    2.56
  -7   0  -1   63.24    2.31
  -7   0  -1   60.24    2.08
   7   0   1   61.09    2.51
   7   0   1   60.95    2.19
   7   0   1   59.96    2.08
  -8   0  -1    2.25    0.68
  -8   0  -1    1.78    0.97
  -8   0  -1    4.81    1.04
  -8   0  -1    1.96    0.86
   8   0   1    2.04    0.79
   8   0   1    3.22    0.78
  -9   0  -1    5.04    1.14
  -9   0  -1    3.30    1.17
  -9   0  -1    2.21    0.82
  -9   0  -1    2.74    1.06
   9   0   1    2.27    0.91
   9   0   1    5.16    1.33
 -10   0  -1    2.33    1.16
 -10   0  -1    2.09    1.24
 -10   0  -1   -0.85    0.82
  10   0   1   -0.03    1.02
  10   0   1    0.96    1.29
 -11   0  -1    3.98    1.72
 -11   0  -1    3.19    1.45
  11   0   1    3.40    1.67
  11   0   1    3.70    1.35
  10  -1  -1    2.80    1.35
  10  -1  -1    1.62    0.99
  10  -1  -1    1.10    1.50
 -10   1   1    0.08    1.45
 -10   1   1    1.43    1.16
 -10   1   1    1.11    1.06
   9  -1  -1    8.40    1.39
   9  -1  -1   11.41    1.52
   9  -1  -1    8.96    1.14
  -9   1   1   10.81    1.49
  -9   1   1    8.12    1.16
  -9   1   1   10.07    1.76
   8  -1  -1    3.85    1.16
   8  -1  -1    1.68    0.67
   8  -1  -1    1.72    0.97
  -8   1   1    2.35    0.81
  -8   1   1    0.11    0.81
  -8   1   1    2.08    1.10
  -8   1   1    1.67    1.06
   7  -1  -1   67.22    2.07
   7  -1  -1   64.67    2.67
  -7   1   1   66.08    2.81
  -7   1   1   66.13    2.42
  -7   1   1   66.00    2.32
  -7   1   1   65.49    2.27
   6  -1  -1    3.33    0.85
   6  -1  -1    4.73    0.92
   6  -1  -1    3.37    0.56
  -6   1   1    4.04    0.71
  -6   1   1    3.92    0.76
  -6   1   1    3.60    0.74
  -6   1   1    3.45    0.84
   5  -1  -1    0.12    0.65
   5  -1  -1   -0.04    0.33
   5  -1  -1    0.47    0.55
   5  -1  -1   -0.13    0.39
  -5   1   1    0.54    0.44
  -5   1   1    0.17    0.47
  -5   1   1    0.28    0.95
  -5   1   1   -0.57    0.45
  -5   1   1    0.41    0.61
   4  -1  -1   53.71    1.87
   4  -1  -1   56.08    1.69
   4  -1  -1   56.62    1.56
   4  -1  -1   56.82    1.79
   4  -1  -1   54.78    1.80
   4  -1  -1   54.52    2.08
  -4   1   1   55.83    1.62
  -4   1   1   54.11    1.71
  -4   1   1   55.54    2.00
  -4   1   1   56.26    1.97
  -4   1   1   55.50    1.76
   3  -1  -1   64.30    1.92
   3  -1  -1   64.63    1.76
   3  -1  -1   68.00    1.83
   3  -1  -1   63.53    2.06
   3  -1  -1   67.97    1.91
   3  -1  -1   63.84    1.64
  -3   1   1   64.65    1.87
  -3   1   1   67.44    1.79
  -3   1   1   64.31    2.05
  -3   1   1   67.63    1.98
  -3   1   1   67.48    1.70
   2  -1  -1  745.39   14.66
   2  -1  -1  764.35   14.65
   2  -1  -1  782.30   14.84
   2  -1  -1  782.50   14.97
   2  -1  -1  745.67   14.77
  -2   1   1  763.67   14.81
  -2   1   1  748.65   14.63
  -2   1   1  755.31   14.94
  -2   1   1  683.29   14.66
  -2   1   1  749.58   14.80
   1  -1  -1    2.06    0.37
   1  -1  -1    1.97    0.23
   1  -1  -1    2.35    0.24
   1  -1  -1    2.66    0.33
   1  -1  -1    3.17    0.38
   1  -1  -1    2.88    0.32
  -1   1   1    2.40    0.29
  -1   1   1    2.53    0.32
  -1   1   1    2.31    0.36
  -1   1   1    2.33    0.22
  -1   1   1    2.76    0.25
   0  -1  -1  102.08    2.11
   0  -1  -1  106.98    2.24
   0  -1  -1  108.96    2.33
   0  -1  -1  107.83    2.25
   0   1   1  106.55    2.19
   0   1   1  107.89    2.27
   0   1   1  104.93    2.32
   0   1   1  107.27    2.24
  -1  -1  -1   81.20    1.65
  -1  -1  -1   76.64    1.83
  -1  -1  -1   86.30    1.89
  -1  -1  -1   83.09    1.77
  -1  -1  -1   87.27    1.79
   1   1   1   85.32    1.78
   1   1   1   87.56    1.86
   1   1   1   81.37    1.87
  -2  -1  -1   35.87    0.95
  -2  -1  -1   37.39    0.86
  -2  -1  -1   36.62    1.05
  -2  -1  -1   37.28    1.07
  -2  -1  -1   37.42    1.10
   2   1   1   37.48    1.06
   2   1   1   37.71    1.05
   2   1   1   36.86    0.86
   2   1   1   35.31    1.15
   2   1   1   36.72    1.12
   2   1   1   38.04    0.97
  -3  -1  -1   54.73    1.49
  -3  -1  -1   55.72    1.66
  -3  -1  -1   51.55    1.53
  -3  -1  -1   54.79    1.25
  -3  -1  -1   56.19    1.53
  -3  -1  -1   54.00    1.54
   3   1   1   55.51    1.52
   3   1   1   56.48    1.54
   3   1   1   57.10    1.55
   3   1   1   55.14    1.52
   3   1   1   54.32    1.64
  -4  -1  -1    3.04    0.54
  -4  -1  -1    1.97    0.45
  -4  -1  -1    2.23    0.28
  -4  -1  -1    2.42    0.48
  -4  -1  -1    2.62    0.45
  -4  -1  -1    2.98    0.49
  -4  -1  -1    2.30    0.28
   4   1   1    2.70    0.51
   4   1   1    2.87    0.56
   4   1   1    2.68    0.54
   4   1   1    2.13    0.48
   4   1   1    1.87    0.44
  -5  -1  -1   44.17    1.20
  -5  -1  -1   42.80    1.76
  -5  -1  -1   41.16    1.57
  -5  -1  -1   43.01    1.52
  -5  -1  -1   42.48    1.50
  -5  -1  -1   41.42    1.56
   5   1   1   41.73    1.46
   5   1   1   41.17    1.64
   5   1   1   42.37    1.56
   5   1   1   43.59    1.56
   5   1   1   42.64    1.65
  -6  -1  -1   12.54    0.98
  -6  -1  -1   11.76    0.64
  -6  -1  -1   10.05    0.84
  -6  -1  -1   11.04    0.98
  -6  -1  -1   11.03    0.87
  -6  -1  -1   11.03    0.65
   6   1   1   11.40    1.17
   6   1   1   11.05    0.87
   6   1   1   12.39    1.00
   6   1   1   12.70    1.01
  -7  -1  -1    0.74    0.76
  -7  -1  -1    0.44    0.61
  -7  -1  -1    0.16    0.59
  -7  -1  -1    0.11    0.64
  -7  -1  -1    1.28    0.43
  -7  -1  -1    1.20    0.45
   7   1   1   -0.20    0.68
   7   1   1    1.42    0.93
   7   1   1    0.49    0.54
  -8  -1  -1   39.21    1.78
  -8  -1  -1   38.46    1.96
  -8  -1  -1   38.42    1.91
  -8  -1  -1   37.71    2.00
  -8  -1  -1   38.59    1.40
  -8  -1  -1   38.20    1.33
   8   1   1   37.75    2.09
  -9  -1  -1   11.57    1.48
  -9  -1  -1   11.77    1.00
  -9  -1  -1   13.40    1.43
  -9  -1  -1   11.80    0.84
   9   1   1   11.75    1.27
   9   1   1   12.33    1.57
 -10  -1  -1    3.59    1.27
 -10  -1  -1    2.20    0.61
 -10  -1  -1    1.51    1.19
  10   1   1    1.97    0.98
  10   1   1    2.90    1.29
 -11  -1  -1   24.96    2.42
 -11  -1  -1   29.42    2.29
  11   1   1   27.93    2.59
  11   1   1   29.09    1.99
  10  -2  -1   -0.63    1.48
  10  -2  -1   -1.37    1.09
  10  -2  -1    2.01    1.43
 -10   2   1    0.16    1.34
 -10   2   1    2.11    1.80
 -10   2   1   -0.52    1.27
   9  -2  -1    5.56    1.12
   9  -2  -1    4.10    1.46
   9  -2  -1    6.75    1.31
  -9   2   1    7.77    1.38
  -9   2   1    6.98    1.44
  -9   2   1    3.91    1.53
   8  -2  -1    8.13    1.07
   8  -2  -1    7.09    1.35
   8  -2  -1    7.71    1.24
  -8   2   1    7.83    1.26
  -8   2   1    5.22    1.17
  -8   2   1    6.99    1.34
   7  -2  -1    2.75    1.27
   7  -2  -1    2.04    0.99
   7  -2  -1    2.90    0.78
  -7   2   1    2.37    0.81
  -7   2   1   -0.26    1.05
  -7   2   1    2.73    1.09
  -7   2   1    1.60    0.84
   6  -2  -1    5.20    0.92
   6  -2  -1    4.81    0.76
   6  -2  -1    3.72    0.81
   6  -2  -1    5.33    0.98
  -6   2   1    4.06    0.82
  -6   2   1    4.47    0.87
  -6   2   1    4.98    1.00
  -6   2   1    3.92    1.05
   5  -2  -1    3.12    0.65
   5  -2  -1    2.34    0.60
   5  -2  -1    2.88    0.73
   5  -2  -1    3.47    0.57
   5  -2  -1    2.02    0.78
  -5   2   1    2.41    0.72
  -5   2   1    4.08    0.77
  -5   2   1    3.23    0.77
   4  -2  -1   -0.08    0.38
   4  -2  -1    0.20    0.40
   4  -2  -1    0.84    0.90
   4  -2  -1   -0.50    0.29
   4  -2  -1    0.30    0.53
   4  -2  -1    0.34    0.52
  -4   2   1    0.26    0.36
  -4   2   1   -0.64    0.68
  -4   2   1   -0.60    0.39
  -4   2   1   -0.14    0.54
  -4   2   1   -0.79    0.43
   3  -2  -1   25.62    1.00
   3  -2  -1   25.03    1.24
   3  -2  -1   25.49    0.97
   3  -2  -1   24.36    1.34
   3  -2  -1   24.81    0.99
   3  -2  -1   26.01    1.16
   3  -2  -1   25.65    0.95
  -3   2   1   25.00    1.28
  -3   2   1   25.85    1.02
  -3   2   1   24.95    1.18
  -3   2   1   25.59    1.24
  -3   2   1   23.83    0.96
   2  -2  -1   15.56    0.66
   2  -2  -1   16.38    0.92
   2  -2  -1   15.79    0.67
   2  -2  -1   15.58    0.88
   2  -2  -1   15.50    0.81
   2  -2  -1   15.06    0.69
  -2   2   1   14.71    0.62
  -2   2   1   15.28    0.82
  -2   2   1   16.41    0.73
  -2   2   1   14.68    0.90
  -2   2   1   14.08    0.83
   1  -2  -1   39.67    1.07
   1  -2  -1   40.27    0.98
   1  -2  -1   39.21    1.30
   1  -2  -1   40.31    1.35
   1  -2  -1   39.82    1.19
  -1   2   1   39.73    0.96
  -1   2   1   38.96    1.28
  -1   2   1   40.44    1.16
  -1   2   1   40.29    1.19
  -1   2   1   32.80    1.11
  -1   2   1   39.15    1.32
   0  -2  -1  349.72    7.22
   0  -2  -1  354.71    7.20
   0  -2  -1  377.33    7.46
   0   2   1  363.78    7.20
   0   2   1  371.98    7.45
   0   2   1  364.55    7.29
   0   2   1  366.65    7.25
  -1  -2  -1    0.09    0.13
  -1  -2  -1    0.04    0.26
  -1  -2  -1   -0.16    0.24
  -1  -2  -1    0.16    0.12
  -1  -2  -1    0.12    0.11
   1   2   1    0.30    0.12
   1   2   1   -0.15    0.18
   1   2   1    0.08    0.26
   1   2   1    0.06    0.16
   1   2   1    0.11    0.13
  -2  -2  -1  236.51    4.86
  -2  -2  -1  230.12    4.63
  -2  -2  -1  226.56    4.69
  -2  -2  -1  232.11    4.86
   2   2   1  232.47    4.85
   2   2   1  220.71    4.42
   2   2   1  226.45    4.63
   2   2   1  232.81    4.87
  -3  -2  -1   49.72    1.44
  -3  -2  -1   48.14    1.53
  -3  -2  -1   47.02    1.37
  -3  -2  -1   47.67    1.20
  -3  -2  -1   48.06    1.08
  -3  -2  -1   46.67    1.45
   3   2   1   49.00    1.52
   3   2   1   48.24    1.40
   3   2   1   47.41    1.08
   3   2   1   51.16    1.50
   3   2   1   48.10    1.22
   3   2   1   47.42    1.45
  -4  -2  -1   20.07    0.47
  -4  -2  -1   19.57    0.99
  -4  -2  -1   20.00    0.91
  -4  -2  -1   19.64    0.88
  -4  -2  -1   18.44    0.81
  -4  -2  -1   19.25    0.92
   4   2   1   18.14    0.96
   4   2   1   18.32    0.91
   4   2   1   19.45    0.95
   4   2   1   20.31    0.86
   4   2   1   19.67    0.91
  -5  -2  -1   11.91    0.85
  -5  -2  -1   11.85    0.75
  -5  -2  -1   13.48    1.07
  -5  -2  -1   12.36    0.80
  -5  -2  -1   12.97    0.88
   5   2   1   12.28    0.83
   5   2   1   11.81    0.97
   5   2   1   12.20    0.93
   5   2   1   12.47    0.82
   5   2   1   11.87    0.82
  -6  -2  -1  161.78    3.92
  -6  -2  -1  157.85    3.12
  -6  -2  -1  155.42    4.65
  -6  -2  -1  157.08    3.12
  -6  -2  -1  156.49    4.02
  -6  -2  -1  155.32    3.93
  -6  -2  -1  158.64    4.02
   6   2   1  163.71    3.91
   6   2   1  155.85    4.06
   6   2   1  158.92    4.05
   6   2   1  156.63    4.23
  -7  -2  -1  131.26    3.72
  -7  -2  -1  136.58    2.75
  -7  -2  -1  137.70    2.75
  -7  -2  -1  134.56    3.74
  -7  -2  -1  137.53    3.76
  -7  -2  -1  135.41    3.61
   7   2   1  130.92    3.99
   7   2   1  141.96    3.61
  -8  -2  -1    3.15    0.24
  -8  -2  -1    4.67    0.94
  -8  -2  -1    3.04    0.28
  -8  -2  -1    3.99    1.02
  -8  -2  -1    3.77    0.92
  -8  -2  -1    3.78    0.90
   8   2   1    2.68    0.76
   8   2   1    2.83    1.00
  -9  -2  -1    4.26    1.15
  -9  -2  -1    2.06    1.02
  -9  -2  -1    4.75    1.08
   9   2   1    3.82    1.23
   9   2   1    5.99    1.01
 -10  -2  -1    3.14    1.12
 -10  -2  -1    3.12    1.16
 -10  -2  -1    1.56    1.08
  10   2   1    2.14    1.24
  10   2   1    2.32    1.00
 -11  -2  -1    0.77    1.20
 -11  -2  -1    1.00    1.23
  11   2   1   -1.04    1.05
  11   2   1    0.55    1.35
 -12  -2  -1   -0.02    1.46
 -12  -2  -1    1.66    1.46
  12   2   1    0.48    1.33
  12   2   1   -0.15    1.86
   9  -3  -1    0.58    1.10
   9  -3  -1    0.30    1.33
   9  -3  -1   -0.33    1.08
  -9   3   1    2.85    1.39
  -9   3   1    0.60    1.23
  -9   3   1    3.00    1.79
   8  -3  -1   10.67    1.64
   8  -3  -1    8.46    1.20
   8  -3  -1    9.40    1.31
  -8   3   1    9.19    1.43
  -8   3   1   12.52    1.95
  -8   3   1   10.21    1.51
   7  -3  -1   25.99    1.53
   7  -3  -1   24.51    1.81
   7  -3  -1   24.39    1.69
  -7   3   1   22.95    1.73
  -7   3   1   26.02    2.09
  -7   3   1   25.14    1.57
   6  -3  -1    2.26    0.87
   6  -3  -1    0.54    0.81
   6  -3  -1    1.05    0.64
   6  -3  -1    0.79    0.63
  -6   3   1    2.15    1.00
  -6   3   1   -0.25    1.24
  -6   3   1    0.63    0.85
  -6   3   1    1.48    0.76
   5  -3  -1    9.25    1.20
   5  -3  -1   10.85    1.13
   5  -3  -1   10.34    0.92
   5  -3  -1   10.69    0.85
   5  -3  -1    9.76    0.91
  -5   3   1   10.84    1.14
  -5   3   1   11.89    1.30
  -5   3   1   10.90    1.18
  -5   3   1    8.09    0.96
   4  -3  -1   -0.18    0.55
   4  -3  -1   -0.25    0.41
   4  -3  -1   -0.23    0.43
   4  -3  -1   -0.07    0.38
   4  -3  -1    0.21    0.52
  -4   3   1   -0.24    0.49
  -4   3   1   -0.33    0.35
  -4   3   1    0.17    0.64
   3  -3  -1   67.29    2.39
   3  -3  -1   71.21    1.90
   3  -3  -1   68.94    2.01
   3  -3  -1   67.00    1.79
   3  -3  -1   61.73    2.39
  -3   3   1   68.55    2.06
  -3   3   1   69.53    2.28
  -3   3   1   64.89    2.18
  -3   3   1   60.73    2.55
  -3   3   1   69.89    1.84
   2  -3  -1  166.57    3.98
   2  -3  -1  165.21    4.21
   2  -3  -1  166.88    3.89
   2  -3  -1  168.85    3.66
   2  -3  -1  168.28    3.63
   2  -3  -1  169.80    4.22
  -2   3   1  169.76    4.21
  -2   3   1  173.84    3.95
  -2   3   1  164.53    4.20
  -2   3   1  170.36    3.60
  -2   3   1  173.92    4.08
   1  -3  -1   65.59    1.65
   1  -3  -1   66.45    2.09
   1  -3  -1   66.13    1.85
   1  -3  -1   66.54    2.00
   1  -3  -1   67.03    1.49
  -1   3   1   65.21    1.46
  -1   3   1   67.71    1.86
  -1   3   1   63.98    1.96
  -1   3   1   65.47    1.64
  -1   3   1   67.97    1.90
  -1   3   1   65.36    2.06
   0  -3  -1  100.12    2.32
   0  -3  -1  102.71    2.48
   0  -3  -1   99.48    2.64
   0  -3  -1  100.33    2.40
   0   3   1   97.95    2.29
   0   3   1  101.90    2.42
   0   3   1  104.94    2.49
   0   3   1   97.67    2.63
   0   3   1   98.82    2.45
  -1  -3  -1   15.09    0.40
  -1  -3  -1   15.62    0.67
  -1  -3  -1   15.68    0.62
  -1  -3  -1   15.27    0.80
  -1  -3  -1   15.65    0.70
   1   3   1   15.89    0.78
   1   3   1   15.90    0.75
   1   3   1   15.67    0.64
   1   3   1   15.32    0.69
   1   3   1   15.85    0.42
   1   3   1   16.14    0.61
  -2  -3  -1  293.66    5.90
  -2  -3  -1  274.31    5.65
  -2  -3  -1  284.48    5.97
  -2  -3  -1  289.95    6.03
   2   3   1  269.79    5.48
   2   3   1  267.46    5.46
   2   3   1  276.93    6.04
   2   3   1  300.22    5.98
   2   3   1  292.55    5.84
   2   3   1  277.45    5.85
  -3  -3  -1    4.96    0.51
  -3  -3  -1    4.77    0.23
  -3  -3  -1    4.67    0.43
  -3  -3  -1    5.33    0.41
  -3  -3  -1    5.08    0.50
   3   3   1    4.66    0.46
   3   3   1    3.75    0.47
   3   3   1    4.95    0.25
   3   3   1    5.32    0.53
   3   3   1    4.62    0.37
   3   3   1    4.79    0.57
  -4  -3  -1   17.46    0.65
  -4  -3  -1   18.32    0.93
  -4  -3  -1   16.10    0.96
  -4  -3  -1   17.09    0.86
  -4  -3  -1   18.18    0.56
   4   3   1   19.19    1.07
   4   3   1   17.86    0.54
   4   3   1   18.44    0.94
   4   3   1   19.32    1.04
   4   3   1   17.62    0.90
  -5  -3  -1  108.49    3.02
  -5  -3  -1  107.92    2.61
  -5  -3  -1  108.45    2.86
  -5  -3  -1  107.53    2.86
  -5  -3  -1  108.39    3.07
   5   3   1  107.78    3.01
   5   3   1  105.79    2.86
   5   3   1  111.34    2.68
   5   3   1  107.85    2.90
   5   3   1  107.22    3.11
  -6  -3  -1    4.75    0.77
  -6  -3  -1    5.05    0.64
  -6  -3  -1    2.87    0.82
  -6  -3  -1    4.64    0.96
  -6  -3  -1    4.31    0.77
   6   3   1    4.42    0.70
   6   3   1    5.28    0.95
   6   3   1    4.32    0.78
   6   3   1    3.75    0.92
   6   3   1    5.28    0.75
  -7  -3  -1    2.65    0.79
  -7  -3  -1    1.76    0.58
  -7  -3  -1    1.66    0.78
  -7  -3  -1    1.67    0.54
   7   3   1    1.81    0.59
   7   3   1    0.70    0.75
   7   3   1    2.94    0.88
  -8  -3  -1    0.57    0.76
  -8  -3  -1    0.35    0.64
  -8  -3  -1    1.72    0.96
  -8  -3  -1    0.83    0.74
   8   3   1    2.09    0.76
   8   3   1    0.66    0.58
  -9  -3  -1    0.25    0.72
  -9  -3  -1   -1.41    0.74
  -9  -3  -1    1.26    1.16
  -9  -3  -1    0.11    0.74
   9   3   1    0.81    0.82
   9   3   1    1.63    1.06
 -10  -3  -1    1.41    0.91
 -10  -3  -1    1.46    0.96
 -10  -3  -1    2.59    1.17
  10   3   1    0.07    0.86
  10   3   1    1.51    1.19
 -11  -3  -1    0.06    1.27
 -11  -3  -1   -0.80    1.13
 -11  -3  -1    0.57    1.18
  11   3   1   -2.42    1.22
  11   3   1    0.77    1.09
 -12  -3  -1   -1.95    1.30
 -12  -3  -1    0.06    1.39
  12   3   1    0.19    1.24
  12   3   1    2.60    1.62
   9  -4  -1    1.03    1.46
  -9   4   1    0.44    1.42
  -9   4   1    2.30    1.66
  -9   4   1   -0.53    2.01
   8  -4  -1    0.00    1.20
  -8   4   1   -0.58    1.44
  -8   4   1    1.13    1.18
  -8   4   1    2.03    1.44
   7  -4  -1   10.94    1.36
   7  -4  -1    9.55    1.18
   7  -4  -1   10.21    1.48
  -7   4   1   10.66    1.90
  -7   4   1   11.14    1.62
  -7   4   1   11.88    1.37
   6  -4  -1   16.55    1.35
   6  -4  -1   13.20    1.34
   6  -4  -1   14.84    1.49
   6  -4  -1   14.99    1.08
  -6   4   1   15.24    1.89
  -6   4   1   17.85    1.33
  -6   4   1   15.91    1.64
   5  -4  -1   13.18    1.00
   5  -4  -1   12.93    1.29
   5  -4  -1   13.81    1.41
   5  -4  -1   13.04    1.12
   5  -4  -1   12.43    0.91
  -5   4   1   11.77    0.96
  -5   4   1   13.26    1.51
  -5   4   1   15.31    1.48
   4  -4  -1   -0.22    0.40
   4  -4  -1   -0.15    0.63
   4  -4  -1    0.22    0.46
   4  -4  -1    0.25    0.51
   4  -4  -1    0.21    0.48
  -4   4   1    0.21    0.70
  -4   4   1   -0.27    0.76
  -4   4   1   -0.36    0.43
  -4   4   1   -0.27    0.85
   3  -4  -1   34.10    1.42
   3  -4  -1   33.09    1.13
   3  -4  -1   30.59    1.42
   3  -4  -1   32.89    1.21
  -3   4   1   32.42    1.71
  -3   4   1   32.31    1.59
  -3   4   1   31.39    1.69
  -3   4   1   33.58    1.14
   2  -4  -1   18.74    1.40
   2  -4  -1   18.02    0.79
   2  -4  -1   18.42    0.74
   2  -4  -1   16.55    1.17
   2  -4  -1   14.77    1.05
  -2   4   1   18.15    0.80
  -2   4   1   18.55    1.09
  -2   4   1   18.12    0.69
  -2   4   1   17.29    1.06
  -2   4   1   15.16    1.25
   1  -4  -1   19.85    1.17
   1  -4  -1   20.65    0.84
   1  -4  -1   22.19    1.24
   1  -4  -1   22.18    0.63
   1  -4  -1   21.52    0.99
  -1   4   1   21.38    0.60
  -1   4   1   22.67    1.17
  -1   4   1   21.43    0.83
  -1   4   1   21.30    1.04
  -1   4   1   21.70    1.26
  -1   4   1   21.61    1.10
   0  -4  -1    0.43    0.39
   0  -4  -1    0.11    0.31
   0  -4  -1   -0.13    0.33
   0  -4  -1    0.92    0.55
   0   4   1   -0.02    0.35
   0   4   1   -0.08    0.39
   0   4   1   -0.14    0.31
   0   4   1    0.17    0.35
   0   4   1    0.64    0.34
  -1  -4  -1   64.90    1.83
  -1  -4  -1   66.00    1.86
  -1  -4  -1   69.32    2.12
  -1  -4  -1   68.03    1.82
   1   4   1   66.61    1.79
   1   4   1   70.42    1.86
   1   4   1   67.25    2.08
   1   4   1   69.16    1.84
  -2  -4  -1  128.54    3.04
  -2  -4  -1  127.04    3.12
  -2  -4  -1  127.55    2.70
  -2  -4  -1  127.83    3.17
   2   4   1  129.00    2.73
   2   4   1  125.93    2.75
   2   4   1  126.93    3.27
   2   4   1  130.67    3.11
   2   4   1  132.34    3.03
   2   4   1  124.94    3.14
  -3  -4  -1  221.81    5.04
  -3  -4  -1  221.46    4.66
  -3  -4  -1  228.44    4.85
   3   4   1  210.23    4.36
   3   4   1  228.62    5.03
   3   4   1  211.65    4.33
   3   4   1  225.71    4.69
   3   4   1  223.03    4.84
   3   4   1  222.60    5.09
   3   4   1  219.43    4.80
  -4  -4  -1  119.53    3.20
  -4  -4  -1  118.15    2.50
  -4  -4  -1  115.89    2.88
  -4  -4  -1  122.00    3.15
   4   4   1  119.98    3.28
   4   4   1  119.27    3.19
   4   4   1  124.14    2.95
   4   4   1  118.64    3.16
   4   4   1  118.72    2.72
   4   4   1  119.60    2.52
  -5  -4  -1    5.74    0.84
  -5  -4  -1    6.81    0.85
  -5  -4  -1    5.76    0.45
  -5  -4  -1    6.69    0.67
   5   4   1    6.38    0.50
   5   4   1    6.73    0.78
   5   4   1    7.19    0.76
   5   4   1    6.30    0.83
   5   4   1    6.26    0.35
   5   4   1    7.60    0.95
  -6  -4  -1  102.88    2.90
  -6  -4  -1  103.24    2.94
  -6  -4  -1  101.03    3.10
  -6  -4  -1  102.10    2.55
   6   4   1  105.82    2.64
   6   4   1  100.43    3.19
   6   4   1  103.91    2.96
   6   4   1   94.77    2.93
  -7  -4  -1    4.95    0.90
  -7  -4  -1    2.46    0.82
  -7  -4  -1    4.11    0.65
  -7  -4  -1    3.34    0.79
   7   4   1    4.04    0.84
   7   4   1    3.86    0.76
   7   4   1    4.19    0.93
  -8  -4  -1    3.74    0.80
  -8  -4  -1    4.62    1.03
  -8  -4  -1    3.10    1.00
  -8  -4  -1    5.70    0.82
   8   4   1    4.65    1.11
   8   4   1    2.75    1.09
  -9  -4  -1    1.66    1.01
  -9  -4  -1    2.55    0.76
  -9  -4  -1    3.38    0.84
   9   4   1    2.92    0.92
   9   4   1    3.61    1.15
 -10  -4  -1   12.72    1.56
 -10  -4  -1   11.84    1.31
 -10  -4  -1   11.23    1.56
  10   4   1   12.43    1.72
  10   4   1   11.41    1.45
 -11  -4  -1    1.41    1.04
 -11  -4  -1    2.52    1.00
 -11  -4  -1    2.92    1.28
  11   4   1    2.75    1.13
  11   4   1    2.38    1.45
 -12  -4  -1   -0.20    1.36
 -12  -4  -1    1.70    1.40
  12   4   1    2.62    1.73
  12   4   1    0.19    1.28
   8  -5  -1    3.42    1.28
  -8   5   1    4.44    1.99
  -8   5   1    7.23    1.92
  -8   5   1    3.42    1.30
   7  -5  -1   -0.29    0.70
   7  -5  -1   -1.23    1.12
  -7   5   1   -0.14    1.26
  -7   5   1    0.61    1.05
  -7   5   1   -1.56    1.38
   6  -5  -1   25.01    1.74
   6  -5  -1   24.89    1.22
  -6   5   1   24.74    1.52
  -6   5   1   28.30    2.15
  -6   5   1   25.29    2.24
   5  -5  -1   23.12    1.67
   5  -5  -1   22.08    1.06
   5  -5  -1   23.90    1.21
   5  -5  -1   16.29    1.58
  -5   5   1   24.82    1.97
  -5   5   1   22.93    1.28
  -5   5   1   23.23    1.89
   4  -5  -1    8.67    1.02
   4  -5  -1   11.61    1.18
   4  -5  -1    8.58    0.77
   4  -5  -1    8.44    0.70
  -4   5   1    9.11    0.79
  -4   5   1    8.78    1.43
  -4   5   1    8.25    1.29
   3  -5  -1   12.95    1.13
   3  -5  -1   13.16    0.84
   3  -5  -1   13.31    0.75
  -3   5   1   13.42    0.75
  -3   5   1   14.94    1.35
  -3   5   1   12.84    1.33
   2  -5  -1   15.79    0.78
   2  -5  -1   15.80    0.68
   2  -5  -1   13.83    1.04
  -2   5   1   13.30    1.47
  -2   5   1   13.88    1.23
  -2   5   1   15.25    0.82
  -2   5   1   14.47    1.29
  -2   5   1   15.90    0.63
   1  -5  -1    1.77    0.43
   1  -5  -1    1.63    0.73
   1  -5  -1    1.06    0.52
   1  -5  -1    1.65    0.21
  -1   5   1    2.10    0.62
  -1   5   1    2.15    0.73
  -1   5   1    1.16    0.62
  -1   5   1    1.63    0.69
  -1   5   1    1.61    0.45
  -1   5   1    1.62    0.18
   0  -5  -1   10.14    1.17
   0  -5  -1    9.99    0.67
   0  -5  -1   10.18    0.91
   0  -5  -1    9.41    0.75
   0   5   1   10.34    0.71
   0   5   1    9.41    0.85
   0   5   1    9.03    0.92
   0   5   1   10.62    0.89
  -1  -5  -1    4.66    0.59
  -1  -5  -1    6.15    0.83
  -1  -5  -1    6.70    0.69
  -1  -5  -1    5.13    0.54
   1   5   1    6.25    0.64
   1   5   1    5.26    0.65
   1   5   1    6.19    0.70
   1   5   1    5.46    0.78
   1   5   1    5.40    0.58
  -2  -5  -1   -0.05    0.15
  -2  -5  -1    0.35    0.44
  -2  -5  -1   -0.54    0.49
  -2  -5  -1    0.21    0.27
   2   5   1   -0.42    0.44
   2   5   1    0.22    0.20
   2   5   1    0.28    0.49
   2   5   1    0.31    0.35
   2   5   1    0.01    0.31
   2   5   1   -0.35    0.26
  -3  -5  -1  279.81    6.11
  -3  -5  -1  273.99    6.16
  -3  -5  -1  272.94    5.62
   3   5   1  267.53    5.52
   3   5   1  271.94    5.49
   3   5   1  272.04    6.06
   3   5   1  279.06    5.97
   3   5   1  281.70    5.68
   3   5   1  271.73    6.12
   3   5   1  269.05    6.30
  -4  -5  -1   26.31    1.03
  -4  -5  -1   25.17    1.30
   4   5   1   25.39    1.09
   4   5   1   27.43    1.35
   4   5   1   25.38    0.70
   4   5   1   27.89    1.22
   4   5   1   25.26    1.07
   4   5   1   25.89    1.28
  -5  -5  -1    8.57    0.92
  -5  -5  -1    7.64    0.69
  -5  -5  -1    9.10    0.46
  -5  -5  -1    8.30    1.04
   5   5   1    8.15    0.89
   5   5   1    8.64    0.48
   5   5   1    9.69    0.61
   5   5   1    9.72    1.20
   5   5   1    8.19    0.82
   5   5   1    8.20    0.86
  -6  -5  -1    3.42    0.85
  -6  -5  -1    3.79    0.45
  -6  -5  -1    3.46    0.86
  -6  -5  -1    2.87    0.67
   6   5   1    3.53    0.50
   6   5   1    2.82    0.72
   6   5   1    2.83    0.34
   6   5   1    2.80    0.31
   6   5   1    3.15    0.68
   6   5   1    2.69    0.78
  -7  -5  -1    1.54    0.55
  -7  -5  -1    0.52    0.70
  -7  -5  -1    0.55    0.83
  -7  -5  -1    1.29    0.44
   7   5   1    0.54    0.58
   7   5   1    0.51    0.57
   7   5   1    1.04    0.73
  -8  -5  -1    5.45    1.15
  -8  -5  -1    6.49    0.80
  -8  -5  -1    5.51    1.03
   8   5   1    6.70    1.05
   8   5   1    5.69    1.08
   8   5   1    5.28    1.10
  -9  -5  -1   21.78    1.60
  -9  -5  -1   22.01    1.30
  -9  -5  -1   22.51    1.76
   9   5   1   23.07    1.72
   9   5   1   23.51    1.65
   9   5   1   20.66    1.84
 -10  -5  -1   21.77    1.74
 -10  -5  -1   19.29    1.49
 -10  -5  -1   20.87    1.79
  10   5   1   19.79    1.73
  10   5   1   20.26    1.97
 -11  -5  -1    2.83    1.13
 -11  -5  -1    1.22    1.26
 -11  -5  -1    4.41    1.12
  11   5   1    3.43    1.25
 -12  -5  -1   11.84    2.00
 -12  -5  -1   13.82    2.04
 -12  -5  -1   11.87    1.60
  12   5   1   12.03    1.71
  12   5   1   16.74    2.44
   7  -6  -1   19.45    2.26
  -7   6   1   20.73    1.74
  -7   6   1   23.39    2.55
  -7   6   1   20.02    2.61
   6  -6  -1    3.46    1.32
  -6   6   1    4.14    1.30
  -6   6   1    5.37    1.63
  -6   6   1    4.15    1.04
   5  -6  -1    4.04    0.89
   5  -6  -1    2.40    0.57
   5  -6  -1    2.34    1.05
  -5   6   1    3.33    1.37
  -5   6   1    1.79    1.03
   4  -6  -1   10.62    1.38
   4  -6  -1    9.39    1.05
   4  -6  -1    9.78    0.85
   4  -6  -1   10.24    0.78
  -4   6   1    9.12    1.43
  -4   6   1    9.70    1.50
  -4   6   1    9.22    0.84
   3  -6  -1    0.99    0.48
   3  -6  -1    2.03    0.78
   3  -6  -1    1.77    0.53
  -3   6   1    1.40    0.91
  -3   6   1    1.08    0.87
  -3   6   1    1.38    0.41
   2  -6  -1   -0.56    0.54
   2  -6  -1   -0.07    0.42
  -2   6   1    0.44    0.26
  -2   6   1    0.64    0.52
  -2   6   1    0.55    0.69
  -2   6   1   -0.81    0.82
   1  -6  -1   18.21    1.17
   1  -6  -1   17.23    0.89
  -1   6   1   17.64    1.45
  -1   6   1   16.25    1.27
  -1   6   1   18.37    0.93
   0  -6  -1    2.77    0.86
   0  -6  -1    2.15    0.54
   0  -6  -1    1.97    0.60
   0   6   1    3.28    0.72
   0   6   1    2.18    0.77
   0   6   1    2.90    0.60
  -1  -6  -1   73.88    2.19
  -1  -6  -1   73.95    2.30
  -1  -6  -1   76.16    2.36
   1   6   1   73.62    2.25
   1   6   1   74.90    2.64
   1   6   1   75.25    2.13
  -2  -6  -1   43.26    1.61
  -2  -6  -1   43.74    1.63
   2   6   1   44.83    1.03
   2   6   1   43.45    1.66
   2   6   1   42.84    1.67
   2   6   1   40.49    1.69
   2   6   1   40.78    1.87
   2   6   1   42.40    1.79
   2   6   1   45.31    1.48
  -3  -6  -1   66.36    2.15
  -3  -6  -1   69.49    2.24
  -3  -6  -1   69.45    1.67
   3   6   1   64.85    2.06
   3   6   1   66.77    2.38
   3   6   1   67.01    2.24
   3   6   1   66.92    1.76
   3   6   1   68.21    1.73
   3   6   1   68.94    1.75
   3   6   1   65.19    2.19
  -4  -6  -1   50.51    1.52
   4   6   1   50.95    2.08
   4   6   1   51.41    1.32
   4   6   1   50.79    2.02
   4   6   1   53.81    1.28
   4   6   1   54.38    1.64
   4   6   1   50.70    1.81
  -5  -6  -1    5.55    0.69
  -5  -6  -1    4.29    0.92
   5   6   1    6.19    0.83
   5   6   1    6.56    1.00
   5   6   1    5.63    0.37
   5   6   1    5.22    0.64
  -6  -6  -1    0.94    0.29
  -6  -6  -1    0.60    0.70
  -6  -6  -1   -0.39    0.48
   6   6   1    0.77    0.73
   6   6   1    1.23    0.78
   6   6   1    0.91    0.38
   6   6   1    0.62    0.54
  -7  -6  -1    1.29    0.68
  -7  -6  -1    2.49    0.90
  -7  -6  -1    1.70    0.41
   7   6   1    2.19    0.30
   7   6   1    2.64    0.83
   7   6   1    2.16    0.85
   7   6   1    2.25    0.36
   7   6   1    1.71    0.54
  -8  -6  -1    2.34    0.85
  -8  -6  -1    1.52    0.54
  -8  -6  -1    1.62    0.78
   8   6   1    3.01    0.96
   8   6   1    1.81    0.97
   8   6   1    2.02    0.77
  -9  -6  -1    0.32    0.59
  -9  -6  -1    2.48    1.07
  -9  -6  -1   -0.01    0.79
   9   6   1    1.31    0.93
   9   6   1    1.70    1.09
   9   6   1    1.31    1.10
 -10  -6  -1   42.48    1.84
 -10  -6  -1   45.06    2.27
 -10  -6  -1   41.63    2.47
  10   6   1   42.34    2.31
  10   6   1   42.14    2.47
 -11  -6  -1    3.57    1.02
 -11  -6  -1    5.05    1.53
 -11  -6  -1    5.59    1.33
  11   6   1    7.03    1.72
  11   6   1    4.41    1.35
 -12  -6  -1    1.30    1.58
 -12  -6  -1   -0.24    1.20
 -12  -6  -1    0.66    1.34
  12   6   1   -0.57    1.31
  12   6   1    1.84    1.26
   6  -7  -1   17.50    2.10
  -6   7   1   20.69    2.63
  -6   7   1   11.99    1.41
  -6   7   1   22.71    2.49
   5  -7  -1    1.26    1.16
  -5   7   1    3.41    1.53
  -5   7   1    0.08    1.46
  -5   7   1    0.79    0.70
   4  -7  -1    7.24    0.59
   4  -7  -1    7.21    1.29
  -4   7   1    7.88    0.78
  -4   7   1    9.00    1.69
  -4   7   1    8.30    1.67
   3  -7  -1    1.81    0.48
   3  -7  -1    1.24    0.88
   3  -7  -1    2.10    0.55
  -3   7   1    1.79    0.42
  -3   7   1    3.86    1.22
  -3   7   1    3.76    1.14
   2  -7  -1    5.37    0.71
   2  -7  -1    6.96    1.08
  -2   7   1    6.11    1.19
  -2   7   1    5.84    1.29
   1  -7  -1    0.70    0.66
   1  -7  -1    2.10    0.58
  -1   7   1    0.80    0.61
  -1   7   1    1.29    0.88
  -1   7   1   -1.23    0.78
   0  -7  -1   31.10    1.32
   0  -7  -1   32.44    1.58
   0   7   1   31.15    1.92
   0   7   1   31.02    1.70
   0   7   1   30.44    1.34
  -1  -7  -1   11.31    0.92
  -1  -7  -1   10.19    1.15
  -1  -7  -1   13.13    1.07
   1   7   1   11.30    1.01
   1   7   1   11.98    1.31
   1   7   1   12.50    1.10
  -2  -7  -1    4.28    0.71
  -2  -7  -1    5.43    0.86
   2   7   1    4.79    1.03
   2   7   1    3.78    0.88
   2   7   1    3.80    0.68
   2   7   1    3.35    0.80
  -3  -7  -1    5.27    0.40
  -3  -7  -1    5.24    0.78
   3   7   1    5.05    0.50
   3   7   1    6.11    0.95
   3   7   1    5.83    0.95
   3   7   1    6.06    0.68
   3   7   1    5.20    1.06
   3   7   1    4.90    0.62
  -4  -7  -1   52.79    1.50
  -4  -7  -1   56.66    2.17
   4   7   1   49.08    2.16
   4   7   1   52.14    1.46
   4   7   1   47.64    1.97
   4   7   1   52.89    1.61
   4   7   1   51.57    1.41
  -5  -7  -1    0.86    0.42
  -5  -7  -1   -0.12    0.67
   5   7   1    0.83    0.70
   5   7   1    0.73    0.54
   5   7   1    0.42    0.25
   5   7   1    1.01    0.75
   5   7   1    0.27    0.27
  -6  -7  -1    4.90    1.08
  -6  -7  -1    6.08    0.79
   6   7   1    4.42    0.68
   6   7   1    4.20    0.89
   6   7   1    3.87    0.38
   6   7   1    3.99    0.40
   6   7   1    3.33    0.96
   6   7   1    5.71    1.12
  -7  -7  -1   38.36    1.68
  -7  -7  -1   38.01    2.09
   7   7   1   36.57    1.42
   7   7   1   38.99    2.05
   7   7   1   40.25    1.38
   7   7   1   39.43    2.20
  -8  -7  -1    3.51    0.55
  -8  -7  -1    2.26    1.05
  -8  -7  -1    2.34    0.84
   8   7   1    3.52    1.04
   8   7   1    3.00    0.37
   8   7   1    2.45    1.07
   8   7   1    3.58    0.70
   8   7   1    3.07    0.32
  -9  -7  -1   13.81    1.39
  -9  -7  -1   17.34    1.72
  -9  -7  -1   18.94    1.07
   9   7   1   13.94    1.53
   9   7   1   14.62    1.59
   9   7   1   17.66    1.37
 -10  -7  -1    0.86    0.76
 -10  -7  -1    0.43    1.19
 -10  -7  -1    0.03    0.71
  10   7   1   -0.44    1.01
  10   7   1    1.65    1.27
 -11  -7  -1    4.35    1.01
 -11  -7  -1    6.25    1.59
 -11  -7  -1    5.95    1.40
  11   7   1    4.43    1.57
  11   7   1    4.20    1.42
 -12  -7  -1    3.21    1.75
 -12  -7  -1    3.11    1.24
 -12  -7  -1    5.35    1.62
  12   7   1    5.91    1.78
  12   7   1    3.29    1.56
   5  -8  -1   38.48    2.58
  -5   8   1   35.98    3.07
  -5   8   1   31.25    3.04
   4  -8  -1    1.43    1.15
  -4   8   1    1.61    1.46
  -4   8   1   -1.11    1.43
   3  -8  -1   10.63    1.25
   3  -8  -1   10.97    0.63
  -3   8   1   10.18    1.78
  -3   8   1   11.87    1.84
   2  -8  -1   14.57    0.93
   2  -8  -1   13.61    1.26
  -2   8   1   14.76    1.70
  -2   8   1   14.28    1.79
   1  -8  -1    8.84    0.90
   1  -8  -1    8.89    1.21
  -1   8   1    8.68    0.97
  -1   8   1    7.99    1.36
  -1   8   1    9.71    1.55
   0  -8  -1    7.83    0.90
   0  -8  -1    6.36    1.03
   0   8   1    4.84    0.96
   0   8   1    5.93    1.14
   0   8   1    6.86    1.35
  -1  -8  -1   38.52    1.60
  -1  -8  -1   36.42    1.79
   1   8   1   33.91    1.65
   1   8   1   36.26    2.14
   1   8   1   37.75    1.79
  -2  -8  -1    1.04    0.51
   2   8   1    0.99    0.95
   2   8   1    0.24    0.61
   2   8   1   -0.08    0.82
   2   8   1    0.79    0.77
  -3  -8  -1    0.36    0.73
  -3  -8  -1    0.75    0.52
   3   8   1    0.65    0.53
   3   8   1    0.88    0.84
   3   8   1    0.35    0.57
  -4  -8  -1   14.03    0.71
  -4  -8  -1   12.47    1.20
   4   8   1   13.20    0.86
   4   8   1   13.61    1.27
   4   8   1   13.23    0.82
   4   8   1   13.15    1.26
   4   8   1   12.80    0.85
  -5  -8  -1   48.39    1.59
  -5  -8  -1   51.88    2.26
   5   8   1   47.73    1.77
   5   8   1   49.20    2.39
   5   8   1   52.38    2.09
   5   8   1   48.61    1.68
  -6  -8  -1    2.91    0.60
  -6  -8  -1    2.21    0.98
   6   8   1    3.04    0.32
   6   8   1    2.36    0.71
   6   8   1    3.01    0.31
   6   8   1    3.12    0.97
   6   8   1    4.60    1.00
  -7  -8  -1   10.95    1.10
  -7  -8  -1   11.95    1.46
   7   8   1   12.82    1.60
   7   8   1   11.19    1.59
   7   8   1   11.85    0.98
   7   8   1   11.51    0.45
   7   8   1   13.08    1.27
   7   8   1   11.71    0.47
  -8  -8  -1   14.02    1.41
  -8  -8  -1   13.56    1.27
   8   8   1   16.36    1.58
   8   8   1   13.20    0.91
   8   8   1   12.72    1.62
   8   8   1   11.85    1.02
  -9  -8  -1   19.59    0.99
  -9  -8  -1   21.71    1.90
  -9  -8  -1   20.19    1.55
   9   8   1   21.48    1.93
   9   8   1   19.18    1.14
   9   8   1   20.56    2.08
 -10  -8  -1    0.88    0.65
 -10  -8  -1    0.41    1.01
 -10  -8  -1    1.94    1.36
  10   8   1    0.77    1.26
  10   8   1    1.03    1.14
 -11  -8  -1    3.41    1.31
 -11  -8  -1    6.07    1.02
 -11  -8  -1    5.24    1.59
  11   8   1    5.15    1.49
  11   8   1    3.93    1.40
 -12  -8  -1    2.13    1.17
 -12  -8  -1   -0.84    1.28
 -12  -8  -1    0.32    1.64
  12   8   1    5.42    1.74
  12   8   1    1.76    1.86
   4  -9  -1    3.07    1.48
  -4   9   1    7.09    1.94
  -4   9   1    3.08    1.93
   3  -9  -1    4.97    1.38
  -3   9   1    7.29    1.83
  -3   9   1    6.87    1.70
   2  -9  -1    0.18    0.55
   2  -9  -1    3.59    1.15
  -2   9   1    2.09    1.39
  -2   9   1   -1.26    1.21
   1  -9  -1   46.74    1.72
   1  -9  -1   49.33    2.38
  -1   9   1   48.74    2.60
  -1   9   1   51.29    2.92
   0  -9  -1    1.62    0.75
   0  -9  -1   -0.23    0.78
   0   9   1    1.62    1.07
   0   9   1    0.13    0.91
   0   9   1    1.36    0.93
  -1  -9  -1   98.45    3.27
   1   9   1   93.91    3.68
   1   9   1   86.77    2.88
   1   9   1   96.99    3.24
  -2  -9  -1    7.84    1.16
  -2  -9  -1    9.77    1.21
   2   9   1    8.07    1.18
   2   9   1    8.09    1.45
   2   9   1    7.21    1.38
  -3  -9  -1    2.59    0.96
  -3  -9  -1    1.36    0.76
   3   9   1    2.08    0.95
   3   9   1    3.24    0.79
   3   9   1    3.28    1.15
  -4  -9  -1    2.80    0.94
   4   9   1    1.60    0.54
   4   9   1    0.93    0.54
   4   9   1    1.36    0.88
   4   9   1    1.29    1.01
   4   9   1    1.67    0.69
  -5  -9  -1    1.60    0.96
  -5  -9  -1    1.01    0.49
   5   9   1    1.54    0.99
   5   9   1    1.10    0.89
   5   9   1    1.78    0.80
   5   9   1    1.13    0.47
   5   9   1    0.73    0.47
  -6  -9  -1   13.72    1.49
   6   9   1   14.70    1.33
   6   9   1   16.92    1.77
   6   9   1   16.83    1.51
   6   9   1   15.30    0.55
   6   9   1   13.68    0.52
  -7  -9  -1    2.65    0.77
  -7  -9  -1    0.49    0.91
   7   9   1    2.69    1.24
   7   9   1    1.56    1.11
   7   9   1    0.50    0.76
   7   9   1    1.65    1.14
  -8  -9  -1   16.26    1.29
  -8  -9  -1   14.35    1.49
   8   9   1   15.27    1.54
   8   9   1   14.01    1.91
   8   9   1   14.35    1.21
   8   9   1   17.84    1.90
  -9  -9  -1   -1.76    1.01
  -9  -9  -1    0.36    0.86
   9   9   1   -0.51    0.86
   9   9   1   -0.56    1.22
   9   9   1   -0.03    0.52
 -10  -9  -1    0.31    1.30
 -10  -9  -1    0.25    1.01
  10   9   1    2.35    1.44
  10   9   1    0.84    1.39
 -11  -9  -1    3.89    1.75
 -11  -9  -1    3.82    1.31
  11   9   1    2.70    1.67
  11   9   1    3.00    1.57
 -12  -9  -1    0.81    1.35
  12   9   1    2.27    1.91
  12   9   1   -0.38    1.72
   3 -10  -1    0.94    2.09
  -3  10   1    1.36    1.91
   2 -10  -1    2.24    1.26
  -2  10   1    1.65    1.74
  -2  10   1   -0.07    1.64
   1 -10  -1    0.71    0.73
   1 -10  -1    0.68    1.09
  -1  10   1   -1.46    1.24
  -1  10   1    0.70    1.09
   0 -10  -1    9.65    1.31
   0 -10  -1   10.82    1.25
   0  10   1    7.53    1.68
   0  10   1   10.59    1.79
  -1 -10  -1    0.53    0.68
  -1 -10  -1    2.38    0.89
   1  10   1    1.16    1.17
   1  10   1   -0.35    0.99
   1  10   1   -0.88    1.31
  -2 -10  -1    2.97    1.00
  -2 -10  -1    3.94    1.04
   2  10   1    1.26    1.18
   2  10   1    2.10    1.06
   2  10   1    3.04    1.07
  -3 -10  -1    2.45    1.00
  -3 -10  -1    1.75    0.78
   3  10   1    3.68    1.10
   3  10   1    0.82    1.35
   3  10   1    2.87    1.13
   3  10   1    1.27    1.29
  -4 -10  -1   -0.46    0.86
   4  10   1    2.94    0.95
   4  10   1    1.04    0.28
   4  10   1    1.85    1.11
   4  10   1    3.21    1.27
   4  10   1    1.68    0.74
   4  10   1    1.45    0.40
  -5 -10  -1    3.28    1.15
   5  10   1    2.83    1.30
   5  10   1    3.25    0.65
   5  10   1    3.13    1.14
   5  10   1    5.22    0.85
   5  10   1    3.16    0.67
  -6 -10  -1    2.42    1.17
  -6 -10  -1    2.13    0.72
   6  10   1    2.10    0.99
   6  10   1    1.55    0.34
   6  10   1    2.25    1.33
   6  10   1    2.91    1.17
  -7 -10  -1   -0.98    0.68
  -7 -10  -1   -0.91    1.04
   7  10   1    0.24    0.91
   7  10   1    0.94    0.92
   7  10   1    2.46    1.20
  -8 -10  -1    4.84    1.48
  -8 -10  -1    5.71    1.07
   8  10   1    4.17    1.25
   8  10   1    4.31    1.08
   8  10   1    6.08    1.55
  -9 -10  -1    0.18    0.95
  -9 -10  -1    1.54    1.30
   9  10   1   -0.15    1.32
   9  10   1   -2.24    1.30
   9  10   1    0.44    0.76
 -10 -10  -1    2.86    1.18
 -10 -10  -1    0.54    1.46
  10  10   1    4.87    1.62
  10  10   1    3.01    1.73
 -11 -10  -1    6.16    1.47
 -11 -10  -1    7.14    2.01
  11  10   1    6.53    2.02
  11  10   1    4.10    1.80
   1 -11  -1    1.06    1.39
  -1  11   1   -1.20    2.14
  -1  11   1   -3.25    1.27
  -1  11   1   -2.09    1.51
   0 -11  -1   -0.26    1.10
   0 -11  -1   -0.32    1.18
   0  11   1    1.14    1.82
   0  11   1    2.14    1.69
   0  11   1    0.31    1.54
  -1 -11  -1    0.36    0.97
  -1 -11  -1   -0.42    1.06
   1  11   1    1.19    1.41
   1  11   1    0.99    1.34
   1  11   1   -1.34    1.47
  -2 -11  -1   -0.70    0.70
  -2 -11  -1    0.33    1.01
   2  11   1   -0.28    0.94
   2  11   1   -0.84    0.94
   2  11   1   -0.12    1.12
  -3 -11  -1   14.74    1.69
  -3 -11  -1   12.16    1.54
   3  11   1   14.43    1.57
   3  11   1   15.78    1.96
   3  11   1   12.76    2.05
  -4 -11  -1    2.85    1.16
   4  11   1    1.08    1.23
   4  11   1    4.04    1.24
   4  11   1   -0.44    0.93
  -5 -11  -1    5.93    1.38
   5  11   1    7.39    1.53
   5  11   1    4.71    0.84
   5  11   1    4.88    1.60
  -6 -11  -1    5.23    1.41
   6  11   1    2.97    1.41
   6  11   1    5.98    0.56
   6  11   1    6.22    1.44
  -7 -11  -1    1.45    1.28
  -7 -11  -1    1.10    0.75
   7  11   1   -1.84    1.29
   7  11   1    0.77    1.14
  -8 -11  -1    0.52    0.84
  -8 -11  -1    0.65    1.28
   8  11   1    0.05    1.45
   8  11   1    2.62    1.22
   8  11   1    0.83    1.44
  -9 -11  -1   -1.51    1.33
   9  11   1   -0.52    1.53
   9  11   1    0.67    1.50
   9  11   1   -0.73    1.11
 -10 -11  -1    0.83    1.15
 -10 -11  -1    1.59    1.66
  10  11   1    1.59    1.72
  10  11   1    0.07    1.78
   1  12   1   -1.08    1.95
   1  12   1    0.17    1.91
   1  12   1    1.25    1.73
  -2 -12  -1    1.85    1.22
  -2 -12  -1   -0.71    1.11
   2  12   1    4.29    1.88
   2  12   1    0.41    1.54
   2  12   1    2.98    1.90
  -3 -12  -1   -0.56    0.86
  -3 -12  -1    1.24    1.20
   3  12   1   -1.59    1.65
   3  12   1   -0.68    1.59
   3  12   1    1.03    1.31
  -4 -12  -1    0.74    1.20
   4  12   1    0.41    1.55
   4  12   1    0.66    1.69
   4  12   1    2.24    1.19
  -5 -12  -1    0.94    1.24
   5  12   1    0.47    1.60
   5  12   1   -1.41    1.31
   5  12   1    2.01    0.90
  -6 -12  -1    1.26    1.41
   6  12   1   -0.23    1.32
   6  12   1    0.74    1.22
  -7 -12  -1   -0.85    1.38
   7  12   1   -1.27    1.24
   7  12   1    0.73    1.60
  -8 -12  -1   13.46    2.17
  -8 -12  -1   11.16    1.31
   8  12   1   10.86    2.20
   8  12   1    9.76    2.18
   8  12   1   10.75    1.84
  -9 -12  -1    5.54    1.22
  -9 -12  -1    4.34    1.76
   9  12   1    2.66    1.47
   9  12   1    1.45    1.89
   9  12   1    5.17    2.07
  -4 -13  -1    4.33    1.57
   4  13   1    6.24    2.31
   4  13   1    2.15    1.99
  -5 -13  -1    0.02    1.49
   5  13   1   -0.95    1.67
  -6 -13  -1    1.74    1.60
   6  13   1    2.09    1.69
  -7 -13  -1    1.15    1.57
   7  13   1   -0.14    1.65
   8  12  -2    0.93    1.54
   8  12  -2   -0.27    1.83
   8  12  -2    3.27    2.05
  -8 -12   2   -0.90    1.58
   7  12  -2    3.29    1.83
   7  12  -2    2.58    2.13
   7  12  -2    3.31    1.44
  -7 -12   2    4.52    1.72
   6  12  -2   18.00    1.98
   6  12  -2   17.95    2.26
   6  12  -2   14.73    2.45
  -6 -12   2   20.32    2.31
   5  12  -2    4.48    1.55
   5  12  -2    6.29    1.73
   5  12  -2    5.69    1.71
  -5 -12   2    5.22    1.43
   4  12  -2   11.34    1.89
   4  12  -2   10.75    2.22
   4  12  -2   10.60    1.95
  -4 -12   2   13.08    1.66
   3  12  -2    2.42    1.67
   3  12  -2    2.37    1.67
   3  12  -2    0.13    1.70
  -3 -12   2    1.05    1.23
  -3 -12   2    1.79    1.11
   2  12  -2    3.21    1.61
   2  12  -2   -1.24    1.73
  -2 -12   2    1.53    1.28
   1  12  -2    2.58    1.97
  10  11  -2    0.84    1.92
  10  11  -2    0.31    1.42
 -10 -11   2    1.25    1.29
 -10 -11   2    2.07    1.84
   9  11  -2    4.56    1.84
   9  11  -2    2.17    1.75
   9  11  -2    4.18    1.25
  -9 -11   2    5.58    1.30
  -9 -11   2    3.12    1.71
   8  11  -2    0.65    1.57
   8  11  -2    0.49    1.65
   8  11  -2    0.81    1.25
  -8 -11   2    0.08    1.35
  -8 -11   2    1.12    1.08
   7  11  -2    3.91    1.41
   7  11  -2    5.32    1.62
  -7 -11   2    4.09    1.10
  -7 -11   2    4.85    1.51
   6  11  -2    2.59    1.28
   6  11  -2    3.46    1.57
   6  11  -2    2.19    1.39
  -6 -11   2    3.07    1.23
   5  11  -2    2.05    1.29
   5  11  -2    2.58    1.32
   5  11  -2   -1.07    1.31
  -5 -11   2    0.41    1.08
   4  11  -2    3.63    1.51
   4  11  -2    2.28    1.27
   4  11  -2    2.66    0.78
   4  11  -2    3.52    1.40
  -4 -11   2    1.58    1.12
   3  11  -2    0.77    1.34
   3  11  -2    3.20    1.34
   3  11  -2    1.80    0.59
  -3 -11   2    2.64    1.02
  -3 -11   2    1.50    1.12
   2  11  -2   13.08    1.87
   2  11  -2   11.19    2.01
  -2 -11   2   12.34    1.44
  -2 -11   2   12.70    1.30
   1  11  -2    2.47    1.64
   1  11  -2    0.65    1.41
  -1 -11   2   -0.57    0.78
   0  11  -2   -0.53    1.60
   0  11  -2    1.63    1.30
   0 -11   2    0.11    1.17
  -1  11  -2   -3.01    1.34
  -1  11  -2    3.33    1.89
  11  10  -2    0.82    1.71
  11  10  -2    4.44    2.11
 -11 -10   2   -0.07    1.75
 -11 -10   2   -0.87    1.35
  10  10  -2   -0.90    1.46
  10  10  -2    1.91    1.36
 -10 -10   2    1.19    1.55
 -10 -10   2   -0.07    1.12
   9  10  -2    6.90    1.85
   9  10  -2    6.97    1.88
   9  10  -2    4.64    1.03
  -9 -10   2    7.88    1.76
  -9 -10   2    5.08    1.29
   8  10  -2   -0.75    1.37
   8  10  -2    3.91    1.57
   8  10  -2    2.15    1.09
  -8 -10   2    2.14    1.38
  -8 -10   2    2.34    1.09
   7  10  -2   14.71    1.65
   7  10  -2   16.21    2.06
   7  10  -2   13.67    2.02
  -7 -10   2   14.93    1.41
  -7 -10   2   14.80    1.79
   6  10  -2    1.09    1.15
   6  10  -2    1.31    1.24
  -6 -10   2    0.80    1.06
  -6 -10   2   -0.61    0.69
   5  10  -2    0.28    1.10
   5  10  -2    1.68    1.11
   5  10  -2    0.61    1.08
  -5 -10   2    0.23    0.92
   4  10  -2   -0.85    0.99
   4  10  -2    0.70    1.15
   4  10  -2    1.18    1.32
   4  10  -2    2.68    1.13
  -4 -10   2   -0.58    0.81
   3  10  -2    3.12    1.23
   3  10  -2    2.62    1.18
   3  10  -2    1.14    0.59
   3  10  -2    2.26    0.82
  -3 -10   2    1.18    0.87
  -3 -10   2    1.93    0.77
   2  10  -2   41.33    2.66
   2  10  -2   41.82    1.33
   2  10  -2   39.39    2.52
   2  10  -2   40.20    1.29
  -2 -10   2   39.23    1.74
  -2 -10   2   39.25    2.17
   1  10  -2   14.53    1.90
   1  10  -2   14.44    1.67
  -1 -10   2   15.63    1.58
  -1 -10   2   11.79    1.05
   0  10  -2    0.38    1.32
   0  10  -2   -0.52    1.15
   0 -10   2    0.37    0.97
  -1  10  -2    2.51    1.58
  -1  10  -2    1.45    1.16
   1 -10   2    1.70    1.04
  -2  10  -2    6.47    1.90
  -2  10  -2   10.49    2.11
   2 -10   2    9.32    1.45
  -3  10  -2   -0.60    1.70
  11   9  -2    1.05    1.74
  11   9  -2   -1.40    1.50
 -11  -9   2   -0.23    1.18
 -11  -9   2    0.98    1.24
 -11  -9   2    3.30    1.69
  10   9  -2    4.87    1.59
  10   9  -2    1.11    1.59
 -10  -9   2    2.14    1.20
 -10  -9   2    1.34    1.08
 -10  -9   2    3.43    1.58
   9   9  -2   12.24    0.97
   9   9  -2   14.84    2.09
   9   9  -2   14.86    1.88
  -9  -9   2   12.86    1.58
  -9  -9   2   14.50    2.02
   8   9  -2   14.62    1.89
   8   9  -2   13.35    1.96
   8   9  -2   14.81    1.33
  -8  -9   2   16.25    1.78
  -8  -9   2   15.45    1.41
   7   9  -2   17.93    1.51
   7   9  -2   16.65    2.03
   7   9  -2   20.89    1.93
   7   9  -2   17.19    1.57
   7   9  -2   17.86    2.19
  -7  -9   2   18.28    1.73
  -7  -9   2   17.53    1.40
   6   9  -2    2.62    1.03
   6   9  -2    3.20    1.11
   6   9  -2    4.92    1.15
  -6  -9   2    4.35    0.85
  -6  -9   2    6.44    1.26
   5   9  -2    3.76    1.18
   5   9  -2    3.59    1.21
   5   9  -2    4.43    1.13
   5   9  -2    4.00    1.09
  -5  -9   2    4.82    0.85
  -5  -9   2    4.33    1.11
   4   9  -2   10.45    1.19
   4   9  -2    8.47    1.24
   4   9  -2    9.39    1.42
   4   9  -2    7.91    1.35
   4   9  -2    9.26    1.32
  -4  -9   2   11.24    1.41
   3   9  -2    1.37    0.59
   3   9  -2    1.08    1.00
   3   9  -2    2.00    1.00
   3   9  -2    2.84    0.77
  -3  -9   2    1.71    0.66
  -3  -9   2    1.43    0.72
   2   9  -2   22.58    1.85
   2   9  -2   19.07    1.81
   2   9  -2   21.74    1.00
   2   9  -2   20.40    1.71
   2   9  -2   20.87    1.03
  -2  -9   2   21.35    1.54
   1   9  -2   15.74    1.69
   1   9  -2   11.81    0.75
   1   9  -2   11.97    0.76
   1   9  -2   11.05    1.23
   1   9  -2   13.80    1.86
  -1  -9   2   12.31    0.97
  -1  -9   2   11.61    1.32
   0   9  -2   20.96    1.05
   0   9  -2   22.55    2.11
   0   9  -2   20.19    0.78
   0   9  -2   24.11    2.00
   0  -9   2   22.74    1.52
  -1   9  -2   11.44    1.90
  -1   9  -2   10.86    1.78
  -1   9  -2   11.74    0.56
   1  -9   2   11.65    1.42
  -2   9  -2    6.91    1.80
  -2   9  -2    3.81    1.34
  -2   9  -2    5.98    0.55
   2  -9   2    6.34    1.24
  -3   9  -2    7.39    1.85
  -3   9  -2    4.94    1.73
   3  -9   2    5.31    1.21
  -4   9  -2    2.70    1.93
  -4   9  -2   -3.95    1.63
   4  -9   2    1.66    1.32
  11   8  -2    9.42    2.09
  11   8  -2    0.17    1.33
 -11  -8   2    3.19    1.29
 -11  -8   2    2.14    1.29
 -11  -8   2    3.28    1.66
  10   8  -2   -0.88    1.43
  10   8  -2    1.99    1.27
 -10  -8   2    0.23    1.34
 -10  -8   2    0.63    0.99
 -10  -8   2   -0.16    0.97
   9   8  -2    0.13    0.91
   9   8  -2    0.88    1.15
  -9  -8   2    1.25    0.96
  -9  -8   2    0.69    0.93
  -9  -8   2    0.34    0.82
   8   8  -2   17.46    1.16
   8   8  -2   15.77    1.96
   8   8  -2   18.36    1.83
   8   8  -2   17.05    1.09
   8   8  -2   18.14    1.70
  -8  -8   2   17.22    1.40
  -8  -8   2   19.71    1.81
   7   8  -2    7.82    0.95
   7   8  -2    5.58    1.09
   7   8  -2    5.96    1.23
   7   8  -2    7.10    1.46
   7   8  -2    7.32    1.18
  -7  -8   2    7.95    1.32
  -7  -8   2    7.65    1.09
   6   8  -2    6.67    1.31
   6   8  -2    7.21    1.07
   6   8  -2    5.83    1.25
   6   8  -2    5.86    1.20
  -6  -8   2    6.73    0.92
  -6  -8   2    6.50    1.22
   5   8  -2   12.98    1.23
   5   8  -2   15.58    1.39
   5   8  -2   12.83    1.26
  -5  -8   2   12.68    0.96
  -5  -8   2   11.71    1.35
   4   8  -2    0.32    0.77
   4   8  -2   -0.25    0.71
   4   8  -2    0.11    0.65
   4   8  -2    0.90    0.81
  -4  -8   2   -0.42    0.63
   3   8  -2   32.29    1.96
   3   8  -2   33.83    1.73
   3   8  -2   39.13    2.11
   3   8  -2   33.99    1.37
  -3  -8   2   35.93    1.62
  -3  -8   2   34.67    1.73
   2   8  -2    1.86    0.58
   2   8  -2    2.46    0.98
   2   8  -2    2.19    0.94
   2   8  -2    2.11    0.49
   2   8  -2    2.68    0.94
  -2  -8   2    2.22    0.68
  -2  -8   2    2.23    0.64
   1   8  -2   69.15    2.97
   1   8  -2   70.65    1.80
   1   8  -2   64.77    2.13
   1   8  -2   67.68    2.78
   1   8  -2   66.97    1.81
  -1  -8   2   64.28    2.47
  -1  -8   2   70.21    2.07
   0   8  -2   54.01    2.54
   0   8  -2   50.75    2.66
   0   8  -2   49.79    1.58
   0   8  -2   51.18    1.43
   0   8  -2   51.42    1.48
   0  -8   2   52.48    2.22
   0  -8   2   53.57    1.54
  -1   8  -2    6.08    0.64
  -1   8  -2    7.14    1.38
  -1   8  -2    8.18    0.68
  -1   8  -2    7.58    1.51
   1  -8   2    6.75    1.12
  -2   8  -2   15.92    1.71
  -2   8  -2   19.41    0.98
  -2   8  -2   19.11    1.98
   2  -8   2   19.69    1.60
  -3   8  -2   14.16    2.04
  -3   8  -2   14.00    1.02
  -3   8  -2   15.18    2.07
   3  -8   2   16.27    1.62
   3  -8   2   11.98    1.40
  -4   8  -2   40.53    1.63
  -4   8  -2   40.00    2.94
  -4   8  -2   38.29    2.85
   4  -8   2   40.90    2.53
   4  -8   2   40.38    2.41
  -5   8  -2   10.38    1.29
  -5   8  -2    9.04    2.05
  -5   8  -2    8.71    2.24
   5  -8   2   10.82    1.81
  12   7  -2    0.24    1.89
 -12  -7   2    1.65    1.46
  11   7  -2    0.26    1.16
  11   7  -2    1.58    1.67
 -11  -7   2   -0.34    1.16
 -11  -7   2    3.22    1.21
 -11  -7   2    2.06    1.56
  10   7  -2   18.78    1.73
  10   7  -2   22.91    2.31
 -10  -7   2   20.19    2.08
 -10  -7   2   21.62    1.70
 -10  -7   2   22.09    1.76
   9   7  -2   17.69    1.59
   9   7  -2   17.13    1.96
  -9  -7   2   22.02    1.63
  -9  -7   2   18.12    1.86
  -9  -7   2   17.00    1.48
   8   7  -2    2.44    0.96
   8   7  -2    1.91    0.38
   8   7  -2    2.59    1.11
   8   7  -2    4.13    1.29
  -8  -7   2    4.83    1.16
  -8  -7   2    1.03    0.85
  -8  -7   2    2.02    0.79
   7   7  -2    1.14    0.83
   7   7  -2    0.72    0.63
   7   7  -2    0.70    0.91
   7   7  -2    0.97    0.53
   7   7  -2    0.33    0.90
  -7  -7   2    1.78    0.73
  -7  -7   2    2.69    1.00
  -7  -7   2    2.38    0.71
   6   7  -2    8.12    0.95
   6   7  -2    8.36    1.29
   6   7  -2    8.59    1.02
   6   7  -2   10.14    1.29
   6   7  -2    9.99    1.09
  -6  -7   2    8.67    1.03
  -6  -7   2    8.40    1.30
  -6  -7   2    7.47    0.92
   5   7  -2    7.21    0.95
   5   7  -2    7.09    1.06
   5   7  -2    7.74    1.09
   5   7  -2    7.83    1.01
   5   7  -2    8.02    1.20
  -5  -7   2    8.23    1.12
  -5  -7   2    7.30    0.84
   4   7  -2    5.79    0.84
   4   7  -2    5.39    0.86
   4   7  -2    4.51    0.99
  -4  -7   2    5.27    0.68
  -4  -7   2    5.23    0.94
   3   7  -2    2.17    0.88
   3   7  -2    2.31    0.62
   3   7  -2    1.91    0.75
   3   7  -2    1.65    0.70
   3   7  -2    2.54    0.87
  -3  -7   2    2.14    0.64
   2   7  -2    9.18    1.05
   2   7  -2    8.48    1.06
   2   7  -2    9.44    1.28
   2   7  -2    8.33    1.08
   2   7  -2    9.82    0.70
  -2  -7   2    9.42    0.87
  -2  -7   2    8.78    0.82
   1   7  -2   19.88    1.43
   1   7  -2   21.28    1.15
   1   7  -2   17.35    1.54
   1   7  -2   20.14    0.85
   1   7  -2   19.96    0.87
  -1  -7   2   18.28    0.97
  -1  -7   2   17.38    1.20
   0   7  -2    0.77    0.40
   0   7  -2    0.43    0.39
   0   7  -2    0.62    0.48
   0   7  -2    0.44    0.79
   0   7  -2    0.78    0.84
   0  -7   2    0.24    0.37
   0  -7   2    0.53    0.46
  -1   7  -2   19.29    1.66
  -1   7  -2   17.17    0.85
  -1   7  -2   17.09    0.86
  -1   7  -2   17.60    1.50
  -1   7  -2   18.39    0.55
   1  -7   2   18.80    1.46
   1  -7   2   17.24    1.20
  -2   7  -2   12.43    1.38
  -2   7  -2   12.94    1.62
  -2   7  -2   13.90    0.85
   2  -7   2   14.69    1.42
   2  -7   2   12.73    1.12
  -3   7  -2    9.16    0.91
  -3   7  -2    8.41    1.69
  -3   7  -2   10.32    1.67
   3  -7   2   10.72    1.31
   3  -7   2    9.73    1.20
  -4   7  -2   -0.27    1.15
  -4   7  -2    0.07    0.76
  -4   7  -2    0.12    1.15
   4  -7   2   -0.71    0.85
   4  -7   2   -0.63    0.67
  -5   7  -2   15.74    1.40
  -5   7  -2   19.54    2.31
  -5   7  -2   21.10    2.29
   5  -7   2   20.70    1.97
   5  -7   2   18.09    1.86
  -6   7  -2   -0.69    1.54
  -6   7  -2    2.11    1.19
  -6   7  -2   -0.42    1.65
   6  -7   2    0.93    1.19
   6  -7   2    2.72    1.41
  12   6  -2    4.94    2.02
 -12  -6   2    5.25    1.51
  11   6  -2    5.02    1.75
 -11  -6   2    5.10    1.45
 -11  -6   2    6.68    1.49
  10   6  -2    1.21    1.35
 -10  -6   2    1.50    1.04
 -10  -6   2    1.75    1.19
 -10  -6   2   -0.11    0.99
   9   6  -2   16.31    1.87
  -9  -6   2   16.29    1.52
  -9  -6   2   16.54    1.47
  -9  -6   2   14.67    1.44
   8   6  -2    5.68    1.30
   8   6  -2    3.25    0.96
  -8  -6   2    5.56    0.96
  -8  -6   2    4.04    0.87
  -8  -6   2    4.88    1.20
   7   6  -2    0.73    0.91
   7   6  -2    0.31    0.77
   7   6  -2    0.29    0.65
   7   6  -2   -0.60    0.76
   7   6  -2   -0.32    0.37
   7   6  -2    0.11    0.34
  -7  -6   2    1.08    0.83
  -7  -6   2   -0.01    0.47
  -7  -6   2    0.03    0.55
   6   6  -2    1.01    0.66
   6   6  -2    0.50    0.53
   6   6  -2    0.88    0.71
   6   6  -2    0.13    0.46
   6   6  -2    0.21    0.51
   6   6  -2   -0.19    0.75
  -6  -6   2   -0.69    0.48
  -6  -6   2    0.13    0.50
  -6  -6   2    0.45    0.57
   5   6  -2   63.46    2.60
   5   6  -2   67.40    2.57
   5   6  -2   64.29    2.22
   5   6  -2   68.77    2.13
   5   6  -2   68.57    2.15
   5   6  -2   68.73    2.26
   5   6  -2   66.50    2.09
  -5  -6   2   67.98    2.45
  -5  -6   2   68.53    2.13
  -5  -6   2   67.80    2.11
   4   6  -2   11.19    1.09
   4   6  -2   10.42    1.00
   4   6  -2   10.06    1.27
   4   6  -2   10.24    0.92
   4   6  -2    9.28    0.85
   4   6  -2   11.18    0.89
  -4  -6   2    9.96    0.96
  -4  -6   2   11.11    0.76
   3   6  -2   -0.31    0.69
   3   6  -2    0.39    0.68
   3   6  -2   -0.15    0.47
   3   6  -2   -0.98    0.47
   3   6  -2   -1.13    0.42
   3   6  -2    0.07    0.42
   3   6  -2    0.02    0.69
  -3  -6   2    0.37    0.34
  -3  -6   2   -0.01    0.49
  -3  -6   2    0.19    0.37
   2   6  -2    0.96    0.55
   2   6  -2    0.59    0.59
   2   6  -2    1.38    0.81
   2   6  -2    0.69    0.55
   2   6  -2    1.67    0.44
   2   6  -2    1.18    0.64
  -2  -6   2    0.96    0.50
  -2  -6   2    1.66    0.53
   1   6  -2    6.33    0.55
   1   6  -2    6.37    0.71
   1   6  -2    6.29    0.56
   1   6  -2    6.84    1.07
   1   6  -2    6.49    0.93
  -1  -6   2    7.26    0.68
  -1  -6   2    7.47    0.64
   0   6  -2   17.04    0.79
   0   6  -2   18.56    1.45
   0   6  -2   16.70    0.76
   0   6  -2   17.52    0.81
   0   6  -2   18.12    1.32
   0  -6   2   17.31    0.77
   0  -6   2   17.64    1.11
   0  -6   2   17.44    1.14
  -1   6  -2    6.47    1.15
  -1   6  -2    6.45    1.09
  -1   6  -2    7.13    0.37
  -1   6  -2    6.26    0.61
   1  -6   2    6.33    0.91
   1  -6   2    6.59    0.83
  -2   6  -2   17.19    0.91
  -2   6  -2   16.68    1.54
  -2   6  -2   15.40    1.52
   2  -6   2   17.72    1.37
   2  -6   2   16.98    1.15
  -3   6  -2   26.66    1.94
  -3   6  -2   24.59    1.91
  -3   6  -2   26.43    1.21
   3  -6   2   26.05    1.26
   3  -6   2   24.45    1.56
   3  -6   2   20.76    1.44
  -4   6  -2   15.83    1.23
  -4   6  -2   17.11    1.84
  -4   6  -2   14.81    1.77
   4  -6   2   14.41    1.30
   4  -6   2   15.31    1.48
   4  -6   2   14.68    1.46
  -5   6  -2    2.05    1.18
  -5   6  -2    2.29    0.89
  -5   6  -2    1.20    1.28
   5  -6   2    0.79    0.94
   5  -6   2    0.98    0.92
  -6   6  -2    4.73    1.59
  -6   6  -2    5.12    1.67
  -6   6  -2    5.01    1.14
   6  -6   2    4.48    1.29
   6  -6   2    4.55    1.29
  -7   6  -2   -1.06    1.34
  -7   6  -2    1.14    1.29
  -7   6  -2    0.40    1.27
   7  -6   2   -0.30    1.30
   7  -6   2   -0.39    1.21
  12   5  -2    1.48    1.81
 -12  -5   2    3.37    1.45
  11   5  -2   21.06    2.37
  11   5  -2   16.44    1.26
 -11  -5   2   16.98    2.09
 -11  -5   2   19.56    2.01
  10   5  -2   15.61    1.21
  10   5  -2   18.37    2.04
 -10  -5   2   12.34    1.56
 -10  -5   2   19.05    1.68
   9   5  -2    1.36    0.68
   9   5  -2   -0.58    1.02
  -9  -5   2    0.84    0.83
  -9  -5   2    1.78    0.77
  -9  -5   2    1.72    1.11
   8   5  -2    2.15    0.69
   8   5  -2    3.54    1.05
  -8  -5   2    1.55    0.63
  -8  -5   2    2.13    0.76
  -8  -5   2    3.09    1.06
   7   5  -2    4.16    1.04
   7   5  -2    5.12    0.79
   7   5  -2    4.98    1.10
   7   5  -2    4.29    0.24
   7   5  -2    3.65    0.22
  -7  -5   2    4.73    0.90
  -7  -5   2    5.02    0.94
   6   5  -2    0.58    0.33
   6   5  -2    0.27    0.68
   6   5  -2   -0.10    0.62
   6   5  -2    0.96    0.37
   6   5  -2    0.26    0.53
  -6  -5   2    1.04    0.69
  -6  -5   2    1.06    0.47
  -6  -5   2    0.75    0.51
   5   5  -2   14.72    1.11
   5   5  -2   15.71    1.00
   5   5  -2   14.73    0.96
   5   5  -2   15.91    0.90
   5   5  -2   15.74    1.11
   5   5  -2   15.84    1.04
   5   5  -2   14.45    0.90
  -5  -5   2   16.92    0.97
  -5  -5   2   17.16    1.00
  -5  -5   2   15.54    1.17
   4   5  -2   14.55    0.87
   4   5  -2   12.63    0.94
   4   5  -2   10.69    1.06
   4   5  -2   12.40    0.87
   4   5  -2   14.10    0.92
   4   5  -2   13.02    0.89
   4   5  -2   14.28    0.91
  -4  -5   2   11.73    0.80
  -4  -5   2   12.42    0.79
   3   5  -2  137.43    3.60
   3   5  -2  143.38    3.33
   3   5  -2  146.43    3.58
   3   5  -2  142.97    3.40
   3   5  -2  136.16    3.47
   3   5  -2  139.09    3.39
  -3  -5   2  138.90    3.56
  -3  -5   2  136.71    3.28
   2   5  -2  105.23    2.78
   2   5  -2  104.29    2.70
   2   5  -2  103.02    2.74
   2   5  -2  107.68    2.51
   2   5  -2  102.24    2.84
   2   5  -2  101.10    2.89
  -2  -5   2  103.42    2.71
  -2  -5   2  106.04    2.74
   1   5  -2   86.22    2.38
   1   5  -2   85.24    2.12
   1   5  -2   84.82    2.54
   1   5  -2   86.44    2.08
   1   5  -2   85.23    2.58
   1   5  -2   88.65    2.70
   1   5  -2   87.67    2.26
  -1  -5   2   85.64    2.36
  -1  -5   2   85.63    2.53
  -1  -5   2   82.95    2.20
   0   5  -2    7.71    0.53
   0   5  -2    7.04    0.51
   0   5  -2    7.79    0.97
   0   5  -2    7.35    1.04
   0   5  -2    7.31    0.83
   0   5  -2    7.08    0.87
   0   5  -2    7.54    0.54
   0  -5   2    7.35    0.92
   0  -5   2    7.63    0.47
  -1   5  -2    9.76    1.12
  -1   5  -2    9.34    1.15
  -1   5  -2   10.99    0.40
  -1   5  -2   11.00    0.67
   1  -5   2   11.07    0.87
   1  -5   2   10.15    0.85
  -2   5  -2   43.92    2.08
  -2   5  -2   45.07    2.15
  -2   5  -2   45.82    1.45
   2  -5   2   44.27    1.43
   2  -5   2   40.77    1.82
   2  -5   2   45.59    1.75
  -3   5  -2   50.82    2.41
  -3   5  -2   57.15    1.79
  -3   5  -2   57.79    2.52
   3  -5   2   54.80    2.21
   3  -5   2   51.14    2.04
   3  -5   2   55.50    1.79
  -4   5  -2    0.22    0.56
  -4   5  -2   -0.23    0.86
  -4   5  -2    2.38    0.94
   4  -5   2   -0.47    0.73
   4  -5   2    0.91    0.59
   4  -5   2    0.67    0.70
  -5   5  -2   -0.77    0.98
  -5   5  -2    0.29    0.77
  -5   5  -2   -0.84    0.83
   5  -5   2   -0.83    0.73
   5  -5   2    0.49    0.79
  -6   5  -2    0.46    1.07
  -6   5  -2    1.58    0.89
  -6   5  -2   -0.12    1.16
   6  -5   2   -1.00    0.91
   6  -5   2    0.18    0.67
  -7   5  -2   -0.25    1.32
  -7   5  -2    0.75    1.10
  -7   5  -2    0.88    1.11
   7  -5   2    1.44    1.18
   7  -5   2    1.76    1.25
  -8   5  -2    6.04    1.75
  -8   5  -2    4.34    1.90
  -8   5  -2    8.40    1.60
   8  -5   2    4.66    1.60
   8  -5   2    5.58    1.53
  12   4  -2   16.60    2.47
 -12  -4   2   18.56    2.24
  11   4  -2   17.33    2.25
 -11  -4   2   17.44    1.65
 -11  -4   2   17.89    1.98
  10   4  -2    0.36    0.64
  10   4  -2   -0.51    1.10
 -10  -4   2   -0.17    1.00
 -10  -4   2   -0.36    0.93
   9   4  -2   36.34    1.44
   9   4  -2   38.07    2.29
  -9  -4   2   35.92    2.02
  -9  -4   2   37.37    1.98
   8   4  -2    4.74    0.72
   8   4  -2    3.95    1.10
  -8  -4   2    3.72    1.04
  -8  -4   2    4.34    0.96
  -8  -4   2    4.14    0.94
   7   4  -2   29.80    1.97
   7   4  -2   23.22    1.12
   7   4  -2   25.41    1.64
  -7  -4   2   23.40    1.53
  -7  -4   2   24.15    1.37
  -7  -4   2   24.42    1.42
   6   4  -2   35.75    1.36
   6   4  -2   35.83    0.97
   6   4  -2   36.16    1.68
   6   4  -2   36.11    1.78
  -6  -4   2   35.90    1.57
  -6  -4   2   37.57    1.76
  -6  -4   2   35.85    1.51
   5   4  -2    0.12    0.50
   5   4  -2    0.11    0.52
   5   4  -2    0.24    0.67
   5   4  -2   -0.24    0.38
   5   4  -2    0.30    0.87
   5   4  -2    0.18    0.28
  -5  -4   2    0.03    0.43
  -5  -4   2    0.16    0.38
  -5  -4   2    0.36    0.56
   4   4  -2   51.29    1.86
   4   4  -2   50.95    1.67
   4   4  -2   50.37    1.67
   4   4  -2   48.58    1.62
   4   4  -2   50.46    1.53
   4   4  -2   49.44    1.87
   4   4  -2   49.57    1.49
  -4  -4   2   51.53    1.64
  -4  -4   2   50.10    1.81
  -4  -4   2   48.35    1.59
   3   4  -2   58.82    1.71
   3   4  -2   58.76    1.92
   3   4  -2   60.81    1.74
   3   4  -2   59.42    1.71
   3   4  -2   57.71    1.70
   3   4  -2   60.37    1.78
  -3  -4   2   56.79    1.86
  -3  -4   2   57.26    1.74
  -3  -4   2   56.92    1.68
   2   4  -2  156.91    3.61
   2   4  -2  153.83    3.66
   2   4  -2  156.44    3.45
   2   4  -2  155.61    3.65
   2   4  -2  154.18    3.72
   2   4  -2  157.10    3.54
  -2  -4   2  154.12    3.46
  -2  -4   2  154.81    3.64
  -2  -4   2  151.49    3.55
   1   4  -2  252.11    5.54
   1   4  -2  252.83    5.69
   1   4  -2  254.85    5.41
   1   4  -2  250.34    5.56
   1   4  -2  252.61    5.20
   1   4  -2  254.01    5.35
  -1  -4   2  250.27    5.41
  -1  -4   2  248.06    5.30
  -1  -4   2  249.16    5.56
   0   4  -2    8.91    0.73
   0   4  -2    9.71    0.82
   0   4  -2    9.43    0.56
   0   4  -2    9.04    0.73
   0   4  -2    9.84    0.77
   0   4  -2    8.38    0.56
   0  -4   2   10.23    0.72
   0  -4   2    9.73    0.68
   0  -4   2    9.04    0.47
  -1   4  -2    7.94    0.57
  -1   4  -2    8.80    0.90
  -1   4  -2    9.16    1.06
  -1   4  -2   11.21    0.87
  -1   4  -2    8.33    0.32
  -1   4  -2    8.49    0.80
   1  -4   2    8.72    0.71
   1  -4   2    7.64    0.69
  -2   4  -2   34.02    1.63
  -2   4  -2   36.60    1.63
  -2   4  -2   34.99    1.73
  -2   4  -2   36.18    1.24
  -2   4  -2   35.85    1.77
   2  -4   2   35.92    1.22
   2  -4   2   36.57    1.48
   2  -4   2   35.38    1.83
  -3   4  -2  115.06    3.56
  -3   4  -2  117.75    2.97
  -3   4  -2  118.23    3.62
   3  -4   2  116.36    3.32
   3  -4   2  112.58    3.24
   3  -4   2  118.42    2.95
  -4   4  -2    0.86    0.60
  -4   4  -2    1.12    0.58
  -4   4  -2    2.20    0.68
   4  -4   2    1.08    0.56
   4  -4   2    1.98    0.62
   4  -4   2    1.76    0.72
  -5   4  -2   51.29    2.39
  -5   4  -2   50.36    1.92
  -5   4  -2   50.35    2.53
   5  -4   2   50.35    2.16
   5  -4   2   49.88    2.23
  -6   4  -2    1.63    1.12
  -6   4  -2    1.40    0.82
  -6   4  -2    2.21    1.09
   6  -4   2    1.41    0.79
   6  -4   2   -0.65    0.59
  -7   4  -2    2.18    1.08
  -7   4  -2    3.19    1.21
  -7   4  -2    4.55    1.44
   7  -4   2    3.17    1.07
   7  -4   2    0.79    0.81
  -8   4  -2    4.34    1.45
  -8   4  -2    1.95    1.22
  -8   4  -2    1.96    1.28
   8  -4   2    3.85    1.35
   8  -4   2    0.37    1.13
  -9   4  -2    4.14    1.53
  -9   4  -2    1.86    1.68
  -9   4  -2    4.32    1.92
   9  -4   2    1.82    1.38
   9  -4   2   -0.57    1.49
  12   3  -2    1.53    1.78
 -12  -3   2    0.04    1.65
  11   3  -2    4.31    1.54
 -11  -3   2    1.16    1.32
 -11  -3   2   -1.41    1.27
  10   3  -2    4.88    0.65
  10   3  -2    4.10    1.50
 -10  -3   2    4.99    1.28
 -10  -3   2    1.57    1.09
   9   3  -2    2.33    1.04
   9   3  -2    1.79    0.51
  -9  -3   2    1.06    0.95
  -9  -3   2    3.00    0.98
   8   3  -2   64.45    1.85
   8   3  -2   68.86    2.79
  -8  -3   2   65.58    2.55
  -8  -3   2   63.54    2.49
   7   3  -2   -0.16    0.51
   7   3  -2   -0.26    0.37
  -7  -3   2    0.08    0.63
  -7  -3   2    0.26    0.61
  -7  -3   2    0.75    0.71
   6   3  -2   36.26    1.71
   6   3  -2   37.80    0.97
   6   3  -2   37.02    1.24
   6   3  -2   36.23    1.74
  -6  -3   2   37.63    0.96
  -6  -3   2   36.51    1.60
  -6  -3   2   37.07    1.71
  -6  -3   2   33.75    1.70
  -6  -3   2   37.93    1.80
   5   3  -2   50.18    1.46
   5   3  -2   49.82    1.90
   5   3  -2   52.89    1.92
   5   3  -2   48.34    1.77
   5   3  -2   50.99    1.28
   5   3  -2   46.64    1.80
  -5  -3   2   49.58    1.73
  -5  -3   2   49.95    1.28
  -5  -3   2   52.55    1.93
  -5  -3   2   46.85    2.09
  -5  -3   2   45.02    1.86
   4   3  -2   34.75    1.35
   4   3  -2   36.38    1.17
   4   3  -2   35.82    1.37
   4   3  -2   34.00    1.49
   4   3  -2   34.86    1.44
   4   3  -2   34.36    1.15
  -4  -3   2   35.47    1.41
  -4  -3   2   35.65    1.31
  -4  -3   2   36.58    1.32
  -4  -3   2   36.00    1.08
   3   3  -2  335.66    7.02
   3   3  -2  328.98    6.67
   3   3  -2  330.82    6.80
   3   3  -2  336.05    6.81
   3   3  -2  325.05    6.62
   3   3  -2  323.71    6.95
  -3  -3   2  314.88    6.76
  -3  -3   2  316.30    6.94
  -3  -3   2  315.98    6.66
  -3  -3   2  319.13    6.80
   2   3  -2   36.56    1.11
   2   3  -2   35.83    1.19
   2   3  -2   35.60    1.15
   2   3  -2   37.10    1.27
   2   3  -2   37.07    1.13
   2   3  -2   36.18    1.21
  -2  -3   2   36.81    1.24
  -2  -3   2   35.47    1.13
  -2  -3   2   36.40    1.22
  -2  -3   2   34.81    1.22
   1   3  -2   18.23    0.89
   1   3  -2   16.79    0.66
   1   3  -2   18.58    0.84
   1   3  -2   17.99    0.73
   1   3  -2   18.52    0.77
   1   3  -2   16.84    0.76
  -1  -3   2   17.47    0.80
  -1  -3   2   16.90    0.71
  -1  -3   2   17.36    0.71
   0   3  -2  136.61    3.43
   0   3  -2  139.27    3.07
   0   3  -2  142.80    3.00
   0   3  -2  141.84    3.45
   0   3  -2  143.17    3.36
   0   3  -2  140.85    3.21
   0  -3   2  138.70    3.32
   0  -3   2  141.08    3.19
  -1   3  -2    2.48    0.61
  -1   3  -2    2.27    0.55
  -1   3  -2    2.59    0.42
  -1   3  -2    1.70    0.54
  -1   3  -2    2.15    0.16
  -1   3  -2    2.08    0.49
  -1   3  -2    2.01    0.17
   1  -3   2    2.62    0.46
   1  -3   2    1.97    0.46
   1  -3   2    3.08    0.41
  -2   3  -2   26.85    1.21
  -2   3  -2   26.46    1.03
  -2   3  -2   27.64    1.19
  -2   3  -2   26.64    1.34
  -2   3  -2   26.31    1.38
   2  -3   2   26.87    1.13
   2  -3   2   25.47    1.39
   2  -3   2   26.96    0.99
   2  -3   2   26.12    1.21
  -3   3  -2    0.22    0.49
  -3   3  -2    0.15    0.38
  -3   3  -2    1.28    0.69
  -3   3  -2   -0.20    0.62
  -3   3  -2   -0.17    0.59
  -3   3  -2   -0.22    0.36
   3  -3   2    0.03    0.42
   3  -3   2   -0.46    0.36
   3  -3   2   -0.59    0.77
  -4   3  -2   10.86    1.11
  -4   3  -2   10.82    1.06
  -4   3  -2   11.37    1.08
  -4   3  -2   13.66    1.09
  -4   3  -2   11.51    0.90
   4  -3   2   10.34    0.95
   4  -3   2   10.73    0.92
   4  -3   2   11.51    1.05
  -5   3  -2   33.36    1.96
  -5   3  -2   37.19    1.60
  -5   3  -2   35.74    1.85
   5  -3   2   34.59    1.79
   5  -3   2   34.07    1.69
   5  -3   2   37.08    1.74
   5  -3   2   37.46    0.98
   5  -3   2   36.96    0.95
  -6   3  -2   11.70    1.34
  -6   3  -2    9.96    1.24
  -6   3  -2    9.85    1.11
   6  -3   2   11.07    1.35
   6  -3   2   11.56    0.68
   6  -3   2   10.81    0.63
   6  -3   2   10.85    1.20
  -7   3  -2    1.21    0.88
  -7   3  -2    1.97    0.97
  -7   3  -2    2.98    1.07
   7  -3   2    2.87    0.88
   7  -3   2    2.66    0.55
   7  -3   2    2.56    0.63
   7  -3   2    1.03    0.86
  -8   3  -2   15.34    2.11
  -8   3  -2   17.98    1.75
  -8   3  -2   14.35    1.54
   8  -3   2   13.99    0.97
   8  -3   2   15.72    1.59
   8  -3   2   16.09    1.81
  -9   3  -2    3.84    1.67
  -9   3  -2    2.50    1.35
  -9   3  -2    4.64    1.46
   9  -3   2    3.32    1.21
   9  -3   2    2.70    1.24
 -10   3  -2    0.10    1.47
 -10   3  -2    2.56    1.60
  10  -3   2    3.08    1.85
  10  -3   2    6.36    1.76
  11   2  -2    4.10    1.60
 -11  -2   2    2.27    1.42
 -11  -2   2    4.72    1.51
  10   2  -2    1.27    1.27
  10   2  -2    0.31    0.52
 -10  -2   2    0.44    1.00
 -10  -2   2   -0.94    1.13
   9   2  -2    1.98    1.05
   9   2  -2    0.16    0.43
  -9  -2   2   -0.40    0.88
  -9  -2   2    0.76    0.86
  -9  -2   2   -0.07    0.62
  -9  -2   2    0.55    0.32
   8   2  -2  117.80    2.82
   8   2  -2  118.27    3.89
  -8  -2   2  124.88    3.87
  -8  -2   2  125.70    2.74
  -8  -2   2  122.72    2.89
  -8  -2   2  117.99    3.67
   7   2  -2    1.84    0.38
   7   2  -2    2.27    0.79
  -7  -2   2    1.04    0.65
  -7  -2   2    1.57    0.44
  -7  -2   2    2.01    0.74
  -7  -2   2    1.81    0.37
   6   2  -2   32.46    1.02
   6   2  -2   32.84    1.64
   6   2  -2   31.77    1.74
  -6  -2   2   33.66    1.52
  -6  -2   2   33.42    1.02
  -6  -2   2   33.50    1.57
  -6  -2   2   32.43    1.76
  -6  -2   2   33.85    1.06
   5   2  -2   34.57    1.53
   5   2  -2   34.66    0.99
   5   2  -2   33.86    1.48
   5   2  -2   29.72    1.35
   5   2  -2   30.76    1.44
  -5  -2   2   33.64    1.00
  -5  -2   2   33.23    1.52
  -5  -2   2   34.34    1.43
  -5  -2   2   27.82    1.43
  -5  -2   2   33.93    1.48
   4   2  -2    4.57    0.66
   4   2  -2    6.11    0.81
   4   2  -2    4.01    0.35
   4   2  -2    4.36    0.67
   4   2  -2    3.58    0.40
   4   2  -2    4.34    0.53
  -4  -2   2    4.21    0.37
  -4  -2   2    3.91    0.59
  -4  -2   2    4.64    0.62
  -4  -2   2    4.47    0.68
  -4  -2   2    5.14    0.70
   3   2  -2    3.71    0.51
   3   2  -2    3.86    0.55
   3   2  -2    4.22    0.64
   3   2  -2    2.75    0.32
   3   2  -2    3.62    0.29
   3   2  -2    4.10    0.50
  -3  -2   2    2.99    0.47
  -3  -2   2    4.30    0.53
  -3  -2   2    4.01    0.55
  -3  -2   2    3.52    0.35
   2   2  -2   54.79    1.51
   2   2  -2   52.96    1.43
   2   2  -2   54.54    1.57
   2   2  -2   49.80    1.39
   2   2  -2   55.39    1.47
  -2  -2   2   53.17    1.50
  -2  -2   2   54.13    1.45
  -2  -2   2   52.28    1.54
  -2  -2   2   53.70    1.44
   1   2  -2  243.46    4.97
   1   2  -2  242.48    5.05
   1   2  -2  238.78    4.83
   1   2  -2  237.66    4.89
   1   2  -2  243.29    5.03
   1   2  -2  238.21    4.93
  -1  -2   2  237.77    5.04
  -1  -2   2  232.34    4.92
  -1  -2   2  236.84    4.84
  -1  -2   2  238.25    5.04
  -1  -2   2  237.82    4.91
   0   2  -2   17.06    0.64
   0   2  -2   17.07    0.71
   0   2  -2   17.65    0.66
   0   2  -2   17.60    0.81
   0   2  -2   16.45    0.58
   0  -2   2   16.93    0.82
   0  -2   2   16.32    0.62
   0  -2   2   16.94    0.74
  -1   2  -2   14.58    0.63
  -1   2  -2   16.09    0.43
  -1   2  -2   15.68    0.69
  -1   2  -2   15.85    0.88
  -1   2  -2   15.50    0.42
  -1   2  -2   15.88    0.80
  -1   2  -2   16.07    0.84
   1  -2   2   16.09    0.65
   1  -2   2   15.60    0.79
   1  -2   2   14.64    0.69
  -2   2  -2  242.26    5.25
  -2   2  -2  254.97    5.50
  -2   2  -2  248.60    5.44
  -2   2  -2  245.17    5.64
  -2   2  -2  253.88    5.53
   2  -2   2  241.64    5.38
   2  -2   2  253.43    5.67
   2  -2   2  245.38    5.47
   2  -2   2  254.85    5.26
  -3   2  -2    5.82    0.59
  -3   2  -2    6.70    0.88
  -3   2  -2    6.85    0.77
  -3   2  -2    5.23    0.62
  -3   2  -2    7.17    0.80
   3  -2   2    6.75    0.88
   3  -2   2    7.76    0.65
   3  -2   2    6.09    0.28
   3  -2   2    4.16    0.53
   3  -2   2    7.15    0.72
  -4   2  -2    2.77    0.87
  -4   2  -2    2.69    0.66
  -4   2  -2    2.35    0.57
  -4   2  -2    2.54    0.74
  -4   2  -2    2.47    0.72
  -4   2  -2    2.51    0.70
   4  -2   2    1.08    0.68
   4  -2   2    2.61    0.60
   4  -2   2    3.34    0.38
   4  -2   2    2.64    0.64
   4  -2   2    2.42    0.62
  -5   2  -2   62.79    2.51
  -5   2  -2   57.02    2.33
  -5   2  -2   62.84    2.36
  -5   2  -2   63.61    2.28
  -5   2  -2   62.44    2.27
   5  -2   2   65.97    1.70
   5  -2   2   64.23    2.24
   5  -2   2   65.11    2.19
   5  -2   2   65.55    2.31
  -6   2  -2   47.39    2.33
  -6   2  -2   51.89    2.04
  -6   2  -2   51.07    2.12
  -6   2  -2   51.39    2.32
   6  -2   2   50.85    2.16
   6  -2   2   48.98    2.03
   6  -2   2   53.53    1.62
  -7   2  -2   34.80    1.83
  -7   2  -2   34.63    2.05
  -7   2  -2   37.17    1.88
   7  -2   2   35.23    2.06
   7  -2   2   36.99    1.83
   7  -2   2   36.70    1.50
  -8   2  -2    0.36    0.88
  -8   2  -2   -0.18    1.06
  -8   2  -2    0.26    0.90
   8  -2   2    1.98    1.06
   8  -2   2    0.28    0.84
   8  -2   2    0.00    0.71
  -9   2  -2    2.16    1.32
  -9   2  -2    0.43    1.05
  -9   2  -2   -0.91    1.04
   9  -2   2    0.21    1.09
   9  -2   2   -0.83    0.82
   9  -2   2   -0.12    1.15
 -10   2  -2   11.38    1.84
 -10   2  -2   11.55    1.97
 -10   2  -2   10.26    1.67
  10  -2   2   12.34    1.71
  10  -2   2   13.44    1.45
  10  -2   2   10.67    1.98
  11   1  -2    7.54    1.99
  11   1  -2    9.35    2.02
 -11  -1   2    8.71    2.02
 -11  -1   2    8.19    1.81
  10   1  -2    4.90    0.63
  10   1  -2    3.12    1.40
 -10  -1   2    5.86    1.51
 -10  -1   2    2.83    1.25
 -10  -1   2    5.27    0.74
   9   1  -2   28.51    2.07
   9   1  -2   26.88    1.10
  -9  -1   2   26.44    2.02
  -9  -1   2   29.09    1.35
  -9  -1   2   28.40    1.49
  -9  -1   2   27.47    1.25
  -9  -1   2   28.68    1.84
   8   1  -2   -0.12    0.39
   8   1  -2    1.05    0.92
  -8  -1   2    1.13    0.52
  -8  -1   2   -0.41    0.71
  -8  -1   2   -0.19    0.56
  -8  -1   2   -0.28    0.81
   7   1  -2   36.70    1.91
   7   1  -2   36.51    1.15
  -7  -1   2   35.42    1.31
  -7  -1   2   34.65    1.71
  -7  -1   2   36.94    1.91
  -7  -1   2   35.63    1.23
   6   1  -2   11.09    0.85
   6   1  -2   11.43    1.09
   6   1  -2   11.24    0.55
  -6  -1   2   12.00    1.09
  -6  -1   2   10.87    0.70
  -6  -1   2    9.88    0.59
  -6  -1   2   10.42    0.94
   5   1  -2   32.53    1.15
   5   1  -2   32.87    1.45
   5   1  -2   31.86    1.46
   5   1  -2   29.73    1.45
   5   1  -2   32.60    1.60
   5   1  -2   30.89    0.88
  -5  -1   2   32.66    1.10
  -5  -1   2   32.19    1.53
  -5  -1   2   32.92    0.93
  -5  -1   2   31.25    1.46
   4   1  -2    3.39    0.42
   4   1  -2    2.27    0.62
   4   1  -2    3.96    0.68
   4   1  -2    3.10    0.59
   4   1  -2    3.88    0.63
   4   1  -2    3.07    0.24
  -4  -1   2    3.20    0.52
  -4  -1   2    3.92    0.63
  -4  -1   2    2.89    0.25
  -4  -1   2    2.62    0.51
  -4  -1   2    2.54    0.36
   3   1  -2   50.62    1.53
   3   1  -2   48.54    1.45
   3   1  -2   51.29    1.52
   3   1  -2   51.29    1.62
   3   1  -2   52.16    1.60
   3   1  -2   50.79    1.08
  -3  -1   2   53.22    1.58
  -3  -1   2   50.26    1.35
  -3  -1   2   51.07    1.51
  -3  -1   2   51.07    1.61
   2   1  -2   43.08    1.20
   2   1  -2   41.39    1.24
   2   1  -2   40.35    1.26
   2   1  -2   40.53    0.89
   2   1  -2   37.56    1.20
   2   1  -2   39.94    0.90
   2   1  -2   41.47    1.18
  -2  -1   2   40.32    1.18
  -2  -1   2   40.05    1.12
  -2  -1   2   41.84    1.18
  -2  -1   2   41.29    1.28
   1   1  -2   87.66    1.94
   1   1  -2   84.31    1.83
   1   1  -2   78.20    2.08
   1   1  -2   85.27    2.02
  -1  -1   2   86.64    1.96
  -1  -1   2   83.98    1.82
  -1  -1   2   86.76    2.04
  -1  -1   2   84.06    1.99
   0   1  -2  181.72    3.73
   0   1  -2  185.80    3.88
   0   1  -2  171.94    3.90
   0   1  -2  182.66    3.90
   0   1  -2  181.85    3.63
   0  -1   2  181.13    3.88
   0  -1   2  178.61    3.62
   0  -1   2  186.65    3.88
   0  -1   2  184.80    3.80
  -1   1  -2   90.20    1.92
  -1   1  -2   90.42    2.29
  -1   1  -2   92.22    2.21
  -1   1  -2   90.80    2.23
  -1   1  -2   91.54    2.10
  -1   1  -2   92.44    2.10
   1  -1   2   92.56    2.08
   1  -1   2   90.15    2.19
   1  -1   2   89.00    1.91
   1  -1   2   95.02    2.11
   1  -1   2   90.81    2.23
  -2   1  -2   11.49    0.62
  -2   1  -2   10.65    0.40
  -2   1  -2    9.44    0.58
  -2   1  -2   11.54    0.67
  -2   1  -2   11.13    0.64
  -2   1  -2    9.81    0.72
   2  -1   2   11.03    0.40
   2  -1   2   11.44    0.64
   2  -1   2   11.02    0.76
   2  -1   2   10.49    0.66
   2  -1   2    9.64    0.60
   2  -1   2   11.01    0.60
  -3   1  -2   36.43    1.46
  -3   1  -2   36.87    1.30
  -3   1  -2   35.86    1.23
  -3   1  -2   38.11    1.35
  -3   1  -2   36.52    1.00
  -3   1  -2   37.17    1.37
   3  -1   2   36.25    1.00
   3  -1   2   36.18    1.42
   3  -1   2   33.00    1.29
   3  -1   2   35.49    1.21
   3  -1   2   34.83    1.33
  -4   1  -2  446.51    9.10
  -4   1  -2  439.64    9.20
  -4   1  -2  417.95    8.68
  -4   1  -2  433.97    9.31
  -4   1  -2  435.11    9.40
  -4   1  -2  431.09    9.09
   4  -1   2  428.35    9.23
   4  -1   2  439.80    9.08
   4  -1   2  426.94    9.14
   4  -1   2  444.92    9.46
   4  -1   2  440.23    8.71
  -5   1  -2    8.50    1.00
  -5   1  -2    9.35    0.89
  -5   1  -2    9.07    1.01
  -5   1  -2    9.60    0.62
  -5   1  -2    9.87    0.95
  -5   1  -2    8.88    0.93
   5  -1   2   10.71    0.90
   5  -1   2    9.99    0.98
   5  -1   2    7.64    1.20
   5  -1   2   10.21    0.71
   5  -1   2   10.58    0.86
  -6   1  -2   19.95    1.48
  -6   1  -2   21.16    1.28
  -6   1  -2   19.96    1.27
  -6   1  -2   20.47    1.48
  -6   1  -2   18.97    1.32
  -6   1  -2   18.95    0.96
   6  -1   2   19.63    1.41
   6  -1   2   20.33    1.07
   6  -1   2   19.75    1.27
  -7   1  -2   -0.62    0.50
  -7   1  -2   -0.27    0.83
  -7   1  -2   -0.35    0.94
  -7   1  -2   -0.58    0.58
   7  -1   2    0.49    0.62
   7  -1   2    0.73    0.84
   7  -1   2    0.23    0.77
  -8   1  -2    4.55    1.07
  -8   1  -2    6.13    1.38
  -8   1  -2    5.67    0.99
  -8   1  -2    4.04    1.42
   8  -1   2    6.67    1.30
   8  -1   2    5.48    1.04
   8  -1   2    7.30    1.25
  -9   1  -2    1.49    0.94
  -9   1  -2    2.72    1.15
  -9   1  -2    3.73    1.28
   9  -1   2    1.76    1.18
   9  -1   2    2.88    1.09
 -10   1  -2   -1.16    0.98
 -10   1  -2   -0.58    1.33
 -10   1  -2    0.76    1.20
  10  -1   2    0.05    1.31
  10  -1   2    0.73    1.16
 -11   1  -2   17.86    2.30
 -11   1  -2   19.15    2.56
 -11   1  -2   16.66    1.96
  11  -1   2   15.39    2.04
  11  -1   2   23.16    2.07
  11   0  -2    9.14    1.89
  11   0  -2   12.54    2.11
 -11   0   2    8.83    1.70
 -11   0   2    9.77    2.09
  10   0  -2    9.70    1.71
  10   0  -2    5.87    1.71
 -10   0   2    9.11    1.85
 -10   0   2    8.31    1.54
   9   0  -2    3.08    1.29
   9   0  -2    1.10    1.21
   9   0  -2    3.81    0.67
  -9   0   2    6.07    1.26
  -9   0   2    4.03    1.31
  -9   0   2    2.57    0.85
   8   0  -2    3.91    0.59
   8   0  -2    3.27    1.12
  -8   0   2    3.97    0.78
  -8   0   2    4.74    1.07
  -8   0   2    4.94    1.06
  -8   0   2    4.60    0.79
   7   0  -2   14.63    0.78
   7   0  -2   13.40    1.32
  -7   0   2   13.48    1.02
  -7   0   2   13.89    0.94
  -7   0   2   13.66    1.22
  -7   0   2   16.59    1.48
   6   0  -2   21.38    1.23
   6   0  -2   19.63    0.81
   6   0  -2   17.74    1.53
   6   0  -2   18.48    1.32
  -6   0   2   19.10    1.12
  -6   0   2   17.98    0.88
  -6   0   2   17.57    1.03
  -6   0   2   17.38    1.37
   5   0  -2   98.17    2.81
   5   0  -2   94.02    2.75
   5   0  -2  100.14    3.45
   5   0  -2  100.13    2.22
   5   0  -2   99.68    2.91
   5   0  -2  100.21    2.63
  -5   0   2   96.54    3.00
  -5   0   2   84.05    2.87
  -5   0   2   95.89    2.95
  -5   0   2   99.06    2.27
  -5   0   2   99.07    2.56
   4   0  -2    2.39    0.59
   4   0  -2    2.20    0.51
   4   0  -2    1.60    0.55
   4   0  -2    2.26    0.50
   4   0  -2    2.03    0.46
   4   0  -2    2.01    0.26
  -4   0   2    1.28    0.46
  -4   0   2    2.79    0.45
  -4   0   2    2.27    0.29
  -4   0   2    2.62    0.59
  -4   0   2    2.67    0.63
   3   0  -2  515.50   10.57
   3   0  -2  526.27   10.49
   3   0  -2  545.90   10.82
   3   0  -2  537.03   10.57
   3   0  -2  533.28   10.61
  -3   0   2  544.78   10.64
  -3   0   2  499.75   10.07
  -3   0   2  518.52   10.77
  -3   0   2  511.44   10.46
  -3   0   2  502.56   10.50
   2   0  -2  211.84    4.35
   2   0  -2  208.42    4.36
   2   0  -2  200.89    4.30
   2   0  -2  209.72    4.52
  -2   0   2  200.91    4.49
  -2   0   2  198.71    4.31
  -2   0   2  208.33    4.34
  -2   0   2  200.19    4.33
   1   0  -2  200.13    3.99
   1   0  -2  207.79    4.31
   1   0  -2  210.75    4.32
   1   0  -2  202.49    4.07
   1   0  -2  208.63    4.19
  -1   0   2  206.56    4.20
  -1   0   2  206.95    4.09
  -1   0   2  210.69    4.28
  -1   0   2  185.22    3.97
  -1   0   2  204.81    4.31
   0   0  -2    8.01    0.36
   0   0  -2    7.57    0.43
   0   0  -2    7.93    0.38
   0   0  -2    8.33    0.41
   0   0   2    7.61    0.40
   0   0   2    7.46    0.38
   0   0   2    7.21    0.39
   0   0   2    7.56    0.36
  -1   0  -2   24.43    0.77
  -1   0  -2   23.84    0.71
  -1   0  -2   23.24    0.79
  -1   0  -2   24.84    0.70
  -1   0  -2   24.18    0.76
   1   0   2   24.56    0.80
   1   0   2   24.02    0.69
   1   0   2   23.38    0.79
   1   0   2   25.06    0.72
  -2   0  -2   -0.28    0.28
  -2   0  -2   -0.09    0.19
  -2   0  -2   -0.07    0.30
  -2   0  -2    0.15    0.22
  -2   0  -2    0.46    0.31
  -2   0  -2    0.32    0.30
   2   0   2   -0.05    0.24
   2   0   2    0.21    0.23
   2   0   2   -0.52    0.27
   2   0   2   -0.10    0.22
   2   0   2   -0.64    0.29
   2   0   2   -0.13    0.22
  -3   0  -2  242.08    5.29
  -3   0  -2  236.04    4.99
  -3   0  -2  242.52    5.23
  -3   0  -2  244.72    5.28
  -3   0  -2  244.04    5.07
  -3   0  -2  233.62    5.16
   3   0   2  246.66    5.18
   3   0   2  236.57    5.24
   3   0   2  237.81    5.22
   3   0   2  236.67    5.07
   3   0   2  238.40    4.99
   3   0   2  244.86    5.30
  -4   0  -2   86.20    2.51
  -4   0  -2   86.38    2.41
  -4   0  -2   90.38    2.27
  -4   0  -2   88.39    2.52
  -4   0  -2   89.04    2.45
  -4   0  -2   87.15    2.21
   4   0   2   86.24    2.41
   4   0   2   86.74    2.51
   4   0   2   88.16    2.55
   4   0   2   90.14    2.23
   4   0   2   89.63    2.43
  -5   0  -2   61.82    2.04
  -5   0  -2   65.09    2.22
  -5   0  -2   65.42    2.14
  -5   0  -2   66.51    1.89
  -5   0  -2   64.13    2.30
  -5   0  -2   68.67    1.93
   5   0   2   61.71    2.03
   5   0   2   64.79    2.24
   5   0   2   64.39    2.12
   5   0   2   67.30    1.93
  -6   0  -2   42.13    1.53
  -6   0  -2   43.21    1.57
  -6   0  -2   41.92    1.76
  -6   0  -2   43.01    1.90
  -6   0  -2   42.55    1.56
  -6   0  -2   40.48    1.83
   6   0   2   42.27    1.91
   6   0   2   40.45    1.66
   6   0   2   43.00    1.60
  -7   0  -2    2.38    0.80
  -7   0  -2    2.14    0.79
  -7   0  -2    1.66    0.59
  -7   0  -2    1.03    0.65
  -7   0  -2    1.37    0.60
  -7   0  -2    2.88    1.02
   7   0   2    2.05    0.78
   7   0   2    1.25    0.64
   7   0   2    0.90    0.85
  -8   0  -2    2.48    0.77
  -8   0  -2    3.91    1.03
  -8   0  -2    2.69    1.00
  -8   0  -2    3.09    0.92
  -8   0  -2    2.56    0.74
   8   0   2    2.49    0.82
   8   0   2    3.61    1.06
   8   0   2    4.69    1.33
  -9   0  -2    8.91    1.07
  -9   0  -2    8.82    1.54
  -9   0  -2    7.73    1.19
  -9   0  -2   10.23    1.30
   9   0   2    8.81    1.25
   9   0   2    6.95    1.55
 -10   0  -2   -0.46    1.39
 -10   0  -2    1.57    1.24
 -10   0  -2    2.78    1.23
  10   0   2    0.26    1.04
  10   0   2    1.44    1.24
 -11   0  -2    9.40    1.58
 -11   0  -2    8.82    1.90
  11   0   2    6.30    1.57
  11   0   2    6.55    1.60
  10  -1  -2   14.26    2.14
  10  -1  -2   16.27    2.09
 -10   1   2   11.81    1.47
 -10   1   2   11.87    2.16
 -10   1   2   13.49    1.84
   9  -1  -2   14.08    1.85
   9  -1  -2   16.29    1.69
  -9   1   2   17.14    1.71
  -9   1   2   15.99    2.03
  -9   1   2   13.95    1.49
   8  -1  -2    1.93    1.07
   8  -1  -2    0.85    0.57
   8  -1  -2    0.32    0.98
  -8   1   2   -0.40    0.82
  -8   1   2    0.26    0.75
  -8   1   2    0.45    1.03
  -8   1   2    0.46    0.91
   7  -1  -2   69.63    2.51
   7  -1  -2   71.87    2.77
  -7   1   2   65.76    2.85
  -7   1   2   67.21    2.13
  -7   1   2   64.45    2.63
  -7   1   2   67.70    2.47
   6  -1  -2    7.05    1.02
   6  -1  -2    8.21    1.11
   6  -1  -2    8.58    0.67
   6  -1  -2    8.76    1.20
  -6   1   2    9.38    1.07
  -6   1   2    7.34    0.81
  -6   1   2    8.10    0.97
  -6   1   2    7.51    1.12
   5  -1  -2  263.58    5.99
   5  -1  -2  260.41    5.50
   5  -1  -2  266.15    6.17
   5  -1  -2  264.28    6.02
   5  -1  -2  259.02    6.04
  -5   1   2  269.42    5.62
  -5   1   2  258.74    6.39
  -5   1   2  255.79    5.96
  -5   1   2  263.37    6.74
  -5   1   2  265.98    5.98
   4  -1  -2    3.95    0.68
   4  -1  -2    4.52    0.69
   4  -1  -2    3.70    0.64
   4  -1  -2    3.77    0.69
   4  -1  -2    4.40    0.40
   4  -1  -2    4.67    0.70
   4  -1  -2    4.63    0.78
  -4   1   2    4.49    0.49
  -4   1   2    4.99    0.63
  -4   1   2    4.71    0.63
  -4   1   2    4.01    0.75
   3  -1  -2  128.77    3.01
   3  -1  -2  126.25    3.34
   3  -1  -2  124.61    3.07
   3  -1  -2  122.78    3.08
   3  -1  -2  124.34    2.72
   3  -1  -2  132.99    3.18
  -3   1   2  125.56    3.28
  -3   1   2  122.93    2.95
  -3   1   2  123.07    3.09
  -3   1   2  125.60    3.13
   2  -1  -2  297.80    6.19
   2  -1  -2  296.34    5.99
   2  -1  -2  290.39    6.11
   2  -1  -2  296.62    6.30
   2  -1  -2  290.94    6.05
  -2   1   2  286.35    6.16
  -2   1   2  297.07    6.09
  -2   1   2  288.62    5.80
  -2   1   2  289.30    6.28
  -2   1   2  283.64    5.95
   1  -1  -2  156.00    3.54
   1  -1  -2  173.83    3.71
   1  -1  -2  170.46    3.71
   1  -1  -2  167.56    3.48
   1  -1  -2  165.69    3.61
  -1   1   2  169.34    3.63
  -1   1   2  161.70    3.45
  -1   1   2  167.48    3.46
  -1   1   2  167.82    3.69
  -1   1   2  169.59    3.71
   0  -1  -2  224.01    4.66
   0  -1  -2  236.48    4.65
   0  -1  -2  228.70    4.60
   0  -1  -2  219.06    4.44
   0  -1  -2  234.12    4.73
   0   1   2  221.07    4.76
   0   1   2  221.32    4.44
   0   1   2  227.16    4.61
   0   1   2  221.66    4.61
   0   1   2  227.44    4.72
  -1  -1  -2   12.52    0.56
  -1  -1  -2   10.96    0.48
  -1  -1  -2   11.26    0.42
  -1  -1  -2   11.10    0.51
   1   1   2   11.48    0.48
   1   1   2   11.86    0.54
   1   1   2   10.90    0.49
   1   1   2   11.29    0.45
   1   1   2   11.33    0.43
  -2  -1  -2    4.93    0.35
  -2  -1  -2    4.87    0.45
  -2  -1  -2    5.83    0.49
  -2  -1  -2    5.36    0.44
  -2  -1  -2    4.66    0.39
  -2  -1  -2    6.85    0.51
   2   1   2    6.29    0.53
   2   1   2    6.58    0.49
   2   1   2    5.13    0.46
   2   1   2    6.01    0.48
   2   1   2    4.56    0.35
  -3  -1  -2    2.22    0.38
  -3  -1  -2    1.30    0.42
  -3  -1  -2    1.65    0.41
  -3  -1  -2    1.23    0.26
  -3  -1  -2    1.30    0.32
  -3  -1  -2    1.17    0.39
   3   1   2    1.77    0.38
   3   1   2    1.34    0.34
   3   1   2    1.64    0.40
   3   1   2    1.52    0.27
   3   1   2    1.52    0.34
   3   1   2    1.70    0.43
  -4  -1  -2   44.48    1.44
  -4  -1  -2   42.98    1.49
  -4  -1  -2   43.86    1.50
  -4  -1  -2   44.32    1.61
  -4  -1  -2   44.21    1.46
   4   1   2   43.16    1.45
   4   1   2   42.25    1.53
   4   1   2   42.07    1.48
   4   1   2   45.29    1.50
   4   1   2   42.76    1.41
   4   1   2   43.13    1.22
  -5  -1  -2    0.26    0.47
  -5  -1  -2   -0.02    0.48
  -5  -1  -2   -0.36    0.40
  -5  -1  -2    0.01    0.42
  -5  -1  -2   -0.17    0.63
  -5  -1  -2   -0.35    0.27
   5   1   2    0.37    0.39
   5   1   2    0.62    0.55
   5   1   2   -0.32    0.49
   5   1   2   -0.10    0.43
   5   1   2   -0.90    0.48
  -6  -1  -2    5.11    0.77
  -6  -1  -2    4.37    0.84
  -6  -1  -2    4.04    0.57
  -6  -1  -2    4.56    0.71
  -6  -1  -2    4.64    0.77
  -6  -1  -2    4.73    0.56
   6   1   2    3.37    0.89
   6   1   2    4.03    0.71
   6   1   2    3.43    0.71
   6   1   2    5.34    0.82
  -7  -1  -2    1.04    0.41
  -7  -1  -2    1.06    0.67
  -7  -1  -2    1.25    0.64
  -7  -1  -2    1.26    0.47
  -7  -1  -2    0.10    0.81
   7   1   2    0.36    0.80
   7   1   2    0.97    0.73
  -8  -1  -2    9.01    1.10
  -8  -1  -2    9.38    0.90
  -8  -1  -2   10.33    1.22
  -8  -1  -2   11.07    0.84
  -8  -1  -2   10.55    1.37
   8   1   2    9.05    1.09
   8   1   2   11.55    1.48
  -9  -1  -2    1.39    0.94
  -9  -1  -2   -0.77    0.67
  -9  -1  -2    0.87    0.93
  -9  -1  -2   -0.79    0.50
  -9  -1  -2    0.23    0.87
   9   1   2    0.30    0.79
   9   1   2   -0.08    0.93
 -10  -1  -2   12.56    1.73
 -10  -1  -2    9.74    1.57
 -10  -1  -2   10.81    0.96
  10   1   2   11.20    1.64
  10   1   2    9.49    1.44
 -11  -1  -2    4.60    1.42
 -11  -1  -2    6.68    1.57
  11   1   2    5.10    1.29
  11   1   2    3.47    1.34
 -12  -1  -2   -2.00    1.42
 -12  -1  -2    0.62    1.58
  12   1   2   -0.26    1.41
  12   1   2   -2.53    1.33
  10  -2  -2    1.76    1.55
  10  -2  -2   -0.23    1.47
 -10   2   2    1.08    1.31
 -10   2   2   -0.18    1.37
   9  -2  -2    4.85    1.41
   9  -2  -2    8.23    1.55
  -9   2   2    5.44    1.41
  -9   2   2    5.80    1.29
  -9   2   2    5.46    1.67
   8  -2  -2   49.62    2.28
   8  -2  -2   43.78    2.44
  -8   2   2   42.67    2.13
  -8   2   2   41.89    2.12
  -8   2   2   48.60    2.80
   7  -2  -2    7.75    1.31
   7  -2  -2    6.17    0.82
   7  -2  -2    6.40    1.08
  -7   2   2    5.34    1.03
  -7   2   2    7.09    1.14
  -7   2   2    5.61    1.07
  -7   2   2    5.26    1.29
   6  -2  -2    7.15    0.74
   6  -2  -2    6.05    1.05
   6  -2  -2    6.00    1.24
   6  -2  -2    6.85    0.97
  -6   2   2    5.86    0.96
  -6   2   2    4.92    0.91
  -6   2   2    4.77    1.10
  -6   2   2    6.65    0.99
   5  -2  -2   21.35    1.61
   5  -2  -2   17.49    1.26
   5  -2  -2   18.10    1.31
   5  -2  -2   19.38    0.96
   5  -2  -2   19.97    1.26
   5  -2  -2   20.18    1.17
  -5   2   2   18.84    1.12
  -5   2   2   19.78    1.09
  -5   2   2   19.38    1.47
   4  -2  -2    9.16    0.83
   4  -2  -2    9.52    0.84
   4  -2  -2    8.55    0.74
   4  -2  -2   11.06    1.07
   4  -2  -2    9.22    0.65
  -4   2   2    9.22    1.10
  -4   2   2    9.83    0.90
  -4   2   2   10.02    0.72
  -4   2   2    9.21    0.77
  -4   2   2    9.09    1.04
   3  -2  -2   55.50    2.04
   3  -2  -2   58.88    2.02
   3  -2  -2   59.27    1.78
   3  -2  -2   58.27    1.87
   3  -2  -2   61.89    1.74
  -3   2   2   58.16    1.94
  -3   2   2   60.95    1.68
  -3   2   2   57.37    1.66
  -3   2   2   60.02    1.98
  -3   2   2   60.63    2.09
   2  -2  -2   19.50    1.05
   2  -2  -2   19.05    0.88
   2  -2  -2   20.77    1.11
   2  -2  -2   19.52    0.86
   2  -2  -2   21.20    0.79
  -2   2   2   20.37    0.80
  -2   2   2   18.88    1.02
  -2   2   2   18.88    0.73
  -2   2   2   19.36    1.01
  -2   2   2   19.79    0.93
   1  -2  -2   63.47    1.81
   1  -2  -2   61.93    1.65
   1  -2  -2   65.10    1.87
   1  -2  -2   61.78    1.62
  -1   2   2   62.29    1.85
  -1   2   2   63.24    1.60
  -1   2   2   60.86    1.78
  -1   2   2   64.16    1.66
  -1   2   2   60.64    1.45
  -1   2   2   62.57    1.66
   0  -2  -2  119.38    2.81
   0  -2  -2  117.94    2.67
   0  -2  -2  118.42    2.56
   0  -2  -2  116.46    2.67
   0  -2  -2  116.87    2.40
   0   2   2  116.78    2.66
   0   2   2  116.96    2.72
   0   2   2  115.55    2.81
   0   2   2  117.35    2.57
   0   2   2  115.89    2.66
  -1  -2  -2   -0.37    0.15
  -1  -2  -2   -0.20    0.19
  -1  -2  -2    0.21    0.16
  -1  -2  -2   -0.65    0.26
  -1  -2  -2    0.41    0.29
   1   2   2    0.17    0.20
   1   2   2   -0.29    0.17
   1   2   2   -0.07    0.17
   1   2   2    0.32    0.15
   1   2   2   -0.44    0.31
   1   2   2   -0.37    0.29
  -2  -2  -2  562.10   11.80
  -2  -2  -2  613.96   11.89
  -2  -2  -2  599.21   11.84
  -2  -2  -2  588.20   11.65
   2   2   2  588.52   11.68
   2   2   2  612.25   11.83
   2   2   2  601.39   11.65
   2   2   2  597.82   11.89
   2   2   2  594.83   11.81
  -3  -2  -2   20.86    0.94
  -3  -2  -2   20.95    0.68
  -3  -2  -2   21.91    0.71
  -3  -2  -2   21.46    0.97
  -3  -2  -2   21.25    0.83
  -3  -2  -2   21.52    0.96
   3   2   2   20.50    0.70
   3   2   2   22.93    0.91
   3   2   2   20.48    0.92
   3   2   2   20.87    0.83
   3   2   2   21.73    0.71
   3   2   2   20.32    0.95
  -4  -2  -2    1.03    0.43
  -4  -2  -2    1.05    0.43
  -4  -2  -2    0.30    0.26
  -4  -2  -2    0.58    0.19
  -4  -2  -2    0.43    0.32
  -4  -2  -2    0.46    0.40
   4   2   2    0.40    0.31
   4   2   2    1.14    0.48
   4   2   2    0.22    0.42
   4   2   2    0.64    0.39
   4   2   2    0.64    0.21
   4   2   2    0.43    0.34
  -5  -2  -2   52.71    1.26
  -5  -2  -2   52.20    1.74
  -5  -2  -2   49.17    1.75
  -5  -2  -2   49.79    1.92
  -5  -2  -2   49.36    1.60
  -5  -2  -2   50.97    1.76
   5   2   2   50.97    1.73
   5   2   2   51.35    1.77
   5   2   2   50.91    1.86
   5   2   2   53.63    1.71
   5   2   2   52.47    1.77
  -6  -2  -2   53.49    1.30
  -6  -2  -2   48.73    1.83
  -6  -2  -2   49.89    1.86
  -6  -2  -2   50.09    1.88
  -6  -2  -2   51.05    2.32
  -6  -2  -2   51.04    1.78
   6   2   2   49.93    1.90
   6   2   2   50.15    2.00
   6   2   2   51.01    1.93
   6   2   2   54.14    1.89
  -7  -2  -2   34.62    1.09
  -7  -2  -2   38.73    1.69
  -7  -2  -2   35.97    1.72
  -7  -2  -2   37.63    1.07
  -7  -2  -2   37.56    1.73
   7   2   2   34.84    1.59
   7   2   2   41.08    2.07
   7   2   2   36.22    1.85
   7   2   2   38.08    1.93
  -8  -2  -2    2.13    0.76
  -8  -2  -2    1.93    0.79
  -8  -2  -2    3.05    0.38
  -8  -2  -2    3.34    0.93
   8   2   2    2.88    0.80
   8   2   2    1.13    0.85
  -9  -2  -2   11.41    1.17
  -9  -2  -2   13.12    1.38
  -9  -2  -2   10.58    0.61
  -9  -2  -2   11.34    1.26
  -9  -2  -2   12.36    0.54
   9   2   2   12.90    1.31
   9   2   2   13.57    1.41
 -10  -2  -2   10.69    1.58
 -10  -2  -2   10.93    1.52
 -10  -2  -2    9.51    1.46
  10   2   2    7.62    1.59
  10   2   2    9.18    1.39
 -11  -2  -2   14.88    1.91
 -11  -2  -2   15.04    1.92
 -11  -2  -2   13.93    1.75
  11   2   2   14.58    1.84
  11   2   2   16.25    2.10
 -12  -2  -2    3.37    1.63
 -12  -2  -2    5.33    1.70
  12   2   2    2.68    1.80
  12   2   2    2.18    1.41
   9  -3  -2    0.56    1.24
   9  -3  -2    1.18    1.12
  -9   3   2    1.17    1.58
  -9   3   2   -0.85    1.16
  -9   3   2    1.60    1.33
   8  -3  -2    6.41    1.46
   8  -3  -2    6.74    1.25
  -8   3   2    7.01    1.35
  -8   3   2    7.13    1.73
  -8   3   2    6.43    1.38
   7  -3  -2   14.55    1.62
   7  -3  -2   17.87    1.39
  -7   3   2   17.94    1.73
  -7   3   2   17.02    1.67
  -7   3   2   17.36    1.51
   6  -3  -2    2.34    0.91
   6  -3  -2    2.93    1.10
  -6   3   2    2.77    1.14
  -6   3   2    2.49    0.98
  -6   3   2    1.11    0.99
  -6   3   2    1.72    0.80
   5  -3  -2   18.83    1.45
   5  -3  -2   20.18    1.29
   5  -3  -2   17.35    1.22
   5  -3  -2   20.02    1.15
  -5   3   2   19.22    1.10
  -5   3   2   19.81    1.45
  -5   3   2   17.08    1.46
  -5   3   2   19.87    1.35
   4  -3  -2   48.47    1.68
   4  -3  -2   45.35    1.86
   4  -3  -2   48.05    1.63
   4  -3  -2   47.30    1.70
   4  -3  -2   43.86    2.40
  -4   3   2   46.61    1.73
  -4   3   2   47.23    1.57
  -4   3   2   47.78    2.01
  -4   3   2   46.49    2.11
   3  -3  -2   39.02    1.84
   3  -3  -2   37.02    1.87
   3  -3  -2   41.35    1.40
   3  -3  -2   41.85    1.39
  -3   3   2   41.27    1.80
  -3   3   2   39.95    1.48
  -3   3   2   40.71    1.76
  -3   3   2   39.95    1.29
  -3   3   2   39.19    1.68
   2  -3  -2  132.50    3.12
   2  -3  -2  129.05    3.53
   2  -3  -2  130.22    3.53
   2  -3  -2  130.36    3.26
   2  -3  -2  136.18    2.98
  -2   3   2  137.15    3.20
  -2   3   2  130.38    3.13
  -2   3   2  132.04    2.91
  -2   3   2  127.38    3.50
  -2   3   2  131.06    3.48
  -2   3   2  134.31    3.36
   1  -3  -2   32.76    1.13
   1  -3  -2   32.83    1.16
   1  -3  -2   33.44    1.38
   1  -3  -2   34.40    1.35
   1  -3  -2   33.76    0.91
  -1   3   2   33.54    0.88
  -1   3   2   31.40    1.10
  -1   3   2   34.55    1.23
  -1   3   2   31.29    1.29
  -1   3   2   33.25    1.40
  -1   3   2   33.31    1.16
   0  -3  -2  238.67    5.22
   0  -3  -2  227.08    4.86
   0  -3  -2  231.39    4.97
   0  -3  -2  221.72    4.88
   0  -3  -2  223.52    4.49
   0   3   2  224.89    5.17
   0   3   2  238.01    4.90
   0   3   2  225.46    5.07
   0   3   2  241.35    4.91
   0   3   2  227.53    4.95
  -1  -3  -2   54.89    1.48
  -1  -3  -2   55.31    1.59
  -1  -3  -2   54.81    1.23
  -1  -3  -2   56.83    1.68
  -1  -3  -2   49.61    1.46
   1   3   2   56.62    1.57
   1   3   2   56.27    1.72
   1   3   2   55.67    1.40
   1   3   2   56.99    1.48
   1   3   2   56.71    1.23
   1   3   2   55.23    1.68
  -2  -3  -2  473.23    9.57
  -2  -3  -2  501.53   10.01
  -2  -3  -2  480.65    9.91
  -2  -3  -2  496.57    9.84
   2   3   2  477.91   10.00
   2   3   2  505.72    9.91
   2   3   2  494.02    9.71
   2   3   2  473.16    9.82
  -3  -3  -2   87.62    2.15
  -3  -3  -2   87.06    2.11
  -3  -3  -2   82.09    2.35
  -3  -3  -2   88.27    2.37
   3   3   2   86.20    2.35
   3   3   2   87.49    2.41
   3   3   2   87.95    2.40
   3   3   2   86.60    2.11
   3   3   2   90.22    2.18
  -4  -3  -2  242.74    5.28
  -4  -3  -2  238.89    5.46
  -4  -3  -2  235.54    4.86
  -4  -3  -2  248.68    5.46
   4   3   2  234.11    4.92
   4   3   2  243.46    5.44
   4   3   2  240.83    4.91
   4   3   2  239.41    5.52
   4   3   2  246.75    5.28
   4   3   2  241.16    5.45
  -5  -3  -2  157.88    4.01
  -5  -3  -2  157.47    3.94
  -5  -3  -2  159.11    3.86
  -5  -3  -2  160.03    4.12
  -5  -3  -2  157.22    3.27
  -5  -3  -2  162.11    3.55
   5   3   2  163.46    3.62
   5   3   2  156.58    3.98
   5   3   2  160.31    3.97
   5   3   2  156.95    3.88
   5   3   2  156.40    4.11
   5   3   2  159.41    3.29
  -6  -3  -2    4.08    0.20
  -6  -3  -2    4.08    0.75
  -6  -3  -2    3.94    0.96
  -6  -3  -2    4.23    0.79
  -6  -3  -2    4.41    0.57
   6   3   2    4.31    0.90
   6   3   2    4.18    0.68
   6   3   2    3.30    0.89
   6   3   2    3.31    0.71
   6   3   2    4.10    0.72
  -7  -3  -2    5.87    0.92
  -7  -3  -2    5.17    0.95
  -7  -3  -2    5.49    0.74
  -7  -3  -2    6.67    1.03
   7   3   2    6.44    0.93
   7   3   2    5.50    1.02
   7   3   2    6.65    0.84
  -8  -3  -2    2.22    0.80
  -8  -3  -2    0.65    1.10
  -8  -3  -2    1.71    0.68
  -8  -3  -2    2.02    0.83
   8   3   2    0.64    0.70
   8   3   2    0.84    1.14
   8   3   2    2.02    0.76
  -9  -3  -2    4.46    1.09
  -9  -3  -2    1.94    0.82
  -9  -3  -2    5.67    1.13
   9   3   2    5.67    1.23
   9   3   2    4.13    0.95
 -10  -3  -2    5.49    1.22
 -10  -3  -2    5.53    1.18
 -10  -3  -2    6.82    1.32
  10   3   2    6.73    1.26
  10   3   2    8.79    1.57
 -11  -3  -2   17.91    2.00
 -11  -3  -2   16.32    1.92
 -11  -3  -2   18.74    1.90
  11   3   2   16.69    1.85
  11   3   2   18.98    1.94
 -12  -3  -2   -1.26    1.34
 -12  -3  -2    1.35    1.41
 -12  -3  -2    1.09    1.40
  12   3   2    1.00    1.67
  12   3   2   -3.12    1.27
   8  -4  -2    0.56    1.07
   8  -4  -2    0.37    1.20
  -8   4   2    0.65    1.24
  -8   4   2   -3.85    1.37
  -8   4   2   -0.88    1.12
   7  -4  -2   11.38    1.67
   7  -4  -2   11.37    1.34
  -7   4   2   13.89    2.06
  -7   4   2   15.22    1.83
  -7   4   2   11.66    1.43
   6  -4  -2   22.66    1.59
   6  -4  -2   24.01    1.72
  -6   4   2   26.46    1.93
  -6   4   2   28.30    2.07
  -6   4   2   26.64    1.54
   5  -4  -2    0.73    0.91
   5  -4  -2   -0.13    0.62
   5  -4  -2   -0.19    0.72
   5  -4  -2    0.47    0.79
  -5   4   2    0.99    0.95
  -5   4   2   -0.17    0.55
  -5   4   2   -1.06    0.73
   4  -4  -2    3.43    0.67
   4  -4  -2    2.94    0.77
   4  -4  -2    2.06    0.76
   4  -4  -2    2.29    0.72
  -4   4   2    2.81    0.88
  -4   4   2    4.20    0.92
  -4   4   2    2.90    0.95
  -4   4   2    2.63    0.55
   3  -4  -2    9.90    0.77
   3  -4  -2    8.62    0.90
   3  -4  -2    7.98    0.74
  -3   4   2    7.62    0.95
  -3   4   2   10.68    0.99
  -3   4   2    8.97    1.09
  -3   4   2   10.47    0.65
   2  -4  -2   93.34    2.35
   2  -4  -2   90.31    2.15
   2  -4  -2   86.83    2.96
   2  -4  -2   86.04    2.85
  -2   4   2   78.83    3.65
  -2   4   2   91.01    2.56
  -2   4   2   92.96    2.10
  -2   4   2   88.73    2.84
  -2   4   2   89.70    2.70
  -2   4   2   91.36    2.38
   1  -4  -2   10.49    0.94
   1  -4  -2    8.95    1.07
   1  -4  -2   11.44    0.46
   1  -4  -2    9.66    0.69
   1  -4  -2   10.55    0.74
  -1   4   2    9.69    0.92
  -1   4   2   10.64    0.83
  -1   4   2   10.40    0.40
  -1   4   2   10.44    0.86
  -1   4   2   10.21    0.86
  -1   4   2   10.96    0.71
   0  -4  -2    0.19    0.39
   0  -4  -2   -1.20    0.54
   0  -4  -2   -0.11    0.28
   0  -4  -2   -0.01    0.32
   0   4   2    0.03    0.31
   0   4   2    0.35    0.33
   0   4   2   -0.37    0.36
   0   4   2    0.31    0.34
   0   4   2   -0.28    0.38
  -1  -4  -2  133.88    3.23
  -1  -4  -2  135.53    3.47
  -1  -4  -2  132.56    3.16
  -1  -4  -2  137.92    3.12
   1   4   2  139.04    3.18
   1   4   2  133.07    3.43
   1   4   2  135.70    3.20
   1   4   2  130.89    3.43
   1   4   2  134.57    3.08
  -2  -4  -2    0.98    0.31
  -2  -4  -2    0.67    0.44
  -2  -4  -2    0.87    0.22
  -2  -4  -2    0.86    0.36
  -2  -4  -2    1.05    0.23
   2   4   2   -0.01    0.40
   2   4   2    0.32    0.44
   2   4   2    1.19    0.36
   2   4   2    0.68    0.20
   2   4   2    0.50    0.38
   2   4   2    1.01    0.24
  -3  -4  -2    4.53    0.43
  -3  -4  -2    4.71    0.71
  -3  -4  -2    6.02    0.80
  -3  -4  -2    4.86    0.61
   3   4   2    4.72    0.73
   3   4   2    5.39    0.56
   3   4   2    4.93    0.49
   3   4   2    4.84    0.54
   3   4   2    5.17    0.72
  -4  -4  -2    8.60    0.63
  -4  -4  -2    8.69    0.62
  -4  -4  -2    7.31    0.79
  -4  -4  -2    8.30    0.75
   4   4   2    8.39    0.66
   4   4   2    8.74    0.74
   4   4   2    7.88    0.57
   4   4   2    8.37    0.74
   4   4   2    8.31    0.75
  -5  -4  -2    1.55    0.66
  -5  -4  -2    1.76    0.48
  -5  -4  -2    1.49    0.25
  -5  -4  -2    1.92    0.61
   5   4   2    1.97    0.62
   5   4   2    1.66    0.57
   5   4   2    1.19    0.29
   5   4   2    1.02    0.28
   5   4   2    1.37    0.55
   5   4   2    0.15    0.54
  -6  -4  -2  101.20    2.90
  -6  -4  -2  102.02    2.48
  -6  -4  -2  101.25    3.01
  -6  -4  -2   98.74    3.09
   6   4   2  100.36    2.14
   6   4   2  100.21    2.95
   6   4   2  101.08    3.22
   6   4   2  105.88    2.58
   6   4   2  106.38    3.05
  -7  -4  -2    2.74    0.92
  -7  -4  -2    2.31    0.54
  -7  -4  -2    4.17    0.79
  -7  -4  -2    4.08    0.95
   7   4   2    1.35    0.78
   7   4   2    2.31    0.77
   7   4   2    3.88    0.77
  -8  -4  -2    0.07    0.49
  -8  -4  -2    0.36    0.73
  -8  -4  -2   -0.68    0.44
   8   4   2    0.20    0.63
   8   4   2    0.37    0.81
   8   4   2   -0.97    0.86
  -9  -4  -2    1.34    0.89
  -9  -4  -2    1.18    0.95
  -9  -4  -2    3.06    0.80
   9   4   2    0.95    0.84
   9   4   2    1.97    1.01
 -10  -4  -2   22.78    1.82
 -10  -4  -2   26.26    1.89
 -10  -4  -2   26.22    1.70
  10   4   2   28.42    1.92
  10   4   2   24.24    1.92
 -11  -4  -2    1.63    1.13
 -11  -4  -2    0.64    1.15
 -11  -4  -2   -1.05    0.94
  11   4   2   -0.03    1.01
  11   4   2    2.36    1.26
 -12  -4  -2    3.37    1.23
 -12  -4  -2    0.62    1.31
 -12  -4  -2    2.99    1.59
  12   4   2    0.25    1.36
  12   4   2    1.81    1.33
   8  -5  -2    2.42    1.61
  -8   5   2    1.01    1.60
  -8   5   2    3.08    1.32
   7  -5  -2   -1.46    1.11
  -7   5   2    0.29    1.45
  -7   5   2    1.78    1.59
  -7   5   2    0.06    0.97
   6  -5  -2   -0.66    0.76
   6  -5  -2   -0.68    0.99
  -6   5   2    0.78    1.12
  -6   5   2    0.52    0.81
  -6   5   2    1.52    1.25
   5  -5  -2   31.63    1.86
   5  -5  -2   30.76    1.63
   5  -5  -2   31.62    1.89
   5  -5  -2   30.78    1.43
  -5   5   2   29.72    2.10
  -5   5   2   31.36    2.19
  -5   5   2   32.79    1.46
   4  -5  -2   10.74    1.20
   4  -5  -2    9.18    1.04
   4  -5  -2   10.17    1.05
   4  -5  -2    9.11    0.88
  -4   5   2    9.82    1.40
  -4   5   2   10.94    1.50
  -4   5   2    9.09    0.80
   3  -5  -2    7.21    1.00
   3  -5  -2    5.82    0.72
   3  -5  -2    6.28    0.75
  -3   5   2    6.98    1.14
  -3   5   2    6.92    0.60
  -3   5   2    6.97    1.17
   2  -5  -2   -0.05    0.32
   2  -5  -2   -0.22    0.45
   2  -5  -2   -0.03    0.41
  -2   5   2    0.44    0.80
  -2   5   2    0.16    0.56
  -2   5   2   -0.13    0.22
  -2   5   2    0.73    0.66
  -2   5   2    0.29    0.66
   1  -5  -2  153.06    4.14
   1  -5  -2  157.69    3.90
   1  -5  -2  154.56    3.65
   1  -5  -2  154.12    3.10
  -1   5   2  156.69    3.64
  -1   5   2  154.18    4.10
  -1   5   2  156.53    4.28
  -1   5   2  153.47    3.97
   0  -5  -2    2.79    0.89
   0  -5  -2    2.28    0.68
   0  -5  -2    2.55    0.55
   0  -5  -2    2.70    0.48
   0   5   2    1.56    0.63
   0   5   2    2.57    0.67
   0   5   2    3.08    0.60
   0   5   2    2.53    0.63
   0   5   2    1.95    0.54
  -1  -5  -2   56.11    1.76
  -1  -5  -2   53.83    1.76
  -1  -5  -2   54.74    1.73
  -1  -5  -2   53.51    2.00
   1   5   2   55.80    1.69
   1   5   2   55.91    1.75
   1   5   2   56.97    2.05
   1   5   2   57.64    1.78
   1   5   2   55.50    2.03
  -2  -5  -2    1.77    0.53
  -2  -5  -2    2.25    0.39
  -2  -5  -2    2.13    0.66
  -2  -5  -2    1.63    0.46
  -2  -5  -2    1.89    0.22
   2   5   2    2.51    0.56
   2   5   2    1.81    0.55
   2   5   2    2.22    0.36
   2   5   2    2.01    0.59
   2   5   2    1.91    0.41
   2   5   2    2.27    0.27
  -3  -5  -2   22.86    1.15
  -3  -5  -2   22.73    0.82
  -3  -5  -2   21.83    1.17
   3   5   2   23.47    1.13
   3   5   2   21.80    1.05
   3   5   2   22.19    0.61
   3   5   2   23.36    1.22
   3   5   2   21.74    1.18
   3   5   2   22.67    0.85
   3   5   2   22.57    0.62
  -4  -5  -2   -0.50    0.44
  -4  -5  -2    0.41    0.46
  -4  -5  -2   -0.06    0.46
  -4  -5  -2    0.45    0.35
   4   5   2   -0.05    0.32
   4   5   2   -0.12    0.49
   4   5   2    0.14    0.62
   4   5   2    0.67    0.44
   4   5   2   -0.03    0.35
  -5  -5  -2  119.30    2.85
  -5  -5  -2  114.94    2.96
  -5  -5  -2  115.57    3.35
  -5  -5  -2  113.59    3.31
   5   5   2  111.36    3.28
   5   5   2  116.30    2.78
   5   5   2  112.45    3.00
   5   5   2  114.88    3.42
   5   5   2  112.97    3.35
  -6  -5  -2    5.25    1.00
  -6  -5  -2    6.41    0.83
  -6  -5  -2    5.58    0.41
  -6  -5  -2    6.87    1.07
   6   5   2    5.75    1.01
   6   5   2    5.34    0.46
   6   5   2    3.96    0.93
   6   5   2    5.83    0.94
  -7  -5  -2   11.96    1.11
  -7  -5  -2   14.00    1.09
  -7  -5  -2   13.05    0.75
   7   5   2   13.66    1.19
   7   5   2   14.95    1.21
   7   5   2   14.31    0.95
  -8  -5  -2    6.79    0.77
  -8  -5  -2    8.09    1.31
  -8  -5  -2    8.44    1.14
   8   5   2    6.68    1.00
   8   5   2    7.05    1.14
   8   5   2    7.38    1.19
  -9  -5  -2    0.54    0.61
  -9  -5  -2   -0.41    0.86
  -9  -5  -2    0.60    0.67
   9   5   2   -0.54    1.06
   9   5   2   -0.48    0.84
   9   5   2   -0.88    0.64
 -10  -5  -2   14.03    1.54
 -10  -5  -2   15.33    1.62
 -10  -5  -2   13.53    1.27
  10   5   2   16.15    1.60
  10   5   2   16.30    2.06
 -11  -5  -2   -1.90    1.06
 -11  -5  -2    0.28    0.85
 -11  -5  -2    1.26    1.00
  11   5   2    0.25    1.16
  11   5   2   -0.85    1.12
 -12  -5  -2    6.43    1.56
 -12  -5  -2    4.71    1.34
 -12  -5  -2    3.94    1.60
  12   5   2    5.43    1.59
  12   5   2    4.44    1.81
   7  -6  -2   20.04    1.92
  -7   6   2   19.35    1.71
  -7   6   2   25.19    2.77
  -7   6   2   21.60    2.83
   6  -6  -2    0.36    0.78
   6  -6  -2    1.68    1.16
  -6   6   2    0.11    1.28
  -6   6   2    0.74    0.90
  -6   6   2   -1.36    1.04
   5  -6  -2   13.63    1.12
   5  -6  -2   13.41    1.54
  -5   6   2   15.35    1.98
  -5   6   2   15.05    1.94
   4  -6  -2   13.96    1.19
   4  -6  -2   14.44    1.40
   4  -6  -2   15.85    1.06
   4  -6  -2   14.97    1.24
  -4   6   2   17.37    1.82
  -4   6   2   14.76    0.88
  -4   6   2   16.19    1.77
   3  -6  -2    2.77    0.67
   3  -6  -2    3.19    0.76
   3  -6  -2    3.68    0.63
  -3   6   2    4.01    1.14
  -3   6   2    3.74    0.51
  -3   6   2    2.86    1.05
   2  -6  -2    1.34    0.57
   2  -6  -2    1.51    0.67
  -2   6   2    1.41    0.82
  -2   6   2    0.65    0.66
  -2   6   2    0.95    0.25
  -2   6   2    1.67    0.87
   1  -6  -2    1.17    0.53
   1  -6  -2    1.97    0.54
  -1   6   2    1.23    0.61
  -1   6   2    2.11    0.64
  -1   6   2    2.27    0.78
   0  -6  -2   20.22    1.07
   0  -6  -2   18.32    1.12
   0  -6  -2   17.02    1.30
   0   6   2   20.07    1.08
   0   6   2   20.59    1.20
   0   6   2   18.56    1.40
  -1  -6  -2   99.58    2.81
  -1  -6  -2   99.27    2.78
  -1  -6  -2  100.69    2.81
   1   6   2  103.77    3.17
   1   6   2   99.42    2.74
   1   6   2  101.37    3.20
   1   6   2  102.54    2.76
  -2  -6  -2   -0.17    0.43
  -2  -6  -2    0.61    0.43
  -2  -6  -2    0.06    0.40
  -2  -6  -2    0.12    0.58
   2   6   2   -0.16    0.09
   2   6   2   -0.30    0.56
   2   6   2    0.73    0.62
   2   6   2    0.18    0.34
   2   6   2   -0.07    0.54
   2   6   2    0.62    0.61
  -3  -6  -2    9.46    0.89
  -3  -6  -2   12.05    1.09
  -3  -6  -2   11.27    0.52
   3   6   2   10.80    0.82
   3   6   2   11.74    0.97
   3   6   2   11.77    0.61
   3   6   2   11.56    1.12
   3   6   2   11.67    0.57
   3   6   2    9.90    1.00
  -4  -6  -2    9.80    0.97
  -4  -6  -2   10.90    0.98
  -4  -6  -2    9.82    0.64
   4   6   2    9.84    0.72
   4   6   2   10.52    1.15
   4   6   2    8.86    0.82
   4   6   2   10.76    0.97
  -5  -6  -2   26.81    1.30
  -5  -6  -2   26.97    1.16
  -5  -6  -2   26.14    1.52
   5   6   2   24.80    1.44
   5   6   2   26.19    1.28
   5   6   2   27.83    1.21
  -6  -6  -2   19.78    1.26
  -6  -6  -2   19.59    1.31
   6   6   2   20.18    1.38
   6   6   2   20.41    1.46
   6   6   2   20.12    0.95
   6   6   2   18.65    1.29
  -7  -6  -2   36.74    1.97
  -7  -6  -2   35.84    1.65
  -7  -6  -2   37.70    1.05
   7   6   2   36.12    1.12
   7   6   2   38.35    1.95
   7   6   2   36.42    2.05
  -8  -6  -2   15.74    0.85
  -8  -6  -2   17.18    1.19
  -8  -6  -2   16.78    1.55
   8   6   2   18.54    1.67
   8   6   2   16.08    1.06
   8   6   2   17.05    1.45
  -9  -6  -2   -0.72    0.71
  -9  -6  -2    0.87    0.56
  -9  -6  -2   -0.73    0.88
   9   6   2    0.08    0.93
   9   6   2    1.19    0.93
   9   6   2    0.40    0.93
 -10  -6  -2   11.33    1.27
 -10  -6  -2   13.06    1.82
  10   6   2   13.14    1.68
  10   6   2    9.04    1.67
  10   6   2   10.94    1.78
 -11  -6  -2    3.47    0.96
 -11  -6  -2    6.09    1.56
 -11  -6  -2    3.23    1.25
  11   6   2    4.40    1.48
  11   6   2    3.54    1.35
 -12  -6  -2   43.96    2.86
 -12  -6  -2   44.41    2.74
 -12  -6  -2   44.09    2.31
  12   6   2   37.61    2.53
  12   6   2   43.15    3.12
   6  -7  -2   26.30    2.34
  -6   7   2   26.80    2.20
  -6   7   2   26.50    3.03
  -6   7   2   28.68    2.77
   5  -7  -2   -0.29    1.06
   5  -7  -2    0.26    0.75
  -5   7   2    1.10    0.71
  -5   7   2    0.15    1.42
  -5   7   2    1.31    1.37
   4  -7  -2    8.37    1.33
   4  -7  -2    9.45    0.98
  -4   7   2   11.43    1.76
  -4   7   2    7.16    1.74
  -4   7   2    7.24    0.77
   3  -7  -2    2.55    0.72
   3  -7  -2    1.91    0.88
  -3   7   2    2.69    1.22
  -3   7   2    2.60    0.38
  -3   7   2    3.50    1.24
   2  -7  -2   15.80    1.08
   2  -7  -2   16.01    1.35
  -2   7   2   17.13    1.31
  -2   7   2   17.83    1.58
  -2   7   2   15.19    1.56
   1  -7  -2    2.89    0.69
   1  -7  -2    2.66    0.70
  -1   7   2    3.15    0.82
  -1   7   2    3.09    0.98
  -1   7   2    1.98    0.87
   0  -7  -2   17.75    1.11
   0  -7  -2   16.82    1.21
   0   7   2   17.22    1.50
   0   7   2   17.02    1.29
   0   7   2   16.82    1.20
  -1  -7  -2  159.54    4.17
  -1  -7  -2  156.51    4.17
  -1  -7  -2  162.28    4.05
   1   7   2  160.63    4.57
   1   7   2  155.44    4.58
   1   7   2  155.54    3.98
   1   7   2  163.61    4.10
  -2  -7  -2   29.10    1.36
  -2  -7  -2   24.77    1.38
  -2  -7  -2   25.73    1.37
   2   7   2   24.25    1.37
   2   7   2   25.47    1.68
   2   7   2   25.96    1.21
   2   7   2   26.20    1.60
  -3  -7  -2    0.78    0.23
  -3  -7  -2    1.27    0.67
  -3  -7  -2    0.40    0.56
   3   7   2    0.52    0.38
   3   7   2    0.88    0.63
   3   7   2    1.17    0.65
   3   7   2   -0.02    0.83
  -4  -7  -2   47.99    2.05
  -4  -7  -2   47.61    2.08
  -4  -7  -2   48.89    1.41
   4   7   2   47.05    1.18
   4   7   2   49.32    1.51
   4   7   2   46.76    1.17
   4   7   2   49.23    2.16
  -5  -7  -2    7.25    0.70
  -5  -7  -2    7.65    0.93
   5   7   2    6.52    1.11
   5   7   2    7.62    0.96
   5   7   2    7.14    0.84
  -6  -7  -2    1.23    0.70
   6   7   2    0.88    0.53
   6   7   2    0.02    0.58
   6   7   2    1.82    0.85
   6   7   2    0.97    0.88
  -7  -7  -2   21.07    1.26
  -7  -7  -2   19.05    1.56
   7   7   2   18.98    1.00
   7   7   2   21.23    1.72
   7   7   2   17.32    1.58
  -8  -7  -2    5.48    1.02
  -8  -7  -2    6.33    1.32
  -8  -7  -2    5.94    0.44
   8   7   2    5.94    1.30
   8   7   2    6.39    1.23
   8   7   2    5.91    0.51
  -9  -7  -2   20.37    0.96
  -9  -7  -2   18.96    1.79
  -9  -7  -2   20.55    1.54
   9   7   2   19.12    1.19
   9   7   2   19.01    1.70
   9   7   2   18.94    1.75
 -10  -7  -2    8.90    1.01
 -10  -7  -2    9.77    1.69
 -10  -7  -2   10.33    1.51
  10   7   2    9.97    1.73
  10   7   2    8.89    1.60
 -11  -7  -2    1.81    1.32
 -11  -7  -2    0.77    1.15
  11   7   2    1.77    1.36
  11   7   2    1.50    1.13
 -12  -7  -2    7.79    1.87
 -12  -7  -2    8.29    1.52
 -12  -7  -2    6.25    1.19
  12   7   2   10.37    1.77
  12   7   2    7.51    2.04
   5  -8  -2   23.69    2.20
  -5   8   2   22.81    2.83
  -5   8   2   21.32    2.63
   4  -8  -2    1.79    1.05
  -4   8   2    2.60    1.52
  -4   8   2    0.47    1.39
   3  -8  -2    1.65    0.73
   3  -8  -2    0.78    1.04
  -3   8   2    0.20    1.28
  -3   8   2    1.52    1.07
   2  -8  -2    3.62    0.82
   2  -8  -2    3.44    1.05
  -2   8   2    4.29    1.31
  -2   8   2    4.72    1.33
   1  -8  -2   -0.10    0.67
   1  -8  -2    1.31    0.70
  -1   8   2    1.56    0.84
  -1   8   2    0.81    0.91
  -1   8   2    0.48    0.94
   0  -8  -2    5.32    0.87
   0  -8  -2    3.38    0.85
   0   8   2    4.15    1.02
   0   8   2    3.49    0.99
   0   8   2    4.69    1.17
  -1  -8  -2   28.49    1.59
  -1  -8  -2   25.58    1.79
   1   8   2   29.29    1.63
   1   8   2   27.94    1.93
   1   8   2   31.11    1.99
   1   8   2   27.98    1.55
  -2  -8  -2    2.61    0.78
  -2  -8  -2    1.82    0.77
   2   8   2    1.08    0.83
   2   8   2    2.51    1.05
   2   8   2    3.02    1.22
   2   8   2    2.93    0.72
  -3  -8  -2   23.84    1.52
  -3  -8  -2   22.68    1.41
   3   8   2   23.71    1.12
   3   8   2   23.19    1.75
   3   8   2   23.74    1.65
  -4  -8  -2    2.49    0.40
  -4  -8  -2    2.37    0.89
   4   8   2    1.73    0.95
   4   8   2    2.11    0.45
   4   8   2    3.06    0.57
   4   8   2    1.63    0.74
   4   8   2    2.07    0.46
  -5  -8  -2    6.39    1.16
  -5  -8  -2    5.26    0.62
   5   8   2    4.93    0.93
   5   8   2    6.23    1.20
   5   8   2    4.57    0.81
  -6  -8  -2   -1.92    0.74
   6   8   2   -1.20    0.80
   6   8   2   -0.19    0.63
   6   8   2    1.21    0.88
  -7  -8  -2   18.52    1.49
  -7  -8  -2   17.16    1.23
   7   8   2   15.81    1.68
   7   8   2   15.03    1.65
   7   8   2   16.54    1.18
  -8  -8  -2   43.26    1.88
  -8  -8  -2   37.89    2.31
   8   8   2   38.38    2.43
   8   8   2   41.10    1.63
   8   8   2   37.71    2.30
   8   8   2   40.79    1.49
  -9  -8  -2   14.46    1.36
  -9  -8  -2   15.97    1.77
   9   8   2   14.59    1.99
   9   8   2   13.27    1.73
   9   8   2   11.54    0.40
   9   8   2   12.73    0.44
 -10  -8  -2   -0.26    0.44
 -10  -8  -2   -0.43    0.91
 -10  -8  -2    0.51    1.24
  10   8   2   -0.56    1.15
  10   8   2    0.79    0.97
 -11  -8  -2   -1.36    1.34
 -11  -8  -2    1.25    0.69
 -11  -8  -2   -0.76    1.06
  11   8   2    2.14    1.46
  11   8   2    0.25    1.28
 -12  -8  -2    3.12    1.64
 -12  -8  -2    3.90    1.49
  12   8   2    0.88    1.66
  12   8   2    4.02    1.89
   4  -9  -2   15.51    2.03
  -4   9   2   13.28    2.32
  -4   9   2   17.45    2.68
   3  -9  -2    0.21    1.10
  -3   9   2   -0.91    1.46
  -3   9   2   -1.85    1.12
   2  -9  -2    8.48    1.01
   2  -9  -2    7.56    1.24
  -2   9   2    8.81    1.83
  -2   9   2    6.61    1.62
   1  -9  -2    0.43    0.82
   1  -9  -2    2.04    0.94
  -1   9   2    2.48    1.28
  -1   9   2    1.27    1.14
   0  -9  -2    4.10    0.90
   0   9   2    4.23    1.23
   0   9   2    4.15    1.39
   0   9   2    5.79    1.24
   0   9   2    3.55    1.32
  -1  -9  -2   22.11    1.57
  -1  -9  -2   20.85    1.46
   1   9   2   19.63    1.62
   1   9   2   21.48    1.74
   1   9   2   20.99    1.74
  -2  -9  -2   18.78    1.42
  -2  -9  -2   18.70    1.32
   2   9   2   18.99    1.63
   2   9   2   17.59    1.53
   2   9   2   17.28    1.57
  -3  -9  -2   21.58    1.51
  -3  -9  -2   21.09    1.49
   3   9   2   20.34    1.75
   3   9   2   21.76    1.24
   3   9   2   20.50    1.82
  -4  -9  -2    7.01    1.24
   4   9   2    5.11    1.11
   4   9   2    6.00    1.16
   4   9   2    7.05    0.74
   4   9   2    6.75    0.78
  -5  -9  -2    2.42    0.51
  -5  -9  -2    2.17    0.99
   5   9   2    1.89    0.85
   5   9   2    2.80    0.33
   5   9   2    2.54    0.77
   5   9   2    3.22    0.94
   5   9   2    2.11    0.27
  -6  -9  -2   14.51    0.94
  -6  -9  -2   11.70    1.46
   6   9   2   14.94    1.45
   6   9   2   15.56    1.73
   6   9   2   13.55    1.41
  -7  -9  -2    2.26    1.11
  -7  -9  -2    3.22    0.79
   7   9   2    2.77    1.03
   7   9   2    0.78    1.10
   7   9   2    3.06    0.90
  -8  -9  -2   10.01    1.21
  -8  -9  -2    8.84    1.65
   8   9   2    8.95    1.61
   8   9   2    8.77    1.55
   8   9   2    7.10    1.21
   8   9   2    9.11    1.10
  -9  -9  -2    3.69    1.29
  -9  -9  -2    4.62    1.06
   9   9   2    3.87    0.70
   9   9   2    6.05    1.47
   9   9   2    2.76    1.14
 -10  -9  -2   -0.28    1.25
 -10  -9  -2    1.39    1.07
  10   9   2    2.51    1.44
  10   9   2    0.35    1.12
 -11  -9  -2    1.40    1.48
 -11  -9  -2    0.81    1.12
  11   9   2    0.17    1.56
  11   9   2    1.76    1.22
 -12  -9  -2   -0.77    1.39
 -12  -9  -2    0.99    1.94
  12   9   2    4.56    2.08
  12   9   2   -0.09    1.80
   2 -10  -2    2.06    1.23
  -2  10   2   -1.47    1.71
  -2  10   2    1.01    1.59
  -2  10   2   -1.35    1.57
   1 -10  -2    2.29    0.93
   1 -10  -2   -0.04    1.03
  -1  10   2    1.36    1.47
  -1  10   2    1.74    1.57
  -1  10   2    0.28    1.22
   0 -10  -2   13.65    1.62
   0 -10  -2   11.73    1.33
   0  10   2   10.37    2.01
   0  10   2   14.59    1.90
   0  10   2   10.27    1.97
  -1 -10  -2    0.86    0.90
  -1 -10  -2   -1.27    0.82
   1  10   2    0.08    0.90
   1  10   2   -0.74    1.00
   1  10   2   -1.46    1.08
  -2 -10  -2    0.15    0.90
  -2 -10  -2    0.31    0.96
   2  10   2    0.80    1.18
   2  10   2    0.27    0.93
   2  10   2   -0.80    1.02
  -3 -10  -2    1.46    0.91
  -3 -10  -2    2.99    1.05
   3  10   2    2.02    1.20
   3  10   2    0.80    1.11
   3  10   2    1.62    0.76
  -4 -10  -2   13.24    1.45
   4  10   2   11.43    1.87
   4  10   2    9.97    0.98
   4  10   2   12.79    1.20
   4  10   2   11.87    1.66
  -5 -10  -2   10.36    0.70
  -5 -10  -2   11.91    1.51
   5  10   2   14.32    1.82
   5  10   2   12.51    1.59
   5  10   2   10.20    0.67
   5  10   2    9.87    0.89
  -6 -10  -2    1.68    0.63
  -6 -10  -2    3.11    1.29
   6  10   2    1.97    1.22
   6  10   2    2.19    1.10
   6  10   2    2.05    1.03
  -7 -10  -2   -0.91    1.04
  -7 -10  -2    0.94    0.66
   7  10   2    0.14    0.96
   7  10   2    1.12    0.92
   7  10   2   -1.33    1.08
  -8 -10  -2    1.76    1.24
  -8 -10  -2    0.53    0.80
   8  10   2    0.95    1.35
   8  10   2   -0.04    1.28
   8  10   2   -1.29    0.91
  -9 -10  -2    7.23    1.82
  -9 -10  -2   10.97    1.43
   9  10   2    7.64    1.05
   9  10   2    8.39    1.79
   9  10   2    6.93    1.79
 -10 -10  -2    0.23    1.45
 -10 -10  -2    0.92    1.03
  10  10   2    0.45    1.49
  10  10   2    4.71    1.62
 -11 -10  -2    5.43    1.83
 -11 -10  -2    4.64    1.40
  11  10   2    2.66    1.93
  11  10   2    5.70    2.01
   1 -11  -2    4.03    1.27
  -1  11   2    1.81    1.75
  -1  11   2    5.16    2.06
   0 -11  -2    2.66    1.24
   0 -11  -2    0.47    1.10
   0  11   2   -2.12    1.72
   0  11   2    3.82    1.56
   0  11   2    2.16    1.61
  -1 -11  -2   13.04    1.80
  -1 -11  -2   13.02    1.61
   1  11   2   11.66    1.83
   1  11   2   13.67    2.07
   1  11   2   15.05    2.14
  -2 -11  -2   -0.53    1.05
  -2 -11  -2    0.30    1.07
   2  11   2    0.07    1.11
   2  11   2    1.23    1.35
   2  11   2    2.02    1.46
  -3 -11  -2    9.47    1.56
  -3 -11  -2   11.15    1.59
   3  11   2   10.05    1.72
   3  11   2    7.33    1.25
   3  11   2    9.34    1.78
  -4 -11  -2   -0.57    1.03
   4  11   2    1.54    1.08
   4  11   2    0.64    0.77
   4  11   2   -2.25    1.02
  -5 -11  -2    6.60    1.47
   5  11   2    4.50    0.69
   5  11   2    4.68    1.37
   5  11   2    7.02    1.67
  -6 -11  -2   22.57    2.17
  -6 -11  -2   24.10    1.13
   6  11   2   22.49    2.10
   6  11   2   23.39    2.14
  -7 -11  -2    7.99    0.97
  -7 -11  -2    7.20    1.69
   7  11   2    7.06    1.58
   7  11   2    7.54    1.54
  -8 -11  -2    6.88    1.65
  -8 -11  -2    3.62    0.98
   8  11   2    0.86    1.46
   8  11   2    6.37    1.77
   8  11   2    4.62    1.35
  -9 -11  -2   -1.72    1.30
  -9 -11  -2    1.49    0.96
   9  11   2   -0.43    1.11
   9  11   2    0.91    1.47
   9  11   2    0.89    1.61
 -10 -11  -2    1.01    1.57
 -10 -11  -2    2.30    1.23
  10  11   2    1.05    1.75
  10  11   2    0.67    1.81
 -11 -11  -2    0.80    1.34
  11  11   2   -0.01    2.18
  11  11   2   -1.43    1.91
  -1 -12  -2   11.40    2.72
  -1 -12  -2   11.46    1.75
   1  12   2   12.35    2.15
   1  12   2   12.19    2.77
  -2 -12  -2    2.17    1.32
  -2 -12  -2    1.51    1.30
   2  12   2    1.70    1.44
   2  12   2    3.10    1.71
   2  12   2    2.69    1.82
  -3 -12  -2    1.45    1.25
  -3 -12  -2    3.07    1.42
   3  12   2    0.24    1.66
   3  12   2    2.60    1.82
   3  12   2    2.49    1.29
  -4 -12  -2    0.20    1.31
   4  12   2    0.30    1.61
   4  12   2    1.42    1.59
  -5 -12  -2    9.54    1.81
   5  12   2    9.00    2.02
   5  12   2    7.57    1.75
  -6 -12  -2    1.57    1.37
   6  12   2   -0.31    1.27
   6  12   2    0.55    1.61
  -7 -12  -2    3.43    1.63
  -7 -12  -2    3.40    0.98
   7  12   2    1.85    1.55
   7  12   2    0.91    1.83
  -8 -12  -2    0.45    1.55
  -8 -12  -2    0.88    0.93
   8  12   2   -1.60    1.40
  -9 -12  -2    3.26    1.71
  -9 -12  -2    1.65    1.08
   9  12   2    0.65    1.88
   9  12   2    2.79    1.94
   9  12   2    1.89    1.48
  -5 -13  -2    1.01    1.50
   5  13   2    3.30    1.90
  -6 -13  -2    4.54    1.78
   6  13   2   -0.17    1.81
  -7 -13  -2    8.62    1.97
   7  13   2    4.83    2.02
   8  12  -3    1.23    1.90
   8  12  -3    3.40    1.70
   8  12  -3   -1.37    1.91
  -8 -12   3    1.99    1.70
   7  12  -3    0.97    1.81
   7  12  -3    2.33    1.54
   7  12  -3    3.40    1.72
  -7 -12   3   -0.10    1.41
   6  12  -3    3.08    1.66
   6  12  -3    0.32    1.84
   6  12  -3    2.53    1.70
  -6 -12   3    2.12    1.36
   5  12  -3    3.47    2.05
   5  12  -3   -0.47    1.61
   5  12  -3    0.31    1.68
   5  12  -3    1.71    1.09
  -5 -12   3    1.17    1.29
   4  12  -3    4.47    1.93
   4  12  -3    1.77    1.76
   4  12  -3    2.94    1.71
   3  12  -3    2.48    1.73
   3  12  -3    0.35    1.77
  -3 -12   3    2.82    1.50
   2  12  -3    1.39    1.76
   2  12  -3   -1.59    1.63
  -2 -12   3   -0.61    1.30
   9  11  -3    3.03    1.88
   9  11  -3    2.97    1.78
   9  11  -3    1.59    1.39
  -9 -11   3    2.65    1.30
  -9 -11   3    0.29    1.57
   8  11  -3    1.24    1.64
   8  11  -3    0.36    1.39
   8  11  -3    1.14    1.44
   8  11  -3   -1.55    1.66
  -8 -11   3    1.47    1.08
  -8 -11   3    0.11    1.47
   7  11  -3   -0.58    1.28
   7  11  -3   -0.09    1.45
   7  11  -3   -0.21    1.36
   7  11  -3   -0.73    1.40
  -7 -11   3    1.99    1.34
   6  11  -3    7.20    1.66
   6  11  -3    5.46    1.64
   6  11  -3    8.41    1.61
  -6 -11   3    7.28    1.53
   5  11  -3   -0.53    1.35
   5  11  -3    0.10    1.30
   5  11  -3    1.05    1.39
  -5 -11   3   -0.61    1.08
   4  11  -3    9.10    1.71
   4  11  -3    9.67    1.75
   4  11  -3    7.53    1.13
   4  11  -3    6.48    1.81
  -4 -11   3    8.22    1.30
   3  11  -3   19.80    1.27
   3  11  -3   21.47    2.43
   3  11  -3   21.07    2.28
  -3 -11   3   23.90    1.76
   2  11  -3    4.92    1.78
   2  11  -3    4.61    1.62
  -2 -11   3    5.40    1.36
   1  11  -3    0.96    1.55
   1  11  -3    0.93    1.54
  -1 -11   3   -0.34    1.12
   0  11  -3    1.14    1.61
   0  11  -3    3.73    1.85
   0 -11   3   -1.80    1.18
  -1  11  -3    5.16    2.26
  10  10  -3    4.84    1.85
  10  10  -3    1.32    1.83
 -10 -10   3    3.80    1.34
 -10 -10   3   -0.31    1.58
   9  10  -3    3.38    1.53
   9  10  -3    7.65    1.93
   9  10  -3    1.76    1.09
  -9 -10   3    4.27    1.57
  -9 -10   3    2.83    1.24
   8  10  -3    3.49    1.57
   8  10  -3    3.86    1.20
   8  10  -3    3.19    1.63
  -8 -10   3    6.74    1.25
  -8 -10   3    4.83    1.55
   7  10  -3    3.86    1.21
   7  10  -3    3.43    1.52
   7  10  -3    1.03    1.28
  -7 -10   3    1.49    1.31
  -7 -10   3    2.45    0.97
   6  10  -3    0.41    1.35
   6  10  -3    0.64    1.06
   6  10  -3    0.53    1.11
  -6 -10   3   -1.53    0.98
   5  10  -3   17.76    2.02
   5  10  -3   22.29    1.95
   5  10  -3   16.22    2.02
  -5 -10   3   22.96    1.72
   4  10  -3    2.84    1.29
   4  10  -3    3.34    1.34
  -4 -10   3    5.26    1.17
   3  10  -3    2.73    1.31
   3  10  -3    1.25    0.68
   3  10  -3    1.22    1.30
  -3 -10   3    1.44    0.95
  -3 -10   3    2.16    0.91
   2  10  -3    3.09    1.34
   2  10  -3    4.47    1.51
   2  10  -3    3.39    0.73
  -2 -10   3    1.44    0.99
   1  10  -3    4.92    1.60
   1  10  -3    6.62    1.67
   1  10  -3    5.69    0.75
  -1 -10   3    7.85    1.31
   0  10  -3    8.41    0.76
   0  10  -3    8.93    1.91
   0  10  -3    7.96    1.89
   0 -10   3   11.97    1.53
  -1  10  -3    2.59    1.60
  -1  10  -3   -0.66    1.44
   1 -10   3    2.73    1.18
  -2  10  -3    8.70    1.95
  -2  10  -3   14.10    2.37
   2 -10   3   15.69    1.91
  -3  10  -3   11.18    2.83
  -3  10  -3   12.11    2.50
   3 -10   3    8.79    2.06
  11   9  -3   -2.54    1.80
  11   9  -3    1.73    1.53
 -11  -9   3   -1.58    1.32
 -11  -9   3   -1.98    1.37
  10   9  -3    4.49    1.55
  10   9  -3    3.07    1.79
 -10  -9   3    3.42    1.30
 -10  -9   3    3.83    1.55
 -10  -9   3    4.60    1.36
   9   9  -3   26.87    1.39
   9   9  -3   29.05    2.56
   9   9  -3   27.05    2.37
  -9  -9   3   30.75    1.99
  -9  -9   3   28.39    2.37
  -9  -9   3   32.99    2.05
   8   9  -3    9.56    1.19
   8   9  -3   11.16    1.75
   8   9  -3   12.63    1.96
  -8  -9   3   10.64    1.41
  -8  -9   3   10.72    1.78
   7   9  -3    0.74    1.10
   7   9  -3    2.40    1.04
   7   9  -3    2.64    1.20
  -7  -9   3    1.38    1.13
  -7  -9   3    0.52    0.81
   6   9  -3    2.64    1.12
   6   9  -3    0.87    1.05
  -6  -9   3    0.91    0.76
  -6  -9   3    2.73    1.04
   5   9  -3   56.67    2.50
   5   9  -3   57.31    2.61
   5   9  -3   55.56    2.61
  -5  -9   3   56.24    2.46
   4   9  -3   20.54    1.81
   4   9  -3   20.69    1.67
  -4  -9   3   21.07    1.55
   3   9  -3    0.18    0.86
   3   9  -3   -0.14    0.58
   3   9  -3   -0.05    1.03
   3   9  -3   -0.78    0.93
  -3  -9   3   -1.74    0.70
  -3  -9   3   -0.13    0.77
   2   9  -3    2.39    0.65
   2   9  -3    1.75    1.20
   2   9  -3    5.64    1.30
   2   9  -3    1.74    0.90
   2   9  -3    2.91    0.83
  -2  -9   3    1.92    0.68
   1   9  -3    1.35    0.63
   1   9  -3    4.33    0.76
   1   9  -3    2.56    0.93
   1   9  -3    2.62    1.19
   1   9  -3    3.20    1.23
  -1  -9   3    2.60    0.80
   0   9  -3   -1.21    1.09
   0   9  -3    0.26    0.63
   0   9  -3   -0.40    0.55
   0   9  -3    0.10    0.57
   0   9  -3   -0.79    1.10
   0  -9   3   -0.27    0.83
  -1   9  -3   22.11    2.00
  -1   9  -3   22.90    1.13
  -1   9  -3   28.58    2.33
   1  -9   3   22.27    1.79
  -2   9  -3    8.32    0.90
  -2   9  -3   10.06    1.98
  -2   9  -3    6.64    1.73
   2  -9   3    6.26    1.17
  -3   9  -3    7.93    1.05
  -3   9  -3    3.57    1.63
  -3   9  -3    7.50    2.02
   3  -9   3    9.08    1.40
  -4   9  -3    3.94    1.86
  -4   9  -3    3.94    1.51
   4  -9   3    3.99    1.53
  11   8  -3    4.49    1.99
  11   8  -3    3.51    1.36
 -11  -8   3    1.63    1.44
 -11  -8   3    2.45    1.45
  10   8  -3   -2.92    1.40
  10   8  -3   -0.11    1.21
 -10  -8   3    0.23    1.39
 -10  -8   3    2.84    1.19
 -10  -8   3    0.37    0.84
   9   8  -3   12.95    0.60
   9   8  -3   13.95    1.75
   9   8  -3   17.42    2.17
  -9  -8   3   16.54    1.63
  -9  -8   3   15.00    1.58
  -9  -8   3   14.41    1.89
   8   8  -3   -0.52    0.92
   8   8  -3    1.04    0.70
   8   8  -3    1.55    1.00
   8   8  -3    3.25    1.23
  -8  -8   3    1.74    0.94
  -8  -8   3    2.39    0.94
  -8  -8   3    1.01    1.07
   7   8  -3    8.39    1.39
   7   8  -3    9.69    1.14
   7   8  -3    7.71    1.29
   7   8  -3    8.21    1.42
  -7  -8   3    9.23    1.17
  -7  -8   3    8.48    1.21
  -7  -8   3   10.01    1.56
   6   8  -3    2.34    1.27
   6   8  -3    4.43    1.16
   6   8  -3    2.62    1.15
   6   8  -3    4.00    1.17
   6   8  -3    4.54    0.99
  -6  -8   3    4.40    0.87
  -6  -8   3    3.86    1.04
   5   8  -3   21.21    1.61
   5   8  -3   24.43    1.73
   5   8  -3   19.61    1.51
  -5  -8   3   19.03    1.48
  -5  -8   3   19.10    1.22
   4   8  -3    9.78    1.37
   4   8  -3   11.38    1.34
   4   8  -3    9.79    1.31
   4   8  -3   11.00    1.30
  -4  -8   3   11.30    1.15
   3   8  -3    1.88    0.87
   3   8  -3    2.92    0.82
   3   8  -3    0.26    0.86
  -3  -8   3    1.73    0.73
  -3  -8   3    1.47    0.71
   2   8  -3   57.70    1.86
   2   8  -3   57.02    2.19
   2   8  -3   61.48    1.91
   2   8  -3   62.23    2.56
   2   8  -3   58.91    2.62
  -2  -8   3   60.20    2.03
  -2  -8   3   56.23    2.26
   1   8  -3   17.01    1.22
   1   8  -3   13.98    1.70
   1   8  -3   16.62    0.97
   1   8  -3   16.33    0.99
   1   8  -3   13.86    1.58
  -1  -8   3   14.94    1.14
   0   8  -3   15.73    1.56
   0   8  -3   18.99    1.03
   0   8  -3   19.58    1.07
   0   8  -3   19.60    1.73
   0   8  -3   19.13    0.99
   0  -8   3   18.39    1.29
  -1   8  -3   -0.42    1.02
  -1   8  -3    1.16    0.66
  -1   8  -3    1.10    1.09
  -1   8  -3    1.48    0.60
   1  -8   3    1.44    0.95
   1  -8   3    1.19    0.81
  -2   8  -3   16.11    1.10
  -2   8  -3   16.08    1.68
  -2   8  -3   18.56    1.78
   2  -8   3   15.67    1.52
   2  -8   3   16.64    1.71
  -3   8  -3    1.24    1.27
  -3   8  -3    1.63    0.79
  -3   8  -3    0.71    1.32
   3  -8   3    2.44    0.95
   3  -8   3    1.21    0.95
  -4   8  -3   14.27    2.01
  -4   8  -3   11.86    1.30
  -4   8  -3   13.35    2.14
   4  -8   3   14.69    1.94
   4  -8   3   13.12    1.76
  -5   8  -3    1.32    1.78
  -5   8  -3    0.96    1.58
  -5   8  -3    1.78    1.17
   5  -8   3   -0.56    1.24
   5  -8   3   -1.50    1.34
  11   7  -3    7.54    2.01
 -11  -7   3    8.29    1.58
 -11  -7   3    5.92    1.39
  10   7  -3    8.52    1.38
  10   7  -3   10.24    1.89
 -10  -7   3    9.40    1.41
 -10  -7   3    9.49    1.44
   9   7  -3    0.25    1.25
   9   7  -3    1.36    0.98
  -9  -7   3   -0.01    0.92
  -9  -7   3    1.82    1.00
  -9  -7   3    0.19    0.95
   8   7  -3    6.87    1.18
   8   7  -3    5.87    1.36
   8   7  -3    4.68    0.65
   8   7  -3    6.69    0.80
  -8  -7   3    6.37    1.15
  -8  -7   3    5.52    1.39
  -8  -7   3    6.00    1.16
   7   7  -3   -0.18    0.94
   7   7  -3   -0.31    0.58
   7   7  -3   -0.26    0.73
   7   7  -3    0.71    0.82
  -7  -7   3   -0.01    0.71
  -7  -7   3    0.46    0.73
  -7  -7   3   -0.80    0.81
   6   7  -3    0.23    0.78
   6   7  -3    1.84    0.88
   6   7  -3    1.15    0.65
   6   7  -3   -0.11    0.84
   6   7  -3    0.12    0.97
  -6  -7   3    1.44    0.86
  -6  -7   3    0.58    0.65
  -6  -7   3    0.80    0.65
   5   7  -3   -1.23    0.73
   5   7  -3    0.50    1.00
   5   7  -3   -0.29    0.68
  -5  -7   3    0.55    0.59
  -5  -7   3   -0.04    0.69
   4   7  -3    6.56    0.99
   4   7  -3    6.47    1.28
   4   7  -3    4.31    0.93
  -4  -7   3    5.61    0.96
  -4  -7   3    5.83    0.77
   3   7  -3   67.33    2.50
   3   7  -3   67.57    2.09
   3   7  -3   64.16    2.39
  -3  -7   3   65.81    2.28
  -3  -7   3   67.38    2.28
   2   7  -3   21.21    1.07
   2   7  -3   22.44    1.51
   2   7  -3   18.42    1.46
   2   7  -3   21.10    1.35
  -2  -7   3   21.95    1.28
  -2  -7   3   20.77    1.16
   1   7  -3    0.68    0.46
   1   7  -3    0.25    0.51
   1   7  -3    0.72    0.86
   1   7  -3    1.43    0.67
   1   7  -3    0.11    0.74
  -1  -7   3   -0.37    0.50
  -1  -7   3    0.65    0.49
   0   7  -3  124.92    4.13
   0   7  -3  124.16    3.02
   0   7  -3  128.81    2.98
   0   7  -3  124.37    4.01
   0   7  -3  128.63    3.12
   0  -7   3  126.31    3.81
   0  -7   3  129.50    3.64
  -1   7  -3    0.93    0.61
  -1   7  -3    2.39    1.03
  -1   7  -3    0.27    0.53
  -1   7  -3    2.02    1.03
   1  -7   3   -0.16    0.75
   1  -7   3    0.95    0.71
  -2   7  -3   51.90    2.75
  -2   7  -3   54.31    1.80
  -2   7  -3   51.09    2.68
   2  -7   3   51.14    2.41
   2  -7   3   52.54    2.25
  -3   7  -3   21.51    2.06
  -3   7  -3   23.03    1.89
  -3   7  -3   23.15    1.29
   3  -7   3   21.13    1.59
   3  -7   3   20.47    1.60
  -4   7  -3    4.53    1.47
  -4   7  -3    5.05    0.99
  -4   7  -3    2.66    1.37
   4  -7   3    3.92    1.25
   4  -7   3    2.52    0.86
  -5   7  -3    1.91    1.05
  -5   7  -3   -0.41    1.33
  -5   7  -3    3.10    1.49
   5  -7   3    0.93    1.15
   5  -7   3    2.13    1.14
  -6   7  -3   -0.35    1.20
  -6   7  -3   -0.03    1.67
  -6   7  -3    0.38    1.28
   6  -7   3    2.30    1.48
   6  -7   3   -1.12    1.06
  11   6  -3   10.19    2.09
 -11  -6   3    9.18    1.72
 -11  -6   3    9.19    1.64
  10   6  -3   -0.38    1.30
  10   6  -3    2.24    0.84
 -10  -6   3    3.10    1.20
 -10  -6   3    1.67    1.12
   9   6  -3    0.32    0.77
   9   6  -3    2.61    1.28
  -9  -6   3   -0.08    0.92
  -9  -6   3    0.11    0.86
   8   6  -3    3.50    0.82
   8   6  -3    4.07    0.88
   8   6  -3    3.83    0.40
   8   6  -3    3.38    0.39
   8   6  -3    2.74    1.19
  -8  -6   3    5.10    1.07
  -8  -6   3    4.13    1.00
  -8  -6   3    4.60    1.22
   7   6  -3    1.41    0.53
   7   6  -3    1.51    0.50
   7   6  -3    2.30    0.72
   7   6  -3    0.48    0.84
   7   6  -3    0.99    0.75
  -7  -6   3    3.01    0.99
  -7  -6   3    1.26    0.69
  -7  -6   3    0.67    0.72
   6   6  -3    0.01    0.59
   6   6  -3    0.60    0.73
   6   6  -3   -0.10    0.79
   6   6  -3   -1.11    0.59
   6   6  -3    0.95    0.81
  -6  -6   3    0.97    0.63
  -6  -6   3    0.18    0.68
   5   6  -3    4.27    0.80
   5   6  -3    6.68    0.93
   5   6  -3    5.75    0.88
   5   6  -3    5.50    0.86
   5   6  -3    5.91    1.03
  -5  -6   3    6.00    0.82
  -5  -6   3    4.60    0.81
  -5  -6   3    5.42    0.98
   4   6  -3    1.87    0.69
   4   6  -3    2.20    0.67
   4   6  -3    2.55    0.77
   4   6  -3    0.97    0.67
  -4  -6   3    2.54    0.72
   3   6  -3    0.38    0.78
   3   6  -3    2.76    0.84
   3   6  -3    0.48    0.69
   3   6  -3    0.70    0.81
   3   6  -3    1.69    0.70
   3   6  -3    0.90    0.60
  -3  -6   3    1.57    0.57
   2   6  -3   60.03    2.17
   2   6  -3   63.13    2.12
   2   6  -3   65.10    1.88
   2   6  -3   62.01    2.32
  -2  -6   3   66.24    2.03
  -2  -6   3   66.88    2.11
   1   6  -3    0.72    0.42
   1   6  -3    1.57    0.49
   1   6  -3    1.40    0.83
   1   6  -3    0.37    0.55
  -1  -6   3    1.83    0.56
  -1  -6   3    0.75    0.50
  -1  -6   3    1.49    0.45
   0   6  -3    3.29    0.57
   0   6  -3    3.83    0.59
   0   6  -3    3.27    0.90
   0   6  -3    4.17    0.56
   0  -6   3    3.80    0.80
   0  -6   3    3.98    0.70
  -1   6  -3    8.48    0.35
  -1   6  -3   10.31    1.37
  -1   6  -3    7.93    1.24
  -1   6  -3    8.40    0.74
  -1   6  -3    9.17    0.37
   1  -6   3    8.40    0.82
   1  -6   3    8.34    1.06
  -2   6  -3    9.80    1.35
  -2   6  -3   10.00    0.86
  -2   6  -3   10.30    1.45
   2  -6   3    9.55    1.15
   2  -6   3   11.59    1.11
  -3   6  -3   71.41    2.99
  -3   6  -3   74.77    3.20
  -3   6  -3   73.34    2.28
   3  -6   3   73.68    2.82
   3  -6   3   71.86    2.27
   3  -6   3   72.71    2.68
  -4   6  -3    9.88    1.08
  -4   6  -3    9.90    1.49
  -4   6  -3   11.86    1.73
   4  -6   3   11.58    1.54
   4  -6   3   11.08    1.40
   4  -6   3    9.63    1.43
  -5   6  -3    5.56    1.40
  -5   6  -3    3.29    1.43
  -5   6  -3    2.34    0.94
   5  -6   3    1.99    1.06
   5  -6   3    2.41    1.04
  -6   6  -3    3.29    1.19
  -6   6  -3    3.69    1.48
  -6   6  -3    5.02    1.69
   6  -6   3    4.95    1.36
   6  -6   3    2.87    1.21
  -7   6  -3   -1.71    1.58
  -7   6  -3   -0.58    1.42
  -7   6  -3   -1.02    1.24
   7  -6   3    0.16    1.30
   7  -6   3    0.54    1.29
  11   5  -3    4.47    1.63
 -11  -5   3    4.62    1.53
 -11  -5   3    5.33    1.45
  10   5  -3   15.79    1.97
  10   5  -3   10.96    0.95
 -10  -5   3   12.75    1.67
 -10  -5   3   11.57    1.69
   9   5  -3    1.28    0.64
   9   5  -3   -0.71    0.98
   9   5  -3   -0.37    0.60
  -9  -5   3    0.56    0.92
  -9  -5   3   -0.48    0.92
   8   5  -3    1.00    0.94
   8   5  -3    0.00    0.54
   8   5  -3    1.30    0.63
  -8  -5   3    0.92    0.79
  -8  -5   3   -0.58    0.73
   7   5  -3   28.96    1.32
   7   5  -3   28.49    0.99
   7   5  -3   27.09    1.77
   7   5  -3   27.03    1.23
  -7  -5   3   27.85    1.54
  -7  -5   3   26.25    1.52
  -7  -5   3   26.42    1.72
   6   5  -3   23.94    1.53
   6   5  -3   27.30    1.12
   6   5  -3   26.51    1.64
   6   5  -3   25.03    1.25
   6   5  -3   28.40    1.23
  -6  -5   3   26.32    1.55
  -6  -5   3   28.54    1.62
  -6  -5   3   27.24    1.34
   5   5  -3   21.44    1.08
   5   5  -3   20.39    1.15
   5   5  -3   20.01    1.29
   5   5  -3   20.73    1.32
   5   5  -3   20.96    1.04
  -5  -5   3   20.14    1.32
  -5  -5   3   18.82    1.13
  -5  -5   3   19.39    1.14
   4   5  -3   79.30    2.33
   4   5  -3   74.01    2.21
   4   5  -3   77.76    2.37
   4   5  -3   75.33    2.31
   4   5  -3   79.14    2.28
   4   5  -3   76.80    2.61
  -4  -5   3   73.95    2.47
  -4  -5   3   77.78    2.36
  -4  -5   3   77.29    2.48
   3   5  -3   53.12    1.73
   3   5  -3   52.08    1.80
   3   5  -3   55.18    1.87
   3   5  -3   54.28    1.93
   3   5  -3   53.60    1.72
   3   5  -3   54.25    1.96
  -3  -5   3   54.58    1.88
  -3  -5   3   54.66    1.87
  -3  -5   3   54.13    1.72
   2   5  -3    1.81    0.61
   2   5  -3    2.35    0.75
   2   5  -3    1.67    0.46
   2   5  -3    2.41    0.57
   2   5  -3    1.54    0.59
   2   5  -3    2.48    0.56
  -2  -5   3    2.04    0.47
  -2  -5   3    2.36    0.45
  -2  -5   3    2.77    0.57
   1   5  -3   14.11    1.20
   1   5  -3   15.19    1.09
   1   5  -3   10.56    1.04
   1   5  -3   13.32    0.93
   1   5  -3   14.56    0.75
   1   5  -3   13.57    1.08
   1   5  -3   15.72    0.88
   1   5  -3   14.82    0.78
  -1  -5   3   14.73    0.86
  -1  -5   3   12.31    1.02
   0   5  -3   38.54    1.81
   0   5  -3   40.07    1.80
   0   5  -3   41.18    1.64
   0   5  -3   40.90    1.95
   0   5  -3   43.27    1.39
   0   5  -3   43.89    1.30
   0   5  -3   44.14    1.36
   0  -5   3   43.05    1.72
  -1   5  -3   -0.11    0.17
  -1   5  -3   -0.55    0.37
  -1   5  -3    0.01    0.20
  -1   5  -3   -0.18    0.61
   1  -5   3   -0.07    0.44
   1  -5   3    0.06    0.43
  -2   5  -3   61.27    1.90
  -2   5  -3   59.84    2.51
   2  -5   3   59.77    2.14
   2  -5   3   63.77    1.89
   2  -5   3   59.87    2.31
  -3   5  -3   12.21    1.36
  -3   5  -3   12.25    1.24
  -3   5  -3   10.40    0.92
   3  -5   3   11.21    0.94
   3  -5   3   11.45    1.04
   3  -5   3   11.62    1.12
  -4   5  -3   34.62    2.16
  -4   5  -3   35.00    2.16
  -4   5  -3   34.20    1.57
   4  -5   3   33.69    1.89
   4  -5   3   34.66    1.85
   4  -5   3   33.96    1.71
  -5   5  -3   15.50    1.28
  -5   5  -3   15.01    1.83
  -5   5  -3   18.44    1.81
   5  -5   3   16.98    1.38
   5  -5   3   16.30    1.35
  -6   5  -3   -1.13    0.91
  -6   5  -3    0.56    1.09
  -6   5  -3    2.07    1.32
   6  -5   3    0.26    0.69
   6  -5   3   -0.06    0.96
  -7   5  -3    5.92    1.38
  -7   5  -3    6.08    1.88
  -7   5  -3    6.96    1.70
   7  -5   3    6.90    1.51
   7  -5   3    6.95    1.52
  -8   5  -3   -2.75    1.17
  -8   5  -3   -0.70    1.53
  -8   5  -3    0.46    1.61
   8  -5   3    0.28    1.48
   8  -5   3   -0.80    1.33
  11   4  -3    2.69    1.51
 -11  -4   3    0.93    0.99
 -11  -4   3    1.98    1.38
  10   4  -3    2.32    1.27
 -10  -4   3    1.07    1.03
 -10  -4   3    3.22    1.16
   9   4  -3   25.09    1.01
   9   4  -3   25.88    2.02
   9   4  -3   26.14    0.97
  -9  -4   3   27.58    1.84
  -9  -4   3   27.76    1.67
   8   4  -3    5.33    0.64
   8   4  -3    5.97    1.22
   8   4  -3    5.48    0.63
  -8  -4   3    7.15    1.11
  -8  -4   3    6.69    1.05
   7   4  -3    5.02    0.60
   7   4  -3    6.29    1.08
   7   4  -3    6.14    0.66
  -7  -4   3    6.08    1.02
  -7  -4   3    4.81    0.93
   6   4  -3    1.13    0.73
   6   4  -3    1.83    0.46
   6   4  -3    1.46    0.41
   6   4  -3    2.51    0.46
   6   4  -3   -0.16    0.84
  -6  -4   3    1.54    0.74
  -6  -4   3    1.58    0.65
  -6  -4   3    1.43    0.55
  -6  -4   3    1.71    0.39
   5   4  -3  153.82    3.52
   5   4  -3  160.86    3.58
   5   4  -3  154.30    3.97
   5   4  -3  156.74    3.67
   5   4  -3  157.11    4.13
  -5  -4   3  154.15    3.96
  -5  -4   3  157.91    3.59
  -5  -4   3  154.84    3.91
  -5  -4   3  151.55    4.14
   4   4  -3   16.56    1.02
   4   4  -3   15.36    0.91
   4   4  -3   17.57    0.90
   4   4  -3   17.70    0.94
   4   4  -3   16.74    1.03
   4   4  -3   16.92    0.81
   4   4  -3   15.21    1.19
   4   4  -3   17.51    1.09
  -4  -4   3   18.46    1.02
  -4  -4   3   17.08    0.94
  -4  -4   3   16.80    0.88
   3   4  -3   30.20    1.26
   3   4  -3   31.88    1.39
   3   4  -3   30.87    1.15
   3   4  -3   30.75    1.19
   3   4  -3   30.60    1.17
   3   4  -3   30.53    1.25
  -3  -4   3   30.45    1.24
  -3  -4   3   29.64    1.18
  -3  -4   3   31.09    1.29
  -3  -4   3   32.31    1.30
   2   4  -3   12.95    0.90
   2   4  -3   12.92    0.73
   2   4  -3   14.00    0.91
   2   4  -3   14.34    0.88
   2   4  -3   15.15    0.86
   2   4  -3   13.39    0.75
  -2  -4   3   12.44    0.82
  -2  -4   3   13.11    0.73
  -2  -4   3   14.15    0.90
  -2  -4   3   14.07    0.89
  -2  -4   3   13.30    0.79
  -2  -4   3   14.11    0.76
   1   4  -3   21.73    0.87
   1   4  -3   22.44    0.96
   1   4  -3   21.04    0.92
   1   4  -3   22.77    1.13
   1   4  -3   21.62    1.21
   1   4  -3   21.67    1.03
  -1  -4   3   20.20    1.02
  -1  -4   3   20.58    0.91
   0   4  -3    5.10    0.79
   0   4  -3    4.56    0.46
   0   4  -3    4.67    0.50
   0   4  -3    5.91    0.85
   0   4  -3    5.25    0.68
   0   4  -3    5.38    0.87
   0  -4   3    4.93    0.54
   0  -4   3    5.12    0.71
  -1   4  -3   20.56    0.62
  -1   4  -3   20.05    1.26
  -1   4  -3   20.00    0.93
  -1   4  -3   22.64    1.29
  -1   4  -3   21.59    1.14
  -1   4  -3   21.11    1.37
  -1   4  -3   21.37    0.64
   1  -4   3   20.46    1.09
   1  -4   3   20.17    0.97
  -2   4  -3  143.83    3.47
  -2   4  -3  153.07    4.34
  -2   4  -3  140.00    4.07
  -2   4  -3  136.56    3.74
  -2   4  -3  147.20    4.12
   2  -4   3  150.00    3.47
   2  -4   3  145.24    3.69
   2  -4   3  146.27    3.87
  -3   4  -3  104.54    3.40
  -3   4  -3  108.57    2.84
   3  -4   3  104.69    3.08
   3  -4   3  102.93    3.15
   3  -4   3  105.10    2.82
  -4   4  -3    7.51    1.24
  -4   4  -3   10.68    1.30
   4  -4   3    8.00    1.07
   4  -4   3    9.65    1.12
   4  -4   3    7.94    1.10
  -5   4  -3   12.70    1.47
  -5   4  -3   12.60    1.11
  -5   4  -3   12.36    1.35
   5  -4   3   11.74    1.12
   5  -4   3   12.61    1.29
  -6   4  -3   13.22    1.84
  -6   4  -3   14.71    1.33
  -6   4  -3   13.24    1.58
   6  -4   3   15.31    1.49
   6  -4   3   14.64    1.47
  -7   4  -3    3.94    1.43
  -7   4  -3    3.76    1.29
  -7   4  -3    4.33    1.13
   7  -4   3    5.80    1.17
   7  -4   3    3.35    1.13
  -8   4  -3    3.72    1.29
  -8   4  -3    3.16    1.62
  -8   4  -3    0.52    1.43
   8  -4   3    1.89    1.22
   8  -4   3    2.14    1.25
  -9   4  -3    1.90    1.42
  -9   4  -3    1.94    1.47
  -9   4  -3    1.01    1.78
   9  -4   3    2.50    1.57
   9  -4   3    1.67    1.58
  11   3  -3    6.58    1.75
 -11  -3   3    7.10    1.61
 -11  -3   3    5.16    1.58
  10   3  -3    0.22    1.30
 -10  -3   3   -1.59    0.99
 -10  -3   3   -1.60    0.93
   9   3  -3    1.84    1.04
  -9  -3   3    1.29    0.93
  -9  -3   3    2.50    1.00
   8   3  -3    1.83    0.32
   8   3  -3    2.49    1.01
   8   3  -3    1.82    0.29
  -8  -3   3    1.48    0.87
  -8  -3   3    1.41    0.70
  -8  -3   3    1.58    0.33
   7   3  -3    0.73    0.70
   7   3  -3   -0.58    0.40
   7   3  -3   -0.21    0.26
  -7  -3   3   -0.91    0.64
  -7  -3   3   -0.07    0.31
  -7  -3   3   -1.10    0.60
   6   3  -3   51.15    1.47
   6   3  -3   51.83    1.37
   6   3  -3   51.07    2.07
  -6  -3   3   50.87    2.02
  -6  -3   3   52.29    1.47
  -6  -3   3   49.44    1.88
   5   3  -3   21.25    0.74
   5   3  -3   20.77    0.87
   5   3  -3   18.70    1.22
   5   3  -3   21.34    1.22
   5   3  -3   21.11    0.81
  -5  -3   3   21.34    1.14
  -5  -3   3   21.78    1.19
  -5  -3   3   21.43    0.91
   4   3  -3    2.07    0.55
   4   3  -3    2.50    0.75
   4   3  -3    3.48    0.67
   4   3  -3    3.68    0.69
   4   3  -3    3.00    0.39
   4   3  -3    2.74    0.45
   4   3  -3    2.74    0.40
  -4  -3   3    2.40    0.51
  -4  -3   3    2.65    0.55
  -4  -3   3    2.95    0.45
   3   3  -3  195.56    4.44
   3   3  -3  195.86    4.20
   3   3  -3  191.14    4.53
   3   3  -3  192.63    4.12
   3   3  -3  193.18    4.37
   3   3  -3  189.99    4.42
   3   3  -3  195.56    4.30
  -3  -3   3  183.61    4.41
  -3  -3   3  192.03    4.31
  -3  -3   3  192.39    4.35
   2   3  -3    3.92    0.54
   2   3  -3    3.43    0.47
   2   3  -3    3.86    0.57
   2   3  -3    3.13    0.51
   2   3  -3    3.37    0.58
   2   3  -3    3.52    0.43
  -2  -3   3    4.08    0.53
  -2  -3   3    3.40    0.45
  -2  -3   3    3.65    0.54
  -2  -3   3    3.90    0.57
   1   3  -3    4.08    0.44
   1   3  -3    4.38    0.49
   1   3  -3    3.82    0.47
   1   3  -3    4.08    0.52
   1   3  -3    5.43    0.47
   1   3  -3    3.91    0.60
  -1  -3   3    3.93    0.49
  -1  -3   3    3.71    0.58
  -1  -3   3    3.87    0.39
   0   3  -3   45.04    1.64
   0   3  -3   45.94    1.26
   0   3  -3   43.38    1.34
   0   3  -3   45.78    1.58
   0   3  -3   44.63    1.36
   0   3  -3   45.94    1.54
   0  -3   3   45.39    1.33
   0  -3   3   43.41    1.61
   0  -3   3   43.84    1.49
  -1   3  -3  114.03    3.11
  -1   3  -3  112.45    2.84
  -1   3  -3  113.30    2.74
  -1   3  -3  111.97    2.39
  -1   3  -3  114.28    2.41
  -1   3  -3  115.02    3.00
  -1   3  -3  110.00    3.14
   1  -3   3  110.35    2.78
   1  -3   3  112.03    2.97
   1  -3   3  119.63    2.74
  -2   3  -3   46.77    1.50
  -2   3  -3   47.29    1.85
  -2   3  -3   44.33    1.81
  -2   3  -3   46.34    1.67
  -2   3  -3   47.43    1.79
   2  -3   3   45.93    1.60
   2  -3   3   47.80    1.50
   2  -3   3   46.51    1.68
  -3   3  -3   35.26    1.71
  -3   3  -3   36.05    1.66
  -3   3  -3   40.20    1.44
  -3   3  -3   37.11    1.74
  -3   3  -3   36.68    1.72
   3  -3   3   36.24    1.82
   3  -3   3   35.96    1.49
   3  -3   3   35.65    1.91
   3  -3   3   38.67    1.45
  -4   3  -3   20.00    1.14
  -4   3  -3   19.69    1.49
   4  -3   3   20.46    1.30
   4  -3   3   19.91    1.17
   4  -3   3   18.93    1.25
  -5   3  -3    4.88    0.86
  -5   3  -3    6.11    1.06
  -5   3  -3    6.24    1.03
   5  -3   3    6.06    1.00
   5  -3   3    5.85    0.91
  -6   3  -3   16.39    1.50
  -6   3  -3   19.02    1.42
  -6   3  -3   16.64    1.70
   6  -3   3   15.48    0.54
   6  -3   3   14.34    1.25
   6  -3   3   15.92    0.52
   6  -3   3   15.88    1.25
  -7   3  -3   -1.15    0.87
  -7   3  -3    1.45    0.90
  -7   3  -3    1.12    0.97
   7  -3   3   -0.56    0.62
   7  -3   3   -0.01    0.33
   7  -3   3   -0.21    0.86
  -8   3  -3    9.97    1.67
  -8   3  -3    9.46    1.51
  -8   3  -3    8.17    1.38
   8  -3   3    8.04    0.64
   8  -3   3    5.58    1.43
   8  -3   3    8.81    1.49
  -9   3  -3    1.23    1.26
  -9   3  -3    1.93    1.37
  -9   3  -3    0.00    1.42
   9  -3   3    0.52    1.07
   9  -3   3    0.69    1.36
 -10   3  -3    3.14    1.61
 -10   3  -3    4.23    1.61
  10  -3   3    0.63    1.56
  10  -3   3    5.59    2.03
  11   2  -3   16.98    2.34
 -11  -2   3   13.62    2.02
 -11  -2   3   16.70    2.29
  10   2  -3   14.96    2.02
 -10  -2   3   15.02    1.77
 -10  -2   3   19.46    2.02
   9   2  -3    2.10    1.12
  -9  -2   3    2.37    1.04
  -9  -2   3    2.62    0.57
  -9  -2   3    3.01    1.05
   8   2  -3    3.55    1.06
  -8  -2   3    5.00    1.13
  -8  -2   3    3.42    0.57
  -8  -2   3    3.37    0.97
   7   2  -3   38.29    1.93
   7   2  -3   38.49    1.42
  -7  -2   3   37.99    1.79
  -7  -2   3   38.02    1.31
  -7  -2   3   36.04    1.87
   6   2  -3   20.44    0.97
   6   2  -3   19.73    0.49
   6   2  -3   19.27    1.29
   6   2  -3   19.23    0.49
  -6  -2   3   19.73    0.91
  -6  -2   3   20.76    1.53
  -6  -2   3   20.34    1.32
  -6  -2   3   20.50    1.16
   5   2  -3   40.16    0.92
   5   2  -3   40.82    0.91
   5   2  -3   41.80    1.31
   5   2  -3   39.89    1.63
   5   2  -3   41.58    2.02
   5   2  -3   40.31    1.77
  -5  -2   3   38.89    1.52
  -5  -2   3   40.71    1.32
  -5  -2   3   40.07    1.70
   4   2  -3   37.20    1.41
   4   2  -3   38.48    1.23
   4   2  -3   37.20    0.90
   4   2  -3   37.81    1.54
   4   2  -3   35.54    1.55
   4   2  -3   37.92    1.46
   4   2  -3   37.23    0.94
  -4  -2   3   38.89    1.47
  -4  -2   3   39.29    1.43
  -4  -2   3   38.13    1.25
  -4  -2   3   39.18    1.52
   3   2  -3   32.74    0.88
   3   2  -3   33.51    1.21
   3   2  -3   31.71    1.31
   3   2  -3   32.62    1.29
   3   2  -3   34.56    1.12
   3   2  -3   33.79    1.20
  -3  -2   3   32.48    1.28
  -3  -2   3   31.38    1.19
  -3  -2   3   32.01    1.14
   2   2  -3    2.80    0.34
   2   2  -3    2.83    0.38
   2   2  -3    2.72    0.42
   2   2  -3    3.57    0.50
   2   2  -3    2.93    0.49
   2   2  -3    2.09    0.40
   2   2  -3    3.96    0.59
  -2  -2   3    2.71    0.49
  -2  -2   3    2.66    0.31
  -2  -2   3    3.00    0.42
  -2  -2   3    3.21    0.46
   1   2  -3  403.68    8.03
   1   2  -3  408.42    8.21
   1   2  -3  414.11    8.38
   1   2  -3  419.75    8.29
   1   2  -3  426.39    8.42
   1   2  -3  414.49    8.23
  -1  -2   3  391.14    8.03
  -1  -2   3  400.09    8.18
  -1  -2   3  398.98    8.40
  -1  -2   3  402.67    8.41
   0   2  -3  147.59    3.45
   0   2  -3  148.70    3.48
   0   2  -3  144.09    3.27
   0   2  -3  148.82    3.38
   0   2  -3  142.62    3.19
   0   2  -3  148.53    3.15
   0  -2   3  144.68    3.34
   0  -2   3  143.17    3.48
   0  -2   3  146.12    3.13
  -1   2  -3    5.85    0.51
  -1   2  -3    4.81    0.61
  -1   2  -3    6.15    0.67
  -1   2  -3    5.49    0.51
  -1   2  -3    5.59    0.69
  -1   2  -3    5.62    0.35
   1  -2   3    5.73    0.52
   1  -2   3    5.67    0.64
   1  -2   3    5.86    0.50
   1  -2   3    5.10    0.44
  -2   2  -3    0.50    0.48
  -2   2  -3    0.83    0.19
  -2   2  -3    0.92    0.51
  -2   2  -3    1.16    0.46
  -2   2  -3    0.18    0.49
  -2   2  -3    0.19    0.36
   2  -2   3    0.69    0.31
   2  -2   3    1.19    0.38
   2  -2   3    0.84    0.43
   2  -2   3    0.64    0.18
   2  -2   3    0.63    0.36
  -3   2  -3   25.34    1.36
  -3   2  -3   25.31    0.68
  -3   2  -3   25.59    1.12
  -3   2  -3   24.97    1.17
  -3   2  -3   25.21    1.28
  -3   2  -3   24.87    1.31
   3  -2   3   25.07    0.67
   3  -2   3   24.56    1.10
   3  -2   3   25.45    1.45
   3  -2   3   25.75    1.19
   3  -2   3   22.85    1.09
  -4   2  -3   12.46    1.15
  -4   2  -3   12.37    1.18
  -4   2  -3   12.16    1.01
  -4   2  -3   13.51    0.51
  -4   2  -3   14.69    0.94
  -4   2  -3   12.88    1.09
   4  -2   3   12.93    0.97
   4  -2   3   13.24    1.00
   4  -2   3   12.72    0.52
   4  -2   3   12.81    1.41
  -5   2  -3   65.81    2.54
  -5   2  -3   67.22    2.42
  -5   2  -3   66.99    2.26
   5  -2   3   67.42    1.68
   5  -2   3   73.10    2.66
   5  -2   3   63.87    2.39
   5  -2   3   64.49    2.34
  -6   2  -3   10.41    1.11
  -6   2  -3    8.66    1.10
  -6   2  -3    8.90    1.14
   6  -2   3   10.88    0.77
   6  -2   3    9.37    1.13
   6  -2   3    9.62    1.19
  -7   2  -3   37.69    2.27
  -7   2  -3   37.44    1.96
  -7   2  -3   36.05    1.90
   7  -2   3   37.10    1.94
   7  -2   3   33.61    2.05
   7  -2   3   38.42    1.44
  -8   2  -3   12.46    1.39
  -8   2  -3    8.29    1.42
  -8   2  -3   16.53    2.06
   8  -2   3    9.79    1.47
   8  -2   3   10.42    1.40
   8  -2   3   13.52    1.23
  -9   2  -3   -1.62    1.02
  -9   2  -3    2.61    1.17
  -9   2  -3    1.19    1.28
   9  -2   3    2.01    0.84
   9  -2   3    0.36    0.96
   9  -2   3   -0.86    1.01
 -10   2  -3    6.55    1.55
 -10   2  -3    4.62    1.40
 -10   2  -3    3.93    1.74
  10  -2   3    3.87    1.38
  10  -2   3    5.94    1.58
  11   1  -3    1.73    1.68
  11   1  -3    0.10    1.65
 -11  -1   3    0.15    1.43
 -11  -1   3    0.35    1.49
  10   1  -3    1.04    1.47
  10   1  -3   -1.15    1.21
 -10  -1   3   -0.49    1.13
 -10  -1   3   -0.04    0.76
 -10  -1   3   -0.53    1.17
   9   1  -3   18.27    1.80
  -9  -1   3   14.69    1.82
  -9  -1   3   16.90    1.61
  -9  -1   3   17.05    1.17
   8   1  -3    0.13    0.90
  -8  -1   3    1.78    0.62
  -8  -1   3    0.63    0.62
  -8  -1   3    2.57    1.06
   7   1  -3   37.63    1.94
   7   1  -3   37.26    1.64
  -7  -1   3   39.64    2.04
  -7  -1   3   37.70    1.79
  -7  -1   3   38.49    1.46
   6   1  -3   19.18    1.07
   6   1  -3   16.67    1.23
  -6  -1   3   18.15    0.95
  -6  -1   3   19.24    1.36
  -6  -1   3   16.27    1.06
   5   1  -3   31.28    1.74
   5   1  -3   36.63    1.52
   5   1  -3   35.65    1.69
   5   1  -3   35.36    1.30
  -5  -1   3   34.30    1.24
  -5  -1   3   33.72    1.39
  -5  -1   3   35.55    1.60
  -5  -1   3   32.15    1.52
   4   1  -3    0.19    0.54
   4   1  -3    0.25    0.58
   4   1  -3    0.55    0.36
   4   1  -3    0.68    0.55
   4   1  -3    0.28    0.42
  -4  -1   3    0.20    0.46
  -4  -1   3    0.38    0.35
  -4  -1   3    0.53    0.32
  -4  -1   3    0.47    0.31
   3   1  -3    2.75    0.57
   3   1  -3    2.64    0.44
   3   1  -3    3.29    0.50
   3   1  -3    2.25    0.58
   3   1  -3    3.45    0.47
  -3  -1   3    2.71    0.54
  -3  -1   3    2.34    0.41
  -3  -1   3    2.81    0.49
  -3  -1   3    2.97    0.51
   2   1  -3   13.79    0.72
   2   1  -3   12.95    0.67
   2   1  -3   12.32    0.65
   2   1  -3   11.95    0.57
   2   1  -3   12.81    0.42
  -2  -1   3   12.58    0.67
  -2  -1   3   12.81    0.68
  -2  -1   3   11.96    0.66
  -2  -1   3   13.11    0.39
  -2  -1   3   12.68    0.76
   1   1  -3  619.85   12.18
   1   1  -3  638.84   12.49
   1   1  -3  639.72   12.35
   1   1  -3  656.36   12.61
   1   1  -3  648.78   12.63
   1   1  -3  628.38   12.61
  -1  -1   3  627.88   12.33
  -1  -1   3  638.03   12.61
  -1  -1   3  632.83   12.64
  -1  -1   3  619.82   12.50
   0   1  -3  213.91    4.44
   0   1  -3  203.90    4.16
   0   1  -3  214.02    4.54
   0   1  -3  218.92    4.58
   0   1  -3  209.85    4.41
   0  -1   3  204.67    4.56
   0  -1   3  209.47    4.43
   0  -1   3  205.71    4.54
   0  -1   3  210.58    4.42
   0  -1   3  202.63    4.14
  -1   1  -3  226.02    4.79
  -1   1  -3  237.34    5.07
  -1   1  -3  239.35    5.10
  -1   1  -3  231.02    4.95
  -1   1  -3  233.59    4.83
  -1   1  -3  235.95    5.09
   1  -1   3  241.94    5.14
   1  -1   3  229.19    4.80
   1  -1   3  234.84    5.06
   1  -1   3  243.12    4.95
  -2   1  -3   36.93    1.33
  -2   1  -3   35.93    1.22
  -2   1  -3   37.47    1.32
  -2   1  -3   37.85    1.22
  -2   1  -3   36.26    1.38
  -2   1  -3   35.26    0.99
   2  -1   3   35.94    1.31
   2  -1   3   36.08    0.98
   2  -1   3   36.87    1.21
   2  -1   3   36.09    1.18
   2  -1   3   35.11    1.30
  -3   1  -3  645.01   13.00
  -3   1  -3  638.36   13.20
  -3   1  -3  617.00   12.89
  -3   1  -3  672.33   13.04
  -3   1  -3  668.70   13.12
  -3   1  -3  617.88   12.52
   3  -1   3  632.98   13.01
   3  -1   3  639.36   12.95
   3  -1   3  623.84   13.04
   3  -1   3  653.49   13.21
   3  -1   3  654.40   12.90
  -4   1  -3    4.94    0.71
  -4   1  -3    3.97    0.78
  -4   1  -3    3.54    0.42
  -4   1  -3    4.05    0.77
  -4   1  -3    4.57    0.78
  -4   1  -3    4.66    0.69
   4  -1   3    3.94    0.68
   4  -1   3    4.46    0.46
   4  -1   3    3.85    0.75
   4  -1   3    4.83    0.77
   4  -1   3    4.19    0.68
  -5   1  -3    2.76    0.73
  -5   1  -3    2.37    0.44
  -5   1  -3    3.17    0.79
  -5   1  -3    3.60    0.75
  -5   1  -3    2.19    0.81
   5  -1   3    3.27    0.53
   5  -1   3    2.00    0.81
   5  -1   3    2.25    0.79
   5  -1   3    3.13    0.73
  -6   1  -3   -0.10    0.55
  -6   1  -3    0.57    0.58
  -6   1  -3   -0.06    0.39
  -6   1  -3    0.30    0.77
  -6   1  -3   -0.13    0.45
   6  -1   3   -0.08    0.60
   6  -1   3    0.47    0.55
   6  -1   3   -0.01    0.47
  -7   1  -3   10.59    0.85
  -7   1  -3    8.49    1.36
  -7   1  -3   10.90    1.19
  -7   1  -3   13.04    1.51
  -7   1  -3   10.08    1.17
   7  -1   3   14.88    1.41
   7  -1   3   10.99    1.20
   7  -1   3   11.10    1.09
  -8   1  -3    3.43    0.99
  -8   1  -3    3.56    0.92
  -8   1  -3    2.14    1.04
   8  -1   3    2.52    1.08
   8  -1   3    3.75    1.00
   8  -1   3    4.15    1.08
  -9   1  -3    9.49    1.69
  -9   1  -3   10.25    1.36
  -9   1  -3   11.51    1.59
   9  -1   3   10.53    1.69
   9  -1   3   10.57    1.48
 -10   1  -3    7.28    1.30
 -10   1  -3    4.76    1.65
 -10   1  -3    6.58    1.57
  10  -1   3    6.45    1.69
  10  -1   3    5.78    1.52
 -11   1  -3    7.31    1.69
 -11   1  -3    8.73    1.52
 -11   1  -3    9.41    2.14
  11  -1   3    8.71    1.82
  10   0  -3    3.13    1.48
  10   0  -3    2.97    1.51
 -10   0   3    0.38    0.99
 -10   0   3    0.77    1.12
 -10   0   3    2.40    1.52
   9   0  -3    2.46    1.20
   9   0  -3    1.38    1.35
  -9   0   3   -0.09    1.04
  -9   0   3    2.31    1.00
  -9   0   3    0.28    1.01
   8   0  -3   82.26    3.09
   8   0  -3   73.06    2.99
  -8   0   3   74.74    3.20
  -8   0   3   79.94    2.57
  -8   0   3   77.77    2.84
   7   0  -3   86.06    3.04
   7   0  -3   84.56    3.00
   7   0  -3   80.57    2.81
  -7   0   3   88.01    3.25
  -7   0   3   86.00    2.85
  -7   0   3   84.59    2.58
   6   0  -3  267.34    6.35
   6   0  -3  262.77    6.09
  -6   0   3  261.27    6.60
  -6   0   3  270.24    5.98
  -6   0   3  262.26    5.30
  -6   0   3  263.05    6.18
   5   0  -3   39.24    1.74
   5   0  -3   41.37    1.62
   5   0  -3   38.50    1.65
  -5   0   3   39.55    1.58
  -5   0   3   40.87    1.51
  -5   0   3   40.49    1.78
  -5   0   3   38.89    1.82
  -5   0   3   40.40    0.96
   4   0  -3   25.51    1.17
   4   0  -3   24.99    1.23
   4   0  -3   22.39    1.27
   4   0  -3   24.12    1.14
   4   0  -3   25.55    1.20
  -4   0   3   24.14    1.04
  -4   0   3   21.70    1.39
  -4   0   3   23.97    1.20
  -4   0   3   23.58    1.04
   3   0  -3    7.13    0.65
   3   0  -3    7.88    0.64
   3   0  -3    5.79    0.70
   3   0  -3    7.55    0.81
   3   0  -3    7.69    0.62
  -3   0   3    5.98    0.50
  -3   0   3    7.36    0.59
  -3   0   3    7.69    0.66
  -3   0   3    7.02    0.65
   2   0  -3   17.59    0.67
   2   0  -3   18.66    0.83
   2   0  -3   16.49    0.76
   2   0  -3   17.17    0.86
   2   0  -3   16.22    0.87
  -2   0   3   16.96    0.89
  -2   0   3   17.10    0.83
  -2   0   3   16.77    0.76
  -2   0   3   17.43    0.71
   1   0  -3  210.34    4.31
   1   0  -3  211.67    4.43
   1   0  -3  207.66    4.45
   1   0  -3  196.91    4.04
   1   0  -3  201.11    4.11
   1   0  -3  205.40    4.45
  -1   0   3  200.97    4.45
  -1   0   3  196.50    4.09
  -1   0   3  203.26    4.43
  -1   0   3  203.31    4.31
  -1   0   3  199.53    4.07
  -1   0   3  210.89    4.46
   0   0  -3    8.94    0.52
   0   0  -3    6.70    0.50
   0   0  -3    7.92    0.52
   0   0  -3    8.16    0.48
   0   0   3    8.08    0.52
   0   0   3    8.35    0.49
   0   0   3    7.92    0.45
   0   0   3    7.79    0.52
  -1   0  -3  342.80    6.84
  -1   0  -3  344.17    6.87
  -1   0  -3  325.53    6.59
  -1   0  -3  327.86    6.74
  -1   0  -3  329.11    6.79
  -1   0  -3  345.20    6.89
   1   0   3  332.21    6.90
   1   0   3  320.24    6.57
   1   0   3  335.18    6.74
   1   0   3  337.98    6.78
   1   0   3  332.10    6.86
   1   0   3  343.90    6.86
  -2   0  -3   99.59    2.35
  -2   0  -3   98.30    2.49
  -2   0  -3   98.28    2.29
  -2   0  -3   97.65    2.41
  -2   0  -3   97.29    2.42
  -2   0  -3  103.71    2.51
   2   0   3   96.90    2.32
   2   0   3  100.76    2.40
   2   0   3   96.75    2.44
   2   0   3   96.17    2.49
   2   0   3   98.77    2.26
  -3   0  -3   16.62    0.72
  -3   0  -3   17.18    0.93
  -3   0  -3   17.07    0.88
  -3   0  -3   16.99    0.89
  -3   0  -3   16.56    0.82
  -3   0  -3   17.41    0.83
   3   0   3   17.64    0.89
   3   0   3   16.81    0.95
   3   0   3   16.45    0.86
   3   0   3   16.59    0.82
   3   0   3   17.47    0.88
   3   0   3   16.95    0.73
  -4   0  -3   64.77    1.80
  -4   0  -3   64.20    1.88
  -4   0  -3   66.24    2.06
  -4   0  -3   65.69    2.11
  -4   0  -3   64.25    1.97
  -4   0  -3   65.33    2.11
   4   0   3   63.82    2.05
   4   0   3   64.38    2.06
   4   0   3   63.91    1.89
   4   0   3   67.40    2.16
   4   0   3   62.97    1.99
   4   0   3   66.68    1.80
  -5   0  -3   14.00    1.05
  -5   0  -3   12.35    1.06
  -5   0  -3   13.64    0.81
  -5   0  -3   12.77    1.02
  -5   0  -3   13.66    0.86
   5   0   3   14.30    0.93
   5   0   3   12.75    1.06
   5   0   3   13.68    0.85
   5   0   3   13.07    1.17
  -6   0  -3   20.73    1.44
  -6   0  -3   19.48    1.25
  -6   0  -3   19.88    1.16
  -6   0  -3   21.07    1.06
  -6   0  -3   20.66    1.39
   6   0   3   17.70    1.21
   6   0   3   19.54    1.11
   6   0   3   18.28    1.23
  -7   0  -3   34.43    1.87
  -7   0  -3   32.54    1.71
  -7   0  -3   32.34    1.57
  -7   0  -3   32.69    1.46
  -7   0  -3   34.83    1.58
   7   0   3   30.48    1.82
   7   0   3   33.88    1.60
   7   0   3   34.16    1.74
  -8   0  -3   11.16    1.33
  -8   0  -3   12.71    1.28
  -8   0  -3   12.72    1.33
  -8   0  -3   13.39    1.19
  -8   0  -3   12.78    1.45
   8   0   3   10.51    1.27
   8   0   3   12.34    1.30
   8   0   3   13.56    1.52
  -9   0  -3   13.29    1.48
  -9   0  -3   13.23    1.75
  -9   0  -3   10.59    1.24
  -9   0  -3   16.56    1.52
  -9   0  -3   13.04    1.49
   9   0   3   13.47    1.55
   9   0   3   14.22    1.83
 -10   0  -3   -0.64    0.89
 -10   0  -3    0.52    1.29
 -10   0  -3   -1.32    1.12
  10   0   3    2.05    1.16
  10   0   3    0.54    0.91
 -11   0  -3    2.06    1.44
 -11   0  -3    1.97    1.42
 -11   0  -3    0.66    1.08
  11   0   3    1.83    1.28
  11   0   3    2.83    1.62
  10  -1  -3    1.82    1.55
  10  -1  -3   -2.73    1.37
 -10   1   3    0.13    1.29
 -10   1   3   -0.54    1.57
 -10   1   3    1.23    1.16
   9  -1  -3    5.45    1.31
   9  -1  -3    0.71    1.10
  -9   1   3    2.46    1.03
  -9   1   3   -0.24    1.31
  -9   1   3    0.51    1.05
   8  -1  -3   25.41    1.93
   8  -1  -3   26.12    1.93
  -8   1   3   23.66    1.59
  -8   1   3   22.24    1.26
  -8   1   3   24.80    2.13
  -8   1   3   23.22    1.65
   7  -1  -3    2.13    0.93
   7  -1  -3    2.06    1.01
  -7   1   3    2.03    0.61
  -7   1   3    2.27    0.80
  -7   1   3    3.27    0.86
  -7   1   3    3.35    1.10
   6  -1  -3   35.50    1.98
   6  -1  -3   34.75    1.77
   6  -1  -3   34.41    1.72
  -6   1   3   35.75    1.21
  -6   1   3   34.81    1.60
  -6   1   3   33.52    1.86
   5  -1  -3    0.17    0.78
   5  -1  -3   -0.32    0.54
   5  -1  -3   -0.30    0.74
   5  -1  -3    0.78    0.53
  -5   1   3    0.00    0.48
  -5   1   3    0.27    0.46
  -5   1   3    0.66    0.36
  -5   1   3    0.32    0.66
  -5   1   3    1.18    0.97
   4  -1  -3   16.93    1.35
   4  -1  -3   14.82    1.01
   4  -1  -3   16.61    1.05
   4  -1  -3   18.98    1.05
   4  -1  -3   15.95    1.08
   4  -1  -3   16.65    1.01
  -4   1   3   15.94    1.02
  -4   1   3   16.21    1.11
  -4   1   3   15.89    0.90
  -4   1   3   16.31    1.10
   3  -1  -3    9.11    0.78
   3  -1  -3    8.10    0.74
   3  -1  -3    8.91    0.68
   3  -1  -3    8.84    0.81
   3  -1  -3    8.34    0.66
  -3   1   3    8.97    0.62
  -3   1   3    8.19    0.71
  -3   1   3    7.90    0.45
  -3   1   3    9.04    0.76
  -3   1   3    8.45    0.43
  -3   1   3    8.79    0.74
   2  -1  -3    5.68    0.60
   2  -1  -3    6.67    0.50
   2  -1  -3    6.41    0.70
   2  -1  -3    6.52    0.51
   2  -1  -3    6.55    0.64
  -2   1   3    6.83    0.56
  -2   1   3    6.68    0.62
  -2   1   3    6.19    0.48
  -2   1   3    6.80    0.40
  -2   1   3    6.80    0.68
  -2   1   3    6.94    0.35
   1  -1  -3  261.74    5.39
   1  -1  -3  269.63    5.71
   1  -1  -3  272.08    5.51
   1  -1  -3  284.38    5.80
   1  -1  -3  279.55    5.78
   1  -1  -3  275.38    5.45
  -1   1   3  266.94    5.52
  -1   1   3  272.73    5.45
  -1   1   3  232.75    5.49
  -1   1   3  266.57    5.75
  -1   1   3  271.05    5.77
  -1   1   3  277.76    5.74
   0  -1  -3   12.79    0.68
   0  -1  -3   12.78    0.61
   0  -1  -3   12.61    0.39
   0  -1  -3   12.09    0.63
   0   1   3   12.97    0.40
   0   1   3   12.27    0.61
   0   1   3   12.53    0.61
   0   1   3   12.18    0.58
   0   1   3   10.42    0.66
  -1  -1  -3   24.30    0.93
  -1  -1  -3   25.85    0.94
  -1  -1  -3   23.06    0.88
  -1  -1  -3   25.43    0.86
  -1  -1  -3   25.71    0.91
   1   1   3   25.12    0.95
   1   1   3   24.34    0.94
   1   1   3   25.16    0.82
   1   1   3   26.20    0.85
   1   1   3   26.16    0.93
   1   1   3   25.91    0.74
  -2  -1  -3  141.18    3.14
  -2  -1  -3  137.47    3.15
  -2  -1  -3  140.63    3.10
  -2  -1  -3  139.66    3.07
  -2  -1  -3  137.98    3.15
  -2  -1  -3  142.47    3.28
   2   1   3  139.30    3.10
   2   1   3  138.88    3.12
   2   1   3  133.77    3.25
   2   1   3  138.56    3.16
   2   1   3  142.57    3.15
  -3  -1  -3  217.36    4.85
  -3  -1  -3  229.55    4.95
  -3  -1  -3  229.00    5.02
  -3  -1  -3  233.17    4.81
  -3  -1  -3  221.66    4.87
  -3  -1  -3  220.24    4.90
   3   1   3  224.62    5.03
   3   1   3  218.92    4.79
   3   1   3  229.54    4.85
   3   1   3  229.17    4.91
   3   1   3  219.74    4.92
  -4  -1  -3  284.29    6.14
  -4  -1  -3  281.47    6.19
  -4  -1  -3  289.08    5.98
  -4  -1  -3  287.90    6.34
  -4  -1  -3  289.43    6.32
  -4  -1  -3  281.13    6.22
   4   1   3  282.95    6.32
   4   1   3  284.01    6.01
   4   1   3  287.15    6.22
   4   1   3  297.48    6.14
   4   1   3  280.30    6.30
   4   1   3  283.78    6.21
  -5  -1  -3   90.96    2.54
  -5  -1  -3   93.59    2.36
  -5  -1  -3   93.50    2.72
  -5  -1  -3   90.85    2.64
  -5  -1  -3   93.93    2.66
  -5  -1  -3   92.07    2.82
   5   1   3   91.97    2.37
   5   1   3   94.32    2.53
   5   1   3   91.19    2.68
   5   1   3   93.72    2.77
   5   1   3   92.03    2.64
   5   1   3   90.62    2.69
  -6  -1  -3    9.39    0.82
  -6  -1  -3   11.15    0.97
  -6  -1  -3   11.24    0.90
  -6  -1  -3   11.60    0.80
  -6  -1  -3    9.26    1.13
   6   1   3   10.65    1.21
   6   1   3   11.18    1.10
   6   1   3    9.32    0.90
   6   1   3   10.64    0.93
  -7  -1  -3  106.35    3.07
  -7  -1  -3  104.55    3.26
  -7  -1  -3  108.67    2.77
  -7  -1  -3  106.13    3.29
   7   1   3  104.92    3.42
   7   1   3  102.65    3.06
   7   1   3  104.58    3.21
  -8  -1  -3   11.93    1.17
  -8  -1  -3   12.28    0.98
  -8  -1  -3   14.19    1.37
  -8  -1  -3   11.58    1.28
  -8  -1  -3   13.06    1.07
   8   1   3   13.13    1.35
   8   1   3   11.85    1.39
  -9  -1  -3    9.02    1.00
  -9  -1  -3   10.90    1.32
  -9  -1  -3    9.50    1.47
  -9  -1  -3    9.20    1.02
  -9  -1  -3    7.25    1.33
   9   1   3    8.27    1.34
   9   1   3    9.93    1.38
 -10  -1  -3   14.86    1.67
 -10  -1  -3   15.30    1.83
 -10  -1  -3   14.29    1.59
 -10  -1  -3   14.86    1.24
  10   1   3   14.96    1.76
  10   1   3   15.07    1.67
 -11  -1  -3   11.39    1.87
 -11  -1  -3    9.50    1.08
 -11  -1  -3   10.79    1.83
  11   1   3    8.18    1.61
  11   1   3    8.43    1.69
 -12  -1  -3    4.02    1.85
 -12  -1  -3    2.82    1.79
  12   1   3    0.47    1.66
  12   1   3    1.78    1.45
   9  -2  -3   20.59    2.11
   9  -2  -3   17.12    2.08
  -9   2   3   21.43    1.89
  -9   2   3   23.01    1.93
  -9   2   3   20.55    2.54
   8  -2  -3    1.71    1.14
   8  -2  -3    1.37    1.05
  -8   2   3    0.96    1.04
  -8   2   3   -0.02    1.24
  -8   2   3   -0.39    0.91
   7  -2  -3   13.10    1.56
   7  -2  -3   12.73    1.43
  -7   2   3   11.30    1.34
  -7   2   3   11.80    1.37
  -7   2   3   10.92    1.14
  -7   2   3   14.52    1.48
   6  -2  -3    2.21    0.83
   6  -2  -3   -0.24    0.64
  -6   2   3    1.95    0.83
  -6   2   3    1.80    0.96
  -6   2   3    1.09    0.71
  -6   2   3    1.11    0.64
   5  -2  -3    8.66    1.12
   5  -2  -3    9.55    1.36
   5  -2  -3    9.56    1.05
   5  -2  -3    9.54    0.97
  -5   2   3   10.32    1.05
  -5   2   3   10.21    1.34
  -5   2   3    9.38    0.86
  -5   2   3    8.76    0.91
   4  -2  -3    9.83    1.15
   4  -2  -3   10.01    0.90
   4  -2  -3   10.13    0.88
  -4   2   3   10.92    0.76
  -4   2   3   10.91    0.80
  -4   2   3   10.62    0.98
  -4   2   3   10.28    0.92
  -4   2   3   10.73    1.11
   3  -2  -3    1.71    0.78
   3  -2  -3    2.84    0.57
   3  -2  -3    2.90    0.71
   3  -2  -3    1.44    0.47
   3  -2  -3    2.08    0.56
  -3   2   3    3.19    0.43
  -3   2   3    2.33    0.57
  -3   2   3    2.52    0.44
  -3   2   3    2.10    0.62
   2  -2  -3   -0.60    0.48
   2  -2  -3    0.47    0.32
   2  -2  -3    0.18    0.57
   2  -2  -3   -0.20    0.31
   2  -2  -3    0.09    0.35
  -2   2   3   -0.02    0.26
  -2   2   3   -0.02    0.27
  -2   2   3    0.48    0.37
  -2   2   3    0.62    0.47
  -2   2   3    0.17    0.42
  -2   2   3   -0.13    0.26
  -2   2   3    0.15    0.39
   1  -2  -3   79.44    2.16
   1  -2  -3   85.82    2.27
   1  -2  -3   85.00    1.94
   1  -2  -3   80.62    1.99
   1  -2  -3   80.60    2.32
  -1   2   3   79.21    2.28
  -1   2   3   81.37    2.18
  -1   2   3   79.90    2.22
  -1   2   3   84.27    2.05
  -1   2   3   82.24    1.94
  -1   2   3   82.80    2.08
   0  -2  -3    0.28    0.28
   0  -2  -3    0.38    0.19
   0  -2  -3    0.66    0.36
   0  -2  -3    0.29    0.19
   0  -2  -3    0.48    0.30
   0  -2  -3   -0.31    0.32
   0   2   3    0.28    0.27
   0   2   3    0.31    0.28
   0   2   3    0.27    0.27
   0   2   3    0.23    0.26
   0   2   3    0.21    0.19
  -1  -2  -3   90.28    2.25
  -1  -2  -3   84.02    2.18
  -1  -2  -3   85.68    2.19
  -1  -2  -3   83.71    1.97
   1   2   3   85.76    2.21
   1   2   3   83.90    2.21
   1   2   3   85.61    1.97
   1   2   3   87.03    2.17
   1   2   3   87.45    1.93
   1   2   3   84.50    1.99
  -2  -2  -3   96.54    2.46
  -2  -2  -3   95.98    2.34
  -2  -2  -3   94.05    2.08
  -2  -2  -3   93.62    2.40
  -2  -2  -3   92.74    2.24
   2   2   3   95.31    2.35
   2   2   3   93.45    2.46
   2   2   3   97.22    2.25
   2   2   3   98.18    2.38
   2   2   3   91.32    2.09
   2   2   3   93.87    2.31
  -3  -2  -3   27.13    0.95
  -3  -2  -3   25.87    1.15
  -3  -2  -3   26.31    0.87
  -3  -2  -3   27.29    1.08
  -3  -2  -3   26.09    1.02
  -3  -2  -3   25.06    1.08
   3   2   3   26.57    0.94
   3   2   3   25.20    1.01
   3   2   3   26.26    1.16
   3   2   3   27.32    1.09
   3   2   3   25.50    1.07
  -4  -2  -3   49.27    1.71
  -4  -2  -3   47.57    1.70
  -4  -2  -3   47.84    1.59
  -4  -2  -3   50.64    1.38
  -4  -2  -3   48.28    1.43
  -4  -2  -3   46.48    1.61
   4   2   3   47.50    1.45
   4   2   3   46.12    1.64
   4   2   3   47.84    1.69
   4   2   3   48.10    1.56
   4   2   3   48.28    1.39
   4   2   3   47.75    1.61
  -5  -2  -3    1.90    0.48
  -5  -2  -3    0.32    0.47
  -5  -2  -3    1.72    0.35
  -5  -2  -3    1.03    0.68
  -5  -2  -3    1.31    0.61
  -5  -2  -3    1.66    0.58
   5   2   3    2.19    0.65
   5   2   3    0.88    0.50
   5   2   3    1.64    0.57
   5   2   3    0.93    0.64
   5   2   3    1.64    0.35
   5   2   3    1.69    0.47
  -6  -2  -3  209.58    5.06
  -6  -2  -3  210.13    4.95
  -6  -2  -3  213.62    5.16
  -6  -2  -3  206.54    5.10
  -6  -2  -3  217.10    4.50
   6   2   3  208.27    5.01
   6   2   3  210.15    5.15
   6   2   3  208.85    5.30
   6   2   3  210.86    5.06
  -7  -2  -3   48.32    1.41
  -7  -2  -3   46.73    2.10
  -7  -2  -3   43.60    1.88
  -7  -2  -3   49.70    1.97
  -7  -2  -3   46.57    1.91
   7   2   3   45.13    2.01
   7   2   3   47.24    1.96
   7   2   3   47.41    2.02
   7   2   3   46.14    2.13
  -8  -2  -3    9.96    1.26
  -8  -2  -3    8.73    1.08
  -8  -2  -3    8.15    0.73
  -8  -2  -3    7.58    0.70
  -8  -2  -3    8.89    0.98
   8   2   3    9.15    1.32
   8   2   3    9.04    1.13
  -9  -2  -3   16.75    0.87
  -9  -2  -3   16.96    1.48
  -9  -2  -3   16.64    1.51
  -9  -2  -3   14.99    1.49
  -9  -2  -3   16.46    0.90
   9   2   3   15.44    1.68
   9   2   3   17.61    1.61
 -10  -2  -3    1.42    1.10
 -10  -2  -3   -1.02    0.99
 -10  -2  -3    0.54    0.39
 -10  -2  -3   -0.65    0.93
  10   2   3    1.41    1.10
  10   2   3    1.09    1.14
 -11  -2  -3    9.49    1.73
 -11  -2  -3    7.15    1.54
 -11  -2  -3    9.15    1.62
  11   2   3    6.29    1.47
  11   2   3    7.79    1.63
 -12  -2  -3    3.59    1.49
 -12  -2  -3    1.99    1.49
  12   2   3    2.07    1.52
  12   2   3    3.28    1.78
   9  -3  -3    4.69    1.60
   9  -3  -3    5.30    1.51
  -9   3   3    2.85    1.42
  -9   3   3    0.89    1.74
  -9   3   3    3.91    1.49
   8  -3  -3    2.83    1.23
   8  -3  -3    3.73    1.26
  -8   3   3    4.71    1.22
  -8   3   3    2.07    1.32
  -8   3   3    6.12    1.83
   7  -3  -3    0.17    0.98
   7  -3  -3    2.88    1.02
  -7   3   3    2.23    1.02
  -7   3   3    0.78    0.82
  -7   3   3    2.65    1.01
   6  -3  -3   36.44    1.98
   6  -3  -3   38.71    1.80
  -6   3   3   33.98    1.70
  -6   3   3   36.08    1.84
  -6   3   3   38.46    2.05
  -6   3   3   35.64    2.10
   5  -3  -3    8.51    0.96
   5  -3  -3    7.03    1.27
   5  -3  -3    7.82    1.11
  -5   3   3    8.15    0.95
  -5   3   3   10.18    1.11
  -5   3   3    9.34    1.11
  -5   3   3    7.53    1.12
   4  -3  -3   25.67    1.29
   4  -3  -3   25.17    1.40
   4  -3  -3   26.17    1.27
  -4   3   3   25.66    1.64
  -4   3   3   27.97    1.29
  -4   3   3   26.13    1.17
  -4   3   3   28.53    1.58
   3  -3  -3    6.26    1.12
   3  -3  -3    5.69    0.83
   3  -3  -3    6.40    0.74
   3  -3  -3    5.92    0.76
  -3   3   3    5.54    0.69
  -3   3   3    6.04    0.87
  -3   3   3    5.11    0.89
  -3   3   3    4.76    0.51
  -3   3   3    5.52    0.86
   2  -3  -3    5.48    0.62
   2  -3  -3    6.06    0.90
   2  -3  -3    6.14    0.78
   2  -3  -3    5.78    0.53
   2  -3  -3    5.23    0.59
  -2   3   3    6.16    0.84
  -2   3   3    6.26    0.73
  -2   3   3    5.75    0.81
  -2   3   3    6.08    0.76
  -2   3   3    5.39    0.46
  -2   3   3    5.51    0.62
   1  -3  -3   18.36    1.15
   1  -3  -3   18.67    0.68
   1  -3  -3   17.48    0.97
   1  -3  -3   18.31    0.91
   1  -3  -3   18.24    0.83
  -1   3   3   18.38    0.67
  -1   3   3   18.75    0.95
  -1   3   3   20.09    0.92
  -1   3   3   17.55    1.06
  -1   3   3   17.24    0.94
  -1   3   3   17.83    0.84
  -1   3   3   18.17    1.00
   0  -3  -3   36.12    1.28
   0  -3  -3   38.09    1.29
   0  -3  -3   32.81    0.98
   0  -3  -3   35.20    1.38
   0  -3  -3   35.17    1.12
   0   3   3   34.87    1.23
   0   3   3   35.03    1.31
   0   3   3   36.38    1.26
   0   3   3   34.66    1.13
   0   3   3   36.90    1.44
  -1  -3  -3  266.31    5.44
  -1  -3  -3  278.76    5.96
  -1  -3  -3  276.98    5.91
  -1  -3  -3  268.99    5.59
  -1  -3  -3  262.93    5.81
  -1  -3  -3  263.62    5.59
   1   3   3  275.41    5.80
   1   3   3  266.19    5.93
   1   3   3  278.88    5.59
   1   3   3  270.99    5.93
   1   3   3  269.16    5.58
  -2  -3  -3  781.98   15.25
  -2  -3  -3  747.52   15.27
  -2  -3  -3  779.54   15.36
  -2  -3  -3  745.16   14.93
   2   3   3  777.04   15.25
   2   3   3  781.18   14.94
   2   3   3  778.47   15.00
   2   3   3  752.26   15.37
   2   3   3  758.74   15.24
  -3  -3  -3   91.15    2.54
  -3  -3  -3   89.73    2.30
  -3  -3  -3   93.08    1.94
  -3  -3  -3   92.50    1.98
  -3  -3  -3   94.85    2.61
  -3  -3  -3   96.19    2.37
   3   3   3   93.61    2.60
   3   3   3   94.85    2.54
   3   3   3   92.61    2.52
   3   3   3   93.65    2.36
   3   3   3   94.03    2.32
  -4  -3  -3  197.00    4.45
  -4  -3  -3  192.89    4.03
  -4  -3  -3  191.18    4.62
  -4  -3  -3  197.90    4.67
  -4  -3  -3  203.91    4.25
   4   3   3  202.62    4.45
   4   3   3  194.24    4.59
   4   3   3  189.55    4.62
   4   3   3  192.93    4.24
   4   3   3  192.49    4.66
  -5  -3  -3  133.69    3.04
  -5  -3  -3  133.19    3.55
  -5  -3  -3  128.72    3.57
  -5  -3  -3  136.80    2.99
  -5  -3  -3  130.69    3.39
  -5  -3  -3  130.92    3.52
   5   3   3  133.82    3.52
   5   3   3  132.38    3.00
   5   3   3  131.43    3.41
   5   3   3  136.12    3.12
   5   3   3  131.52    3.55
   5   3   3  132.22    3.61
  -6  -3  -3    6.01    0.95
  -6  -3  -3    4.45    0.83
  -6  -3  -3    5.32    0.61
  -6  -3  -3    5.25    0.66
  -6  -3  -3    6.07    1.09
   6   3   3    6.27    0.78
   6   3   3    3.90    0.84
   6   3   3    4.20    0.44
   6   3   3    5.73    0.99
   6   3   3    5.47    0.85
   6   3   3    3.78    0.87
  -7  -3  -3   16.24    0.67
  -7  -3  -3   15.65    1.21
  -7  -3  -3   18.13    1.27
  -7  -3  -3   16.07    1.47
  -7  -3  -3   19.00    1.10
   7   3   3   17.44    1.27
   7   3   3   16.94    1.37
   7   3   3   17.65    1.33
  -8  -3  -3   29.67    0.80
  -8  -3  -3   27.04    1.60
  -8  -3  -3   31.01    1.69
  -8  -3  -3   26.36    1.63
  -8  -3  -3   29.20    0.78
   8   3   3   28.36    1.85
   8   3   3   30.72    1.71
   8   3   3   29.92    1.94
  -9  -3  -3   20.98    1.48
  -9  -3  -3   19.59    1.56
  -9  -3  -3   21.40    1.58
   9   3   3   19.53    1.59
   9   3   3   19.35    1.79
 -10  -3  -3    3.06    1.07
 -10  -3  -3    1.32    0.96
 -10  -3  -3    0.45    0.99
  10   3   3    1.34    1.19
  10   3   3    0.91    1.09
 -11  -3  -3    1.18    1.19
 -11  -3  -3    2.45    1.20
 -11  -3  -3   -1.70    1.19
  11   3   3    1.38    1.21
  11   3   3    0.02    0.97
 -12  -3  -3    7.93    1.82
 -12  -3  -3    6.35    1.52
 -12  -3  -3    6.20    1.45
  12   3   3    7.43    1.99
  12   3   3    5.92    1.59
   8  -4  -3    1.05    1.23
   8  -4  -3    0.82    1.24
  -8   4   3    0.16    1.25
  -8   4   3    2.28    1.28
  -8   4   3    1.70    1.41
   7  -4  -3   11.70    1.54
   7  -4  -3    8.00    1.44
  -7   4   3   10.74    1.34
  -7   4   3   10.17    1.68
  -7   4   3    9.58    1.94
   6  -4  -3    4.94    1.05
   6  -4  -3    4.80    1.03
  -6   4   3    4.18    1.28
  -6   4   3    5.30    1.26
  -6   4   3    7.37    1.09
   5  -4  -3   10.18    1.40
   5  -4  -3   10.14    1.32
   5  -4  -3    9.95    1.08
  -5   4   3    8.38    0.98
  -5   4   3    9.75    1.36
  -5   4   3    8.47    1.34
  -5   4   3    9.66    1.39
   4  -4  -3    5.24    0.87
   4  -4  -3    4.43    0.91
   4  -4  -3    5.85    0.86
  -4   4   3    5.95    1.00
  -4   4   3    4.78    0.92
  -4   4   3    4.07    0.91
  -4   4   3    4.39    0.69
   3  -4  -3    2.03    0.52
   3  -4  -3    1.92    0.59
   3  -4  -3    1.43    0.59
  -3   4   3    1.94    0.64
  -3   4   3    1.12    0.72
  -3   4   3    2.33    0.74
  -3   4   3    1.52    0.43
   2  -4  -3   93.69    2.56
   2  -4  -3   89.06    3.02
   2  -4  -3   98.09    2.31
  -2   4   3   95.36    2.23
  -2   4   3   93.47    2.61
  -2   4   3   94.05    2.90
  -2   4   3   93.47    2.79
  -2   4   3   94.93    3.04
  -2   4   3   91.20    2.60
   1  -4  -3  180.80    3.76
   1  -4  -3  179.67    4.47
   1  -4  -3  179.47    4.19
   1  -4  -3  172.54    4.65
   1  -4  -3  178.76    4.18
  -1   4   3  183.43    4.28
  -1   4   3  181.37    4.39
  -1   4   3  185.06    4.25
  -1   4   3  180.25    4.17
  -1   4   3  174.99    4.40
   0  -4  -3    4.24    0.72
   0  -4  -3    3.85    0.29
   0  -4  -3    3.84    0.53
   0  -4  -3    3.59    0.26
   0  -4  -3    4.14    0.63
   0  -4  -3    4.63    0.66
   0   4   3    4.61    0.61
   0   4   3    4.62    0.64
   0   4   3    4.43    0.67
   0   4   3    3.85    0.67
   0   4   3    4.79    0.68
  -1  -4  -3   13.25    0.73
  -1  -4  -3   13.64    0.49
  -1  -4  -3   12.38    0.81
  -1  -4  -3   12.68    0.71
  -1  -4  -3   13.03    0.99
   1   4   3   13.73    0.85
   1   4   3   12.14    0.91
   1   4   3   12.96    0.93
   1   4   3   13.13    0.73
   1   4   3   14.39    0.70
  -2  -4  -3  126.47    2.77
  -2  -4  -3  125.41    2.76
  -2  -4  -3  122.76    3.21
  -2  -4  -3  123.32    3.02
  -2  -4  -3  130.76    3.28
  -2  -4  -3  128.60    3.34
   2   4   3  132.82    2.99
   2   4   3  125.09    3.17
   2   4   3  126.28    3.36
   2   4   3  125.49    3.25
   2   4   3  128.58    2.76
   2   4   3  125.42    2.73
  -3  -4  -3   31.85    1.24
  -3  -4  -3   31.97    1.06
  -3  -4  -3   27.42    1.29
  -3  -4  -3   29.60    1.32
   3   4   3   31.39    1.05
   3   4   3   29.41    1.32
   3   4   3   28.67    1.32
   3   4   3   30.31    1.21
   3   4   3   30.57    1.14
  -4  -4  -3   20.61    0.95
  -4  -4  -3   20.76    1.24
  -4  -4  -3   20.25    0.93
  -4  -4  -3   19.36    1.14
   4   4   3   19.22    0.91
   4   4   3   21.30    1.19
   4   4   3   21.70    1.03
   4   4   3   18.71    1.07
   4   4   3   18.61    1.18
  -5  -4  -3   40.93    1.03
  -5  -4  -3   39.67    1.90
  -5  -4  -3   38.68    1.48
  -5  -4  -3   39.53    1.75
  -5  -4  -3   42.02    1.31
   5   4   3   39.53    1.64
   5   4   3   39.53    1.65
   5   4   3   38.29    1.65
   5   4   3   41.61    1.55
   5   4   3   40.75    1.29
  -6  -4  -3   41.66    1.90
  -6  -4  -3   40.04    1.84
  -6  -4  -3   44.77    1.26
  -6  -4  -3   45.21    1.30
  -6  -4  -3   42.24    1.70
   6   4   3   39.54    2.06
   6   4   3   45.31    1.91
   6   4   3   44.70    1.26
   6   4   3   41.38    1.79
   6   4   3   43.09    1.39
  -7  -4  -3   14.45    0.87
  -7  -4  -3   16.11    1.27
  -7  -4  -3   14.98    1.06
  -7  -4  -3   16.10    0.60
   7   4   3   14.71    0.57
   7   4   3   15.58    1.09
   7   4   3   14.57    1.24
   7   4   3   17.16    1.28
  -8  -4  -3    0.66    0.51
  -8  -4  -3   -1.27    0.69
  -8  -4  -3   -0.61    0.51
   8   4   3   -0.25    0.87
   8   4   3   -1.22    0.66
   8   4   3   -0.24    0.58
  -9  -4  -3   14.46    1.39
  -9  -4  -3   12.85    1.43
  -9  -4  -3   13.57    1.14
   9   4   3   15.86    1.83
   9   4   3   14.07    1.63
   9   4   3   13.07    1.43
 -10  -4  -3   12.86    1.70
 -10  -4  -3   14.31    1.73
 -10  -4  -3    9.81    1.28
  10   4   3   11.33    1.62
  10   4   3   12.99    1.51
 -11  -4  -3    1.90    1.27
 -11  -4  -3    0.06    1.17
 -11  -4  -3    1.69    0.98
  11   4   3   -1.53    1.08
  11   4   3    0.24    1.09
 -12  -4  -3    1.69    1.60
 -12  -4  -3    2.27    1.49
 -12  -4  -3    0.57    1.23
  12   4   3    1.82    1.57
  12   4   3    1.17    1.50
   7  -5  -3    0.05    1.07
   7  -5  -3    2.01    1.32
  -7   5   3    3.53    1.48
  -7   5   3    0.25    1.52
  -7   5   3    2.07    1.10
   6  -5  -3    1.23    0.90
   6  -5  -3    4.43    1.17
  -6   5   3    1.46    0.85
  -6   5   3    2.88    1.33
  -6   5   3    2.26    1.10
   5  -5  -3    0.96    0.87
   5  -5  -3    1.39    0.78
   5  -5  -3    3.67    1.24
  -5   5   3    1.31    0.69
  -5   5   3    1.26    1.19
  -5   5   3    0.32    1.02
   4  -5  -3   10.15    1.28
   4  -5  -3    9.15    0.99
   4  -5  -3   10.67    1.13
  -4   5   3    9.47    0.81
  -4   5   3   12.62    1.49
  -4   5   3   11.01    1.52
   3  -5  -3   17.71    1.26
   3  -5  -3   15.40    0.97
   3  -5  -3   18.13    1.11
  -3   5   3   15.06    1.32
  -3   5   3   15.73    0.82
  -3   5   3   15.55    1.46
   2  -5  -3   22.18    1.17
   2  -5  -3   23.03    0.89
   2  -5  -3   21.53    1.24
  -2   5   3   22.38    1.57
  -2   5   3   21.61    1.28
  -2   5   3   21.96    1.44
  -2   5   3   21.95    1.41
  -2   5   3   22.51    0.82
   1  -5  -3   24.68    1.52
   1  -5  -3   26.02    0.76
   1  -5  -3   26.81    1.27
   1  -5  -3   26.03    1.20
  -1   5   3   24.81    1.36
  -1   5   3   26.47    1.22
  -1   5   3   25.52    1.47
  -1   5   3   27.77    1.66
   0  -5  -3   52.04    1.76
   0  -5  -3   50.45    2.45
   0  -5  -3   51.78    1.88
   0  -5  -3   54.63    1.80
   0   5   3   51.02    2.04
   0   5   3   49.83    1.85
   0   5   3   53.91    1.85
   0   5   3   52.21    1.80
   0   5   3   52.84    1.79
   0   5   3   50.65    1.91
  -1  -5  -3   16.13    1.12
  -1  -5  -3   14.15    0.84
  -1  -5  -3   12.35    0.37
  -1  -5  -3   14.87    0.92
  -1  -5  -3   14.28    0.92
  -1  -5  -3   15.41    0.35
   1   5   3   14.31    1.06
   1   5   3   14.49    1.17
   1   5   3   15.27    0.85
   1   5   3   14.33    0.91
   1   5   3   14.66    1.01
  -2  -5  -3   51.11    1.80
  -2  -5  -3   50.72    1.46
  -2  -5  -3   49.81    1.92
  -2  -5  -3   50.06    1.63
  -2  -5  -3   51.71    1.24
   2   5   3   51.50    1.42
   2   5   3   52.19    1.65
   2   5   3   46.94    1.91
   2   5   3   51.43    1.85
   2   5   3   48.59    1.76
   2   5   3   50.31    1.24
  -3  -5  -3   19.29    1.29
  -3  -5  -3   18.90    1.11
  -3  -5  -3   17.18    0.76
  -3  -5  -3   17.78    0.56
  -3  -5  -3   18.72    1.12
   3   5   3   17.72    0.53
   3   5   3   17.92    1.04
   3   5   3   18.16    0.89
   3   5   3   18.99    1.15
   3   5   3   18.74    0.79
   3   5   3   18.91    1.20
  -4  -5  -3   36.79    1.73
  -4  -5  -3   36.11    1.46
  -4  -5  -3   36.40    1.26
  -4  -5  -3   32.81    1.69
   4   5   3   34.04    1.50
   4   5   3   33.07    1.37
   4   5   3   37.10    1.42
   4   5   3   36.47    1.30
  -5  -5  -3   27.52    1.61
  -5  -5  -3   24.67    1.14
  -5  -5  -3   24.39    1.43
  -5  -5  -3   25.33    1.14
   5   5   3   28.06    1.44
   5   5   3   26.31    1.10
   5   5   3   23.74    1.44
   5   5   3   25.03    1.21
  -6  -5  -3   11.85    0.43
  -6  -5  -3   12.45    0.77
  -6  -5  -3   11.87    0.93
  -6  -5  -3   10.45    0.99
   6   5   3   10.31    1.11
   6   5   3   10.82    1.17
   6   5   3   13.25    1.19
   6   5   3   13.07    0.71
  -7  -5  -3   73.69    2.48
  -7  -5  -3   74.84    1.87
  -7  -5  -3   71.53    2.66
   7   5   3   73.88    2.00
   7   5   3   70.07    2.79
   7   5   3   72.51    1.81
   7   5   3   76.55    2.73
  -8  -5  -3    1.19    0.88
  -8  -5  -3    0.84    0.69
  -8  -5  -3    0.36    0.45
   8   5   3    0.36    0.64
   8   5   3    0.00    0.69
   8   5   3   -0.16    0.73
  -9  -5  -3   14.64    1.42
  -9  -5  -3   15.51    1.58
  -9  -5  -3   17.64    1.11
   9   5   3   14.31    1.78
   9   5   3   13.26    1.50
   9   5   3   13.83    1.48
 -10  -5  -3    4.59    1.15
 -10  -5  -3    3.96    0.87
 -10  -5  -3    4.35    1.28
  10   5   3    4.01    1.32
  10   5   3    2.74    1.17
 -11  -5  -3    7.43    1.51
 -11  -5  -3    7.78    1.22
 -11  -5  -3    8.96    1.68
  11   5   3    7.04    1.61
  11   5   3    6.68    1.58
 -12  -5  -3    1.00    1.10
 -12  -5  -3    0.12    1.37
 -12  -5  -3    3.11    1.22
  12   5   3    2.90    1.49
  12   5   3    0.71    1.62
   7  -6  -3    4.77    1.53
  -7   6   3    2.62    1.72
  -7   6   3    4.52    1.34
   6  -6  -3    7.66    1.49
   6  -6  -3    5.68    1.12
  -6   6   3   10.58    1.90
  -6   6   3    7.55    1.18
  -6   6   3    7.26    1.59
   5  -6  -3    2.00    1.00
   5  -6  -3    1.28    1.05
  -5   6   3    1.56    1.32
  -5   6   3    1.87    0.79
  -5   6   3    0.42    1.31
   4  -6  -3    3.55    1.27
   4  -6  -3    3.68    0.98
   4  -6  -3    2.73    0.90
  -4   6   3    4.46    1.30
  -4   6   3    2.39    0.63
  -4   6   3    3.32    1.17
   3  -6  -3    5.48    0.99
   3  -6  -3    6.19    0.92
   3  -6  -3    5.79    0.70
  -3   6   3    5.19    0.58
  -3   6   3    5.05    1.27
  -3   6   3    4.66    1.20
   2  -6  -3    0.66    0.64
   2  -6  -3   -0.01    0.56
  -2   6   3   -0.10    0.82
  -2   6   3   -0.09    0.80
  -2   6   3    0.21    0.81
   1  -6  -3   47.91    1.85
   1  -6  -3   50.36    1.82
  -1   6   3   48.46    2.07
  -1   6   3   51.12    1.87
  -1   6   3   48.63    2.15
  -1   6   3   49.30    2.31
   0  -6  -3    8.64    0.88
   0  -6  -3   10.15    1.22
   0  -6  -3    9.31    0.90
   0   6   3    8.93    0.90
   0   6   3    9.58    1.09
   0   6   3    8.90    0.99
   0   6   3   10.95    1.21
  -1  -6  -3   12.42    0.85
  -1  -6  -3   13.15    1.07
  -1  -6  -3   12.32    0.95
   1   6   3   14.10    1.23
   1   6   3   12.35    0.89
   1   6   3   13.56    1.03
   1   6   3   12.85    1.05
  -2  -6  -3    0.89    0.56
  -2  -6  -3    0.93    0.13
  -2  -6  -3    0.23    0.44
  -2  -6  -3   -0.45    0.79
  -2  -6  -3    0.48    0.45
   2   6   3    0.54    0.46
   2   6   3    1.07    0.67
   2   6   3    1.58    0.72
   2   6   3    0.78    0.56
   2   6   3    1.09    0.39
  -3  -6  -3   16.37    1.26
  -3  -6  -3   15.02    0.64
   3   6   3   15.23    1.08
   3   6   3   14.95    0.61
   3   6   3   14.18    1.21
   3   6   3   15.01    1.05
   3   6   3   14.39    1.20
   3   6   3   16.01    0.68
  -4  -6  -3    9.96    1.00
  -4  -6  -3    9.10    1.00
  -4  -6  -3   10.44    0.67
   4   6   3    9.55    0.88
   4   6   3   10.44    1.14
   4   6   3   10.32    0.75
  -5  -6  -3    6.69    0.86
  -5  -6  -3    6.63    0.66
  -5  -6  -3    8.81    0.98
   5   6   3    7.01    0.90
   5   6   3    6.42    0.76
   5   6   3    9.23    1.11
   5   6   3    7.96    0.93
  -6  -6  -3   -0.54    0.68
  -6  -6  -3   -0.24    0.49
  -6  -6  -3    0.38    0.54
   6   6   3    1.00    0.80
   6   6   3    0.98    0.74
   6   6   3    0.50    0.41
   6   6   3    0.56    0.69
  -7  -6  -3   95.17    2.42
  -7  -6  -3   90.73    2.80
  -7  -6  -3   89.24    3.20
   7   6   3   90.48    2.32
   7   6   3   89.46    3.18
   7   6   3   90.37    3.24
  -8  -6  -3   14.31    1.47
  -8  -6  -3   16.78    0.75
  -8  -6  -3   14.95    1.27
   8   6   3   16.62    1.62
   8   6   3   16.16    1.52
   8   6   3   17.04    0.63
   8   6   3   15.40    0.92
  -9  -6  -3   52.51    2.31
  -9  -6  -3   47.91    2.50
  -9  -6  -3   52.48    1.68
   9   6   3   53.08    2.48
   9   6   3   51.90    2.59
   9   6   3   51.53    1.94
 -10  -6  -3   15.10    1.39
 -10  -6  -3   17.10    1.21
 -10  -6  -3   16.22    1.82
  10   6   3   14.51    1.82
  10   6   3   16.10    1.68
  10   6   3   16.16    1.80
 -11  -6  -3    6.45    1.43
 -11  -6  -3    7.65    1.62
 -11  -6  -3   11.08    1.27
  11   6   3    8.58    1.78
  11   6   3   10.52    1.78
 -12  -6  -3    7.78    1.84
 -12  -6  -3    6.55    1.26
 -12  -6  -3    9.48    1.59
  12   6   3    9.22    1.81
  12   6   3    8.77    2.03
   6  -7  -3    4.32    1.44
  -6   7   3    2.29    1.98
  -6   7   3    0.90    1.74
   5  -7  -3    0.39    0.82
  -5   7   3   -0.54    0.72
  -5   7   3   -0.22    1.46
  -5   7   3   -0.31    1.48
   4  -7  -3    0.97    1.29
   4  -7  -3    0.63    0.91
  -4   7   3   -1.01    1.10
  -4   7   3    0.77    0.54
  -4   7   3   -0.41    1.23
   3  -7  -3    0.14    0.73
   3  -7  -3    0.88    0.86
  -3   7   3   -0.14    1.07
  -3   7   3    1.28    1.14
   2  -7  -3    1.17    0.73
   2  -7  -3    0.69    0.57
  -2   7   3   -1.02    0.88
  -2   7   3    1.91    1.08
  -2   7   3    0.40    1.03
   1  -7  -3    6.67    0.94
   1  -7  -3    7.59    0.92
  -1   7   3    7.30    1.19
  -1   7   3    5.48    1.25
  -1   7   3    6.34    1.13
  -1   7   3    6.16    1.23
   0  -7  -3   47.71    1.86
   0  -7  -3   45.05    1.91
   0   7   3   48.79    2.28
   0   7   3   45.71    2.23
   0   7   3   48.77    2.03
   0   7   3   45.46    1.90
  -1  -7  -3    9.88    1.21
  -1  -7  -3    9.69    0.98
   1   7   3   10.56    1.11
   1   7   3   10.36    1.26
   1   7   3    9.16    0.96
   1   7   3   10.44    1.27
  -2  -7  -3   11.37    1.01
  -2  -7  -3   10.46    1.00
  -2  -7  -3   10.63    1.01
   2   7   3   10.83    1.21
   2   7   3   10.63    1.25
   2   7   3   11.52    0.84
   2   7   3    9.50    1.30
  -3  -7  -3    0.98    0.22
  -3  -7  -3   -0.15    0.60
  -3  -7  -3    0.66    0.55
   3   7   3    0.40    0.63
   3   7   3    1.15    0.41
   3   7   3   -0.65    0.73
  -4  -7  -3    4.66    1.16
  -4  -7  -3    7.37    0.57
  -4  -7  -3    7.98    1.13
   4   7   3    7.71    1.01
   4   7   3    7.07    0.23
   4   7   3    7.30    1.09
   4   7   3    6.96    0.70
   4   7   3    7.37    0.24
  -5  -7  -3    3.90    0.97
  -5  -7  -3    2.58    0.54
  -5  -7  -3    1.63    0.84
   5   7   3    1.29    0.67
   5   7   3    1.64    0.68
   5   7   3    1.13    0.59
  -6  -7  -3   33.74    1.81
  -6  -7  -3   35.14    1.66
   6   7   3   35.80    1.53
   6   7   3   32.57    1.70
   6   7   3   33.92    1.86
   6   7   3   34.94    2.00
  -7  -7  -3   42.78    2.20
  -7  -7  -3   42.42    1.76
   7   7   3   42.35    1.55
   7   7   3   39.90    2.22
   7   7   3   41.73    2.17
  -8  -7  -3   18.62    1.71
  -8  -7  -3   16.40    1.39
   8   7   3   21.21    1.71
   8   7   3   20.45    1.78
   8   7   3   19.34    0.93
  -9  -7  -3   19.73    0.73
  -9  -7  -3   20.42    1.55
  -9  -7  -3   20.38    1.88
   9   7   3   21.23    1.98
   9   7   3   19.59    1.82
 -10  -7  -3    4.21    1.36
 -10  -7  -3    5.22    1.18
 -10  -7  -3    4.07    0.67
  10   7   3    3.94    1.29
  10   7   3    4.55    1.50
 -11  -7  -3   -0.15    0.74
 -11  -7  -3    2.13    1.37
 -11  -7  -3    0.98    0.86
  11   7   3    1.02    1.06
  11   7   3    1.78    1.29
 -12  -7  -3   18.04    2.32
 -12  -7  -3   15.04    1.60
 -12  -7  -3   16.28    2.05
  12   7   3   11.37    2.22
  12   7   3   12.34    2.09
   5  -8  -3    0.33    1.24
  -5   8   3   -1.35    1.56
  -5   8   3    2.97    2.00
  -5   8   3    1.00    1.67
   4  -8  -3    1.29    0.92
   4  -8  -3    0.33    1.00
  -4   8   3   -1.01    1.42
  -4   8   3   -0.55    1.41
  -4   8   3    2.04    1.62
   3  -8  -3    1.26    0.94
   3  -8  -3    0.84    1.02
  -3   8   3    2.15    1.35
  -3   8   3   -0.67    1.12
  -3   8   3    0.79    1.32
   2  -8  -3    4.32    1.11
  -2   8   3    2.62    1.17
  -2   8   3    2.89    1.32
  -2   8   3    2.92    1.37
   1  -8  -3   19.86    1.37
   1  -8  -3   16.36    1.96
  -1   8   3   20.74    1.72
  -1   8   3   20.61    1.94
  -1   8   3   18.49    1.63
  -1   8   3   17.23    1.80
   0  -8  -3    0.31    0.69
   0  -8  -3   -0.19    0.67
   0   8   3   -0.10    0.89
   0   8   3   -0.21    0.65
   0   8   3    1.05    1.09
   0   8   3   -1.18    0.73
  -1  -8  -3    3.55    1.34
  -1  -8  -3    3.81    0.77
  -1  -8  -3    3.28    0.84
   1   8   3    6.12    1.28
   1   8   3    5.36    0.96
   1   8   3    4.85    1.02
  -2  -8  -3   21.26    1.47
  -2  -8  -3   21.25    1.40
  -2  -8  -3   22.61    1.49
   2   8   3   22.10    1.26
   2   8   3   23.30    1.72
   2   8   3   22.33    1.77
  -3  -8  -3   17.59    1.30
  -3  -8  -3   20.59    1.43
   3   8   3   17.68    1.49
   3   8   3   19.22    0.99
   3   8   3   17.44    1.59
  -4  -8  -3    0.59    0.75
  -4  -8  -3   -0.09    0.32
   4   8   3    0.44    0.88
   4   8   3    0.43    0.28
   4   8   3    0.61    0.71
   4   8   3    0.09    0.42
  -5  -8  -3   19.18    0.94
  -5  -8  -3   19.71    1.51
   5   8   3   19.08    1.67
   5   8   3   18.75    1.46
   5   8   3   20.57    1.16
  -6  -8  -3    0.04    0.49
  -6  -8  -3   -0.97    0.81
   6   8   3   -0.32    0.89
   6   8   3   -0.13    0.73
   6   8   3   -0.13    0.93
  -7  -8  -3   39.25    2.24
  -7  -8  -3   44.69    1.78
   7   8   3   42.58    2.41
   7   8   3   40.04    2.36
   7   8   3   41.14    1.74
  -8  -8  -3    5.40    0.99
  -8  -8  -3    4.28    1.26
   8   8   3    6.24    1.42
   8   8   3    2.05    1.14
   8   8   3    3.69    0.72
  -9  -8  -3    5.16    1.05
  -9  -8  -3    7.25    1.51
   9   8   3    3.72    0.52
   9   8   3    3.44    1.08
   9   8   3    3.22    0.61
   9   8   3    4.80    1.30
 -10  -8  -3    0.07    1.16
 -10  -8  -3    1.22    0.96
  10   8   3    0.25    0.91
  10   8   3   -0.16    1.16
 -11  -8  -3    0.49    0.88
 -11  -8  -3   -0.54    1.42
  11   8   3    1.65    1.38
  11   8   3    0.11    1.36
 -12  -8  -3   27.33    2.27
 -12  -8  -3   35.26    2.84
  12   8   3   33.20    2.96
  12   8   3   29.12    2.97
   4  -9  -3   -1.42    1.29
  -4   9   3   -0.09    1.89
  -4   9   3    2.84    1.93
   3  -9  -3    2.44    1.00
   3  -9  -3    3.69    1.50
  -3   9   3   -0.26    1.45
  -3   9   3    2.92    1.75
  -3   9   3    1.69    1.71
   2  -9  -3    3.79    1.19
  -2   9   3    0.11    1.37
  -2   9   3    1.45    1.51
  -2   9   3    4.52    1.48
   1  -9  -3    1.66    0.93
   1  -9  -3    2.28    0.88
  -1   9   3    2.67    1.33
  -1   9   3    0.74    1.24
  -1   9   3    0.88    1.02
   0  -9  -3    1.86    0.96
   0  -9  -3    3.30    0.92
   0   9   3    2.88    1.30
   0   9   3    2.49    1.29
   0   9   3    2.18    1.05
  -1  -9  -3    1.04    0.83
  -1  -9  -3    0.75    0.62
   1   9   3    1.33    1.09
   1   9   3    0.20    0.90
   1   9   3    1.41    1.11
  -2  -9  -3    2.09    1.19
  -2  -9  -3    1.40    0.79
  -2  -9  -3    1.10    0.93
   2   9   3    1.50    1.13
   2   9   3    2.53    1.11
  -3  -9  -3   -0.14    0.84
  -3  -9  -3   -0.54    0.65
   3   9   3    0.91    0.93
   3   9   3    0.07    0.56
   3   9   3    0.83    0.78
  -4  -9  -3    5.74    1.21
   4   9   3    6.89    0.67
   4   9   3    6.82    0.42
   4   9   3    5.54    1.23
   4   9   3    6.92    0.73
   4   9   3    7.33    1.44
  -5  -9  -3   24.23    1.76
  -5  -9  -3   21.21    0.94
   5   9   3   22.26    1.93
   5   9   3   26.29    1.74
   5   9   3   21.85    1.16
  -6  -9  -3    2.01    1.09
  -6  -9  -3    0.86    0.55
   6   9   3    0.11    0.96
   6   9   3    1.01    0.99
   6   9   3    1.40    0.90
  -7  -9  -3   26.39    2.00
  -7  -9  -3   25.66    1.37
   7   9   3   26.31    2.12
   7   9   3   19.95    1.95
   7   9   3   23.07    1.61
  -8  -9  -3   11.66    1.17
  -8  -9  -3   10.93    1.75
   8   9   3   11.32    1.29
   8   9   3   11.59    1.77
   8   9   3   11.36    1.75
  -9  -9  -3    1.79    1.22
  -9  -9  -3   -1.15    0.88
   9   9   3    1.25    1.23
   9   9   3   -0.09    0.85
   9   9   3    0.74    0.66
 -10  -9  -3    0.12    1.04
 -10  -9  -3    1.91    1.37
  10   9   3   -1.80    1.29
  10   9   3    0.61    1.38
 -11  -9  -3    1.03    1.21
 -11  -9  -3   -0.63    1.46
  11   9   3    1.94    1.28
  11   9   3    1.15    1.63
 -12  -9  -3    1.84    1.76
 -12  -9  -3    0.17    1.25
  12   9   3    2.44    1.74
  12   9   3    3.51    2.17
   2 -10  -3    6.23    1.48
  -2  10   3    8.61    2.09
  -2  10   3    8.00    2.07
  -2  10   3    1.70    1.68
   1 -10  -3   13.22    1.47
   1 -10  -3   12.49    1.76
  -1  10   3   12.97    2.18
  -1  10   3   12.60    2.01
  -1  10   3    9.58    2.04
   0 -10  -3    5.71    1.15
   0 -10  -3    6.23    1.39
   0  10   3    3.53    1.62
   0  10   3    3.97    1.55
   0  10   3    4.76    1.36
  -1 -10  -3   39.76    2.08
  -1 -10  -3   44.65    2.20
   1  10   3   40.69    2.32
   1  10   3   42.19    2.61
   1  10   3   43.46    2.84
  -2 -10  -3    0.21    0.88
  -2 -10  -3   -0.43    0.84
   2  10   3   -0.87    0.89
   2  10   3    1.68    1.00
   2  10   3   -1.09    1.00
  -3 -10  -3    9.99    1.51
  -3 -10  -3    7.31    1.24
   3  10   3    7.32    1.57
   3  10   3    9.38    1.08
   3  10   3    8.44    1.61
  -4 -10  -3    3.84    1.15
   4  10   3    2.81    0.64
   4  10   3    2.84    1.20
   4  10   3    3.17    1.13
   4  10   3    1.93    0.77
  -5 -10  -3    0.23    0.38
  -5 -10  -3    0.96    1.07
   5  10   3    0.37    0.55
   5  10   3    0.78    0.97
   5  10   3    0.00    1.15
  -6 -10  -3   -0.45    0.54
  -6 -10  -3   -0.87    0.92
   6  10   3    0.69    1.00
   6  10   3    2.33    1.23
   6  10   3    0.63    1.07
  -7 -10  -3    5.73    1.42
  -7 -10  -3    4.65    0.84
   7  10   3    3.93    1.40
   7  10   3    6.44    1.65
   7  10   3    4.27    1.19
  -8 -10  -3   -0.16    1.17
  -8 -10  -3    0.53    0.80
   8  10   3   -0.74    1.27
   8  10   3    0.99    0.94
   8  10   3   -0.08    1.26
  -9 -10  -3    5.74    1.24
  -9 -10  -3    7.94    1.82
   9  10   3    3.51    1.49
   9  10   3    4.58    1.61
 -10 -10  -3   -1.37    1.00
 -10 -10  -3    0.10    1.41
  10  10   3    1.66    1.51
  10  10   3   -0.95    1.43
 -11 -10  -3   -0.31    1.56
 -11 -10  -3   -1.33    1.14
  11  10   3   -2.30    1.60
  11  10   3   -0.98    1.71
   1 -11  -3   -1.21    1.50
  -1  11   3   -3.25    1.51
  -1  11   3    2.40    2.05
  -1  11   3    2.24    2.09
   0 -11  -3   -0.43    1.19
   0 -11  -3    1.21    1.19
   0  11   3    2.42    1.52
   0  11   3   -0.72    1.86
   0  11   3   -0.76    1.63
  -1 -11  -3   13.46    1.71
  -1 -11  -3   13.19    1.78
   1  11   3   15.03    2.24
   1  11   3   11.98    1.72
   1  11   3   11.74    2.19
  -2 -11  -3    5.78    1.31
  -2 -11  -3    4.69    1.15
   2  11   3    5.95    1.82
   2  11   3    7.67    1.89
   2  11   3    5.52    1.34
  -3 -11  -3    6.14    1.39
  -3 -11  -3    5.14    1.27
   3  11   3    3.73    1.11
   3  11   3    6.14    1.68
   3  11   3    4.48    1.49
  -4 -11  -3    1.37    1.24
   4  11   3   -0.40    0.69
   4  11   3    1.41    1.12
   4  11   3   -1.47    0.89
  -5 -11  -3    7.47    1.48
   5  11   3    7.67    1.79
   5  11   3    5.89    0.75
   5  11   3    6.34    1.53
  -6 -11  -3   -0.50    0.53
  -6 -11  -3    3.62    1.39
   6  11   3    0.13    1.16
   6  11   3   -1.55    1.24
  -7 -11  -3    6.87    1.61
   7  11   3    7.71    1.56
   7  11   3    2.70    1.56
  -8 -11  -3    5.10    1.02
  -8 -11  -3    2.67    1.54
   8  11   3    4.27    1.42
   8  11   3    2.47    1.26
   8  11   3    2.75    1.65
  -9 -11  -3    7.00    1.17
  -9 -11  -3   10.12    1.92
   9  11   3    5.49    1.90
   9  11   3    6.88    1.39
   9  11   3    8.10    1.74
 -10 -11  -3    2.10    1.69
 -10 -11  -3    1.64    1.18
  10  11   3   -0.23    1.55
  10  11   3    1.24    1.77
 -11 -11  -3   -0.46    2.11
 -11 -11  -3    1.48    1.27
  11  11   3   -0.68    1.91
  11  11   3   -1.29    1.97
  -1 -12  -3   -0.40    1.37
   1  12   3   -3.44    1.90
   1  12   3   -1.44    1.64
  -2 -12  -3    0.42    1.02
  -2 -12  -3    0.79    1.40
   2  12   3    2.93    1.91
   2  12   3   -1.27    1.40
   2  12   3   -2.09    1.80
  -3 -12  -3    4.03    1.37
  -3 -12  -3    2.05    1.47
   3  12   3    4.23    1.57
   3  12   3    0.08    1.70
   3  12   3    2.29    1.31
  -4 -12  -3   -0.11    1.23
   4  12   3    0.55    1.66
   4  12   3    0.09    1.59
   4  12   3   -2.31    0.85
  -5 -12  -3    0.31    1.42
   5  12   3   -0.34    1.43
   5  12   3    2.59    1.79
  -6 -12  -3    0.70    1.41
   6  12   3   -0.07    1.69
   6  12   3    3.00    1.52
  -7 -12  -3   -2.28    1.46
   7  12   3   -0.49    1.47
   7  12   3   -0.05    1.21
  -8 -12  -3   -0.62    1.58
  -8 -12  -3    3.79    0.92
   8  12   3    0.94    1.52
   8  12   3    0.44    1.69
   8  12   3   -1.26    1.25
  -9 -12  -3    2.14    1.62
  -9 -12  -3   -0.11    1.03
   9  12   3    1.01    1.80
   9  12   3   -1.41    1.64
   9  12   3    0.36    1.40
  -5 -13  -3    3.69    1.76
   5  13   3    5.40    2.14
   5  13   3   -1.13    1.80
  -6 -13  -3   -0.26    1.68
   6  13   3   -0.79    2.11
   6  13   3   -1.03    1.71
   7  12  -4   15.02    2.62
   7  12  -4   22.72    2.87
   7  12  -4   16.22    2.44
   6  12  -4    3.67    1.85
   6  12  -4    4.10    1.73
   6  12  -4    5.86    2.04
   5  12  -4   -3.12    1.78
   5  12  -4    0.25    1.72
   5  12  -4    0.74    1.20
   5  12  -4    1.58    1.66
   4  12  -4   -0.34    1.22
   4  12  -4    2.47    1.72
   4  12  -4    0.94    1.82
   4  12  -4    0.90    1.79
   3  12  -4    3.96    1.78
   3  12  -4    5.86    2.13
  -3 -12   4    3.53    1.42
   2  12  -4    4.05    2.07
   2  12  -4    1.54    1.82
  -2 -12   4    1.52    1.11
   9  11  -4    5.39    2.08
   9  11  -4    3.79    1.96
  -9 -11   4    5.03    1.62
   8  11  -4    2.65    1.88
   8  11  -4   -0.44    1.44
   8  11  -4   -0.02    1.76
  -8 -11   4    1.53    1.16
   7  11  -4    2.55    1.63
   7  11  -4    3.89    1.67
   7  11  -4    1.67    1.61
   7  11  -4    5.10    1.63
   6  11  -4    1.69    1.53
   6  11  -4    1.25    1.63
   6  11  -4    2.17    1.59
   5  11  -4    2.91    1.52
   5  11  -4    0.18    1.55
   5  11  -4   -1.21    1.41
   4  11  -4    5.91    1.77
   4  11  -4    6.90    1.20
   4  11  -4    6.38    1.60
   3  11  -4   -0.63    1.42
   3  11  -4    0.16    0.98
   3  11  -4    0.50    1.64
  -3 -11   4    0.45    1.11
   2  11  -4    2.13    0.93
   2  11  -4    2.41    1.59
   2  11  -4    2.29    1.79
  -2 -11   4    3.53    1.07
   1  11  -4    0.36    1.73
   1  11  -4   -0.63    1.62
  -1 -11   4    2.28    1.13
   0  11  -4    1.48    1.75
   0  11  -4    1.06    1.85
   0 -11   4    0.71    1.20
  -1  11  -4    4.55    2.02
  -1  11  -4    3.12    2.15
  10  10  -4    0.43    1.73
  10  10  -4   -2.58    1.79
 -10 -10   4   -3.06    1.29
   9  10  -4    7.78    1.99
   9  10  -4   10.44    2.02
  -9 -10   4   13.43    1.75
   8  10  -4   -0.09    1.54
   8  10  -4    0.24    1.37
   8  10  -4    0.13    1.21
  -8 -10   4   -0.54    1.18
  -8 -10   4   -0.19    1.10
   7  10  -4    5.49    1.48
   7  10  -4    4.60    1.62
   7  10  -4    4.25    1.62
  -7 -10   4    7.50    1.55
  -7 -10   4    4.55    1.26
   6  10  -4   -0.71    1.19
   6  10  -4    0.56    1.38
   6  10  -4    1.24    1.28
  -6 -10   4    1.95    1.16
   5  10  -4   -0.32    1.14
   5  10  -4    0.18    1.20
   5  10  -4    1.43    1.31
  -5 -10   4    1.73    1.04
   4  10  -4    2.21    1.35
   4  10  -4    1.77    1.24
   3  10  -4    9.30    1.65
   3  10  -4    6.60    1.61
   3  10  -4    5.26    1.06
  -3 -10   4    7.37    1.32
   2  10  -4   17.26    2.10
   2  10  -4   18.34    2.35
  -2 -10   4   18.17    1.65
   1  10  -4    9.78    1.10
   1  10  -4   11.36    1.97
   1  10  -4   11.43    2.02
  -1 -10   4   12.33    1.57
   0  10  -4    3.06    1.48
   0  10  -4    3.42    0.86
   0  10  -4    3.38    1.63
   0 -10   4    3.15    1.17
  -1  10  -4   -0.21    0.93
  -1  10  -4    3.50    1.74
  -1  10  -4    0.28    1.48
   1 -10   4    0.50    1.04
  -2  10  -4   -0.54    1.68
  -2  10  -4    2.82    1.88
   2 -10   4    0.31    1.26
  10   9  -4    3.30    1.86
  10   9  -4    1.36    1.46
 -10  -9   4    1.96    1.33
 -10  -9   4    1.58    1.37
   9   9  -4    0.53    0.84
   9   9  -4    2.00    1.57
   9   9  -4   -0.62    1.23
  -9  -9   4    0.70    1.17
  -9  -9   4    0.21    1.03
   8   9  -4   10.69    1.41
   8   9  -4    8.56    1.82
   8   9  -4   11.88    1.80
  -8  -9   4   14.12    1.66
  -8  -9   4   14.02    1.96
   7   9  -4    8.58    1.66
   7   9  -4    5.57    1.24
   7   9  -4    4.63    1.48
  -7  -9   4    7.33    1.54
  -7  -9   4    9.27    1.34
   6   9  -4    7.98    1.53
   6   9  -4    8.79    1.48
  -6  -9   4    9.61    1.24
  -6  -9   4   10.44    1.59
   5   9  -4   12.53    1.76
   5   9  -4   14.30    1.74
  -5  -9   4   12.88    1.54
   4   9  -4    1.60    1.10
   4   9  -4    1.80    1.11
  -4  -9   4    0.79    0.79
   3   9  -4    7.17    1.33
   3   9  -4    6.93    1.38
   3   9  -4    7.58    1.02
  -3  -9   4    6.55    1.13
   2   9  -4    0.61    1.06
   2   9  -4   -0.21    1.27
   2   9  -4    0.72    1.07
   2   9  -4    2.94    1.01
  -2  -9   4    0.37    0.77
   1   9  -4    5.70    0.88
   1   9  -4    4.56    1.23
   1   9  -4    7.65    1.18
   1   9  -4    6.85    1.52
   1   9  -4    6.06    1.03
  -1  -9   4    8.83    1.23
   0   9  -4    1.15    1.29
   0   9  -4    1.76    0.52
   0   9  -4   -0.07    0.58
   0   9  -4    2.02    1.08
   0   9  -4    0.81    0.72
   0  -9   4    1.51    0.70
  -1   9  -4   11.06    1.83
  -1   9  -4    9.35    1.14
  -1   9  -4   10.91    1.94
   1  -9   4   10.42    1.21
  -2   9  -4    2.34    0.84
  -2   9  -4    0.74    1.06
  -2   9  -4   -0.49    1.48
   2  -9   4    0.22    1.21
   2  -9   4    1.82    1.11
  -3   9  -4    2.00    1.71
  -3   9  -4    2.36    1.62
  -3   9  -4    2.54    1.77
   3  -9   4    3.38    1.45
   3  -9   4    1.90    1.21
  -4   9  -4    0.75    1.93
  -4   9  -4    0.08    1.97
   4  -9   4    0.98    1.53
   4  -9   4   -0.42    0.93
  11   8  -4   -1.02    1.80
 -11  -8   4    0.94    1.47
 -11  -8   4    2.50    1.51
  10   8  -4    2.51    1.26
  10   8  -4    2.80    1.64
 -10  -8   4    1.27    1.25
 -10  -8   4    3.12    1.33
   9   8  -4    2.09    1.23
   9   8  -4    1.21    0.62
   9   8  -4    0.00    1.40
  -9  -8   4    0.69    1.08
  -9  -8   4    1.56    1.16
   8   8  -4    7.90    1.09
   8   8  -4    9.23    1.45
   8   8  -4    9.00    1.65
  -8  -8   4    9.98    1.42
  -8  -8   4    9.25    1.36
   7   8  -4   14.96    1.70
   7   8  -4   13.76    1.60
   7   8  -4   15.15    1.68
   7   8  -4   20.64    1.87
  -7  -8   4   16.79    1.44
  -7  -8   4   17.05    1.70
  -7  -8   4   15.66    1.50
   6   8  -4   87.57    3.25
   6   8  -4   82.25    3.38
   6   8  -4   87.96    3.12
  -6  -8   4   96.60    3.40
  -6  -8   4   93.76    2.99
   5   8  -4   -0.71    0.85
  -5  -8   4    0.67    0.67
  -5  -8   4    0.48    0.84
  -4  -8   4    0.52    0.71
   3   8  -4   62.04    2.67
  -3  -8   4   64.93    2.41
   2   8  -4    2.07    1.06
   2   8  -4   -0.01    0.82
   2   8  -4   -1.07    0.91
  -2  -8   4   -0.21    0.64
   1   8  -4   12.52    1.26
   1   8  -4   13.73    1.75
   1   8  -4   13.07    1.01
   1   8  -4   13.16    1.14
   1   8  -4   13.53    1.64
  -1  -8   4   12.40    1.21
   0   8  -4   13.09    1.07
   0   8  -4   12.54    0.94
   0   8  -4   12.68    1.48
   0   8  -4   12.69    1.15
   0   8  -4   13.84    1.76
   0  -8   4   15.93    1.49
   0  -8   4   12.44    1.28
  -1   8  -4    6.58    1.52
  -1   8  -4    5.48    0.94
  -1   8  -4    5.15    0.87
  -1   8  -4    7.22    1.51
   1  -8   4    4.77    0.89
   1  -8   4    5.14    1.23
  -2   8  -4   32.57    2.52
  -2   8  -4   36.42    2.55
   2  -8   4   29.07    2.11
   2  -8   4   34.01    1.95
  -3   8  -4   17.58    2.32
  -3   8  -4   17.55    2.16
  -3   8  -4   17.37    1.46
   3  -8   4   14.80    1.91
   3  -8   4   14.56    1.57
  -4   8  -4    5.78    1.23
  -4   8  -4    5.51    1.85
  -4   8  -4    8.18    2.12
   4  -8   4    7.19    1.65
   4  -8   4    5.80    1.37
  -5   8  -4    1.88    1.84
  -5   8  -4    3.25    1.96
  -5   8  -4   -1.09    1.24
   5  -8   4   -0.34    2.49
   5  -8   4    2.88    1.14
  11   7  -4    5.88    1.97
 -11  -7   4    3.15    1.47
 -11  -7   4    4.59    1.54
  10   7  -4   -0.08    0.85
  10   7  -4    0.75    1.39
 -10  -7   4   -0.67    1.25
 -10  -7   4    0.20    0.85
   9   7  -4   10.53    1.82
  -9  -7   4   13.42    1.66
  -9  -7   4   13.91    1.70
   8   7  -4    5.24    1.26
   8   7  -4    5.46    0.85
   8   7  -4    4.44    1.06
   8   7  -4    4.96    0.82
   8   7  -4    5.75    1.38
  -8  -7   4    6.61    1.22
  -8  -7   4    6.39    1.20
   7   7  -4    4.35    1.20
   7   7  -4    1.61    0.92
   7   7  -4    2.35    0.96
  -7  -7   4    1.95    0.91
  -7  -7   4    3.91    1.01
   6   7  -4    6.67    1.20
   6   7  -4    8.96    1.22
   6   7  -4    7.32    1.22
  -6  -7   4    9.58    1.35
  -6  -7   4    8.19    1.10
  -6  -7   4    7.37    0.98
   5   7  -4   93.81    3.14
   5   7  -4   97.92    3.22
  -5  -7   4   93.29    2.90
  -5  -7   4   92.94    3.01
  -5  -7   4   94.42    3.16
  -4  -7   4   32.23    1.66
   3   7  -4  169.81    4.22
  -3  -7   4  174.65    4.43
   2   7  -4   15.63    1.04
   2   7  -4   14.70    1.00
   2   7  -4   13.25    1.40
   2   7  -4   13.72    1.20
  -2  -7   4   14.30    1.13
   1   7  -4   56.04    1.95
   1   7  -4   57.06    1.90
   1   7  -4   57.78    1.87
   1   7  -4   54.56    2.49
  -1  -7   4   58.40    2.08
  -1  -7   4   56.86    2.34
   0   7  -4    4.59    0.68
   0   7  -4    4.88    1.17
   0   7  -4    3.13    0.70
   0   7  -4    3.52    0.75
   0  -7   4    4.04    0.73
   0  -7   4    3.28    0.83
  -1   7  -4    6.88    1.37
  -1   7  -4    7.86    0.93
  -1   7  -4    8.17    0.98
  -1   7  -4    6.21    1.39
   1  -7   4    5.51    1.12
   1  -7   4    6.94    0.96
  -2   7  -4   29.19    2.17
  -2   7  -4   26.76    1.60
  -2   7  -4   28.53    2.20
   2  -7   4   32.30    1.98
   2  -7   4   25.42    1.65
  -3   7  -4   11.18    1.80
  -3   7  -4   12.97    1.88
  -3   7  -4   10.57    1.18
   3  -7   4   10.72    1.28
   3  -7   4   10.49    1.26
  -4   7  -4   -0.33    0.90
  -4   7  -4    0.21    1.38
  -4   7  -4    0.95    1.25
   4  -7   4    1.43    0.96
   4  -7   4    0.71    0.83
  -5   7  -4    0.50    1.53
  -5   7  -4    0.59    1.10
  -5   7  -4    0.19    1.28
   5  -7   4    1.21    1.27
   5  -7   4    0.02    0.79
  -6   7  -4    2.54    1.73
  -6   7  -4    3.76    1.95
  -6   7  -4    4.77    1.44
   6  -7   4    0.63    1.40
   6  -7   4    2.59    1.30
  11   6  -4    9.67    2.17
 -11  -6   4   12.25    1.94
 -11  -6   4   13.87    1.96
  10   6  -4    2.53    1.40
 -10  -6   4   -0.32    1.11
 -10  -6   4   -1.09    1.10
   9   6  -4    7.07    0.91
   9   6  -4    5.71    1.49
  -9  -6   4    6.50    1.32
  -9  -6   4    7.49    1.46
   8   6  -4   -1.22    0.73
   8   6  -4   -0.31    0.65
   8   6  -4   -0.11    0.91
   8   6  -4    0.20    0.57
  -8  -6   4   -0.33    0.78
  -8  -6   4   -0.79    0.81
   7   6  -4   14.96    1.20
   7   6  -4   11.89    1.16
   7   6  -4   12.81    1.60
   7   6  -4   14.98    1.13
  -7  -6   4   12.60    1.10
  -7  -6   4   13.80    1.30
   6   6  -4    7.00    0.96
   6   6  -4    8.28    1.05
   6   6  -4    6.98    1.12
   6   6  -4    6.99    0.98
  -6  -6   4    9.00    1.12
  -6  -6   4    8.33    1.09
   5   6  -4   -0.92    0.65
   5   6  -4   -0.34    0.77
   5   6  -4   -1.60    0.62
   5   6  -4    0.66    0.61
  -5  -6   4    1.27    0.69
  -5  -6   4   -0.69    0.56
  -5  -6   4   -0.10    0.60
   4   6  -4    0.10    0.75
   4   6  -4    0.55    0.78
   4   6  -4    2.58    0.94
  -4  -6   4    0.28    0.52
  -4  -6   4    1.06    0.59
   3   6  -4    3.05    0.95
   3   6  -4    2.89    0.99
   3   6  -4    1.04    0.88
   3   6  -4    1.89    0.71
   2   6  -4    0.35    0.73
   2   6  -4   -0.83    0.80
   2   6  -4    0.57    0.55
  -2  -6   4    0.99    0.57
  -2  -6   4    0.59    0.49
   1   6  -4   21.73    1.11
   1   6  -4   20.23    1.17
   1   6  -4   20.42    1.49
   1   6  -4   19.17    1.08
  -1  -6   4   20.47    1.33
  -1  -6   4   19.54    1.12
   0   6  -4    9.87    0.87
   0   6  -4   10.93    0.91
   0   6  -4   10.36    1.28
   0   6  -4   13.20    0.84
   0  -6   4   10.94    0.95
   0  -6   4   11.33    1.13
  -1   6  -4   51.87    1.24
  -1   6  -4   49.08    1.75
  -1   6  -4   52.55    2.47
  -1   6  -4   48.55    1.20
   1  -6   4   49.63    1.95
   1  -6   4   49.32    2.17
  -2   6  -4   17.59    1.68
  -2   6  -4   16.12    1.05
   2  -6   4   16.39    1.15
   2  -6   4   15.70    1.39
  -3   6  -4    5.02    0.94
  -3   6  -4    5.83    1.38
  -3   6  -4    5.55    1.33
   3  -6   4    4.24    0.95
   3  -6   4    3.41    0.99
  -4   6  -4   16.43    1.88
  -4   6  -4   13.61    1.53
  -4   6  -4   11.64    1.18
   4  -6   4   12.04    1.51
   4  -6   4   12.05    1.36
  -5   6  -4    3.69    1.13
  -5   6  -4    4.69    1.49
  -5   6  -4    4.38    1.31
   5  -6   4    4.15    1.23
   5  -6   4    2.72    1.13
  -6   6  -4   -0.85    1.40
  -6   6  -4   -0.34    1.06
  -6   6  -4    0.85    1.04
   6  -6   4   -1.23    0.93
   6  -6   4   -0.16    1.20
  -7   6  -4    0.17    1.61
  -7   6  -4    2.02    1.37
  -7   6  -4    2.93    1.43
   7  -6   4    1.41    1.49
   7  -6   4    2.79    1.42
  11   5  -4   10.13    2.06
 -11  -5   4    9.98    1.77
 -11  -5   4    8.97    1.81
  10   5  -4   17.17    2.11
 -10  -5   4   19.15    1.86
 -10  -5   4   16.22    2.04
   9   5  -4   10.69    0.67
   9   5  -4   13.10    1.79
  -9  -5   4   13.48    1.62
  -9  -5   4   13.41    1.65
   8   5  -4   20.29    1.03
   8   5  -4   17.72    1.72
   8   5  -4   19.10    0.99
  -8  -5   4   20.94    1.60
  -8  -5   4   20.64    1.41
   7   5  -4   11.19    0.90
   7   5  -4   10.25    0.88
   7   5  -4   11.05    1.46
   7   5  -4    9.52    0.85
  -7  -5   4    9.15    1.19
  -7  -5   4    7.99    0.93
   6   5  -4    4.21    0.73
   6   5  -4    2.58    0.62
   6   5  -4    2.86    0.63
   6   5  -4    3.47    0.91
  -6  -5   4    2.92    0.57
  -6  -5   4    2.06    0.74
  -6  -5   4    3.06    0.77
   5   5  -4    6.29    0.83
   5   5  -4    5.10    0.82
   5   5  -4    6.23    0.81
   5   5  -4    6.48    0.86
   5   5  -4    5.94    1.04
   5   5  -4    5.10    0.87
  -5  -5   4    4.81    0.87
  -5  -5   4    5.57    0.75
  -5  -5   4    6.03    0.86
   4   5  -4    1.41    0.75
   4   5  -4    2.33    0.58
   4   5  -4    1.48    0.58
   4   5  -4    0.54    0.69
  -4  -5   4    2.98    0.66
  -4  -5   4    0.63    0.56
  -4  -5   4    1.15    0.63
   3   5  -4   47.77    1.97
   3   5  -4   49.44    1.78
   3   5  -4   49.91    1.64
   3   5  -4   49.17    1.72
   3   5  -4   50.39    1.98
   3   5  -4   46.37    1.84
  -3  -5   4   50.88    1.88
  -3  -5   4   46.01    1.89
  -3  -5   4   49.85    1.88
   2   5  -4    7.38    0.95
   2   5  -4    7.37    0.90
   2   5  -4    6.74    0.73
   2   5  -4    8.15    1.06
   2   5  -4    7.52    0.84
   2   5  -4    6.50    0.88
  -2  -5   4    6.26    0.71
  -2  -5   4    5.63    0.62
   1   5  -4    6.36    0.75
   1   5  -4    7.09    0.78
   1   5  -4    6.28    0.68
   1   5  -4    7.22    0.69
   1   5  -4    8.30    1.05
   1   5  -4    6.49    1.01
   1   5  -4    9.57    1.00
  -1  -5   4    7.04    0.66
  -1  -5   4    6.68    0.68
   0   5  -4    4.45    0.78
   0   5  -4    3.75    0.99
   0   5  -4    3.55    0.90
   0   5  -4    4.66    0.60
   0   5  -4    4.63    0.65
   0   5  -4    3.95    0.66
   0  -5   4    3.84    0.70
  -1   5  -4    7.62    0.44
  -1   5  -4    6.48    0.75
  -1   5  -4    8.08    1.16
   1  -5   4    6.94    0.78
   1  -5   4    8.45    0.97
  -2   5  -4    1.12    0.58
  -2   5  -4    1.35    0.81
   2  -5   4    0.09    0.50
   2  -5   4    0.71    0.67
  -3   5  -4   16.36    1.61
   3  -5   4   19.63    1.23
   3  -5   4   18.39    1.30
   3  -5   4   18.99    1.42
  -4   5  -4   16.18    1.48
  -4   5  -4   15.94    1.22
  -4   5  -4   16.08    1.75
   4  -5   4   17.36    1.51
   4  -5   4   17.51    1.42
  -5   5  -4    1.41    1.11
  -5   5  -4    0.68    0.95
  -5   5  -4   -0.30    0.89
   5  -5   4   -0.75    0.61
   5  -5   4   -0.51    0.76
  -6   5  -4    0.13    1.07
  -6   5  -4   -0.84    1.19
  -6   5  -4   -0.52    1.00
   6  -5   4   -1.15    0.94
   6  -5   4   -0.73    0.94
  -7   5  -4   10.15    1.77
  -7   5  -4    9.56    1.57
  -7   5  -4    9.48    1.92
   7  -5   4    6.74    1.31
   7  -5   4   10.66    1.69
  -8   5  -4   -0.81    1.55
  -8   5  -4    0.29    1.62
  -8   5  -4   -0.15    1.42
   8  -5   4   -0.71    1.00
   8  -5   4   -0.05    1.47
  11   4  -4   -1.79    1.59
 -11  -4   4    3.23    1.57
 -11  -4   4    3.41    1.39
  10   4  -4    1.38    1.35
 -10  -4   4   -0.57    1.12
 -10  -4   4    0.88    1.25
   9   4  -4    1.90    1.12
  -9  -4   4    2.18    1.12
  -9  -4   4    0.10    0.92
   8   4  -4    0.19    0.05
   8   4  -4    0.48    0.51
   8   4  -4    0.64    0.90
  -8  -4   4    0.25    0.84
  -8  -4   4    0.08    0.36
  -8  -4   4   -0.33    0.78
   7   4  -4    0.09    0.50
   7   4  -4    1.32    0.84
   7   4  -4    0.64    0.34
  -7  -4   4    0.04    0.74
  -7  -4   4    0.13    0.66
  -7  -4   4    0.96    0.45
   6   4  -4    3.50    0.85
   6   4  -4    2.65    0.60
   6   4  -4    3.09    0.54
   6   4  -4    3.26    0.48
  -6  -4   4    3.86    0.58
  -6  -4   4    3.34    0.82
  -6  -4   4    4.23    0.85
   5   4  -4    0.53    0.41
   5   4  -4    0.61    0.42
   5   4  -4    1.10    0.55
   5   4  -4    0.66    0.80
   5   4  -4    0.55    0.55
  -5  -4   4    0.45    0.44
  -5  -4   4    0.50    0.52
  -5  -4   4    0.45    0.41
   4   4  -4   33.51    1.25
   4   4  -4   35.09    1.33
   4   4  -4   33.46    1.56
   4   4  -4   35.92    1.73
   4   4  -4   34.30    1.54
   4   4  -4   38.06    1.47
  -4  -4   4   38.28    1.58
  -4  -4   4   36.34    1.44
  -4  -4   4   35.21    1.47
   3   4  -4   61.76    2.02
   3   4  -4   60.90    1.83
   3   4  -4   60.09    2.04
   3   4  -4   63.01    1.77
   3   4  -4   59.46    1.88
   3   4  -4   60.45    2.09
  -3  -4   4   60.28    2.07
  -3  -4   4   59.09    1.91
  -3  -4   4   62.25    2.01
   2   4  -4    4.02    0.54
   2   4  -4    4.10    0.71
   2   4  -4    4.88    0.66
   2   4  -4    4.65    0.73
   2   4  -4    4.15    0.77
   2   4  -4    3.57    0.63
  -2  -4   4    4.18    0.70
  -2  -4   4    4.06    0.51
  -2  -4   4    4.43    0.66
  -2  -4   4    4.47    0.60
   1   4  -4    1.40    0.64
   1   4  -4    0.83    0.55
   1   4  -4    2.72    0.73
   1   4  -4    1.03    0.50
   1   4  -4    1.63    0.46
   1   4  -4    1.30    0.44
  -1  -4   4    1.25    0.36
  -1  -4   4    1.32    0.54
  -1  -4   4    1.01    0.46
   0   4  -4    1.08    0.49
   0   4  -4    0.87    0.40
   0   4  -4    0.62    0.64
   0   4  -4    0.43    0.34
   0   4  -4    1.76    0.71
   0   4  -4    0.61    0.41
   0   4  -4    0.81    0.57
   0  -4   4    0.93    0.39
   0  -4   4    0.73    0.36
   0  -4   4   -0.16    0.46
  -1   4  -4    1.88    0.81
  -1   4  -4    2.13    0.33
  -1   4  -4    1.47    0.60
  -1   4  -4    2.42    0.71
  -1   4  -4    2.01    0.52
  -1   4  -4    1.71    0.63
   1  -4   4    1.81    0.41
   1  -4   4    0.91    0.52
  -2   4  -4    8.01    0.89
  -2   4  -4   10.48    0.86
  -2   4  -4    8.79    1.11
   2  -4   4    8.62    0.83
   2  -4   4    9.94    0.83
   2  -4   4    8.23    0.83
  -3   4  -4   32.87    1.42
  -3   4  -4   30.95    1.76
   3  -4   4   31.14    1.51
   3  -4   4   31.18    1.49
   3  -4   4   32.88    1.68
  -4   4  -4    5.62    1.17
  -4   4  -4    5.73    0.93
   4  -4   4    4.68    0.98
   4  -4   4    4.09    0.88
  -5   4  -4  143.58    4.58
  -5   4  -4  147.49    4.74
  -5   4  -4  149.07    4.05
   5  -4   4  146.05    4.37
   5  -4   4  151.98    4.34
  -6   4  -4    0.98    1.11
  -6   4  -4   -0.09    0.82
  -6   4  -4    0.89    1.01
   6  -4   4    0.96    0.88
   6  -4   4   -0.22    0.87
  -7   4  -4   -1.27    1.01
  -7   4  -4   -1.01    1.15
  -7   4  -4   -0.30    1.09
   7  -4   4    0.35    1.05
   7  -4   4    1.75    1.05
  -8   4  -4    2.62    1.24
  -8   4  -4    2.30    1.28
  -8   4  -4    2.60    1.45
   8  -4   4    1.77    1.33
   8  -4   4    0.91    1.18
  -9   4  -4    3.86    1.52
  -9   4  -4    5.98    1.82
  -9   4  -4    1.82    1.38
   9  -4   4    4.50    1.74
   9  -4   4    4.90    1.60
  11   3  -4   10.22    2.16
 -11  -3   4   12.71    2.02
 -11  -3   4   13.31    2.01
  10   3  -4    6.66    1.65
 -10  -3   4    5.77    1.53
 -10  -3   4    5.72    1.41
   9   3  -4    1.10    1.11
  -9  -3   4    0.87    0.96
  -9  -3   4    0.40    0.40
  -9  -3   4    0.92    1.07
   8   3  -4    1.44    1.00
   8   3  -4    1.11    0.66
  -8  -3   4    2.89    0.94
  -8  -3   4    1.61    0.92
  -8  -3   4    2.75    0.54
   7   3  -4    1.03    0.58
   7   3  -4    0.66    0.76
  -7  -3   4   -0.34    0.70
  -7  -3   4   -0.37    0.43
  -7  -3   4    0.77    0.68
   6   3  -4   12.10    1.14
   6   3  -4   12.81    0.39
   6   3  -4   14.32    0.93
  -6  -3   4   13.40    0.84
  -6  -3   4   13.74    1.22
  -6  -3   4   10.86    1.06
   5   3  -4   -0.21    0.48
   5   3  -4   -0.12    0.44
   5   3  -4    0.05    0.24
   5   3  -4    0.08    0.23
   5   3  -4    0.51    0.85
  -5  -3   4    0.57    0.40
  -5  -3   4   -0.78    0.45
  -5  -3   4    0.71    0.60
   4   3  -4  258.05    5.96
   4   3  -4  248.87    6.04
   4   3  -4  257.60    5.82
   4   3  -4  265.86    5.65
   4   3  -4  259.40    5.31
   4   3  -4  258.57    5.37
   4   3  -4  247.45    5.83
  -4  -3   4  263.67    5.85
  -4  -3   4  251.68    5.67
  -4  -3   4  262.95    6.00
   3   3  -4    1.14    0.52
   3   3  -4    1.23    0.53
   3   3  -4    0.48    0.32
   3   3  -4   -0.01    0.30
   3   3  -4    0.10    0.39
   3   3  -4    0.35    0.48
   3   3  -4    1.18    0.49
  -3  -3   4    0.12    0.45
  -3  -3   4    0.34    0.38
  -3  -3   4    0.22    0.37
   2   3  -4   -0.04    0.27
   2   3  -4   -0.18    0.44
   2   3  -4    0.06    0.46
   2   3  -4    0.00    0.45
   2   3  -4    0.18    0.32
   2   3  -4    0.65    0.45
  -2  -3   4    0.03    0.39
  -2  -3   4    0.07    0.28
  -2  -3   4    0.31    0.31
  -2  -3   4   -0.58    0.36
   1   3  -4   19.02    0.94
   1   3  -4   18.36    1.05
   1   3  -4   19.56    0.97
   1   3  -4   19.82    0.90
   1   3  -4   20.00    1.11
   1   3  -4   20.31    0.81
  -1  -3   4   21.07    1.04
  -1  -3   4   19.28    0.76
  -1  -3   4   19.21    0.91
  -1  -3   4   20.33    1.08
   0   3  -4  452.35    9.05
   0   3  -4  437.96    9.02
   0   3  -4  449.80    9.35
   0   3  -4  460.95    9.53
   0   3  -4  452.79    9.44
   0   3  -4  434.57    9.15
   0   3  -4  449.90    9.00
   0  -3   4  442.71    9.51
   0  -3   4  443.73    8.99
   0  -3   4  435.60    9.29
  -1   3  -4    1.76    0.71
  -1   3  -4    1.36    0.47
  -1   3  -4    1.24    0.58
  -1   3  -4    0.97    0.44
  -1   3  -4    1.61    0.32
  -1   3  -4    1.20    0.54
  -1   3  -4    1.52    0.30
   1  -3   4    1.11    0.47
   1  -3   4    1.45    0.59
   1  -3   4    0.81    0.36
  -2   3  -4   58.43    2.12
  -2   3  -4   58.61    1.83
  -2   3  -4   49.15    2.36
  -2   3  -4   59.88    1.89
  -2   3  -4   57.46    1.34
  -2   3  -4   58.43    2.17
   2  -3   4   53.84    2.17
   2  -3   4   59.82    1.82
   2  -3   4   60.39    1.85
  -3   3  -4  107.53    3.17
  -3   3  -4  113.02    2.99
  -3   3  -4  107.69    3.35
  -3   3  -4  109.96    3.47
   3  -3   4  113.80    3.27
   3  -3   4  109.18    2.94
   3  -3   4  112.51    3.07
  -4   3  -4   90.84    3.20
  -4   3  -4   92.97    2.73
   4  -3   4   88.02    2.71
   4  -3   4   92.93    2.87
   4  -3   4   90.95    2.97
  -5   3  -4   31.33    1.63
  -5   3  -4   30.94    1.96
   5  -3   4   31.04    1.65
   5  -3   4   32.25    1.63
  -6   3  -4   20.18    1.82
  -6   3  -4   22.33    1.75
  -6   3  -4   21.28    1.49
   6  -3   4   22.39    1.63
   6  -3   4   22.19    1.50
  -7   3  -4    1.29    1.02
  -7   3  -4    2.35    1.00
  -7   3  -4    1.76    0.96
   7  -3   4    1.70    1.00
   7  -3   4    0.93    0.96
  -8   3  -4   -1.32    1.12
  -8   3  -4    1.17    1.16
  -8   3  -4    1.06    1.28
   8  -3   4   -0.53    0.99
   8  -3   4    1.32    1.13
  -9   3  -4   11.33    2.13
  -9   3  -4   10.06    1.67
  -9   3  -4    9.98    1.72
   9  -3   4    9.30    1.61
   9  -3   4    8.94    1.66
 -10   3  -4   -0.33    1.56
 -10   3  -4   -1.97    1.59
  10  -3   4   -0.11    1.45
  10  -3   4    4.40    1.78
  11   2  -4   -0.69    1.72
  11   2  -4    1.18    1.65
 -11  -2   4   -0.35    1.55
 -11  -2   4    0.51    1.47
  10   2  -4    1.21    1.24
 -10  -2   4    1.46    1.25
 -10  -2   4    1.52    1.29
   9   2  -4   10.32    1.59
  -9  -2   4   10.57    1.64
  -9  -2   4   10.02    1.47
  -9  -2   4   10.84    0.98
   8   2  -4   11.45    1.50
   8   2  -4   10.25    1.24
  -8  -2   4   13.78    1.52
  -8  -2   4   13.30    1.18
  -8  -2   4   12.91    1.02
   7   2  -4    3.24    0.93
   7   2  -4    1.00    0.72
  -7  -2   4    2.45    0.83
  -7  -2   4    2.27    0.64
  -7  -2   4    2.27    0.90
   6   2  -4   14.27    1.17
   6   2  -4   15.05    1.03
  -6  -2   4   12.54    1.36
  -6  -2   4   11.88    1.20
  -6  -2   4   13.46    0.91
  -6  -2   4   13.60    1.00
   5   2  -4   80.88    2.23
   5   2  -4   78.82    2.43
  -5  -2   4   79.04    2.22
  -5  -2   4   76.69    2.60
  -5  -2   4   77.20    2.44
  -5  -2   4   77.47    2.48
   4   2  -4    7.70    1.06
   4   2  -4    7.41    0.26
   4   2  -4    6.48    0.70
   4   2  -4    8.10    1.01
   4   2  -4    7.85    0.75
   4   2  -4    7.68    0.75
   4   2  -4    6.97    0.26
  -4  -2   4    6.52    0.62
  -4  -2   4    7.86    0.77
  -4  -2   4    7.91    0.74
  -4  -2   4    7.91    0.72
   3   2  -4   49.98    1.66
   3   2  -4   51.35    1.61
   3   2  -4   49.73    1.78
   3   2  -4   51.95    1.78
   3   2  -4   50.27    1.25
   3   2  -4   47.85    1.52
  -3  -2   4   48.33    1.63
  -3  -2   4   49.27    1.74
  -3  -2   4   48.46    1.60
   2   2  -4    0.09    0.26
   2   2  -4    0.14    0.28
   2   2  -4   -0.27    0.23
   2   2  -4   -0.47    0.38
   2   2  -4    0.22    0.20
   2   2  -4   -0.44    0.30
   2   2  -4    0.33    0.36
  -2  -2   4    0.28    0.31
  -2  -2   4   -0.13    0.32
  -2  -2   4    0.09    0.21
  -2  -2   4    0.11    0.37
   1   2  -4  263.54    5.55
   1   2  -4  249.09    5.62
   1   2  -4  261.94    5.50
   1   2  -4  260.79    5.23
   1   2  -4  268.68    5.75
   1   2  -4  265.67    5.74
  -1  -2   4  257.86    5.74
  -1  -2   4  258.11    5.77
  -1  -2   4  251.53    5.23
  -1  -2   4  259.01    5.47
   0   2  -4   -0.42    0.37
   0   2  -4   -0.56    0.26
   0   2  -4    0.46    0.23
   0   2  -4   -0.28    0.25
   0   2  -4   -0.04    0.44
   0   2  -4   -0.20    0.29
   0  -2   4   -0.55    0.24
   0  -2   4    0.25    0.31
   0  -2   4    0.03    0.16
   0  -2   4    0.03    0.29
  -1   2  -4  170.90    3.71
  -1   2  -4  171.33    4.14
  -1   2  -4  179.76    3.85
  -1   2  -4  174.05    4.10
  -1   2  -4  171.43    3.95
  -1   2  -4  176.15    4.19
   1  -2   4  170.88    4.19
   1  -2   4  172.51    3.77
   1  -2   4  167.70    4.07
  -2   2  -4    5.47    0.67
  -2   2  -4    6.07    0.63
  -2   2  -4    6.48    0.79
  -2   2  -4    5.65    0.63
  -2   2  -4    6.42    0.44
  -2   2  -4    7.24    0.95
   2  -2   4    7.06    0.74
   2  -2   4    7.23    0.67
   2  -2   4    6.25    0.58
   2  -2   4    6.20    0.74
  -3   2  -4   32.75    1.57
  -3   2  -4   33.00    1.55
  -3   2  -4   35.53    1.42
  -3   2  -4   32.30    0.95
  -3   2  -4   34.54    1.49
  -3   2  -4   35.36    1.38
   3  -2   4   31.38    1.33
   3  -2   4   33.93    1.52
   3  -2   4   33.23    0.96
   3  -2   4   31.65    1.41
   3  -2   4   34.67    1.33
  -4   2  -4    8.91    1.14
  -4   2  -4    9.93    1.09
  -4   2  -4    9.27    0.49
  -4   2  -4    8.57    0.93
  -4   2  -4    9.57    0.96
   4  -2   4    9.37    0.81
   4  -2   4    9.10    0.97
   4  -2   4   10.14    0.96
  -5   2  -4   33.22    1.59
  -5   2  -4   34.13    1.90
  -5   2  -4   38.32    2.21
  -5   2  -4   35.50    1.06
   5  -2   4   34.63    1.63
   5  -2   4   34.88    1.74
   5  -2   4   34.97    1.05
  -6   2  -4   10.45    1.18
  -6   2  -4    9.97    0.66
  -6   2  -4    9.68    1.43
   6  -2   4    9.18    0.68
   6  -2   4   10.36    1.24
   6  -2   4    9.70    1.17
  -7   2  -4    6.56    1.17
  -7   2  -4    4.87    1.28
  -7   2  -4    5.93    1.18
   7  -2   4    6.43    1.16
   7  -2   4    6.05    0.73
   7  -2   4    7.10    1.25
  -8   2  -4   11.45    1.77
  -8   2  -4   10.83    1.50
  -8   2  -4   12.09    1.48
   8  -2   4    9.04    1.47
   8  -2   4    8.13    1.08
   8  -2   4   10.96    1.61
  -9   2  -4    0.80    1.26
  -9   2  -4    1.66    1.23
  -9   2  -4    0.67    1.07
   9  -2   4    1.58    1.25
   9  -2   4   -1.47    1.09
 -10   2  -4    2.41    1.42
 -10   2  -4    1.74    1.52
 -10   2  -4    1.44    1.41
  10  -2   4    3.73    1.58
  10  -2   4   -0.02    1.36
  10   1  -4   -2.11    1.54
  10   1  -4   -1.64    1.29
 -10  -1   4    1.09    1.41
 -10  -1   4   -0.74    1.12
 -10  -1   4   -0.20    0.94
   9   1  -4   11.62    1.68
   9   1  -4   12.39    1.89
  -9  -1   4   13.07    1.25
  -9  -1   4   10.96    1.59
  -9  -1   4   11.24    1.55
   8   1  -4    1.87    1.25
   8   1  -4    3.62    1.11
   8   1  -4    3.59    1.12
  -8  -1   4    4.26    1.02
  -8  -1   4    2.07    1.07
  -8  -1   4    4.63    0.85
   7   1  -4   77.22    2.56
   7   1  -4   79.72    2.85
  -7  -1   4   76.16    2.69
  -7  -1   4   78.67    3.02
  -7  -1   4   77.45    2.38
   6   1  -4    8.23    1.04
   6   1  -4   10.89    1.10
  -6  -1   4    9.26    0.98
  -6  -1   4   10.20    0.90
  -6  -1   4   10.38    1.19
   5   1  -4    7.59    0.82
   5   1  -4    8.66    0.89
  -5  -1   4    7.98    0.82
  -5  -1   4    6.91    0.74
  -5  -1   4    7.15    1.00
  -5  -1   4    7.72    1.04
   4   1  -4    5.82    0.74
   4   1  -4    6.42    0.70
   4   1  -4    8.51    1.05
   4   1  -4    7.07    0.72
   4   1  -4    6.98    1.02
  -4  -1   4    6.72    0.82
  -4  -1   4    6.65    0.72
  -4  -1   4    6.93    0.82
  -4  -1   4    7.20    0.65
   3   1  -4    9.92    0.64
   3   1  -4    9.64    0.71
   3   1  -4    8.45    0.76
   3   1  -4    9.88    0.85
   3   1  -4    9.20    0.91
  -3  -1   4    8.63    0.68
  -3  -1   4    9.57    0.68
  -3  -1   4    8.69    0.70
  -3  -1   4   10.10    0.77
   2   1  -4   25.23    0.74
   2   1  -4   25.53    1.04
   2   1  -4   24.79    0.84
   2   1  -4   26.29    1.07
   2   1  -4   26.32    1.17
   2   1  -4   23.21    1.09
  -2  -1   4   25.59    1.08
  -2  -1   4   24.66    1.14
  -2  -1   4   25.70    0.72
  -2  -1   4   23.99    1.02
   1   1  -4    7.14    0.35
   1   1  -4    7.14    0.50
   1   1  -4    7.26    0.64
   1   1  -4    7.41    0.30
   1   1  -4    8.07    0.65
   1   1  -4    7.14    0.65
   1   1  -4    6.93    0.48
  -1  -1   4    7.52    0.64
  -1  -1   4    7.08    0.47
  -1  -1   4    6.92    0.58
   0   1  -4  860.89   16.99
   0   1  -4  839.41   16.86
   0   1  -4  888.86   17.06
   0   1  -4  872.14   16.87
   0  -1   4  858.67   16.85
   0  -1   4  839.90   17.03
   0  -1   4  850.16   17.07
   0  -1   4  865.44   16.89
  -1   1  -4  311.62    6.55
  -1   1  -4  312.75    6.53
  -1   1  -4  299.75    6.42
  -1   1  -4  295.95    6.28
  -1   1  -4  314.76    6.60
  -1   1  -4  306.83    6.18
   1  -1   4  299.80    6.60
   1  -1   4  292.34    6.12
   1  -1   4  314.01    6.42
   1  -1   4  310.84    6.30
   1  -1   4  301.23    6.49
  -2   1  -4   34.82    1.28
  -2   1  -4   36.18    1.41
  -2   1  -4   37.58    1.22
  -2   1  -4   37.40    1.41
  -2   1  -4   34.94    1.09
  -2   1  -4   33.07    1.39
   2  -1   4   34.40    1.16
   2  -1   4   35.10    1.34
   2  -1   4   35.61    1.08
   2  -1   4   33.22    1.38
   2  -1   4   38.08    1.31
  -3   1  -4   48.90    1.74
  -3   1  -4   49.23    1.85
  -3   1  -4   49.53    1.67
  -3   1  -4   49.27    1.67
  -3   1  -4   48.18    1.75
  -3   1  -4   48.45    1.38
   3  -1   4   49.49    1.66
   3  -1   4   50.61    1.63
   3  -1   4   49.46    1.78
   3  -1   4   50.08    1.37
   3  -1   4   49.56    1.76
  -4   1  -4   71.51    2.24
  -4   1  -4   74.97    1.93
  -4   1  -4   74.16    2.48
  -4   1  -4   74.23    2.40
  -4   1  -4   74.39    2.34
  -4   1  -4   74.30    2.52
   4  -1   4   75.29    1.89
   4  -1   4   74.53    2.44
   4  -1   4   73.04    2.33
   4  -1   4   75.36    2.29
   4  -1   4   75.20    2.32
  -5   1  -4   75.44    2.67
  -5   1  -4   77.42    2.04
  -5   1  -4   73.53    2.40
  -5   1  -4   77.35    2.72
   5  -1   4   79.30    2.02
   5  -1   4   75.88    2.57
   5  -1   4   71.66    2.44
  -6   1  -4   13.71    1.19
  -6   1  -4   13.93    1.29
  -6   1  -4   13.89    1.20
  -6   1  -4   13.26    0.82
   6  -1   4   14.23    0.91
   6  -1   4   11.69    1.22
   6  -1   4   13.09    1.10
  -7   1  -4    0.95    0.68
  -7   1  -4    1.30    0.91
  -7   1  -4    2.23    0.59
   7  -1   4    0.50    0.66
   7  -1   4    2.09    0.81
   7  -1   4    1.45    0.72
  -8   1  -4    4.05    0.79
  -8   1  -4    3.12    1.18
  -8   1  -4    3.25    1.01
  -8   1  -4    2.29    1.03
   8  -1   4    1.31    0.80
   8  -1   4    1.58    0.98
   8  -1   4    4.14    1.03
  -9   1  -4    1.05    1.12
  -9   1  -4    0.30    0.94
  -9   1  -4   -0.97    0.96
   9  -1   4   -0.53    0.80
   9  -1   4   -0.65    0.97
 -10   1  -4    7.81    1.84
 -10   1  -4   12.05    1.80
 -10   1  -4    9.24    1.43
  10  -1   4    9.23    1.65
  10  -1   4    8.24    1.77
 -11   1  -4    1.05    1.36
 -11   1  -4    0.51    1.67
 -11   1  -4   -0.68    1.45
  11  -1   4   -0.03    1.57
  10   0  -4    5.00    1.82
  10   0  -4    1.47    1.47
 -10   0   4    2.03    1.58
 -10   0   4    0.09    1.10
 -10   0   4    2.00    1.28
   9   0  -4    1.53    1.14
   9   0  -4    1.06    1.28
  -9   0   4    0.13    0.85
  -9   0   4    0.26    1.08
  -9   0   4    1.07    1.03
   8   0  -4   24.43    1.85
   8   0  -4   25.71    2.06
  -8   0   4   25.94    2.08
  -8   0   4   23.62    1.48
  -8   0   4   19.82    1.57
   7   0  -4   51.80    2.25
   7   0  -4   48.65    2.30
   7   0  -4   52.12    2.47
  -7   0   4   42.88    2.24
  -7   0   4   49.59    2.12
   6   0  -4   79.22    2.72
   6   0  -4   83.46    2.78
   6   0  -4   85.50    2.96
  -6   0   4   88.32    2.63
  -6   0   4   82.27    3.04
  -6   0   4   86.99    2.73
   5   0  -4    2.02    0.64
   5   0  -4    5.26    0.96
   5   0  -4    3.20    0.81
  -5   0   4    3.00    0.67
  -5   0   4    2.32    0.83
  -5   0   4    2.63    0.81
  -5   0   4    3.52    0.74
   4   0  -4   20.60    1.13
   4   0  -4   20.76    1.07
   4   0  -4   19.13    1.26
   4   0  -4   19.54    1.36
   4   0  -4   20.14    1.17
  -4   0   4   21.87    1.32
  -4   0   4   19.81    1.06
  -4   0   4   20.76    1.19
   3   0  -4   45.12    1.77
   3   0  -4   44.71    1.54
   3   0  -4   45.11    1.70
   3   0  -4   46.66    1.63
   3   0  -4   43.66    1.38
  -3   0   4   43.59    1.66
  -3   0   4   43.11    1.55
  -3   0   4   46.71    1.48
  -3   0   4   44.13    1.50
   2   0  -4   11.31    0.76
   2   0  -4   12.50    0.80
   2   0  -4   12.36    0.57
   2   0  -4   10.80    0.77
   2   0  -4   12.36    0.43
   2   0  -4   12.88    0.72
  -2   0   4   12.19    0.41
  -2   0   4   10.34    0.74
  -2   0   4   12.25    0.67
  -2   0   4   11.37    0.59
  -2   0   4   12.81    0.79
   1   0  -4  185.56    4.21
   1   0  -4  187.20    4.21
   1   0  -4  175.01    3.61
   1   0  -4  192.01    4.04
   1   0  -4  188.72    4.20
   1   0  -4  184.89    3.86
  -1   0   4  177.80    4.19
  -1   0   4  180.53    3.83
  -1   0   4  177.48    4.18
  -1   0   4  185.88    4.21
  -1   0   4  180.69    3.65
   0   0  -4    6.48    0.52
   0   0  -4    5.90    0.55
   0   0  -4    5.38    0.54
   0   0  -4    6.23    0.48
   0   0   4    5.49    0.49
   0   0   4    5.37    0.59
   0   0   4    5.95    0.56
   0   0   4    5.34    0.55
  -1   0  -4  132.25    3.08
  -1   0  -4  136.27    3.15
  -1   0  -4  131.94    3.09
  -1   0  -4  132.52    2.79
  -1   0  -4  134.53    3.16
  -1   0  -4  136.07    3.23
   1   0   4  129.09    2.76
   1   0   4  132.09    3.14
   1   0   4  131.79    3.06
   1   0   4  132.22    3.22
   1   0   4  134.68    3.18
   1   0   4  136.58    3.10
  -2   0  -4  141.50    3.41
  -2   0  -4  147.30    3.49
  -2   0  -4  150.58    3.47
  -2   0  -4  148.94    3.28
  -2   0  -4  147.21    3.53
  -2   0  -4  144.09    3.30
   2   0   4  145.44    3.24
   2   0   4  144.81    3.51
   2   0   4  146.80    3.29
   2   0   4  150.70    3.41
   2   0   4  142.04    3.52
  -3   0  -4   -0.29    0.46
  -3   0  -4    0.06    0.38
  -3   0  -4   -0.11    0.36
  -3   0  -4   -0.41    0.27
  -3   0  -4   -0.23    0.27
  -3   0  -4    0.02    0.29
   3   0   4    0.16    0.32
   3   0   4    0.25    0.37
   3   0   4   -0.90    0.40
   3   0   4    0.63    0.43
   3   0   4    0.16    0.30
  -4   0  -4   94.43    2.70
  -4   0  -4   96.93    2.62
  -4   0  -4   92.30    2.75
  -4   0  -4   95.28    2.42
  -4   0  -4   93.77    2.63
  -4   0  -4   92.96    2.73
   4   0   4   90.45    2.62
   4   0   4   97.04    2.39
   4   0   4   95.20    2.62
   4   0   4   93.66    2.63
   4   0   4   90.77    2.73
  -5   0  -4    1.44    0.63
  -5   0  -4    1.85    0.63
  -5   0  -4    1.89    0.64
  -5   0  -4    0.50    0.57
  -5   0  -4   -0.18    0.75
  -5   0  -4    1.19    0.47
   5   0   4    0.98    0.48
   5   0   4    1.34    0.86
   5   0   4    1.45    0.79
   5   0   4    0.65    0.63
   5   0   4    1.46    0.54
  -6   0  -4   14.72    1.15
  -6   0  -4   11.61    1.08
  -6   0  -4   13.60    1.19
  -6   0  -4   12.14    0.89
   6   0   4   12.20    1.16
   6   0   4   13.26    0.98
   6   0   4   12.01    1.16
  -7   0  -4    0.77    0.77
  -7   0  -4    0.24    0.75
  -7   0  -4    1.67    0.66
  -7   0  -4    2.03    0.85
   7   0   4    0.98    0.81
   7   0   4    1.02    0.81
   7   0   4    1.74    0.80
  -8   0  -4    3.49    1.03
  -8   0  -4    2.44    1.00
  -8   0  -4    1.67    0.86
  -8   0  -4    2.02    0.95
   8   0   4    1.79    0.95
   8   0   4    4.12    1.11
   8   0   4    1.18    0.90
  -9   0  -4   11.31    1.66
  -9   0  -4    9.83    1.22
  -9   0  -4   10.09    1.54
  -9   0  -4   13.37    1.78
  -9   0  -4   10.53    1.25
   9   0   4    9.10    1.57
   9   0   4   11.36    1.52
 -10   0  -4    2.57    1.27
 -10   0  -4    2.62    0.98
 -10   0  -4    3.01    1.44
  10   0   4    5.34    1.55
  10   0   4    4.09    1.35
 -11   0  -4   20.98    2.48
 -11   0  -4   19.75    2.19
 -11   0  -4   17.92    1.75
  11   0   4   17.41    2.06
  11   0   4   21.74    2.18
  10  -1  -4   31.39    2.81
  10  -1  -4   20.88    2.46
 -10   1   4   22.63    2.39
 -10   1   4   22.05    2.03
   9  -1  -4   -1.53    1.24
   9  -1  -4    1.12    1.25
  -9   1   4    0.11    1.09
  -9   1   4   -1.01    1.41
  -9   1   4    1.12    1.12
   8  -1  -4   31.05    2.08
   8  -1  -4   26.95    1.96
  -8   1   4   29.09    1.84
  -8   1   4   28.81    2.30
  -8   1   4   24.77    1.76
   7  -1  -4   11.52    1.45
   7  -1  -4    9.75    1.36
  -7   1   4   10.73    1.29
  -7   1   4   10.04    1.29
  -7   1   4   10.58    1.24
   6  -1  -4   47.94    2.67
   6  -1  -4   47.20    2.21
   6  -1  -4   50.11    2.10
  -6   1   4   47.81    1.18
  -6   1   4   47.71    2.35
  -6   1   4   48.48    1.19
  -6   1   4   46.81    1.95
  -6   1   4   46.58    1.94
   5  -1  -4   47.56    2.00
   5  -1  -4   42.78    1.98
   5  -1  -4   48.23    1.90
  -5   1   4   46.11    1.15
  -5   1   4   46.72    2.33
  -5   1   4   46.05    1.77
  -5   1   4   47.20    2.17
  -5   1   4   47.22    1.17
   4  -1  -4   30.99    1.41
   4  -1  -4   29.35    1.30
   4  -1  -4   30.58    1.56
   4  -1  -4   27.29    1.57
  -4   1   4   29.86    0.85
  -4   1   4   31.64    0.85
  -4   1   4   30.09    1.39
  -4   1   4   30.46    1.44
  -4   1   4   29.20    1.59
   3  -1  -4   63.53    2.09
   3  -1  -4   61.97    1.81
   3  -1  -4   62.24    2.09
   3  -1  -4   59.64    2.22
   3  -1  -4   63.42    1.91
  -3   1   4   61.33    1.89
  -3   1   4   64.26    1.45
  -3   1   4   62.83    2.04
  -3   1   4   62.28    1.86
  -3   1   4   63.89    1.49
   2  -1  -4   -0.38    0.32
   2  -1  -4   -0.23    0.40
   2  -1  -4   -0.35    0.49
   2  -1  -4   -0.31    0.24
   2  -1  -4    0.77    0.47
  -2   1   4    0.09    0.29
  -2   1   4   -0.27    0.29
  -2   1   4    0.23    0.20
  -2   1   4   -0.05    0.27
  -2   1   4    0.29    0.33
   1  -1  -4    0.21    0.16
   1  -1  -4    0.14    0.31
   1  -1  -4   -0.08    0.39
   1  -1  -4    0.32    0.30
   1  -1  -4    0.04    0.24
   1  -1  -4    0.07    0.34
  -1   1   4    0.03    0.22
  -1   1   4    0.46    0.45
  -1   1   4   -0.04    0.25
  -1   1   4    0.14    0.27
  -1   1   4    0.56    0.22
   0  -1  -4  206.54    4.26
   0  -1  -4  224.18    4.63
   0  -1  -4  222.25    4.67
   0  -1  -4  224.24    4.89
   0  -1  -4  215.48    4.81
   0  -1  -4  221.06    4.76
   0   1   4  215.29    4.77
   0   1   4  213.00    4.28
   0   1   4  221.35    4.81
   0   1   4  221.35    4.67
   0   1   4  216.05    4.88
  -1  -1  -4   31.51    1.06
  -1  -1  -4   30.37    1.09
  -1  -1  -4   29.60    1.12
  -1  -1  -4   30.65    1.03
  -1  -1  -4   31.46    1.13
   1   1   4   29.60    1.17
   1   1   4   30.85    1.12
   1   1   4   31.38    0.84
   1   1   4   29.83    1.08
   1   1   4   30.84    1.08
  -2  -1  -4   18.31    0.94
  -2  -1  -4   18.38    0.86
  -2  -1  -4   18.04    0.81
  -2  -1  -4   18.92    0.85
  -2  -1  -4   17.69    0.74
  -2  -1  -4   19.11    0.85
   2   1   4   18.40    0.85
   2   1   4   17.84    0.88
   2   1   4   18.25    0.86
   2   1   4   19.56    0.85
   2   1   4   18.72    0.75
  -3  -1  -4  158.75    3.84
  -3  -1  -4  157.69    3.70
  -3  -1  -4  153.09    3.69
  -3  -1  -4  159.07    3.66
  -3  -1  -4  154.12    3.65
  -3  -1  -4  159.98    3.67
   3   1   4  162.17    3.64
   3   1   4  151.24    3.83
   3   1   4  160.74    3.70
   3   1   4  155.96    3.69
   3   1   4  158.05    3.65
  -4  -1  -4  183.56    4.37
  -4  -1  -4  184.01    4.47
  -4  -1  -4  180.63    4.31
  -4  -1  -4  178.45    4.21
  -4  -1  -4  188.25    4.19
  -4  -1  -4  177.13    4.31
   4   1   4  182.68    4.22
   4   1   4  180.12    4.33
   4   1   4  180.80    4.45
   4   1   4  181.48    4.30
   4   1   4  190.21    4.21
  -5  -1  -4  100.21    2.88
  -5  -1  -4   98.01    2.98
  -5  -1  -4  101.71    2.75
  -5  -1  -4  101.58    3.01
  -5  -1  -4  104.43    2.67
   5   1   4   99.87    2.71
   5   1   4  100.72    2.68
   5   1   4  102.03    2.99
   5   1   4   96.90    2.87
   5   1   4  101.18    2.95
   5   1   4  104.81    2.97
  -6  -1  -4   -0.15    0.47
  -6  -1  -4   -0.53    0.48
  -6  -1  -4    0.32    0.52
  -6  -1  -4    0.64    0.94
  -6  -1  -4    0.51    0.58
   6   1   4    0.78    0.76
   6   1   4    0.95    0.65
   6   1   4    0.67    0.45
   6   1   4   -0.02    0.56
   6   1   4   -0.30    0.42
  -7  -1  -4   18.38    1.38
  -7  -1  -4   18.57    1.16
  -7  -1  -4   21.36    1.40
  -7  -1  -4   18.62    1.37
   7   1   4   18.83    1.46
   7   1   4   20.35    1.44
   7   1   4   19.41    1.43
  -8  -1  -4   29.57    1.52
  -8  -1  -4   30.09    1.78
  -8  -1  -4   28.91    1.85
  -8  -1  -4   30.26    1.61
   8   1   4   31.02    1.94
   8   1   4   32.12    1.84
  -9  -1  -4    7.57    1.30
  -9  -1  -4    5.59    0.92
  -9  -1  -4    7.71    1.22
  -9  -1  -4    7.99    1.35
  -9  -1  -4    6.51    1.05
   9   1   4    6.39    1.36
   9   1   4    5.39    1.23
 -10  -1  -4   48.93    2.32
 -10  -1  -4   48.65    1.98
 -10  -1  -4   43.69    2.56
 -10  -1  -4   47.68    2.55
  10   1   4   46.87    2.66
  10   1   4   43.76    2.73
 -11  -1  -4    9.84    1.63
 -11  -1  -4   13.63    1.80
 -11  -1  -4   11.71    1.89
 -11  -1  -4    7.31    1.13
  11   1   4   11.29    1.79
  11   1   4    9.31    1.71
 -12  -1  -4    0.96    1.91
 -12  -1  -4    4.35    1.72
  12   1   4   -0.34    1.32
  12   1   4    1.10    1.61
   9  -2  -4    1.87    1.44
   9  -2  -4    3.57    1.45
  -9   2   4    4.78    1.40
  -9   2   4    4.28    1.82
  -9   2   4    2.27    1.33
   8  -2  -4   14.47    1.78
   8  -2  -4   17.66    1.95
  -8   2   4   15.92    2.15
  -8   2   4   15.30    1.74
  -8   2   4   16.25    1.72
  -8   2   4   12.41    0.92
   7  -2  -4    2.91    1.06
   7  -2  -4    1.69    1.02
  -7   2   4    2.17    0.83
  -7   2   4    2.91    1.05
  -7   2   4    0.74    1.07
  -7   2   4    1.57    0.71
  -7   2   4    1.80    0.57
   6  -2  -4   32.79    1.86
   6  -2  -4   30.86    1.74
  -6   2   4   26.53    1.23
  -6   2   4   31.82    1.21
  -6   2   4   31.98    1.76
  -6   2   4   27.68    1.96
  -6   2   4   31.26    1.58
   5  -2  -4    2.25    0.73
   5  -2  -4    2.13    0.80
  -5   2   4    2.66    0.79
  -5   2   4    2.06    0.49
  -5   2   4    1.00    0.86
  -5   2   4    2.65    0.73
  -5   2   4    1.82    0.55
   4  -2  -4   13.53    1.15
   4  -2  -4   10.51    1.35
   4  -2  -4   11.42    1.01
  -4   2   4   12.96    0.75
  -4   2   4   13.01    0.77
  -4   2   4   13.86    1.11
  -4   2   4   12.58    1.21
  -4   2   4   14.18    1.26
   3  -2  -4   28.98    1.59
   3  -2  -4   36.65    1.36
   3  -2  -4   34.59    1.47
   3  -2  -4   34.33    1.35
  -3   2   4   33.60    1.53
  -3   2   4   35.29    1.20
  -3   2   4   34.74    1.66
  -3   2   4   34.85    1.12
  -3   2   4   35.55    1.28
  -3   2   4   35.46    1.46
   2  -2  -4   32.79    1.35
   2  -2  -4   32.20    1.42
   2  -2  -4   30.65    1.48
   2  -2  -4   32.42    1.13
   2  -2  -4   32.15    1.14
  -2   2   4   31.85    1.38
  -2   2   4   31.24    1.40
  -2   2   4   31.07    1.11
  -2   2   4   31.11    1.11
  -2   2   4   31.79    1.20
  -2   2   4   32.23    1.44
  -2   2   4   33.01    1.05
   1  -2  -4    3.57    0.59
   1  -2  -4    3.61    0.61
   1  -2  -4    2.74    0.36
   1  -2  -4    3.71    0.65
   1  -2  -4    3.58    0.45
  -1   2   4    2.85    0.62
  -1   2   4    3.08    0.48
  -1   2   4    3.39    0.58
  -1   2   4    2.93    0.42
  -1   2   4    3.34    0.59
   0  -2  -4   25.17    1.00
   0  -2  -4   25.24    1.03
   0  -2  -4   24.60    1.09
   0  -2  -4   25.54    0.86
   0  -2  -4   25.46    1.11
   0  -2  -4   23.47    0.75
   0   2   4   22.96    0.99
   0   2   4   23.25    1.07
   0   2   4   24.74    1.02
   0   2   4   24.27    1.07
   0   2   4   25.55    0.79
  -1  -2  -4  122.59    2.95
  -1  -2  -4  125.69    3.02
  -1  -2  -4  122.00    2.77
  -1  -2  -4  114.84    2.92
  -1  -2  -4  117.45    2.73
   1   2   4  116.17    2.92
   1   2   4  118.24    2.95
   1   2   4  116.69    2.78
   1   2   4  117.06    2.54
   1   2   4  116.39    3.00
  -2  -2  -4  148.20    3.58
  -2  -2  -4  149.99    3.42
  -2  -2  -4  153.30    3.64
  -2  -2  -4  154.50    3.57
  -2  -2  -4  152.87    3.30
   2   2   4  147.26    3.32
   2   2   4  154.31    3.57
   2   2   4  146.28    3.37
   2   2   4  153.82    3.40
   2   2   4  149.20    3.56
   2   2   4  147.49    3.64
  -3  -2  -4    0.05    0.36
  -3  -2  -4    0.53    0.33
  -3  -2  -4   -0.19    0.25
  -3  -2  -4    0.33    0.34
  -3  -2  -4    0.41    0.36
  -3  -2  -4   -0.13    0.38
   3   2   4    0.19    0.34
   3   2   4   -0.53    0.37
   3   2   4    0.19    0.44
   3   2   4   -0.13    0.32
   3   2   4   -0.10    0.32
  -4  -2  -4    1.05    0.35
  -4  -2  -4    0.98    0.38
  -4  -2  -4    0.23    0.58
  -4  -2  -4    1.24    0.49
  -4  -2  -4    0.77    0.46
  -4  -2  -4    0.99    0.51
   4   2   4    0.70    0.53
   4   2   4    0.66    0.40
   4   2   4    0.55    0.35
   4   2   4    0.81    0.34
   4   2   4    1.02    0.41
  -5  -2  -4    3.33    0.67
  -5  -2  -4    3.86    0.69
  -5  -2  -4    3.30    0.70
  -5  -2  -4    3.24    0.68
  -5  -2  -4    3.28    0.58
  -5  -2  -4    3.25    0.52
   5   2   4    3.48    0.74
   5   2   4    2.60    0.75
   5   2   4    3.48    0.52
   5   2   4    3.03    0.61
   5   2   4    3.58    0.70
  -6  -2  -4   65.12    2.19
  -6  -2  -4   67.55    2.15
  -6  -2  -4   64.97    1.86
  -6  -2  -4   60.61    2.38
  -6  -2  -4   61.24    2.23
   6   2   4   63.95    1.88
   6   2   4   62.14    2.17
   6   2   4   64.41    2.36
   6   2   4   62.22    2.17
   6   2   4   62.05    2.26
  -7  -2  -4    5.73    0.99
  -7  -2  -4    6.34    0.70
  -7  -2  -4    5.62    0.97
  -7  -2  -4    6.44    0.98
   7   2   4    6.01    1.11
   7   2   4    5.90    1.29
   7   2   4    4.30    0.93
   7   2   4    6.16    1.04
  -8  -2  -4    1.39    0.81
  -8  -2  -4   -0.37    0.71
  -8  -2  -4    0.55    0.56
  -8  -2  -4    0.89    0.69
   8   2   4    1.07    0.84
   8   2   4    0.71    0.65
  -9  -2  -4    3.00    0.70
  -9  -2  -4    5.08    1.14
  -9  -2  -4    3.72    1.06
  -9  -2  -4    2.37    1.05
  -9  -2  -4    2.41    0.61
   9   2   4    3.84    1.26
   9   2   4    2.42    0.99
 -10  -2  -4    1.30    0.98
 -10  -2  -4    0.16    0.80
 -10  -2  -4    1.67    0.59
 -10  -2  -4    1.41    1.04
 -10  -2  -4    2.26    1.10
  10   2   4    0.44    1.08
  10   2   4    2.42    1.11
 -11  -2  -4    8.74    1.71
 -11  -2  -4    9.26    1.61
 -11  -2  -4   10.89    1.74
  11   2   4   10.65    1.75
  11   2   4   10.10    1.79
 -12  -2  -4    1.05    1.43
 -12  -2  -4    2.27    1.55
 -12  -2  -4   -2.11    1.45
  12   2   4   -0.27    1.57
  12   2   4   -1.64    1.60
   9  -3  -4    8.85    1.85
   9  -3  -4    7.94    1.82
  -9   3   4    8.28    2.28
  -9   3   4    7.06    1.50
  -9   3   4    7.39    1.81
   8  -3  -4    0.74    1.22
   8  -3  -4    2.67    1.24
  -8   3   4    0.61    0.93
  -8   3   4    0.81    1.17
  -8   3   4    1.64    1.56
  -8   3   4   -2.05    1.09
   7  -3  -4    3.85    1.15
   7  -3  -4    2.22    1.18
  -7   3   4   -0.47    1.25
  -7   3   4    2.19    1.08
  -7   3   4    0.82    0.78
  -7   3   4    2.74    0.97
   6  -3  -4    1.16    0.89
   6  -3  -4   -0.93    0.75
  -6   3   4    1.64    1.05
  -6   3   4    0.77    0.90
  -6   3   4   -0.13    0.82
  -6   3   4    0.28    0.65
  -6   3   4   -0.08    0.71
   5  -3  -4    1.24    0.80
   5  -3  -4    0.77    0.75
  -5   3   4    0.95    0.79
  -5   3   4    1.65    0.62
  -5   3   4    1.00    0.64
  -5   3   4    1.37    0.93
  -5   3   4    0.90    0.72
   4  -3  -4    1.26    0.65
   4  -3  -4    0.73    0.78
   4  -3  -4    0.74    0.64
  -4   3   4    1.48    0.62
  -4   3   4    0.28    0.75
  -4   3   4    1.18    0.74
  -4   3   4    0.36    0.52
   3  -3  -4   90.40    2.88
   3  -3  -4   96.12    2.76
   3  -3  -4   93.23    2.52
  -3   3   4   93.25    2.81
  -3   3   4   96.30    2.48
  -3   3   4   95.25    2.57
  -3   3   4   91.69    2.95
  -3   3   4   94.33    2.47
  -3   3   4   93.33    3.05
   2  -3  -4    2.64    0.48
   2  -3  -4    1.18    0.78
   2  -3  -4    2.05    0.45
   2  -3  -4    3.01    0.74
   2  -3  -4    2.90    0.64
  -2   3   4    2.14    0.50
  -2   3   4    1.86    0.72
  -2   3   4    3.00    0.47
  -2   3   4    2.83    0.74
  -2   3   4    2.77    0.51
  -2   3   4    2.41    0.62
  -2   3   4    1.78    0.68
   1  -3  -4   17.93    0.75
   1  -3  -4   17.92    1.00
   1  -3  -4   16.03    1.16
   1  -3  -4   16.64    0.79
   1  -3  -4   18.56    1.12
  -1   3   4   16.63    0.94
  -1   3   4   16.85    1.01
  -1   3   4   17.91    0.88
  -1   3   4   16.46    1.03
  -1   3   4   17.47    1.03
   0  -3  -4    0.70    0.45
   0  -3  -4    0.36    0.55
   0  -3  -4    0.11    0.22
   0  -3  -4    0.16    0.24
   0  -3  -4    0.49    0.42
   0   3   4    0.80    0.44
   0   3   4    0.48    0.36
   0   3   4    0.12    0.42
   0   3   4    0.00    0.37
   0   3   4    0.50    0.29
  -1  -3  -4    0.03    0.33
  -1  -3  -4    0.69    0.49
  -1  -3  -4    1.00    0.39
  -1  -3  -4    0.43    0.25
  -1  -3  -4    0.72    0.51
  -1  -3  -4    0.26    0.25
   1   3   4    0.24    0.47
   1   3   4    0.71    0.30
   1   3   4    0.40    0.41
   1   3   4    0.34    0.39
   1   3   4    0.80    0.29
  -2  -3  -4    0.15    0.23
  -2  -3  -4    0.21    0.44
  -2  -3  -4   -0.16    0.26
  -2  -3  -4    0.85    0.49
  -2  -3  -4   -0.20    0.31
   2   3   4    0.17    0.22
   2   3   4    0.16    0.42
   2   3   4    0.15    0.33
   2   3   4   -0.11    0.22
   2   3   4    0.14    0.38
   2   3   4    0.44    0.38
  -3  -3  -4   -0.26    0.50
  -3  -3  -4    0.12    0.21
  -3  -3  -4    0.14    0.33
  -3  -3  -4   -0.54    0.32
  -3  -3  -4   -0.44    0.43
   3   3   4    0.12    0.46
   3   3   4   -0.79    0.45
   3   3   4   -0.26    0.32
   3   3   4    0.35    0.37
   3   3   4   -0.08    0.30
  -4  -3  -4   32.33    1.37
  -4  -3  -4   30.01    1.04
  -4  -3  -4   30.11    1.38
  -4  -3  -4   32.10    1.20
  -4  -3  -4   31.21    1.25
  -4  -3  -4   32.88    1.03
   4   3   4   31.56    1.33
   4   3   4   29.59    1.26
   4   3   4   31.06    1.37
   4   3   4   33.44    1.48
   4   3   4   32.49    1.22
  -5  -3  -4   43.90    1.37
  -5  -3  -4   38.30    1.66
  -5  -3  -4   41.29    1.57
  -5  -3  -4   45.02    1.42
  -5  -3  -4   41.83    1.78
  -5  -3  -4   41.10    1.73
   5   3   4   43.97    1.78
   5   3   4   43.39    1.74
   5   3   4   43.30    1.66
   5   3   4   44.68    1.79
   5   3   4   46.26    1.45
  -6  -3  -4   48.75    1.48
  -6  -3  -4   47.33    1.58
  -6  -3  -4   46.01    1.79
  -6  -3  -4   47.01    1.91
   6   3   4   43.47    1.91
   6   3   4   46.56    1.49
   6   3   4   44.58    1.97
   6   3   4   46.44    1.96
  -7  -3  -4    5.43    1.00
  -7  -3  -4    5.22    0.61
  -7  -3  -4    6.16    1.03
  -7  -3  -4    5.50    0.79
   7   3   4    5.63    0.96
   7   3   4    6.55    1.11
   7   3   4    6.89    0.99
   7   3   4    5.61    0.62
  -8  -3  -4   -0.23    0.73
  -8  -3  -4    0.58    0.73
  -8  -3  -4    0.26    0.41
   8   3   4   -1.16    0.77
   8   3   4   -0.28    0.73
   8   3   4    0.95    1.00
  -9  -3  -4   21.61    1.71
  -9  -3  -4   24.07    1.57
  -9  -3  -4   23.30    0.93
  -9  -3  -4   22.67    1.00
  -9  -3  -4   24.02    1.59
   9   3   4   20.27    1.66
   9   3   4   22.67    1.92
 -10  -3  -4   -0.20    0.90
 -10  -3  -4   -0.86    0.84
 -10  -3  -4    1.63    1.06
  10   3   4    2.18    1.23
  10   3   4    0.36    0.97
 -11  -3  -4    1.01    1.18
 -11  -3  -4    0.46    1.13
 -11  -3  -4    0.71    0.87
  11   3   4    2.03    1.40
  11   3   4    0.06    1.31
 -12  -3  -4    1.63    1.49
 -12  -3  -4    0.19    1.24
 -12  -3  -4   -1.10    1.41
  12   3   4    1.76    1.67
  12   3   4    0.17    1.49
   8  -4  -4    1.42    1.36
   8  -4  -4    0.72    1.36
  -8   4   4   -2.83    1.60
  -8   4   4    0.36    1.32
  -8   4   4    0.07    1.48
   7  -4  -4    7.24    1.39
   7  -4  -4   10.40    1.59
  -7   4   4    7.55    1.78
  -7   4   4    9.30    1.33
  -7   4   4    7.12    1.66
  -7   4   4    8.19    1.21
   6  -4  -4    4.03    1.13
   6  -4  -4    7.27    1.27
  -6   4   4    2.88    1.46
  -6   4   4    6.67    1.41
  -6   4   4    6.12    1.03
  -6   4   4    5.10    1.47
   5  -4  -4    2.96    0.95
   5  -4  -4    2.38    0.87
  -5   4   4    1.64    1.06
  -5   4   4    1.94    0.76
  -5   4   4    1.45    1.08
  -5   4   4    2.29    0.88
  -5   4   4    2.98    1.03
   4  -4  -4   12.57    1.12
   4  -4  -4   14.48    1.23
   4  -4  -4   14.57    1.19
  -4   4   4   14.72    1.33
  -4   4   4   13.66    1.42
  -4   4   4   13.83    1.12
  -4   4   4   14.89    0.94
  -4   4   4   13.46    1.27
   3  -4  -4   19.45    1.20
   3  -4  -4   20.86    1.13
  -3   4   4   22.12    1.29
  -3   4   4   18.94    1.49
  -3   4   4   22.32    1.23
  -3   4   4   20.05    1.38
  -3   4   4   21.16    0.98
   2  -4  -4   35.16    1.52
   2  -4  -4   36.94    1.23
  -2   4   4   34.51    1.49
  -2   4   4   35.43    1.61
  -2   4   4   30.88    1.72
  -2   4   4   33.66    1.68
  -2   4   4   32.66    1.59
  -2   4   4   33.23    1.41
  -2   4   4   35.20    1.17
   1  -4  -4    4.63    0.62
   1  -4  -4    6.67    0.95
   1  -4  -4    4.79    1.16
   1  -4  -4    4.53    0.46
   1  -4  -4    6.49    0.73
  -1   4   4    5.29    0.75
  -1   4   4    5.64    0.75
  -1   4   4    5.48    0.93
  -1   4   4    5.15    0.77
  -1   4   4    4.97    0.82
  -1   4   4    5.32    0.79
   0  -4  -4   47.78    1.70
   0  -4  -4   46.56    1.67
   0  -4  -4   45.41    1.47
   0  -4  -4   43.49    1.82
   0  -4  -4   47.80    1.26
   0  -4  -4   47.04    1.22
   0   4   4   48.94    1.57
   0   4   4   46.88    1.65
   0   4   4   46.42    1.68
   0   4   4   46.90    1.74
  -1  -4  -4  102.35    2.34
  -1  -4  -4  103.51    2.84
  -1  -4  -4  104.82    2.97
  -1  -4  -4  100.21    2.55
  -1  -4  -4  104.83    2.63
   1   4   4  101.43    2.92
   1   4   4  105.05    2.61
   1   4   4  104.69    2.56
   1   4   4  101.88    2.79
   1   4   4  104.00    2.99
  -2  -4  -4   16.25    1.02
  -2  -4  -4   16.32    1.09
  -2  -4  -4   16.94    0.73
  -2  -4  -4   16.87    1.03
  -2  -4  -4   17.59    0.75
   2   4   4   17.62    0.81
   2   4   4   17.79    1.05
   2   4   4   16.73    1.05
   2   4   4   17.28    0.71
   2   4   4   17.10    0.72
   2   4   4   17.85    1.10
  -3  -4  -4   11.95    0.94
  -3  -4  -4   11.68    0.89
  -3  -4  -4   11.87    0.48
  -3  -4  -4   11.99    0.92
  -3  -4  -4    9.99    0.67
   3   4   4   11.65    0.48
   3   4   4   10.93    0.67
   3   4   4   12.00    0.73
   3   4   4   10.32    0.85
   3   4   4   11.35    0.83
   3   4   4   12.74    0.98
  -4  -4  -4   57.09    1.23
  -4  -4  -4   53.23    1.70
  -4  -4  -4   53.55    1.99
  -4  -4  -4   55.56    1.76
  -4  -4  -4   53.15    1.96
  -4  -4  -4   56.04    1.26
   4   4   4   54.88    1.73
   4   4   4   55.62    1.96
   4   4   4   50.97    1.96
   4   4   4   54.83    1.76
   4   4   4   51.93    1.95
  -5  -4  -4   40.96    1.90
  -5  -4  -4   46.05    1.15
  -5  -4  -4   43.55    1.61
  -5  -4  -4   45.22    1.16
  -5  -4  -4   40.62    1.76
  -5  -4  -4   43.61    1.49
   5   4   4   44.76    1.85
   5   4   4   44.49    1.48
   5   4   4   37.13    2.03
   5   4   4   43.59    1.65
   5   4   4   43.99    1.85
  -6  -4  -4  133.09    3.04
  -6  -4  -4  135.09    3.60
  -6  -4  -4  134.97    3.17
  -6  -4  -4  131.22    3.79
   6   4   4  130.96    3.83
   6   4   4  133.53    3.87
   6   4   4  134.67    3.20
  -7  -4  -4    8.29    0.72
  -7  -4  -4    6.73    0.89
  -7  -4  -4    8.97    1.11
  -7  -4  -4    6.94    0.62
   7   4   4    8.40    1.16
   7   4   4    8.20    1.22
   7   4   4    7.41    0.67
  -8  -4  -4   18.34    1.47
  -8  -4  -4   18.07    1.12
  -8  -4  -4   17.99    1.38
  -8  -4  -4   14.15    1.00
   8   4   4   16.34    1.47
   8   4   4   16.41    1.46
   8   4   4   17.29    0.76
   8   4   4   18.53    1.60
  -9  -4  -4   12.90    1.22
  -9  -4  -4   14.95    1.30
  -9  -4  -4   12.55    1.45
   9   4   4   13.86    1.41
   9   4   4   12.65    1.73
   9   4   4   13.14    1.53
 -10  -4  -4    2.62    0.92
 -10  -4  -4    2.09    1.13
 -10  -4  -4    0.91    1.03
  10   4   4    0.99    1.13
  10   4   4    2.06    1.09
 -11  -4  -4    0.89    1.18
 -11  -4  -4   -1.99    1.08
 -11  -4  -4   -2.28    0.92
  11   4   4    0.62    1.17
  11   4   4    0.41    1.22
 -12  -4  -4    8.65    1.85
 -12  -4  -4    5.29    1.38
 -12  -4  -4    8.03    1.71
  12   4   4    6.01    1.65
  12   4   4    8.45    1.87
   7  -5  -4   -0.28    1.21
   7  -5  -4    1.02    1.25
  -7   5   4    3.07    1.74
  -7   5   4   -1.80    1.49
  -7   5   4    3.24    1.25
  -7   5   4   -0.08    1.20
   6  -5  -4    2.26    1.04
   6  -5  -4    3.08    1.13
  -6   5   4    2.02    1.24
  -6   5   4    3.90    1.03
  -6   5   4    4.23    1.44
  -6   5   4    4.00    1.12
   5  -5  -4    2.81    1.00
   5  -5  -4    1.37    0.91
  -5   5   4    3.12    0.98
  -5   5   4    2.42    1.14
  -5   5   4    1.77    0.82
  -5   5   4    2.73    1.00
   4  -5  -4   86.92    2.80
   4  -5  -4   85.74    2.94
   4  -5  -4   86.58    2.64
  -4   5   4   90.23    3.45
  -4   5   4   92.10    2.99
  -4   5   4   91.32    3.49
  -4   5   4   86.28    2.44
   3  -5  -4   -0.14    0.62
   3  -5  -4   -0.60    0.53
   3  -5  -4   -0.37    0.57
  -3   5   4    0.13    0.82
  -3   5   4   -0.25    0.41
  -3   5   4   -1.16    0.76
  -3   5   4   -0.54    0.68
   2  -5  -4    6.83    0.89
   2  -5  -4    7.88    0.67
  -2   5   4    7.31    0.98
  -2   5   4    6.40    1.11
  -2   5   4    7.99    1.20
  -2   5   4    8.20    1.11
  -2   5   4    5.91    1.10
   1  -5  -4    2.70    1.07
   1  -5  -4    4.69    0.74
   1  -5  -4    3.60    0.65
   1  -5  -4    3.95    0.44
  -1   5   4    4.51    1.02
  -1   5   4    4.94    0.95
  -1   5   4    4.12    0.84
  -1   5   4    3.49    0.79
  -1   5   4    3.91    0.89
   0  -5  -4    0.60    0.52
   0  -5  -4    0.53    0.24
   0  -5  -4    0.45    0.36
   0  -5  -4   -0.75    0.60
   0  -5  -4    0.41    0.34
   0   5   4    0.78    0.69
   0   5   4   -0.24    0.44
   0   5   4    1.07    0.52
   0   5   4    0.80    0.58
  -1  -5  -4   41.16    1.07
  -1  -5  -4   42.07    1.47
  -1  -5  -4   39.54    1.92
  -1  -5  -4   39.69    1.06
  -1  -5  -4   41.94    1.64
  -1  -5  -4   41.50    1.54
   1   5   4   40.80    1.63
   1   5   4   39.53    1.96
   1   5   4   41.18    1.83
   1   5   4   42.31    1.49
   1   5   4   42.15    1.50
  -2  -5  -4    0.96    0.28
  -2  -5  -4    0.67    0.40
  -2  -5  -4    0.66    0.38
  -2  -5  -4    0.64    0.71
  -2  -5  -4   -0.02    0.53
   2   5   4    1.48    0.49
   2   5   4    0.78    0.33
   2   5   4    1.10    0.67
   2   5   4    0.58    0.49
  -3  -5  -4   55.70    1.55
  -3  -5  -4   52.78    2.04
  -3  -5  -4   52.83    2.23
  -3  -5  -4   53.15    1.97
  -3  -5  -4   54.70    1.36
   3   5   4   55.21    1.73
   3   5   4   56.17    1.57
   3   5   4   48.30    2.23
   3   5   4   56.16    1.35
   3   5   4   57.87    2.00
   3   5   4   54.14    1.98
  -4  -5  -4    7.80    1.02
  -4  -5  -4    8.64    0.96
  -4  -5  -4    7.14    0.68
  -4  -5  -4    8.16    0.97
   4   5   4    7.44    1.10
   4   5   4    8.97    0.77
   4   5   4    8.74    0.70
   4   5   4    8.40    0.78
   4   5   4    8.49    1.01
  -5  -5  -4    2.19    0.59
  -5  -5  -4    1.97    0.78
  -5  -5  -4    2.59    0.62
   5   5   4    2.58    0.74
   5   5   4    2.64    0.75
   5   5   4    3.32    0.60
   5   5   4    2.90    0.72
  -6  -5  -4    8.24    0.88
  -6  -5  -4    8.00    0.30
  -6  -5  -4    7.40    0.31
  -6  -5  -4    9.15    1.22
  -6  -5  -4    7.38    0.79
   6   5   4    7.55    1.12
   6   5   4    8.34    1.08
   6   5   4    8.00    0.94
   6   5   4    7.97    0.72
  -7  -5  -4   25.02    1.07
  -7  -5  -4   24.52    1.51
  -7  -5  -4   24.17    0.87
  -7  -5  -4   21.15    1.27
   7   5   4   25.94    1.65
   7   5   4   23.47    1.02
   7   5   4   23.47    1.63
  -8  -5  -4   21.18    0.94
  -8  -5  -4   20.46    1.57
  -8  -5  -4   19.79    1.43
  -8  -5  -4   20.54    1.02
   8   5   4   20.73    0.85
   8   5   4   19.44    1.69
   8   5   4   20.60    1.63
  -9  -5  -4    2.23    0.65
  -9  -5  -4    1.65    0.90
  -9  -5  -4    1.92    0.98
   9   5   4    2.50    0.95
   9   5   4    1.14    1.10
   9   5   4    2.16    1.07
 -10  -5  -4   14.12    1.22
 -10  -5  -4   14.70    1.85
 -10  -5  -4   15.35    1.63
  10   5   4   18.42    1.69
  10   5   4   15.03    1.80
  10   5   4   14.27    1.89
 -11  -5  -4   13.97    1.91
 -11  -5  -4   15.14    1.72
 -11  -5  -4   12.75    1.41
  11   5   4    9.83    1.80
  11   5   4   10.84    1.66
 -12  -5  -4    9.35    1.90
 -12  -5  -4   10.09    1.39
 -12  -5  -4   11.85    1.93
  12   5   4    7.97    1.86
  12   5   4   11.97    2.23
   6  -6  -4   -0.27    1.13
   6  -6  -4    1.17    1.13
  -6   6   4    3.14    1.64
  -6   6   4    1.38    1.02
  -6   6   4    2.74    1.42
  -6   6   4    3.15    1.40
   5  -6  -4   -0.93    0.81
   5  -6  -4    1.70    1.00
  -5   6   4    1.14    1.16
  -5   6   4    0.10    0.79
  -5   6   4    0.08    1.21
  -5   6   4   -0.32    1.30
   4  -6  -4   17.32    1.49
   4  -6  -4   14.35    1.33
  -4   6   4   12.66    0.98
  -4   6   4   15.23    1.68
  -4   6   4   15.85    1.86
  -4   6   4   14.80    1.59
   3  -6  -4   12.85    1.26
   3  -6  -4   11.88    1.17
   3  -6  -4   14.52    0.96
  -3   6   4   15.10    1.70
  -3   6   4   13.42    1.71
  -3   6   4   15.10    1.41
   2  -6  -4   53.44    2.09
   2  -6  -4   53.07    2.00
   2  -6  -4   51.69    1.43
  -2   6   4   48.77    2.19
  -2   6   4   50.94    2.51
  -2   6   4   50.14    2.24
  -2   6   4   53.43    2.37
   1  -6  -4   -0.08    0.21
   1  -6  -4    0.52    0.24
   1  -6  -4    1.20    0.61
   1  -6  -4   -0.49    0.61
  -1   6   4    0.59    0.77
  -1   6   4    0.31    0.70
  -1   6   4    1.22    0.92
  -1   6   4   -0.46    0.65
   0  -6  -4   21.26    1.46
   0  -6  -4   23.03    1.23
   0   6   4   21.74    1.55
   0   6   4   21.99    1.48
   0   6   4   19.91    1.32
  -1  -6  -4   -0.21    0.64
  -1  -6  -4   -0.43    0.41
   1   6   4   -0.10    0.46
   1   6   4    1.05    0.64
   1   6   4    0.56    0.82
   1   6   4   -0.38    0.64
  -2  -6  -4    0.90    0.49
  -2  -6  -4    0.60    0.62
  -2  -6  -4   -0.15    0.46
  -2  -6  -4    1.05    0.23
   2   6   4    0.38    0.37
   2   6   4    0.74    0.65
   2   6   4   -0.42    0.59
   2   6   4    1.71    0.70
   2   6   4   -0.03    0.80
  -3  -6  -4   49.88    2.13
  -3  -6  -4   47.40    1.98
  -3  -6  -4   50.96    1.40
  -3  -6  -4   51.09    1.41
   3   6   4   50.06    1.80
   3   6   4   49.98    1.34
   3   6   4   50.90    1.40
   3   6   4   46.77    1.91
   3   6   4   50.42    2.11
  -4  -6  -4   20.23    0.92
  -4  -6  -4   18.74    1.34
  -4  -6  -4   19.93    1.33
   4   6   4   20.21    1.21
   4   6   4   19.85    1.00
   4   6   4   17.77    1.42
  -5  -6  -4   48.58    1.94
  -5  -6  -4   49.55    2.08
  -5  -6  -4   47.38    1.65
   5   6   4   51.76    1.87
   5   6   4   49.61    1.75
   5   6   4   48.06    2.21
   5   6   4   50.46    2.17
  -6  -6  -4   10.63    1.20
  -6  -6  -4   10.78    0.90
  -6  -6  -4   10.73    1.05
   6   6   4   12.73    1.17
   6   6   4   12.42    1.29
   6   6   4   11.73    1.18
   6   6   4   10.82    0.90
  -7  -6  -4   90.02    2.49
  -7  -6  -4   89.91    2.80
  -7  -6  -4   84.28    3.14
   7   6   4   86.81    3.20
   7   6   4   89.74    3.28
   7   6   4   86.00    2.41
  -8  -6  -4    3.32    0.39
  -8  -6  -4    3.30    0.90
  -8  -6  -4    2.66    0.58
  -8  -6  -4    4.05    1.14
   8   6   4    3.47    0.56
   8   6   4    3.64    1.06
   8   6   4    3.74    1.10
  -9  -6  -4    1.13    0.83
  -9  -6  -4    0.10    0.45
  -9  -6  -4   -0.07    0.78
   9   6   4    0.62    1.01
   9   6   4    0.35    0.89
 -10  -6  -4   57.11    1.92
 -10  -6  -4   52.67    2.44
 -10  -6  -4   57.64    2.91
  10   6   4   54.38    2.95
  10   6   4   57.58    2.82
 -11  -6  -4    9.92    1.60
 -11  -6  -4    7.14    1.33
 -11  -6  -4   10.66    1.80
  11   6   4    7.61    1.72
  11   6   4    9.13    1.78
 -12  -6  -4    0.84    1.42
 -12  -6  -4    0.65    1.02
 -12  -6  -4    0.82    1.43
  12   6   4    1.55    1.23
  12   6   4    0.46    1.42
   5  -7  -4   -0.41    1.05
   5  -7  -4    2.34    1.09
  -5   7   4   -1.43    1.14
  -5   7   4    0.27    1.45
  -5   7   4   -1.39    1.46
   4  -7  -4   -0.46    0.89
   4  -7  -4    0.70    0.93
  -4   7   4   -1.20    1.36
  -4   7   4    0.24    1.24
  -4   7   4   -0.28    1.01
   3  -7  -4    8.11    1.21
   3  -7  -4    7.27    0.77
   3  -7  -4    5.97    1.10
  -3   7   4    5.46    1.35
  -3   7   4    7.00    1.54
  -3   7   4    7.45    1.48
   2  -7  -4   19.35    1.45
   2  -7  -4   18.54    1.36
  -2   7   4   16.87    1.65
  -2   7   4   16.37    1.66
  -2   7   4   19.16    1.89
   1  -7  -4    3.21    0.85
   1  -7  -4    4.07    0.95
  -1   7   4    3.43    0.96
  -1   7   4    3.53    0.98
  -1   7   4    1.39    1.00
   0  -7  -4   54.59    2.09
   0  -7  -4   53.04    2.02
   0   7   4   52.56    2.44
   0   7   4   55.89    2.46
   0   7   4   55.26    2.23
  -1  -7  -4   39.69    1.88
  -1  -7  -4   39.33    1.81
  -1  -7  -4   41.23    1.76
   1   7   4   43.45    1.75
   1   7   4   42.51    2.17
   1   7   4   42.78    2.16
  -2  -7  -4    0.52    0.60
  -2  -7  -4    0.58    0.67
  -2  -7  -4    1.22    0.67
   2   7   4    0.25    0.75
   2   7   4    0.90    0.70
   2   7   4    0.92    0.48
  -3  -7  -4    2.18    0.80
  -3  -7  -4    2.07    0.53
  -3  -7  -4    2.46    0.34
   3   7   4    3.10    0.49
   3   7   4    0.69    0.78
   3   7   4    2.36    0.81
  -4  -7  -4    6.13    0.59
  -4  -7  -4    7.09    1.16
   4   7   4    7.81    1.06
   4   7   4    6.39    1.08
   4   7   4    6.72    0.74
  -5  -7  -4   10.39    0.80
  -5  -7  -4   11.33    1.35
  -5  -7  -4    8.75    1.02
   5   7   4    9.77    1.38
   5   7   4    9.43    0.99
   5   7   4    9.14    1.07
  -6  -7  -4   10.00    1.41
  -6  -7  -4    8.73    1.15
   6   7   4    9.42    1.36
   6   7   4   10.41    1.41
   6   7   4   10.01    1.24
   6   7   4    8.94    0.96
  -7  -7  -4    7.07    1.04
  -7  -7  -4    6.50    1.30
  -7  -7  -4    7.81    1.01
   7   7   4    7.74    1.31
   7   7   4    7.27    1.30
   7   7   4    6.81    0.84
  -8  -7  -4   41.33    1.70
  -8  -7  -4   45.92    2.39
  -8  -7  -4   45.04    2.00
   8   7   4   44.08    2.47
   8   7   4   43.41    1.57
   8   7   4   45.82    2.45
  -9  -7  -4   12.79    1.83
  -9  -7  -4   13.08    1.50
   9   7   4   11.80    0.72
   9   7   4   10.88    1.68
   9   7   4   12.45    1.65
 -10  -7  -4   16.13    1.60
 -10  -7  -4   16.15    0.80
 -10  -7  -4   18.78    1.98
  10   7   4   15.15    2.04
  10   7   4   18.49    1.99
 -11  -7  -4    1.78    1.19
 -11  -7  -4    0.67    0.68
 -11  -7  -4    1.03    1.41
  11   7   4    0.85    1.38
  11   7   4    0.85    1.34
 -12  -7  -4   15.63    2.36
 -12  -7  -4   18.05    2.23
  12   7   4   16.60    2.29
  12   7   4   16.63    2.50
   4  -8  -4    1.29    1.06
   4  -8  -4    1.52    1.07
  -4   8   4   -1.29    1.57
  -4   8   4   -1.06    1.58
  -4   8   4   -1.81    1.58
   3  -8  -4    4.64    1.10
   3  -8  -4    5.44    1.28
  -3   8   4    5.31    1.58
  -3   8   4    3.26    1.53
  -3   8   4    5.47    1.54
   2  -8  -4    5.28    1.15
   2  -8  -4    5.38    1.06
  -2   8   4    1.44    1.23
  -2   8   4    4.50    1.33
  -2   8   4    3.40    1.33
   1  -8  -4   15.38    1.37
   1  -8  -4   15.72    1.38
  -1   8   4   15.11    1.64
  -1   8   4   19.54    1.83
  -1   8   4   16.16    1.62
   0  -8  -4   41.09    1.96
   0  -8  -4   39.79    1.95
   0   8   4   39.49    2.28
   0   8   4   41.66    2.06
   0   8   4   38.54    2.39
  -1  -8  -4    0.93    0.76
  -1  -8  -4    3.08    0.69
   1   8   4    2.01    0.80
   1   8   4    1.53    1.08
   1   8   4    1.71    0.93
  -2  -8  -4    0.41    0.65
  -2  -8  -4    0.25    0.84
  -2  -8  -4    1.61    0.85
   2   8   4    0.84    0.60
   2   8   4    1.86    0.92
   2   8   4   -0.12    0.68
  -3  -8  -4    0.24    0.62
  -3  -8  -4    0.12    0.62
  -3  -8  -4    0.53    0.77
   3   8   4    0.02    0.81
   3   8   4    0.28    0.44
   3   8   4    1.10    0.92
  -4  -8  -4    0.23    0.79
  -4  -8  -4    0.55    0.36
   4   8   4    0.90    0.80
   4   8   4    0.83    0.46
   4   8   4    2.12    0.91
   4   8   4    0.82    0.26
  -5  -8  -4   -0.81    0.79
  -5  -8  -4   -0.18    0.46
   5   8   4   -0.68    0.83
   5   8   4   -0.58    0.66
   5   8   4   -0.78    0.67
  -6  -8  -4    1.06    0.57
  -6  -8  -4    0.52    0.91
   6   8   4    0.47    0.75
   6   8   4   -0.82    0.89
   6   8   4    1.22    0.92
   6   8   4    1.25    0.95
  -7  -8  -4    0.45    0.62
  -7  -8  -4    0.42    1.00
  -7  -8  -4    0.06    0.88
   7   8   4   -0.37    0.97
   7   8   4    2.65    1.09
  -8  -8  -4    0.02    0.93
  -8  -8  -4   -0.50    0.73
   8   8   4   -0.39    0.73
   8   8   4    0.12    0.63
   8   8   4   -0.23    1.09
  -9  -8  -4    0.10    0.84
  -9  -8  -4    2.76    1.24
   9   8   4    1.75    0.61
   9   8   4   -0.40    1.13
   9   8   4    3.32    1.29
 -10  -8  -4    3.19    1.15
 -10  -8  -4    3.97    1.47
  10   8   4    3.58    1.46
  10   8   4    4.06    1.44
 -11  -8  -4    0.35    1.09
 -11  -8  -4    0.36    1.14
  11   8   4    1.78    1.42
  11   8   4   -0.66    1.08
 -12  -8  -4    6.49    1.83
 -12  -8  -4    7.29    1.66
  12   8   4    2.94    1.85
  12   8   4    3.25    1.89
   3  -9  -4   11.81    1.49
   3  -9  -4    9.47    1.64
  -3   9   4   13.96    2.36
  -3   9   4    5.47    1.89
  -3   9   4   13.68    2.19
   2  -9  -4   13.52    1.70
   2  -9  -4   12.99    1.59
  -2   9   4    9.64    2.00
  -2   9   4   16.77    2.26
  -2   9   4   15.09    2.07
   1  -9  -4    1.11    1.00
   1  -9  -4    0.83    0.89
  -1   9   4   -0.64    1.18
  -1   9   4    1.60    1.26
  -1   9   4    0.76    1.33
   0  -9  -4    4.91    1.09
   0  -9  -4    3.96    1.07
   0   9   4    4.15    1.36
   0   9   4    3.99    1.32
   0   9   4    3.92    1.29
  -1  -9  -4   -0.61    0.72
  -1  -9  -4   -1.57    0.85
   1   9   4   -0.45    0.80
   1   9   4    2.61    1.13
   1   9   4   -0.03    1.05
  -2  -9  -4    6.84    1.28
  -2  -9  -4    5.06    1.04
  -2  -9  -4    4.07    1.32
   2   9   4    4.06    1.29
   2   9   4    6.82    1.34
   2   9   4    6.79    1.15
  -3  -9  -4    8.28    1.22
  -3  -9  -4   10.11    1.40
   3   9   4    9.07    1.36
   3   9   4    8.10    1.52
   3   9   4    9.29    0.92
  -4  -9  -4   32.85    1.96
  -4  -9  -4   30.39    0.74
   4   9   4   28.05    1.97
   4   9   4   31.26    1.07
   4   9   4   30.57    2.02
  -5  -9  -4   36.42    1.23
  -5  -9  -4   34.77    2.16
   5   9   4   36.28    2.06
   5   9   4   38.12    2.24
   5   9   4   35.80    1.41
  -6  -9  -4   -0.76    0.92
  -6  -9  -4    0.27    0.56
   6   9   4   -0.39    0.93
   6   9   4    0.60    0.84
   6   9   4    1.13    0.88
  -7  -9  -4    5.48    0.88
  -7  -9  -4    4.93    1.31
   7   9   4    5.20    1.13
   7   9   4    5.49    1.45
   7   9   4    3.91    1.26
  -8  -9  -4    4.11    1.27
  -8  -9  -4    2.55    0.90
   8   9   4    3.78    0.91
   8   9   4    1.25    1.23
   8   9   4    2.11    1.21
  -9  -9  -4   16.71    1.95
  -9  -9  -4   12.09    1.40
   9   9   4   14.47    2.00
   9   9   4   13.78    2.08
   9   9   4   13.33    1.23
 -10  -9  -4    1.84    1.07
 -10  -9  -4    1.02    1.12
  10   9   4   -0.53    1.33
  10   9   4    0.02    1.36
  10   9   4    0.43    0.56
 -11  -9  -4    9.83    1.62
 -11  -9  -4   10.75    2.13
  11   9   4    8.84    2.10
  11   9   4   12.34    2.15
 -12  -9  -4    3.66    1.58
 -12  -9  -4    3.16    2.19
  12   9   4    4.81    1.97
  12   9   4    3.81    1.76
   2 -10  -4    5.15    1.59
   2 -10  -4    1.41    1.37
  -2  10   4    7.10    2.04
  -2  10   4    1.21    1.72
   1 -10  -4    7.04    1.50
   1 -10  -4    9.40    1.45
  -1  10   4    4.99    1.89
  -1  10   4    8.99    1.85
  -1  10   4    6.78    1.96
   0 -10  -4    2.34    1.06
   0 -10  -4    4.49    1.20
   0  10   4   -0.43    1.49
   0  10   4    1.09    1.50
   0  10   4    2.75    1.31
  -1 -10  -4    0.36    0.89
  -1 -10  -4    0.66    1.02
   1  10   4   -1.16    1.09
   1  10   4    0.78    1.03
   1  10   4    1.34    1.35
  -2 -10  -4    4.97    1.03
  -2 -10  -4    6.45    1.30
   2  10   4    5.57    1.45
   2  10   4    4.50    1.15
   2  10   4    5.15    1.46
  -3 -10  -4    2.47    1.17
  -3 -10  -4    1.11    0.99
   3  10   4    2.05    1.04
   3  10   4    3.22    0.83
   3  10   4    2.56    1.37
  -4 -10  -4    3.60    1.21
   4  10   4    2.30    0.59
   4  10   4    3.00    1.16
   4  10   4    0.75    1.25
  -5 -10  -4    8.18    1.50
  -5 -10  -4    6.79    0.49
   5  10   4    8.02    1.44
   5  10   4    9.42    1.61
  -6 -10  -4    6.64    0.79
  -6 -10  -4    6.01    1.49
   6  10   4    7.62    1.59
   6  10   4    6.51    1.38
  -7 -10  -4    1.47    1.18
  -7 -10  -4    0.88    0.68
   7  10   4    0.76    1.03
   7  10   4    0.90    1.03
   7  10   4    0.63    1.30
  -8 -10  -4   -0.02    0.79
  -8 -10  -4   -1.29    1.23
   8  10   4    0.83    1.32
   8  10   4    0.79    0.94
   8  10   4    1.75    1.22
  -9 -10  -4    0.46    0.97
  -9 -10  -4    0.55    1.34
   9  10   4    0.37    0.98
   9  10   4    4.81    1.61
   9  10   4    0.74    1.33
 -10 -10  -4    0.16    1.48
 -10 -10  -4    1.12    1.03
  10  10   4    0.67    0.78
  10  10   4    2.58    1.63
  10  10   4    0.35    1.38
 -11 -10  -4    4.63    1.89
 -11 -10  -4    1.65    1.29
  11  10   4    0.06    1.72
  11  10   4    3.28    1.78
   0 -11  -4    9.46    1.55
   0 -11  -4    6.34    1.56
   0  11   4   11.63    2.30
   0  11   4    7.18    1.76
   0  11   4    8.38    1.88
  -1 -11  -4    3.68    1.30
  -1 -11  -4    2.26    1.02
   1  11   4    5.87    1.55
   1  11   4    7.18    1.88
   1  11   4    1.36    1.62
  -2 -11  -4    1.97    1.25
  -2 -11  -4    0.60    1.12
   2  11   4    2.21    1.58
   2  11   4    0.49    1.16
   2  11   4    0.63    1.17
  -3 -11  -4    5.04    1.47
  -3 -11  -4    3.60    1.07
   3  11   4    3.99    1.71
   3  11   4    6.11    1.13
   3  11   4    7.14    1.68
  -4 -11  -4    0.43    1.15
   4  11   4    0.26    1.33
   4  11   4    0.91    1.29
   4  11   4   -0.12    0.65
  -5 -11  -4    8.27    1.69
   5  11   4    5.45    1.50
   5  11   4    6.20    1.72
  -6 -11  -4    7.05    0.67
  -6 -11  -4    7.89    1.69
   6  11   4    8.04    1.60
   6  11   4    6.98    1.73
  -7 -11  -4    4.95    1.59
   7  11   4    5.59    1.39
   7  11   4    5.51    1.79
  -8 -11  -4    4.37    0.96
  -8 -11  -4    5.47    1.71
   8  11   4    1.63    1.53
   8  11   4    3.05    1.26
   8  11   4    3.43    1.66
  -9 -11  -4    7.06    1.92
  -9 -11  -4    6.42    1.15
   9  11   4    4.53    1.76
   9  11   4    7.74    2.10
   9  11   4    8.82    1.44
 -10 -11  -4    6.11    1.98
 -10 -11  -4    4.11    1.19
  10  11   4    4.48    1.84
  10  11   4    3.68    1.84
  10  11   4    6.70    1.82
 -11 -11  -4    0.72    1.41
 -11 -11  -4    1.95    1.56
  11  11   4   -0.49    1.96
  11  11   4   -0.37    1.95
  -2 -12  -4   16.08    2.07
  -2 -12  -4   15.14    2.07
   2  12   4   12.71    1.87
   2  12   4   13.85    2.49
   2  12   4   13.17    2.58
  -3 -12  -4    0.97    1.33
  -3 -12  -4   -0.83    1.25
   3  12   4    4.39    1.28
   3  12   4    1.46    1.78
   3  12   4    1.75    1.44
  -4 -12  -4    2.01    1.46
   4  12   4    2.07    1.83
   4  12   4    0.72    1.60
  -5 -12  -4    2.31    1.49
   5  12   4    5.99    1.91
   5  12   4    7.09    1.76
  -6 -12  -4   -0.03    1.43
   6  12   4    3.51    1.56
   6  12   4   -1.76    1.59
  -7 -12  -4    3.86    1.60
   7  12   4   -1.20    1.40
   7  12   4   -1.11    1.63
  -8 -12  -4    0.17    0.87
  -8 -12  -4    2.15    1.65
   8  12   4    0.98    1.57
   8  12   4   -2.20    1.54
   8  12   4    4.37    2.07
  -9 -12  -4    0.49    1.05
  -9 -12  -4   -0.25    1.68
   9  12   4   -0.39    1.47
   9  12   4    0.43    2.05
   9  12   4    1.63    1.35
   5  12  -5    2.05    1.40
   5  12  -5    1.63    1.73
   5  12  -5    1.94    2.11
   5  12  -5    1.79    1.99
   4  12  -5   -1.16    1.66
   4  12  -5    0.66    2.03
   4  12  -5    1.64    1.29
   3  12  -5    2.50    1.86
   3  12  -5    3.08    1.97
  -3 -12   5    3.38    1.42
   8  11  -5    2.02    1.90
   8  11  -5   -0.28    1.66
   8  11  -5    0.23    1.75
   7  11  -5   -0.42    1.62
   7  11  -5   -3.05    1.67
   7  11  -5   -1.85    1.73
   7  11  -5   -0.53    1.80
   6  11  -5    4.27    1.87
   6  11  -5   -1.75    1.40
   6  11  -5    2.16    1.70
   5  11  -5   -1.14    1.59
   5  11  -5    2.60    1.74
   5  11  -5    0.01    1.45
   4  11  -5    7.35    2.04
   4  11  -5    7.15    1.91
   4  11  -5    7.43    1.37
   3  11  -5    0.07    1.58
   3  11  -5    3.00    1.16
   3  11  -5    3.10    1.91
  -3 -11   5    3.02    1.25
   2  11  -5    9.18    1.42
   2  11  -5    8.04    2.04
   2  11  -5   11.26    2.23
  -2 -11   5   12.81    1.71
   1  11  -5    4.59    2.01
   1  11  -5    5.29    1.77
   1  11  -5    5.86    1.92
  -1 -11   5    6.23    1.52
   0  11  -5    2.86    2.12
   0  11  -5    3.09    2.07
   0 -11   5    1.01    1.32
   9  10  -5    3.21    1.67
   9  10  -5    0.68    1.89
  -9 -10   5    0.36    1.26
   8  10  -5    3.71    1.57
   8  10  -5    4.29    1.45
   8  10  -5    0.82    1.63
  -8 -10   5    1.96    1.24
   7  10  -5    2.07    1.39
   7  10  -5    2.16    1.56
   7  10  -5   -0.57    1.44
   6  10  -5   13.58    2.00
   6  10  -5   11.87    1.76
   5  10  -5    4.75    1.45
   5  10  -5    4.26    1.39
   4  10  -5    2.29    1.34
   4  10  -5    2.69    1.59
   4  10  -5    3.68    1.14
   3  10  -5   -1.50    0.87
   3  10  -5   -0.48    1.29
   3  10  -5   -0.07    1.32
  -3 -10   5    0.53    0.93
   2  10  -5    5.25    1.77
   2  10  -5    6.44    1.16
   2  10  -5    7.35    1.71
  -2 -10   5    8.16    1.31
   1  10  -5   39.05    2.92
   1  10  -5   39.43    2.94
   1  10  -5   36.91    1.88
   1  10  -5   39.23    1.68
  -1 -10   5   39.57    2.23
   0  10  -5    8.43    2.04
   0  10  -5    6.67    1.22
   0  10  -5   11.55    2.14
   0 -10   5    9.89    1.55
  -1  10  -5   -0.04    1.21
  -1  10  -5    0.76    1.05
  -1  10  -5    1.40    1.66
   1 -10   5    3.29    1.25
  -2  10  -5   13.44    2.48
  -2  10  -5    5.28    2.40
   2 -10   5    9.18    1.67
  10   9  -5    0.28    1.80
  10   9  -5   -1.31    1.45
 -10  -9   5    0.22    1.38
 -10  -9   5    1.22    1.52
   9   9  -5    1.18    1.46
   9   9  -5    4.11    1.79
  -9  -9   5    1.62    1.31
  -9  -9   5    1.39    1.32
   8   9  -5    5.80    1.34
   8   9  -5    7.15    1.55
   8   9  -5    5.44    1.70
  -8  -9   5    5.03    1.26
  -8  -9   5    6.10    1.43
   7   9  -5   11.17    1.55
   7   9  -5   11.16    1.77
   7   9  -5   10.49    1.80
  -7  -9   5   12.14    1.48
   6   9  -5    1.04    1.13
   6   9  -5    0.05    1.15
   6   9  -5    1.68    1.27
   4   9  -5    1.47    1.29
   3   9  -5    3.40    1.33
   3   9  -5   -2.07    0.92
   3   9  -5   -0.11    0.84
  -3  -9   5    1.34    0.87
   2   9  -5   -1.31    1.13
   2   9  -5    0.97    0.86
   2   9  -5   -0.81    1.21
  -2  -9   5    0.01    0.78
   1   9  -5    0.39    0.85
   1   9  -5   -1.57    1.14
   1   9  -5    1.73    1.22
  -1  -9   5    0.18    0.78
   0   9  -5   -0.13    1.19
   0   9  -5    0.61    1.33
   0   9  -5   -0.05    0.87
   0   9  -5    1.43    0.54
   0  -9   5    2.19    0.93
   0  -9   5    0.46    0.93
  -1   9  -5   12.98    1.96
  -1   9  -5   11.54    2.03
  -1   9  -5   11.66    1.41
   1  -9   5   11.61    1.50
   1  -9   5   12.38    1.81
  -2   9  -5    4.96    1.86
  -2   9  -5    5.25    1.17
  -2   9  -5    2.99    1.61
   2  -9   5    3.39    1.01
   2  -9   5    5.87    1.32
  -3   9  -5    2.56    1.25
  -3   9  -5    4.34    2.03
  -3   9  -5    0.09    1.74
   3  -9   5    2.82    1.53
   3  -9   5    1.38    0.95
  -4   9  -5   -0.54    1.51
  -4   9  -5    0.09    2.37
  10   8  -5    3.89    1.79
 -10  -8   5    6.59    1.66
 -10  -8   5    4.35    1.42
   9   8  -5    5.93    1.37
   9   8  -5    2.71    1.04
   9   8  -5    6.99    1.71
  -9  -8   5    6.59    1.41
  -9  -8   5    5.68    1.44
   8   8  -5    2.51    1.17
   8   8  -5    7.30    1.59
  -8  -8   5    3.79    1.20
  -8  -8   5    3.25    1.14
   7   8  -5    4.95    1.28
   7   8  -5    3.03    1.33
  -7  -8   5    3.91    1.17
  -7  -8   5    3.85    1.08
   6   8  -5   35.63    2.13
   6   8  -5   41.33    2.43
  -6  -8   5   37.21    1.96
  -3  -8   5    2.87    0.83
   2   8  -5    9.44    1.59
   2   8  -5    6.84    0.96
   2   8  -5    8.44    1.49
  -2  -8   5    5.64    1.01
   1   8  -5    1.14    0.96
   1   8  -5    0.72    0.72
   1   8  -5    0.25    1.02
  -1  -8   5   -0.19    0.60
  -1  -8   5    0.25    0.66
   0   8  -5    2.02    1.17
   0   8  -5    0.56    0.69
   0   8  -5    0.66    0.52
   0   8  -5    0.36    0.73
   0  -8   5    2.08    1.00
   0  -8   5    0.92    0.77
  -1   8  -5   -1.19    0.72
  -1   8  -5    0.42    1.15
  -1   8  -5    0.08    0.79
   1  -8   5    0.67    0.73
   1  -8   5    0.56    0.77
  -2   8  -5    6.86    1.73
  -2   8  -5    6.42    1.55
  -2   8  -5    5.68    1.10
   2  -8   5    2.71    1.23
   2  -8   5    4.83    1.16
  -3   8  -5   -0.67    1.14
  -3   8  -5    1.38    1.06
  -3   8  -5    1.13    1.51
   3  -8   5    0.57    1.18
   3  -8   5    2.06    1.01
  -4   8  -5    0.37    1.45
  -4   8  -5    0.02    1.17
  -4   8  -5   -0.45    1.65
   4  -8   5   -1.96    1.04
   4  -8   5    0.72    1.33
  -5   8  -5    3.89    2.03
  -5   8  -5   -0.32    1.64
  -5   8  -5    1.48    1.39
   5  -8   5   -0.37    1.32
   5  -8   5   -0.31    1.12
  11   7  -5    3.25    1.96
 -11  -7   5   -0.59    1.57
 -11  -7   5    0.26    1.58
  10   7  -5    2.66    1.64
 -10  -7   5    1.30    1.41
 -10  -7   5    2.50    1.39
   9   7  -5   11.42    1.37
   9   7  -5   14.29    1.06
   9   7  -5   17.49    2.26
  -9  -7   5   17.63    2.00
  -9  -7   5   15.98    1.75
   8   7  -5   16.96    2.02
  -8  -7   5   14.05    1.57
  -8  -7   5   16.84    1.69
   7   7  -5    4.09    1.32
   7   7  -5    2.89    0.96
   7   7  -5    3.28    1.08
   7   7  -5    5.46    1.32
  -7  -7   5    4.10    1.08
  -7  -7   5    2.29    0.96
   6   7  -5    6.02    1.57
   6   7  -5    2.57    1.06
   6   7  -5    3.04    1.05
  -6  -7   5    3.32    0.91
  -6  -7   5    4.21    1.02
   5   7  -5   48.82    2.34
  -5  -7   5   48.08    2.21
  -5  -7   5   50.67    2.08
   2   7  -5    1.40    0.74
   2   7  -5    2.37    1.08
  -2  -7   5    2.09    0.77
  -2  -7   5    2.22    0.69
   1   7  -5    2.21    1.06
   1   7  -5    3.73    0.81
   1   7  -5    2.62    0.90
   1   7  -5    3.14    0.93
  -1  -7   5    3.37    0.75
  -1  -7   5    1.79    0.82
   0   7  -5    5.06    0.94
   0   7  -5    4.48    1.27
   0   7  -5    5.12    0.68
   0   7  -5    4.15    1.01
   0   7  -5    5.64    0.81
   0  -7   5    6.04    1.13
   0  -7   5    4.58    0.78
  -1   7  -5    0.86    1.10
  -1   7  -5    1.60    0.77
  -1   7  -5    1.29    0.34
  -1   7  -5    1.32    0.29
  -1   7  -5    0.92    0.93
   1  -7   5    1.21    0.70
   1  -7   5    0.72    0.64
  -2   7  -5   19.57    1.39
  -2   7  -5   27.36    2.22
   2  -7   5   18.38    1.50
   2  -7   5   22.06    1.53
  -3   7  -5    0.28    1.15
  -3   7  -5   -0.51    1.24
  -3   7  -5    0.26    0.86
   3  -7   5    1.34    0.99
   3  -7   5   -0.93    0.78
  -4   7  -5    1.89    1.17
  -4   7  -5    3.41    1.49
  -4   7  -5    2.41    1.04
   4  -7   5    0.43    0.87
   4  -7   5    2.75    1.22
  -5   7  -5    2.28    1.32
  -5   7  -5    4.97    1.79
  -5   7  -5    3.42    1.58
   5  -7   5    3.65    1.51
   5  -7   5    4.76    1.32
  -6   7  -5    2.56    1.92
  -6   7  -5    0.73    1.75
  -6   7  -5    1.37    1.41
   6  -7   5    1.96    1.52
   6  -7   5    0.99    1.26
  11   6  -5   -0.07    1.89
 -11  -6   5    4.32    1.71
  10   6  -5   11.63    1.99
 -10  -6   5   11.73    1.81
 -10  -6   5   11.46    1.86
   9   6  -5    1.35    0.56
   9   6  -5    0.39    1.31
  -9  -6   5    2.28    1.25
  -9  -6   5    1.74    1.13
   8   6  -5    8.54    1.18
   8   6  -5    9.46    1.00
   8   6  -5    8.51    1.19
   8   6  -5    9.27    1.57
  -8  -6   5    8.33    1.42
  -8  -6   5    9.63    1.41
   7   6  -5   61.79    2.73
   7   6  -5   64.75    2.27
   7   6  -5   61.75    2.12
   7   6  -5   64.78    2.18
  -7  -6   5   61.50    2.61
  -7  -6   5   65.27    2.56
   6   6  -5    6.70    0.95
   6   6  -5    7.24    1.18
   6   6  -5    6.71    1.12
   6   6  -5    4.78    0.98
  -6  -6   5    5.61    1.14
  -6  -6   5    6.69    1.09
   5   6  -5   43.86    2.10
   5   6  -5   43.54    1.89
   5   6  -5   38.28    1.92
  -5  -6   5   45.99    1.93
  -5  -6   5   45.73    2.06
   4   6  -5    6.37    1.07
  -4  -6   5    6.65    0.95
  -4  -6   5    6.38    1.04
   2   6  -5   13.12    1.18
   2   6  -5   10.89    1.27
  -2  -6   5   11.34    0.91
  -2  -6   5   10.12    1.04
   1   6  -5    9.76    0.96
   1   6  -5   11.25    1.06
   1   6  -5    8.99    1.06
  -1  -6   5   10.11    1.05
  -1  -6   5    9.90    0.89
   0   6  -5   34.81    1.59
   0   6  -5   33.90    2.04
   0   6  -5   38.00    1.43
   0   6  -5   39.10    1.38
   0  -6   5   36.64    1.59
   0  -6   5   37.87    1.85
  -1   6  -5   93.47    2.18
  -1   6  -5   89.31    2.16
  -1   6  -5   84.09    2.66
  -1   6  -5   88.79    3.39
   1  -6   5   94.46    3.18
   1  -6   5   93.20    2.85
  -2   6  -5    7.45    1.02
  -2   6  -5    8.45    1.46
   2  -6   5    6.94    1.16
   2  -6   5    6.18    0.94
  -3   6  -5    4.15    1.13
  -3   6  -5    3.36    0.98
   3  -6   5    3.53    0.80
   3  -6   5    3.56    0.94
  -4   6  -5    1.38    1.16
  -4   6  -5    1.03    1.15
  -4   6  -5    1.37    0.91
   4  -6   5   -0.29    0.69
   4  -6   5    1.99    0.90
  -5   6  -5    3.58    1.14
  -5   6  -5    1.66    1.23
  -5   6  -5    0.72    1.37
   5  -6   5    1.94    1.19
   5  -6   5    1.26    1.00
  -6   6  -5    0.49    1.25
  -6   6  -5   -0.45    1.47
  -6   6  -5   -0.57    1.47
   6  -6   5    0.23    1.11
   6  -6   5   -0.36    1.19
  -7   6  -5    1.36    1.78
  -7   6  -5    0.81    1.47
  -7   6  -5    0.03    1.76
   7  -6   5    1.01    1.51
   7  -6   5    1.43    1.32
  11   5  -5   12.57    2.33
 -11  -5   5   11.49    2.02
  10   5  -5    8.48    1.86
 -10  -5   5    4.51    1.61
 -10  -5   5    7.88    1.63
   9   5  -5    9.76    1.62
  -9  -5   5    9.80    1.51
  -9  -5   5   11.38    1.68
   8   5  -5    3.92    0.79
   8   5  -5    4.56    0.52
   8   5  -5    8.11    1.43
  -8  -5   5    5.02    1.15
  -8  -5   5    3.91    1.14
   7   5  -5    0.20    0.54
   7   5  -5   -1.07    0.81
   7   5  -5    0.08    0.47
   7   5  -5    0.60    0.77
  -7  -5   5   -0.33    0.56
  -7  -5   5   -0.24    0.73
  -7  -5   5    0.29    0.79
   6   5  -5    7.03    1.17
   6   5  -5    8.30    0.87
   6   5  -5    7.93    0.99
   6   5  -5    7.26    0.84
  -6  -5   5    6.07    1.08
  -6  -5   5    6.91    1.15
  -6  -5   5    7.02    0.92
   5   5  -5    3.17    0.84
   5   5  -5    4.33    0.72
   5   5  -5    4.53    0.92
   5   5  -5    5.51    0.80
   5   5  -5    5.02    0.89
  -5  -5   5    5.17    0.95
  -5  -5   5    4.91    0.81
  -5  -5   5    3.90    0.80
   4   5  -5   17.10    1.10
   4   5  -5   14.61    1.24
   4   5  -5   18.28    1.11
   4   5  -5   18.57    1.22
  -4  -5   5   18.64    1.19
  -4  -5   5   19.22    1.19
  -4  -5   5   17.73    1.30
   3   5  -5    5.24    0.86
   3   5  -5    7.57    1.06
   3   5  -5    8.06    0.84
  -3  -5   5    6.35    0.95
   2   5  -5    0.63    0.52
   2   5  -5   -0.10    0.67
   2   5  -5    0.44    0.66
   2   5  -5   -1.48    0.63
   2   5  -5    0.74    0.91
  -2  -5   5   -0.34    0.55
  -2  -5   5    0.27    0.40
   1   5  -5    3.48    0.70
   1   5  -5    3.17    0.71
   1   5  -5    4.33    0.79
   1   5  -5    3.57    0.79
  -1  -5   5    3.26    0.57
  -1  -5   5    2.53    0.75
  -1  -5   5    4.08    0.75
   0   5  -5   -1.56    0.56
   0   5  -5   -0.45    0.69
   0   5  -5    0.00    0.45
   0   5  -5    0.26    0.41
   0   5  -5    0.34    0.49
   0   5  -5   -0.39    0.54
   0  -5   5    0.66    0.47
   0  -5   5    0.09    0.42
  -1   5  -5    2.96    0.74
  -1   5  -5    3.40    0.46
  -1   5  -5    3.91    1.02
  -1   5  -5    4.11    0.53
   1  -5   5    2.62    0.70
   1  -5   5    3.00    0.65
  -2   5  -5  122.46    4.03
  -2   5  -5  123.69    3.40
   2  -5   5  124.19    3.43
   2  -5   5  121.55    3.73
  -3   5  -5    1.72    0.78
  -3   5  -5    1.44    0.99
   3  -5   5    0.14    0.61
   3  -5   5    0.69    0.73
  -4   5  -5    0.30    0.97
  -4   5  -5   -0.35    0.71
   4  -5   5    0.67    0.65
   4  -5   5    1.13    0.78
  -5   5  -5    3.73    1.08
  -5   5  -5    2.27    1.34
  -5   5  -5    2.84    1.22
   5  -5   5    3.26    1.17
   5  -5   5    2.74    0.92
  -6   5  -5   -1.50    1.17
  -6   5  -5    0.09    1.14
  -6   5  -5    0.05    1.07
   6  -5   5    0.31    0.78
   6  -5   5   -0.84    0.87
  -7   5  -5    1.33    1.63
  -7   5  -5    1.51    1.24
  -7   5  -5    0.66    1.40
   7  -5   5    3.35    1.30
   7  -5   5   -0.11    1.22
  -8   5  -5    6.84    1.63
  -8   5  -5    7.69    1.98
  -8   5  -5    6.10    2.16
   8  -5   5   12.13    2.00
   8  -5   5    4.84    1.62
  11   4  -5   -0.48    1.77
 -11  -4   5    2.55    1.57
  10   4  -5    3.82    1.51
 -10  -4   5    0.62    1.36
 -10  -4   5    0.14    1.21
   9   4  -5    1.28    1.21
  -9  -4   5    1.69    0.54
  -9  -4   5    1.46    1.10
  -9  -4   5   -1.03    0.97
   8   4  -5    5.03    1.21
   8   4  -5    5.69    0.87
  -8  -4   5    4.19    0.97
  -8  -4   5    5.07    0.76
  -8  -4   5    7.13    1.35
   7   4  -5   11.62    1.13
   7   4  -5   11.51    1.32
  -7  -4   5   11.35    1.08
  -7  -4   5   10.48    1.42
  -7  -4   5   11.37    1.00
   6   4  -5    2.52    0.43
   6   4  -5    3.62    0.53
   6   4  -5    3.08    0.85
   6   4  -5    2.77    0.76
  -6  -4   5    2.71    0.69
  -6  -4   5    3.08    0.84
  -6  -4   5    3.69    0.91
   5   4  -5   16.53    1.21
   5   4  -5   13.80    1.02
   5   4  -5   15.78    1.16
   5   4  -5   14.95    0.86
   5   4  -5   16.34    0.85
  -5  -4   5   16.84    1.09
  -5  -4   5   15.03    1.12
  -5  -4   5   15.12    1.26
   4   4  -5   52.28    1.68
   4   4  -5   54.73    1.96
   4   4  -5   55.43    1.69
   4   4  -5   51.82    1.93
  -4  -4   5   55.46    2.13
  -4  -4   5   52.65    1.95
  -4  -4   5   56.58    1.98
   3   4  -5   68.58    2.29
   3   4  -5   65.44    2.36
   3   4  -5   63.14    2.24
   3   4  -5   68.58    1.90
   3   4  -5   69.13    2.04
   3   4  -5   69.60    2.35
  -3  -4   5   69.91    2.41
  -3  -4   5   70.79    2.30
  -3  -4   5   68.86    1.99
  -3  -4   5   67.51    2.19
   2   4  -5    5.59    0.63
   2   4  -5    4.78    0.73
   2   4  -5    6.14    0.92
   2   4  -5    6.94    0.83
   2   4  -5    5.18    0.84
   2   4  -5    4.26    0.85
  -2  -4   5    5.88    0.84
  -2  -4   5    5.87    0.69
   1   4  -5   26.95    1.21
   1   4  -5   26.41    1.47
   1   4  -5   27.84    1.38
   1   4  -5   28.39    1.23
   1   4  -5   25.73    1.52
   1   4  -5   26.90    1.23
   1   4  -5   28.88    1.13
  -1  -4   5   29.37    1.08
  -1  -4   5   30.18    1.30
   0   4  -5  109.80    3.29
   0   4  -5  114.36    3.24
   0   4  -5  110.77    2.88
   0   4  -5  114.45    3.00
   0   4  -5  114.56    2.80
   0   4  -5  110.03    2.80
   0   4  -5  105.00    3.35
   0  -4   5  112.24    3.37
   0  -4   5  116.76    2.84
  -1   4  -5   37.46    1.90
  -1   4  -5   38.85    1.23
  -1   4  -5   38.54    1.51
  -1   4  -5   39.26    1.24
  -1   4  -5   39.07    1.57
   1  -4   5   41.34    1.46
   1  -4   5   39.61    1.86
   1  -4   5   39.15    1.72
  -2   4  -5    3.01    0.36
  -2   4  -5    4.10    0.83
  -2   4  -5    2.81    0.91
  -2   4  -5    3.05    0.91
  -2   4  -5    3.07    0.59
   2  -4   5    2.72    0.61
   2  -4   5    2.74    0.78
  -3   4  -5    0.33    0.80
  -3   4  -5   -0.07    0.55
   3  -4   5    0.65    0.86
   3  -4   5    0.34    0.61
   3  -4   5    0.18    0.52
  -4   4  -5   73.31    3.09
  -4   4  -5   74.68    2.53
   4  -4   5   74.41    2.82
   4  -4   5   73.60    2.61
  -5   4  -5    8.70    1.24
  -5   4  -5    8.51    1.51
   5  -4   5    9.10    1.03
   5  -4   5    7.95    1.28
  -6   4  -5   18.45    1.65
  -6   4  -5   16.70    1.83
  -6   4  -5   18.91    1.98
   6  -4   5   16.42    1.54
   6  -4   5   16.12    1.44
  -7   4  -5    0.18    1.06
  -7   4  -5    0.09    1.18
  -7   4  -5   -1.48    1.21
   7  -4   5   -0.60    0.97
   7  -4   5    0.95    1.05
  -8   4  -5    9.89    1.63
  -8   4  -5   13.06    2.02
  -8   4  -5    9.68    2.02
   8  -4   5   10.07    1.78
   8  -4   5    9.22    1.77
  -9   4  -5   -0.51    1.36
  -9   4  -5    2.37    1.84
  -9   4  -5   -1.00    2.12
   9  -4   5   -0.16    1.44
  11   3  -5    1.02    1.83
  11   3  -5    3.26    2.13
 -11  -3   5    6.58    1.93
  10   3  -5   -0.02    1.35
 -10  -3   5    0.81    1.18
 -10  -3   5    1.18    1.35
   9   3  -5   -1.08    1.11
  -9  -3   5    0.97    1.17
  -9  -3   5   -1.08    0.95
  -9  -3   5    0.34    0.62
   8   3  -5   20.84    1.82
   8   3  -5   19.53    1.40
  -8  -3   5   20.00    1.74
  -8  -3   5   17.21    1.39
  -8  -3   5   19.85    1.22
   7   3  -5    2.36    0.93
   7   3  -5    3.58    0.86
  -7  -3   5    1.97    0.65
  -7  -3   5    2.19    0.91
  -7  -3   5    2.39    0.86
   6   3  -5    4.60    0.83
   6   3  -5    5.46    0.92
  -6  -3   5    5.54    1.00
  -6  -3   5    6.62    0.93
  -6  -3   5    4.68    0.75
   5   3  -5   70.71    2.30
   5   3  -5   68.81    1.55
   5   3  -5   67.20    2.17
   5   3  -5   68.24    1.54
  -5  -3   5   67.53    2.17
  -5  -3   5   63.96    2.25
  -5  -3   5   68.42    2.45
   4   3  -5  103.26    2.80
   4   3  -5  101.21    2.36
   4   3  -5  100.01    2.81
  -4  -3   5  100.62    2.83
  -4  -3   5   98.71    3.06
  -4  -3   5  101.98    2.90
   3   3  -5  248.83    5.48
   3   3  -5  248.71    5.67
   3   3  -5  252.75    5.30
   3   3  -5  242.47    5.80
   3   3  -5  233.24    5.59
   3   3  -5  238.93    5.78
   3   3  -5  254.44    5.24
  -3  -3   5  247.62    5.67
  -3  -3   5  253.05    5.74
  -3  -3   5  254.86    5.25
   2   3  -5   50.85    1.38
   2   3  -5   48.98    1.58
   2   3  -5   46.72    1.74
   2   3  -5   49.38    1.83
   2   3  -5   46.71    1.78
   2   3  -5   49.77    1.67
  -2  -3   5   46.31    1.82
  -2  -3   5   44.39    1.76
  -2  -3   5   49.00    1.51
   1   3  -5   11.47    0.83
   1   3  -5   10.54    0.80
   1   3  -5   12.43    0.86
   1   3  -5   12.20    1.03
   1   3  -5   10.84    0.96
   1   3  -5   12.89    0.83
   1   3  -5   12.19    0.63
  -1  -3   5   11.19    0.76
  -1  -3   5   10.68    0.93
  -1  -3   5   10.98    0.94
  -1  -3   5   11.00    0.59
   0   3  -5   62.38    1.97
   0   3  -5   67.15    2.07
   0   3  -5   64.21    1.88
   0   3  -5   65.32    2.21
   0   3  -5   65.06    1.79
   0   3  -5   63.14    2.17
   0  -3   5   62.41    2.03
   0  -3   5   62.34    2.21
   0  -3   5   65.33    1.73
  -1   3  -5    6.78    1.01
  -1   3  -5    7.41    1.04
  -1   3  -5    7.02    0.94
  -1   3  -5    8.24    0.74
  -1   3  -5    6.12    0.67
  -1   3  -5    7.43    0.56
   1  -3   5    5.58    0.54
   1  -3   5    6.21    0.76
   1  -3   5    6.07    1.00
  -2   3  -5    2.70    0.62
  -2   3  -5    2.26    0.93
  -2   3  -5    2.55    0.40
  -2   3  -5    0.77    0.60
  -2   3  -5    2.44    0.78
  -2   3  -5    1.64    0.84
   2  -3   5    2.56    0.61
   2  -3   5    1.42    0.65
   2  -3   5    3.89    0.70
   2  -3   5    2.46    0.49
  -3   3  -5   51.86    2.07
  -3   3  -5   55.48    1.35
  -3   3  -5   52.49    2.17
  -3   3  -5   52.79    2.24
   3  -3   5   55.17    1.92
   3  -3   5   53.77    1.95
   3  -3   5   55.99    2.17
  -4   3  -5   91.30    1.90
  -4   3  -5   89.05    3.26
  -4   3  -5   89.79    2.81
   4  -3   5   87.26    2.96
   4  -3   5   92.29    2.84
  -5   3  -5  174.95    5.17
  -5   3  -5  173.77    4.58
   5  -3   5  172.53    4.68
   5  -3   5  171.25    4.86
  -6   3  -5   15.85    1.42
  -6   3  -5   18.35    1.83
   6  -3   5   18.60    1.62
   6  -3   5   17.20    1.35
  -7   3  -5    1.29    1.06
  -7   3  -5   -0.20    0.93
  -7   3  -5    0.50    1.21
   7  -3   5    1.77    1.00
   7  -3   5    0.00    0.97
  -8   3  -5    9.78    1.63
  -8   3  -5   10.32    1.78
  -8   3  -5   10.06    1.95
   8  -3   5   10.19    1.52
   8  -3   5   11.96    1.66
  -9   3  -5    6.47    1.80
  -9   3  -5    4.96    1.57
  -9   3  -5    5.21    1.58
   9  -3   5    4.30    1.58
   9  -3   5    6.09    1.58
  10   2  -5   -0.47    1.57
  10   2  -5   -2.04    1.31
 -10  -2   5    2.48    1.51
 -10  -2   5   -0.26    1.27
   9   2  -5    0.71    1.12
   9   2  -5    0.57    1.28
  -9  -2   5    0.77    0.79
  -9  -2   5    1.68    1.20
  -9  -2   5   -0.54    1.01
   8   2  -5   29.37    1.87
   8   2  -5   31.14    1.97
  -8  -2   5   30.66    2.11
  -8  -2   5   31.86    1.89
  -8  -2   5   32.28    1.54
   7   2  -5   -0.29    0.87
   7   2  -5    0.22    0.78
  -7  -2   5   -0.14    0.62
  -7  -2   5    0.65    0.61
  -7  -2   5    0.01    0.82
   6   2  -5    7.09    1.00
   6   2  -5    8.94    1.07
  -6  -2   5    6.77    0.87
  -6  -2   5    6.61    1.14
  -6  -2   5    7.68    0.86
  -6  -2   5    7.23    1.33
   5   2  -5    6.66    0.87
   5   2  -5    5.74    0.89
  -5  -2   5    5.99    0.72
  -5  -2   5    7.51    0.94
  -5  -2   5    6.62    0.82
  -5  -2   5    5.96    1.01
   4   2  -5   70.24    2.18
   4   2  -5   72.28    2.12
  -4  -2   5   72.57    2.24
  -4  -2   5   72.05    2.43
  -4  -2   5   70.23    2.27
   3   2  -5   28.79    1.27
   3   2  -5   26.43    1.31
   3   2  -5   26.55    1.40
   3   2  -5   27.37    1.28
   3   2  -5   27.53    1.07
  -3  -2   5   28.26    0.84
  -3  -2   5   28.91    1.28
  -3  -2   5   24.13    1.37
   2   2  -5   33.53    1.08
   2   2  -5   31.52    1.30
   2   2  -5   31.81    1.09
   2   2  -5   33.55    0.94
   2   2  -5   33.94    1.45
   2   2  -5   31.16    1.44
   2   2  -5   31.79    1.36
  -2  -2   5   31.42    1.38
  -2  -2   5   33.28    1.45
  -2  -2   5   32.57    1.06
  -2  -2   5   32.71    1.28
   1   2  -5  210.08    4.87
   1   2  -5  214.31    4.96
   1   2  -5  213.99    4.70
   1   2  -5  215.99    4.98
   1   2  -5  207.51    4.74
   1   2  -5  207.59    4.32
  -1  -2   5  208.66    4.98
  -1  -2   5  211.71    5.02
  -1  -2   5  213.52    4.67
   0   2  -5   79.28    2.37
   0   2  -5   79.95    1.91
   0   2  -5   79.47    2.44
   0   2  -5   78.51    2.19
   0   2  -5   82.31    2.26
   0   2  -5   79.40    2.27
   0  -2   5   81.24    1.86
   0  -2   5   79.57    2.24
   0  -2   5   79.81    2.43
   0  -2   5   76.98    2.38
  -1   2  -5   12.04    0.88
  -1   2  -5   12.43    0.82
  -1   2  -5   10.61    0.93
  -1   2  -5   11.88    0.87
  -1   2  -5   12.19    0.70
  -1   2  -5   11.56    0.71
   1  -2   5   10.86    0.94
   1  -2   5   12.52    0.64
   1  -2   5   12.63    0.89
  -2   2  -5    0.41    0.49
  -2   2  -5    0.65    0.46
  -2   2  -5    0.32    0.46
  -2   2  -5    0.46    0.33
  -2   2  -5    1.10    0.55
  -2   2  -5    0.30    0.43
  -2   2  -5    0.73    0.51
   2  -2   5    0.58    0.40
   2  -2   5    0.21    0.49
   2  -2   5    0.57    0.34
   2  -2   5    0.48    0.36
   2  -2   5    0.83    0.42
  -3   2  -5    1.29    0.60
  -3   2  -5    1.73    0.38
  -3   2  -5    1.64    0.59
  -3   2  -5    1.47    0.47
  -3   2  -5    0.77    0.62
  -3   2  -5    1.35    0.83
   3  -2   5    2.55    0.70
   3  -2   5    1.31    0.61
   3  -2   5    2.03    0.40
   3  -2   5    2.23    0.53
  -4   2  -5   24.96    1.51
  -4   2  -5   23.30    1.25
  -4   2  -5   24.92    0.92
  -4   2  -5   27.35    1.65
  -4   2  -5   27.04    1.65
   4  -2   5   27.43    1.65
   4  -2   5   24.01    1.46
   4  -2   5   23.44    1.44
   4  -2   5   25.40    0.89
   4  -2   5   24.52    1.24
  -5   2  -5   42.05    1.84
  -5   2  -5   42.36    2.15
  -5   2  -5   41.64    1.27
   5  -2   5   42.48    1.25
   5  -2   5   40.28    1.95
   5  -2   5   40.76    1.87
  -6   2  -5   16.01    0.81
  -6   2  -5   16.07    1.63
  -6   2  -5   14.31    1.17
   6  -2   5   13.75    0.78
   6  -2   5   14.20    1.41
   6  -2   5   15.28    1.40
  -7   2  -5   64.02    1.77
  -7   2  -5   66.07    2.65
  -7   2  -5   65.08    3.01
   7  -2   5   63.36    2.64
   7  -2   5   61.92    2.74
   7  -2   5   62.37    1.79
  -8   2  -5    6.49    1.34
  -8   2  -5    8.30    1.61
  -8   2  -5    4.88    1.25
   8  -2   5    7.23    1.41
   8  -2   5    4.49    0.85
   8  -2   5    7.01    1.41
  -9   2  -5    4.69    1.34
  -9   2  -5    5.53    1.52
  -9   2  -5   11.20    2.01
   9  -2   5    3.97    1.46
   9  -2   5    5.13    1.45
 -10   2  -5   37.85    2.99
 -10   2  -5   34.56    2.58
 -10   2  -5   33.22    2.54
  10  -2   5   36.02    2.81
  10  -2   5   28.88    2.73
  10   1  -5    4.89    1.67
  10   1  -5    5.27    1.81
 -10  -1   5    6.04    1.56
 -10  -1   5    6.65    1.83
   9   1  -5   -0.17    1.38
   9   1  -5    0.43    1.22
  -9  -1   5    0.90    0.97
  -9  -1   5    0.27    1.06
  -9  -1   5   -1.07    1.18
   8   1  -5   15.05    1.80
   8   1  -5   17.45    1.75
  -8  -1   5   13.54    1.47
  -8  -1   5   17.69    1.84
   7   1  -5   -0.01    0.83
   7   1  -5    0.20    1.06
   7   1  -5   -0.20    0.81
  -7  -1   5    0.40    0.66
  -7  -1   5    0.09    0.74
  -7  -1   5   -0.48    0.65
   6   1  -5    0.79    0.73
   6   1  -5    0.24    0.86
   6   1  -5    0.66    0.81
  -6  -1   5    1.42    0.80
  -6  -1   5    1.01    0.60
  -6  -1   5    0.19    0.63
   5   1  -5   38.25    1.71
   5   1  -5   39.58    1.57
   5   1  -5   37.76    1.91
  -5  -1   5   39.97    1.61
  -5  -1   5   37.28    1.88
  -5  -1   5   37.05    1.58
  -5  -1   5   37.32    1.73
   4   1  -5  176.52    4.26
   4   1  -5  169.90    4.05
   4   1  -5  173.12    4.54
  -4  -1   5  178.99    4.16
  -4  -1   5  168.90    4.26
  -4  -1   5  170.84    4.55
  -4  -1   5  174.99    4.28
   3   1  -5    0.13    0.52
   3   1  -5    0.04    0.29
   3   1  -5    0.06    0.64
   3   1  -5    0.47    0.12
   3   1  -5    0.64    0.44
  -3  -1   5    0.90    0.37
  -3  -1   5    0.96    0.45
   2   1  -5  103.22    2.89
   2   1  -5  103.99    2.88
   2   1  -5  102.43    2.79
   2   1  -5  100.81    2.29
   2   1  -5  103.31    2.69
  -2  -1   5  101.86    2.82
  -2  -1   5  101.92    2.90
  -2  -1   5  100.73    2.28
  -2  -1   5  102.08    2.71
   1   1  -5   18.39    1.03
   1   1  -5   16.08    0.97
   1   1  -5   17.61    0.79
   1   1  -5   17.46    0.89
   1   1  -5   16.85    0.52
   1   1  -5   17.61    0.47
   1   1  -5   15.27    0.98
  -1  -1   5   16.97    0.79
  -1  -1   5   17.25    1.00
  -1  -1   5   16.46    0.93
   0   1  -5   21.04    0.97
   0   1  -5   20.49    1.01
   0   1  -5   19.51    0.96
   0   1  -5   21.65    0.61
   0   1  -5   21.76    0.96
   0   1  -5   21.10    1.10
   0  -1   5   20.97    0.56
   0  -1   5   20.25    1.02
   0  -1   5   21.07    1.02
   0  -1   5   19.17    1.08
   0  -1   5   21.29    0.94
  -1   1  -5   50.07    1.66
  -1   1  -5   51.44    1.57
  -1   1  -5   53.03    1.77
  -1   1  -5   51.53    1.36
  -1   1  -5   52.43    1.73
  -1   1  -5   49.99    1.78
   1  -1   5   48.77    1.79
   1  -1   5   53.92    1.62
   1  -1   5   51.75    1.70
   1  -1   5   50.60    1.30
  -2   1  -5  134.63    3.12
  -2   1  -5  133.84    3.46
  -2   1  -5  130.09    3.45
  -2   1  -5  131.38    3.32
  -2   1  -5  134.36    3.12
  -2   1  -5  133.26    3.48
   2  -1   5  132.60    3.09
   2  -1   5  131.12    3.28
   2  -1   5  132.10    3.06
   2  -1   5  130.02    3.49
   2  -1   5  133.41    3.45
  -3   1  -5  121.32    3.09
  -3   1  -5  117.35    3.14
  -3   1  -5  116.55    2.83
  -3   1  -5  118.58    3.40
  -3   1  -5  113.92    3.24
  -3   1  -5  119.69    3.31
   3  -1   5  119.56    3.01
   3  -1   5  121.91    2.82
   3  -1   5  121.08    3.31
   3  -1   5  120.53    3.13
   3  -1   5  118.83    3.30
  -4   1  -5   31.21    1.53
  -4   1  -5   27.36    1.67
  -4   1  -5   30.90    1.50
  -4   1  -5   29.75    1.12
  -4   1  -5   29.78    1.66
  -4   1  -5   28.06    1.34
   4  -1   5   29.28    1.45
   4  -1   5   28.56    1.46
   4  -1   5   31.30    1.12
   4  -1   5   31.03    1.37
   4  -1   5   32.82    1.51
  -5   1  -5    9.58    1.16
  -5   1  -5    7.29    0.67
  -5   1  -5    7.83    1.12
  -5   1  -5    8.64    0.85
   5  -1   5    8.87    0.93
   5  -1   5    6.92    0.67
   5  -1   5    7.29    1.05
  -6   1  -5   15.50    1.28
  -6   1  -5   17.95    1.51
  -6   1  -5   17.42    0.96
   6  -1   5   16.72    0.99
   6  -1   5   16.83    1.28
   6  -1   5   16.07    1.32
  -7   1  -5    0.37    0.53
  -7   1  -5    0.94    0.88
  -7   1  -5    0.88    0.96
   7  -1   5   -0.49    0.78
   7  -1   5   -1.11    0.66
   7  -1   5    0.16    0.79
  -8   1  -5   19.85    1.19
  -8   1  -5   22.49    1.73
  -8   1  -5   21.02    1.97
  -8   1  -5   20.45    1.63
   8  -1   5   22.22    1.78
   8  -1   5   21.26    1.39
   8  -1   5   21.57    1.86
  -9   1  -5    0.32    1.23
  -9   1  -5    0.13    0.81
  -9   1  -5   -0.88    1.00
  -9   1  -5    1.22    1.05
   9  -1   5    0.43    1.14
   9  -1   5    1.63    1.11
 -10   1  -5    2.09    1.33
 -10   1  -5    4.79    1.62
 -10   1  -5    2.89    1.44
  10  -1   5    5.52    1.58
  10  -1   5    3.39    1.63
 -11   1  -5   16.72    2.53
 -11   1  -5   19.28    2.29
 -11   1  -5   19.65    2.38
  11  -1   5   14.77    2.49
  11  -1   5   19.74    2.41
  10   0  -5   -0.36    1.45
  10   0  -5    4.28    1.96
 -10   0   5   -0.13    1.36
 -10   0   5   -0.96    1.65
 -10   0   5    0.56    1.25
   9   0  -5   16.53    1.94
  -9   0   5   14.44    1.65
  -9   0   5   18.47    2.33
  -9   0   5   16.18    1.76
   8   0  -5   -1.38    1.07
   8   0  -5   -0.73    0.98
  -8   0   5   -1.25    1.05
  -8   0   5    1.36    0.99
  -8   0   5   -0.09    0.80
   7   0  -5    4.96    1.23
   7   0  -5    4.36    1.02
  -7   0   5    5.11    0.96
  -7   0   5    4.86    1.24
  -7   0   5    4.70    1.02
   6   0  -5    5.06    0.91
   6   0  -5    7.24    1.33
   6   0  -5    3.91    1.13
  -6   0   5    4.18    0.83
  -6   0   5    5.19    0.98
  -6   0   5    6.31    1.16
   5   0  -5   14.75    1.01
   5   0  -5   14.54    1.30
   5   0  -5   11.17    1.22
  -5   0   5   16.04    1.15
  -5   0   5   14.27    1.08
  -5   0   5   11.91    1.21
  -5   0   5   12.12    1.25
   4   0  -5   -0.40    0.43
   4   0  -5   -0.28    0.60
   4   0  -5   -0.28    0.43
  -4   0   5   -0.46    0.39
  -4   0   5   -0.04    0.46
  -4   0   5    0.05    0.56
  -4   0   5   -0.09    0.37
   3   0  -5   24.87    1.26
   3   0  -5   22.65    1.16
   3   0  -5   20.63    1.39
   3   0  -5   19.00    1.38
   3   0  -5   22.87    0.92
  -3   0   5   21.09    1.15
  -3   0   5   20.97    1.06
  -3   0   5   22.42    0.99
  -3   0   5   21.18    1.20
   2   0  -5  263.93    5.93
   2   0  -5  261.85    5.83
   2   0  -5  259.86    5.90
   2   0  -5  249.07    5.22
   2   0  -5  257.61    5.63
   2   0  -5  256.63    5.21
  -2   0   5  257.76    5.92
  -2   0   5  252.95    5.18
  -2   0   5  261.12    5.86
  -2   0   5  255.02    5.67
   1   0  -5   79.76    2.31
   1   0  -5   78.22    2.30
   1   0  -5   76.76    1.57
   1   0  -5   76.87    2.28
   1   0  -5   79.72    1.96
   1   0  -5   79.87    2.11
  -1   0   5   78.29    2.30
  -1   0   5   76.83    2.28
  -1   0   5   77.61    1.94
  -1   0   5   77.51    2.29
   0   0  -5    0.98    0.45
   0   0  -5    0.72    0.45
   0   0  -5    0.63    0.35
   0   0  -5    1.60    0.52
   0   0   5    0.62    0.41
   0   0   5    0.55    0.45
   0   0   5    0.07    0.29
   0   0   5    0.23    0.40
  -1   0  -5  164.01    3.78
  -1   0  -5  158.35    3.73
  -1   0  -5  156.57    3.27
  -1   0  -5  162.84    3.78
  -1   0  -5  160.06    3.87
  -1   0  -5  155.05    3.70
   1   0   5  158.08    3.81
   1   0   5  159.54    3.90
   1   0   5  158.06    3.75
   1   0   5  154.93    3.23
   1   0   5  161.47    3.71
  -2   0  -5  152.00    3.65
  -2   0  -5  161.98    3.82
  -2   0  -5  156.53    3.87
  -2   0  -5  161.21    3.87
  -2   0  -5  159.57    3.51
  -2   0  -5  156.47    3.75
   2   0   5  156.56    3.86
   2   0   5  157.02    3.91
   2   0   5  158.32    3.64
   2   0   5  158.68    3.72
   2   0   5  158.31    3.46
  -3   0  -5   32.22    1.36
  -3   0  -5   32.62    1.40
  -3   0  -5   34.05    1.27
  -3   0  -5   32.75    1.38
  -3   0  -5   30.95    1.19
  -3   0  -5   33.96    1.42
  -3   0  -5   32.34    1.33
   3   0   5   33.46    1.46
   3   0   5   33.04    1.19
   3   0   5   30.26    1.17
   3   0   5   31.49    1.39
   3   0   5   32.99    1.30
  -4   0  -5    7.77    0.84
  -4   0  -5    7.12    0.91
  -4   0  -5    6.30    0.64
  -4   0  -5    5.72    0.90
  -4   0  -5    6.54    0.89
  -4   0  -5    6.55    0.81
   4   0   5    5.69    0.72
   4   0   5    6.75    0.63
   4   0   5    7.17    0.71
   4   0   5    6.66    1.00
   4   0   5    5.61    0.69
  -5   0  -5   47.42    1.89
  -5   0  -5   45.02    2.00
  -5   0  -5   48.08    1.84
  -5   0  -5   46.85    1.63
   5   0   5   47.33    2.01
   5   0   5   48.49    1.84
   5   0   5   51.69    1.95
   5   0   5   48.18    1.61
  -6   0  -5   -1.48    0.66
  -6   0  -5    0.15    0.67
  -6   0  -5    1.09    0.56
  -6   0  -5    0.57    0.68
   6   0   5    0.18    0.56
   6   0   5    0.91    0.67
   6   0   5    1.36    0.63
   6   0   5    0.01    0.63
  -7   0  -5    0.04    0.62
  -7   0  -5    0.15    0.72
  -7   0  -5   -0.29    0.82
  -7   0  -5    0.02    0.94
   7   0   5   -0.93    0.70
   7   0   5   -0.64    0.77
   7   0   5    0.35    0.80
  -8   0  -5    4.58    1.00
  -8   0  -5    4.59    1.19
   8   0   5    4.02    1.14
   8   0   5    4.02    1.11
   8   0   5    4.45    1.13
  -9   0  -5   11.21    1.32
  -9   0  -5    8.90    1.63
  -9   0  -5    9.63    1.26
  -9   0  -5    8.02    1.55
   9   0   5   10.02    1.64
   9   0   5    9.24    1.55
 -10   0  -5    2.68    1.10
 -10   0  -5    0.44    1.20
 -10   0  -5   -0.86    1.16
 -10   0  -5    1.16    1.07
  10   0   5    1.31    1.36
  10   0   5    0.32    1.15
 -11   0  -5   18.31    2.32
 -11   0  -5   15.05    1.92
 -11   0  -5   13.91    2.17
  11   0   5   12.03    1.95
  11   0   5   14.68    2.26
   9  -1  -5   24.50    2.20
   9  -1  -5   28.59    2.43
  -9   1   5   31.35    2.20
  -9   1   5   23.70    2.06
  -9   1   5   26.66    2.62
   8  -1  -5   13.83    1.70
   8  -1  -5   15.32    1.94
  -8   1   5   11.00    1.46
  -8   1   5   14.62    1.67
  -8   1   5   11.73    1.89
   7  -1  -5    0.88    1.05
   7  -1  -5    1.64    0.90
  -7   1   5   -0.80    0.79
  -7   1   5   -1.49    0.70
  -7   1   5    1.19    0.80
   6  -1  -5    6.99    1.33
   6  -1  -5    8.49    1.14
  -6   1   5    6.95    1.00
  -6   1   5    8.00    1.14
  -6   1   5    7.15    1.24
   5  -1  -5   66.66    2.54
   5  -1  -5   66.11    2.28
  -5   1   5   67.14    2.28
  -5   1   5   63.97    2.56
  -5   1   5   68.78    2.45
  -5   1   5   65.05    2.66
   4  -1  -5   28.19    1.52
   4  -1  -5   23.70    1.55
   4  -1  -5   26.16    1.23
  -4   1   5   28.38    1.63
  -4   1   5   22.84    1.59
  -4   1   5   28.19    1.44
  -4   1   5   26.50    1.27
   3  -1  -5    0.00    0.55
   3  -1  -5   -0.12    0.63
   3  -1  -5    0.38    0.36
   3  -1  -5    0.05    0.47
  -3   1   5    0.04    0.20
  -3   1   5    1.18    0.49
  -3   1   5   -0.01    0.38
  -3   1   5    0.20    0.42
  -3   1   5   -0.56    0.49
  -3   1   5    0.27    0.19
   2  -1  -5    6.21    0.75
   2  -1  -5    7.08    0.66
   2  -1  -5    7.43    0.88
   2  -1  -5    6.97    0.50
   2  -1  -5    7.53    0.79
  -2   1   5    6.85    0.61
  -2   1   5    6.66    0.78
  -2   1   5    7.31    0.58
  -2   1   5    6.36    0.46
  -2   1   5    6.32    0.76
   1  -1  -5   34.10    1.20
   1  -1  -5   33.60    1.37
   1  -1  -5   33.49    1.39
   1  -1  -5   33.04    0.87
   1  -1  -5   35.69    1.43
   1  -1  -5   33.47    1.11
  -1   1   5   33.22    0.93
  -1   1   5   32.50    1.39
  -1   1   5   33.16    1.39
  -1   1   5   33.17    1.09
  -1   1   5   33.42    1.42
   0  -1  -5   27.09    0.99
   0  -1  -5   27.04    1.24
   0  -1  -5   27.20    1.21
   0  -1  -5   25.05    1.13
   0  -1  -5   26.23    1.04
   0   1   5   26.73    1.15
   0   1   5   27.29    0.64
   0   1   5   26.82    1.20
   0   1   5   25.73    1.17
   0   1   5   27.55    1.06
  -1  -1  -5    0.36    0.44
  -1  -1  -5   -0.09    0.32
  -1  -1  -5    0.73    0.42
  -1  -1  -5    0.08    0.33
  -1  -1  -5    0.70    0.41
   1   1   5    0.20    0.12
   1   1   5    0.29    0.42
   1   1   5    0.40    0.35
   1   1   5   -0.22    0.30
   1   1   5    0.11    0.36
   1   1   5    0.20    0.15
  -2  -1  -5   29.86    1.20
  -2  -1  -5   30.02    0.99
  -2  -1  -5   30.07    1.22
  -2  -1  -5   27.57    1.27
  -2  -1  -5   30.66    1.22
  -2  -1  -5   32.21    1.18
   2   1   5   31.11    1.30
   2   1   5   30.30    1.22
   2   1   5   29.67    0.97
   2   1   5   29.79    1.17
   2   1   5   29.27    1.28
   2   1   5   30.81    1.14
  -3  -1  -5   28.47    1.22
  -3  -1  -5   26.35    1.15
  -3  -1  -5   26.58    1.07
  -3  -1  -5   27.41    1.27
  -3  -1  -5   27.63    1.14
  -3  -1  -5   26.20    1.15
   3   1   5   28.27    1.16
   3   1   5   26.48    1.24
   3   1   5   25.40    1.17
   3   1   5   25.82    1.20
   3   1   5   25.33    1.04
  -4  -1  -5   12.52    0.95
  -4  -1  -5   13.51    0.87
  -4  -1  -5   13.48    0.88
  -4  -1  -5   14.10    0.96
  -4  -1  -5   14.21    1.02
  -4  -1  -5   14.80    0.93
   4   1   5   13.91    1.05
   4   1   5   14.24    1.02
   4   1   5   15.40    0.96
   4   1   5   13.59    0.88
   4   1   5   13.51    0.93
  -5  -1  -5   35.27    1.46
  -5  -1  -5   37.37    1.61
  -5  -1  -5   36.30    1.46
  -5  -1  -5   35.49    1.70
  -5  -1  -5   32.70    1.63
  -5  -1  -5   33.65    1.50
   5   1   5   40.31    1.83
   5   1   5   36.29    1.45
   5   1   5   37.85    1.57
   5   1   5   36.30    1.71
   5   1   5   37.03    1.49
  -6  -1  -5    9.17    0.89
  -6  -1  -5   10.78    1.03
  -6  -1  -5    9.12    0.93
   6   1   5    9.30    0.95
   6   1   5    8.92    1.10
   6   1   5    9.73    0.92
   6   1   5    8.51    0.84
  -7  -1  -5   13.60    1.28
  -7  -1  -5   14.53    1.29
  -7  -1  -5   13.56    1.21
   7   1   5   14.83    1.22
   7   1   5   14.26    1.31
   7   1   5   11.33    1.29
  -8  -1  -5   -0.83    0.75
  -8  -1  -5    1.30    0.89
  -8  -1  -5    0.12    0.58
  -8  -1  -5   -0.09    0.79
   8   1   5   -0.95    0.80
   8   1   5   -0.97    0.71
  -9  -1  -5   14.72    1.51
  -9  -1  -5   15.04    1.65
  -9  -1  -5   14.54    1.41
  -9  -1  -5   15.82    1.34
  -9  -1  -5   15.53    1.61
   9   1   5   15.73    1.63
   9   1   5   14.68    1.75
 -10  -1  -5   30.10    2.19
 -10  -1  -5   26.80    1.93
 -10  -1  -5   30.78    2.16
  10   1   5   25.26    2.31
  10   1   5   31.34    2.40
 -11  -1  -5   -1.37    1.22
 -11  -1  -5   -0.30    1.44
 -11  -1  -5    1.46    1.37
  11   1   5    1.57    1.57
  11   1   5   -0.14    1.39
   9  -2  -5   -0.49    1.60
   9  -2  -5    0.76    1.51
  -9   2   5   -0.73    1.44
  -9   2   5   -0.23    1.39
  -9   2   5    1.14    1.31
   8  -2  -5    2.61    1.30
   8  -2  -5    0.97    1.37
  -8   2   5    1.36    1.20
  -8   2   5    2.78    1.25
  -8   2   5    2.06    1.12
   7  -2  -5    0.87    1.02
   7  -2  -5    0.82    0.92
  -7   2   5    0.93    1.03
  -7   2   5    0.23    1.11
  -7   2   5    1.19    0.97
   6  -2  -5    5.34    1.21
   6  -2  -5    4.40    1.01
  -6   2   5    3.94    1.00
  -6   2   5    4.33    0.49
  -6   2   5    4.14    0.93
  -6   2   5    4.17    1.04
   5  -2  -5   16.64    1.39
   5  -2  -5   17.10    1.24
  -5   2   5   16.05    1.16
  -5   2   5   19.08    1.42
  -5   2   5   17.97    1.42
  -5   2   5   18.56    0.82
  -5   2   5   17.65    0.79
   4  -2  -5   88.64    2.86
  -4   2   5   85.56    2.88
  -4   2   5   85.69    2.55
  -4   2   5   90.06    2.13
  -4   2   5   88.71    2.17
  -4   2   5   87.66    3.07
  -4   2   5   83.46    2.74
   3  -2  -5    2.82    0.98
   3  -2  -5    1.89    0.48
   3  -2  -5    2.47    0.64
   3  -2  -5    3.11    0.77
  -3   2   5    3.27    0.70
  -3   2   5    3.44    0.78
  -3   2   5    3.27    0.77
  -3   2   5    2.68    0.46
  -3   2   5    3.01    0.58
  -3   2   5    3.19    0.44
   2  -2  -5  302.77    6.89
   2  -2  -5  310.38    6.40
   2  -2  -5  295.84    6.76
   2  -2  -5  291.79    6.85
   2  -2  -5  301.61    6.23
  -2   2   5  293.12    6.75
  -2   2   5  301.86    6.39
  -2   2   5  261.15    7.06
  -2   2   5  307.81    6.27
  -2   2   5  294.30    7.26
  -2   2   5  310.86    6.36
   1  -2  -5  152.63    3.44
   1  -2  -5  151.33    3.46
   1  -2  -5  150.24    3.80
   1  -2  -5  147.43    3.74
   1  -2  -5  151.52    3.89
   1  -2  -5  146.92    3.22
  -1   2   5  143.92    3.75
  -1   2   5  148.82    3.78
  -1   2   5  145.69    3.46
  -1   2   5  152.09    3.31
  -1   2   5  142.74    3.82
   0  -2  -5    2.13    0.27
   0  -2  -5    2.84    0.50
   0  -2  -5    1.36    0.44
   0  -2  -5    2.20    0.60
   0  -2  -5    2.86    0.46
   0  -2  -5    1.41    0.59
   0   2   5    2.35    0.30
   0   2   5    1.47    0.48
   0   2   5    1.66    0.47
   0   2   5    2.23    0.48
   0   2   5    2.72    0.65
  -1  -2  -5  105.53    2.82
  -1  -2  -5  109.49    2.69
  -1  -2  -5  106.29    2.91
  -1  -2  -5  106.62    2.64
  -1  -2  -5  109.91    2.82
   1   2   5  107.16    2.81
   1   2   5  103.89    2.38
   1   2   5  107.18    2.71
   1   2   5  107.92    2.83
   1   2   5  104.44    2.91
  -2  -2  -5   80.54    2.19
  -2  -2  -5   82.61    2.40
  -2  -2  -5   80.02    2.30
  -2  -2  -5   84.39    2.13
  -2  -2  -5   80.32    2.34
   2   2   5   76.98    2.35
   2   2   5   80.35    2.14
   2   2   5   80.83    2.05
   2   2   5   79.39    2.35
   2   2   5   81.33    2.32
   2   2   5   81.81    2.16
  -3  -2  -5  252.69    5.82
  -3  -2  -5  263.01    5.95
  -3  -2  -5  271.31    5.81
  -3  -2  -5  261.06    5.74
  -3  -2  -5  263.21    5.55
   3   2   5  255.70    5.63
   3   2   5  257.00    5.77
   3   2   5  257.12    5.82
   3   2   5  255.31    5.93
   3   2   5  260.71    5.69
  -4  -2  -5  129.30    3.45
  -4  -2  -5  132.69    3.31
  -4  -2  -5  132.94    3.42
  -4  -2  -5  133.07    3.44
  -4  -2  -5  136.00    3.23
  -4  -2  -5  135.92    3.35
  -4  -2  -5  131.85    3.59
   4   2   5  137.51    3.66
   4   2   5  131.64    3.38
   4   2   5  133.90    3.39
   4   2   5  133.67    3.42
   4   2   5  136.39    3.44
  -5  -2  -5   24.32    1.12
  -5  -2  -5   22.53    1.13
  -5  -2  -5   24.37    1.22
  -5  -2  -5   21.64    1.49
  -5  -2  -5   23.08    1.22
  -5  -2  -5   22.59    1.33
   5   2   5   24.72    1.26
   5   2   5   22.04    1.35
   5   2   5   21.71    1.25
   5   2   5   24.46    1.15
   5   2   5   24.50    1.27
  -6  -2  -5   49.55    1.71
  -6  -2  -5   49.19    1.98
  -6  -2  -5   49.96    1.89
   6   2   5   47.99    1.73
   6   2   5   50.49    2.14
   6   2   5   49.68    1.93
   6   2   5   49.27    2.04
  -7  -2  -5    5.33    0.94
  -7  -2  -5    6.28    1.08
  -7  -2  -5    6.51    0.82
   7   2   5    5.76    0.77
   7   2   5    5.39    0.97
   7   2   5    5.90    0.96
  -8  -2  -5   24.12    1.60
  -8  -2  -5   25.68    1.69
  -8  -2  -5   27.43    1.62
  -8  -2  -5   25.82    1.39
   8   2   5   27.80    1.84
   8   2   5   26.97    1.86
  -9  -2  -5   18.39    1.67
  -9  -2  -5   17.07    1.36
  -9  -2  -5   20.68    1.55
  -9  -2  -5   18.84    1.59
   9   2   5   20.22    1.78
   9   2   5   23.08    1.71
 -10  -2  -5    4.78    1.29
 -10  -2  -5    5.44    0.91
 -10  -2  -5    4.37    1.26
 -10  -2  -5    5.81    1.38
  10   2   5    5.53    1.38
  10   2   5    3.77    1.42
 -11  -2  -5   -0.27    1.16
 -11  -2  -5   -0.61    1.22
 -11  -2  -5    3.22    1.37
 -11  -2  -5   -0.74    0.71
  11   2   5    1.93    1.35
  11   2   5   -0.59    1.40
 -12  -2  -5    2.85    1.63
 -12  -2  -5    1.96    1.23
 -12  -2  -5    1.52    1.60
  12   2   5    0.59    1.59
  12   2   5    0.13    1.71
   8  -3  -5    5.72    1.57
   8  -3  -5    6.06    1.72
  -8   3   5    7.87    1.45
  -8   3   5    5.72    1.76
  -8   3   5    6.75    1.57
   7  -3  -5    1.65    1.20
   7  -3  -5    1.88    1.10
  -7   3   5    2.10    1.15
  -7   3   5    1.43    1.39
  -7   3   5    2.04    0.68
  -7   3   5    1.84    1.01
   6  -3  -5   -0.13    0.79
   6  -3  -5    0.19    0.98
  -6   3   5    0.57    1.08
  -6   3   5   -0.06    0.81
  -6   3   5    0.67    0.95
  -6   3   5    0.05    0.58
  -6   3   5   -1.44    0.82
   5  -3  -5    5.50    1.00
   5  -3  -5    5.86    1.15
  -5   3   5    6.76    0.81
  -5   3   5    7.22    1.05
  -5   3   5    6.81    1.18
  -5   3   5    5.37    1.24
  -5   3   5    6.79    0.88
   4  -3  -5   27.03    1.46
   4  -3  -5   29.22    1.60
  -4   3   5   28.48    1.74
  -4   3   5   29.62    1.84
  -4   3   5   28.28    1.27
  -4   3   5   28.72    1.26
  -4   3   5   29.40    1.34
   3  -3  -5  104.36    2.87
   3  -3  -5  105.59    2.92
   3  -3  -5  108.45    3.18
  -3   3   5  106.41    3.36
  -3   3   5  109.66    2.83
  -3   3   5  106.07    3.13
  -3   3   5  111.06    3.43
  -3   3   5  108.68    2.84
  -3   3   5  108.12    2.73
   2  -3  -5    0.86    0.42
   2  -3  -5    0.43    0.61
   2  -3  -5    0.91    0.51
  -2   3   5    0.73    0.62
  -2   3   5    0.78    0.79
  -2   3   5    0.67    0.43
  -2   3   5    0.60    0.50
  -2   3   5   -0.10    0.57
  -2   3   5    0.53    0.43
  -2   3   5    0.18    0.37
   1  -3  -5   47.19    1.86
   1  -3  -5   46.72    1.43
   1  -3  -5   48.32    1.79
   1  -3  -5   50.25    1.47
   1  -3  -5   45.42    1.89
  -1   3   5   48.63    1.56
  -1   3   5   47.39    1.62
  -1   3   5   47.06    1.81
  -1   3   5   46.33    1.86
  -1   3   5   45.87    1.77
   0  -3  -5   27.11    1.27
   0  -3  -5   25.87    0.92
   0  -3  -5   28.00    1.44
   0  -3  -5   27.82    0.99
   0  -3  -5   26.64    1.21
   0  -3  -5   26.02    1.01
   0  -3  -5   25.90    1.26
   0   3   5   26.52    1.19
   0   3   5   25.20    1.28
   0   3   5   24.77    1.27
   0   3   5   27.95    1.22
   0   3   5   26.53    0.99
  -1  -3  -5   16.09    1.02
  -1  -3  -5   15.83    0.89
  -1  -3  -5   16.25    1.02
  -1  -3  -5   14.94    0.78
  -1  -3  -5   15.93    1.09
  -1  -3  -5   15.19    0.67
   1   3   5   15.66    0.68
   1   3   5   14.10    1.02
   1   3   5   16.30    0.87
   1   3   5   16.67    0.99
   1   3   5   14.68    1.02
  -2  -3  -5    3.83    0.48
  -2  -3  -5    2.31    0.65
  -2  -3  -5    3.64    0.73
  -2  -3  -5    2.91    0.69
  -2  -3  -5    4.09    0.55
   2   3   5    4.28    0.56
   2   3   5    3.81    0.66
   2   3   5    3.26    0.66
   2   3   5    3.02    0.46
   2   3   5    2.86    0.59
   2   3   5    2.85    0.38
  -3  -3  -5  194.16    4.76
  -3  -3  -5  191.12    4.44
  -3  -3  -5  201.70    4.22
  -3  -3  -5  191.05    4.68
  -3  -3  -5  198.93    4.63
   3   3   5  196.11    4.51
   3   3   5  193.98    4.25
   3   3   5  196.06    4.64
   3   3   5  191.06    4.59
   3   3   5  199.25    4.44
   3   3   5  195.92    4.81
  -4  -3  -5   14.10    1.20
  -4  -3  -5   15.78    1.09
  -4  -3  -5   17.11    0.97
  -4  -3  -5   16.35    0.83
  -4  -3  -5   16.33    0.76
  -4  -3  -5   16.30    0.96
   4   3   5   16.65    1.14
   4   3   5   16.50    0.95
   4   3   5   16.78    0.92
   4   3   5   16.34    0.99
   4   3   5   17.58    1.02
  -5  -3  -5   46.14    1.59
  -5  -3  -5   42.59    1.83
  -5  -3  -5   42.87    2.03
  -5  -3  -5   46.61    1.47
  -5  -3  -5   45.35    1.50
   5   3   5   43.85    1.90
   5   3   5   44.94    1.62
   5   3   5   45.03    1.76
   5   3   5   43.40    1.75
   5   3   5   45.94    1.76
  -6  -3  -5   44.89    1.92
  -6  -3  -5   48.82    1.63
  -6  -3  -5   48.24    1.66
  -6  -3  -5   45.84    1.88
   6   3   5   49.07    2.03
   6   3   5   43.63    1.96
   6   3   5   46.66    1.64
  -7  -3  -5    8.95    1.21
  -7  -3  -5    8.74    0.96
  -7  -3  -5    8.89    0.86
  -7  -3  -5    8.36    1.13
   7   3   5    8.41    0.82
   7   3   5    8.51    1.16
   7   3   5    9.53    1.28
  -8  -3  -5    9.91    0.91
  -8  -3  -5   11.81    1.22
  -8  -3  -5    9.27    1.19
  -8  -3  -5    9.56    1.05
   8   3   5    9.81    0.87
   8   3   5   12.70    1.45
   8   3   5    9.43    1.37
  -9  -3  -5   50.07    1.68
  -9  -3  -5   50.75    2.21
  -9  -3  -5   48.17    2.28
  -9  -3  -5   48.12    2.31
   9   3   5   51.14    2.61
   9   3   5   50.11    2.47
 -10  -3  -5    8.71    0.89
 -10  -3  -5   10.74    1.61
 -10  -3  -5    9.85    0.99
 -10  -3  -5    9.39    1.55
 -10  -3  -5    8.30    1.37
  10   3   5    9.55    1.59
  10   3   5    8.04    1.43
 -11  -3  -5    4.58    1.41
 -11  -3  -5    3.25    1.31
 -11  -3  -5    4.14    1.32
  11   3   5    3.56    1.51
  11   3   5    5.28    1.53
 -12  -3  -5   -0.08    1.37
 -12  -3  -5   -0.24    1.05
 -12  -3  -5    2.22    1.47
  12   3   5   -0.33    1.20
  12   3   5    1.40    1.67
   8  -4  -5    7.50    1.85
   8  -4  -5    6.96    1.68
  -8   4   5    5.28    1.67
  -8   4   5    5.06    1.57
  -8   4   5    8.06    2.16
   7  -4  -5    0.33    1.22
   7  -4  -5   -0.19    1.12
  -7   4   5   -0.96    1.56
  -7   4   5    0.02    0.97
  -7   4   5    0.41    1.29
  -7   4   5    0.26    1.00
   6  -4  -5   -0.45    0.89
   6  -4  -5    1.04    1.13
  -6   4   5    0.41    1.24
  -6   4   5    0.27    0.90
  -6   4   5    1.04    1.11
  -6   4   5    0.80    0.83
   5  -4  -5    0.52    0.96
   5  -4  -5   -0.08    0.79
  -5   4   5    0.90    1.04
  -5   4   5    1.05    0.81
  -5   4   5    3.50    1.05
  -5   4   5    0.85    0.77
  -5   4   5    0.74    1.01
   4  -4  -5   19.77    1.38
   4  -4  -5   21.85    1.69
   4  -4  -5   17.72    1.40
  -4   4   5   17.58    1.64
  -4   4   5   15.81    1.41
  -4   4   5   17.96    1.27
  -4   4   5   18.55    1.15
  -4   4   5   19.07    1.40
   3  -4  -5    9.31    1.20
   3  -4  -5    8.83    0.98
   3  -4  -5    7.16    0.87
  -3   4   5    9.73    1.03
  -3   4   5    7.95    1.24
  -3   4   5    8.20    1.14
  -3   4   5    8.44    0.93
  -3   4   5    6.61    0.75
   2  -4  -5  119.73    2.94
   2  -4  -5  118.63    3.35
  -2   4   5  115.10    3.49
  -2   4   5  117.12    3.09
  -2   4   5  114.50    3.30
  -2   4   5  119.59    3.65
  -2   4   5  116.93    3.23
   1  -4  -5    0.00    0.34
   1  -4  -5    0.96    0.62
   1  -4  -5   -0.80    0.75
   1  -4  -5    0.03    0.34
  -1   4   5   -0.29    0.43
  -1   4   5    0.79    0.61
  -1   4   5    0.92    0.66
  -1   4   5   -0.07    0.48
  -1   4   5    1.38    0.77
   0  -4  -5   23.00    0.91
   0  -4  -5   23.70    1.01
   0  -4  -5   24.96    0.89
   0  -4  -5   22.35    1.23
   0  -4  -5   23.82    1.27
   0   4   5   21.32    1.29
   0   4   5   22.36    1.23
   0   4   5   26.30    1.47
   0   4   5   23.79    1.10
   0   4   5   23.35    1.21
  -1  -4  -5    4.38    0.78
  -1  -4  -5    4.31    0.64
  -1  -4  -5    4.33    0.50
  -1  -4  -5    4.42    0.49
  -1  -4  -5    4.86    0.85
  -1  -4  -5    3.98    0.86
  -1  -4  -5    4.15    0.53
   1   4   5    4.09    0.70
   1   4   5    3.58    0.56
   1   4   5    4.58    0.81
   1   4   5    3.48    0.51
  -2  -4  -5    7.25    0.83
  -2  -4  -5    7.77    0.98
  -2  -4  -5    8.61    1.00
  -2  -4  -5    6.62    0.60
  -2  -4  -5    7.65    0.60
   2   4   5    6.98    0.57
   2   4   5    7.51    0.83
   2   4   5    7.97    0.91
   2   4   5    6.94    0.74
   2   4   5    7.00    0.57
  -3  -4  -5    2.98    0.39
  -3  -4  -5    2.01    0.65
  -3  -4  -5    2.59    0.70
  -3  -4  -5    3.03    0.67
  -3  -4  -5    2.33    0.49
   3   4   5    2.14    0.47
   3   4   5    2.30    0.76
   3   4   5    1.91    0.56
   3   4   5    2.24    0.56
   3   4   5    1.94    0.53
   3   4   5    2.26    0.35
  -4  -4  -5   20.86    1.16
  -4  -4  -5   21.46    1.45
  -4  -4  -5   20.63    1.04
  -4  -4  -5   19.63    1.27
   4   4   5   22.14    1.14
   4   4   5   22.26    1.29
   4   4   5   21.66    1.35
   4   4   5   20.37    1.17
   4   4   5   23.83    1.14
  -5  -4  -5    1.36    0.32
  -5  -4  -5    0.99    0.55
  -5  -4  -5    1.47    0.58
  -5  -4  -5    0.68    0.49
  -5  -4  -5    1.29    0.35
   5   4   5    0.59    0.69
   5   4   5    0.48    0.59
   5   4   5    1.06    0.56
   5   4   5    1.45    0.50
  -6  -4  -5   -0.46    0.48
  -6  -4  -5    0.12    0.39
  -6  -4  -5    0.62    0.59
  -6  -4  -5   -0.32    0.34
  -6  -4  -5   -0.16    0.63
   6   4   5    0.18    0.49
   6   4   5    0.21    0.42
   6   4   5    0.17    0.47
  -7  -4  -5   13.58    1.08
  -7  -4  -5   13.74    1.28
  -7  -4  -5   15.39    0.94
  -7  -4  -5   15.26    0.99
   7   4   5   15.03    1.36
   7   4   5   16.08    1.27
   7   4   5   14.46    0.93
  -8  -4  -5   36.94    1.55
  -8  -4  -5   37.64    1.98
  -8  -4  -5   35.96    1.36
  -8  -4  -5   36.63    1.82
   8   4   5   37.50    2.12
   8   4   5   35.24    2.01
   8   4   5   33.86    1.35
  -9  -4  -5    5.89    0.69
  -9  -4  -5    6.48    1.13
  -9  -4  -5    4.92    0.97
  -9  -4  -5    7.03    1.31
   9   4   5    4.09    1.23
   9   4   5    4.77    1.27
 -10  -4  -5    3.18    0.40
 -10  -4  -5    3.52    0.95
 -10  -4  -5    5.78    1.32
 -10  -4  -5    3.65    1.25
  10   4   5    3.49    1.33
  10   4   5    3.01    1.29
 -11  -4  -5    0.35    1.00
 -11  -4  -5    1.74    0.91
 -11  -4  -5    0.52    1.20
  11   4   5    1.16    1.36
  11   4   5    3.19    1.43
 -12  -4  -5    3.46    1.35
 -12  -4  -5    4.71    1.62
 -12  -4  -5    5.42    1.66
  12   4   5    2.13    1.70
  12   4   5    2.38    1.56
   7  -5  -5   13.53    1.82
   7  -5  -5   13.70    1.92
  -7   5   5   12.75    1.69
  -7   5   5   14.84    2.19
  -7   5   5   12.82    2.63
  -7   5   5   12.55    2.61
   6  -5  -5    1.10    1.22
   6  -5  -5    1.15    1.06
  -6   5   5    0.46    0.97
  -6   5   5   -0.32    1.28
  -6   5   5    1.05    1.38
  -6   5   5    2.30    1.05
   5  -5  -5    2.18    0.94
   5  -5  -5    0.26    0.96
  -5   5   5    1.39    0.84
  -5   5   5    1.08    1.14
  -5   5   5    0.99    0.93
  -5   5   5    3.91    1.40
   4  -5  -5   40.18    1.97
   4  -5  -5   38.65    1.89
   4  -5  -5   34.36    1.90
  -4   5   5   37.99    1.88
  -4   5   5   36.18    2.14
  -4   5   5   39.15    1.74
  -4   5   5   37.43    2.18
   3  -5  -5    0.26    0.63
   3  -5  -5    0.09    0.77
   3  -5  -5   -1.04    0.64
  -3   5   5    1.25    0.78
  -3   5   5   -0.20    0.85
  -3   5   5    0.14    0.84
   2  -5  -5   11.38    1.12
   2  -5  -5   12.72    1.08
   2  -5  -5   12.41    0.89
  -2   5   5   11.61    1.28
  -2   5   5   12.97    1.16
  -2   5   5   10.73    1.18
  -2   5   5   12.31    1.36
   1  -5  -5   25.55    1.24
   1  -5  -5   24.51    1.41
   1  -5  -5   25.61    0.99
  -1   5   5   26.49    1.51
  -1   5   5   23.46    1.40
  -1   5   5   26.99    1.70
  -1   5   5   23.22    1.39
  -1   5   5   25.10    1.56
   0  -5  -5   -0.79    0.36
   0  -5  -5    0.57    0.30
   0  -5  -5   -0.27    0.52
   0  -5  -5    0.36    0.70
   0  -5  -5   -0.29    0.32
   0   5   5   -0.20    0.61
   0   5   5   -0.21    0.45
   0   5   5   -0.06    0.62
   0   5   5   -1.08    0.78
   0   5   5   -0.11    0.58
  -1  -5  -5   14.38    0.70
  -1  -5  -5   13.51    1.05
  -1  -5  -5   14.04    1.07
  -1  -5  -5   13.59    0.83
  -1  -5  -5   14.59    0.62
   1   5   5   13.74    1.11
   1   5   5   13.02    1.06
   1   5   5   12.55    1.02
   1   5   5   12.78    0.87
   1   5   5   13.88    1.21
  -2  -5  -5    2.03    0.48
  -2  -5  -5    1.28    0.37
  -2  -5  -5    1.44    0.66
  -2  -5  -5    1.22    0.84
  -2  -5  -5    2.80    0.51
  -2  -5  -5    1.71    0.92
   2   5   5    0.85    0.48
   2   5   5    1.34    0.84
   2   5   5    1.70    0.43
   2   5   5    1.48    0.52
   2   5   5    0.68    0.60
  -3  -5  -5   68.07    2.81
  -3  -5  -5   69.65    1.93
  -3  -5  -5   67.97    2.36
  -3  -5  -5   67.50    2.41
  -3  -5  -5   71.37    1.80
   3   5   5   71.72    1.79
   3   5   5   70.62    2.04
   3   5   5   67.15    2.45
   3   5   5   70.67    1.94
   3   5   5   74.23    2.74
  -4  -5  -5  240.56    4.88
  -4  -5  -5  240.79    5.41
  -4  -5  -5  243.89    5.75
  -4  -5  -5  243.77    5.96
   4   5   5  240.61    5.45
   4   5   5  244.32    5.74
   4   5   5  250.36    6.12
   4   5   5  245.07    5.41
   4   5   5  248.56    5.87
  -5  -5  -5    1.08    0.48
  -5  -5  -5    1.11    0.15
  -5  -5  -5    1.30    0.73
  -5  -5  -5    0.79    0.16
  -5  -5  -5    0.31    0.58
   5   5   5    2.29    0.71
   5   5   5    0.92    0.50
   5   5   5    0.93    0.66
   5   5   5    1.62    0.79
  -6  -5  -5   13.69    0.51
  -6  -5  -5   13.95    0.51
  -6  -5  -5   14.06    1.08
  -6  -5  -5   14.03    1.08
  -6  -5  -5   14.41    1.18
   6   5   5   14.68    1.36
   6   5   5   13.94    0.98
   6   5   5   12.10    1.22
  -7  -5  -5   15.69    1.42
  -7  -5  -5   16.63    0.78
  -7  -5  -5   17.37    1.11
  -7  -5  -5   16.31    0.74
  -7  -5  -5   16.00    1.24
   7   5   5   15.48    1.01
   7   5   5   14.50    1.44
   7   5   5   16.56    1.32
  -8  -5  -5    3.30    0.65
  -8  -5  -5    1.84    0.91
  -8  -5  -5    2.78    1.00
  -8  -5  -5    3.26    0.57
   8   5   5    2.75    1.02
   8   5   5    3.18    1.03
   8   5   5    3.14    0.60
  -9  -5  -5    0.00    0.58
  -9  -5  -5    0.39    0.95
  -9  -5  -5    0.64    0.88
  -9  -5  -5    0.31    0.48
   9   5   5   -0.72    0.83
   9   5   5   -0.78    0.93
   9   5   5   -0.69    0.43
 -10  -5  -5   -1.35    1.03
 -10  -5  -5   -0.69    1.00
  10   5   5    1.17    1.14
  10   5   5   -0.92    1.03
 -11  -5  -5   10.23    1.66
 -11  -5  -5   11.91    1.84
 -11  -5  -5    8.44    1.22
  11   5   5    8.53    1.72
  11   5   5    9.49    1.90
 -12  -5  -5    0.37    1.45
 -12  -5  -5    0.48    1.05
 -12  -5  -5   -1.11    1.10
  12   5   5    1.18    1.55
  12   5   5    0.18    1.63
   6  -6  -5   -0.91    1.23
   6  -6  -5    0.92    1.32
  -6   6   5    0.22    1.53
  -6   6   5    0.54    1.31
  -6   6   5    2.91    1.71
  -6   6   5    0.46    1.09
   5  -6  -5    0.70    1.13
   5  -6  -5   -0.51    1.01
  -5   6   5    0.07    0.87
  -5   6   5    0.26    1.17
  -5   6   5   -0.20    1.33
  -5   6   5   -0.59    1.22
   4  -6  -5   -0.24    0.82
   4  -6  -5    2.58    1.06
  -4   6   5    0.18    1.25
  -4   6   5   -0.68    1.02
  -4   6   5    1.50    1.13
   3  -6  -5   12.02    1.33
   3  -6  -5   12.10    1.26
   3  -6  -5   12.43    1.13
  -3   6   5   12.00    1.48
  -3   6   5   12.86    1.78
  -3   6   5   14.21    1.66
   2  -6  -5   -0.14    0.61
   2  -6  -5    0.27    0.80
   2  -6  -5    0.51    0.54
  -2   6   5    0.54    0.84
  -2   6   5   -2.43    0.82
  -2   6   5   -0.58    0.78
   1  -6  -5    6.13    0.54
   1  -6  -5    6.62    0.94
   1  -6  -5    8.33    1.10
   1  -6  -5    7.08    0.59
  -1   6   5    9.32    1.19
  -1   6   5    6.51    1.22
  -1   6   5    8.90    1.20
   0  -6  -5  159.68    4.06
   0  -6  -5  159.28    3.36
   0  -6  -5  164.40    4.30
   0   6   5  159.15    4.48
   0   6   5  161.82    4.26
   0   6   5  157.84    4.69
  -1  -6  -5    9.93    0.85
  -1  -6  -5    8.77    1.03
  -1  -6  -5    9.40    0.49
  -1  -6  -5   10.06    1.13
   1   6   5    9.37    0.91
   1   6   5   10.48    1.31
   1   6   5    8.57    1.18
  -2  -6  -5    1.26    0.70
  -2  -6  -5    2.44    0.38
  -2  -6  -5    2.34    0.58
  -2  -6  -5    1.92    0.64
   2   6   5    1.63    0.76
   2   6   5    1.47    0.46
   2   6   5    2.69    0.73
   2   6   5    2.07    0.77
  -3  -6  -5   -0.04    0.65
  -3  -6  -5   -0.34    0.37
  -3  -6  -5    0.12    0.34
   3   6   5    0.06    0.63
   3   6   5   -0.18    0.41
   3   6   5   -1.13    0.66
   3   6   5    0.39    0.34
   3   6   5   -0.30    0.61
  -4  -6  -5  302.74    6.10
  -4  -6  -5  324.48    7.44
  -4  -6  -5  315.42    6.66
  -4  -6  -5  297.24    7.20
   4   6   5  313.06    7.22
   4   6   5  319.18    6.65
   4   6   5  307.49    7.51
  -5  -6  -5    8.52    1.09
  -5  -6  -5    7.50    0.83
  -5  -6  -5    7.44    1.20
   5   6   5    8.27    1.03
   5   6   5    8.85    1.25
   5   6   5    8.92    1.18
   5   6   5    9.00    1.03
  -6  -6  -5   25.05    1.70
  -6  -6  -5   27.60    1.49
  -6  -6  -5   25.54    1.36
   6   6   5   29.15    1.80
   6   6   5   26.50    1.79
   6   6   5   28.28    1.73
   6   6   5   29.60    1.39
  -7  -6  -5  144.77    3.74
  -7  -6  -5  148.34    4.46
  -7  -6  -5  146.82    4.00
   7   6   5  146.47    4.49
   7   6   5  144.32    4.50
   7   6   5  146.36    3.73
  -8  -6  -5    0.61    0.22
  -8  -6  -5    0.80    0.96
  -8  -6  -5    0.26    0.25
  -8  -6  -5    1.34    0.73
  -8  -6  -5    0.25    0.65
   8   6   5    0.60    0.51
   8   6   5    0.28    0.89
   8   6   5    0.65    0.71
  -9  -6  -5   31.87    1.76
  -9  -6  -5   31.75    2.09
  -9  -6  -5   32.73    1.17
  -9  -6  -5   30.96    1.28
   9   6   5   30.66    2.03
   9   6   5   30.84    2.14
   9   6   5   30.22    1.23
 -10  -6  -5    4.81    0.74
 -10  -6  -5    3.91    1.04
 -10  -6  -5    3.50    1.35
  10   6   5    5.10    1.49
  10   6   5    4.75    1.38
 -11  -6  -5    9.62    1.48
 -11  -6  -5    8.55    1.78
  11   6   5    7.83    1.53
  11   6   5    6.32    1.65
 -12  -6  -5   10.13    1.31
 -12  -6  -5   13.42    2.10
 -12  -6  -5   13.47    1.64
  12   6   5   13.69    2.10
  12   6   5   11.80    2.16
   5  -7  -5   -1.20    1.16
   5  -7  -5   -0.44    1.18
  -5   7   5    0.35    1.44
  -5   7   5    2.25    1.56
  -5   7   5   -0.06    1.73
   4  -7  -5    6.70    1.31
   4  -7  -5    4.17    1.25
  -4   7   5    4.20    1.63
  -4   7   5    5.73    1.66
  -4   7   5    5.03    1.46
   3  -7  -5    1.18    0.99
   3  -7  -5    0.34    0.90
  -3   7   5    2.44    1.25
  -3   7   5    2.58    1.09
  -3   7   5    3.04    1.34
   2  -7  -5   33.63    1.83
   2  -7  -5   32.93    0.96
   2  -7  -5   34.37    1.84
  -2   7   5   35.16    2.23
  -2   7   5   34.03    2.16
  -2   7   5   36.29    2.15
   1  -7  -5    0.47    0.68
   1  -7  -5    0.66    0.87
  -1   7   5    1.34    0.97
  -1   7   5   -0.88    0.94
  -1   7   5    0.33    0.89
   0  -7  -5   10.54    1.08
   0  -7  -5   11.14    1.18
   0   7   5   10.25    1.28
   0   7   5    9.39    1.44
   0   7   5   11.56    1.48
  -1  -7  -5   25.75    1.74
  -1  -7  -5   25.37    1.38
  -1  -7  -5   24.06    1.54
   1   7   5   25.55    1.80
   1   7   5   25.11    1.60
  -2  -7  -5    3.90    0.98
  -2  -7  -5    5.02    0.89
  -2  -7  -5    3.07    0.26
  -2  -7  -5    3.09    0.75
  -2  -7  -5    3.63    0.28
   2   7   5    4.04    1.03
   2   7   5    2.68    0.99
   2   7   5    4.87    0.72
  -3  -7  -5   18.63    1.03
  -3  -7  -5   20.65    1.48
  -3  -7  -5   19.10    0.80
   3   7   5   19.21    1.45
   3   7   5   19.18    0.91
   3   7   5   17.31    1.33
  -4  -7  -5   11.76    0.75
  -4  -7  -5   10.55    1.21
  -4  -7  -5   10.55    0.51
   4   7   5   10.42    1.17
   4   7   5   10.46    1.22
   4   7   5   10.41    0.86
   4   7   5   10.56    0.46
  -5  -7  -5    2.22    0.91
  -5  -7  -5    1.35    0.56
   5   7   5    1.32    0.78
   5   7   5    1.62    0.73
   5   7   5    0.27    0.81
  -6  -7  -5   37.07    2.08
  -6  -7  -5   41.19    1.64
  -6  -7  -5   34.65    2.01
   6   7   5   37.36    2.10
   6   7   5   39.33    1.80
   6   7   5   38.91    1.90
   6   7   5   39.53    2.10
  -7  -7  -5   15.41    1.58
  -7  -7  -5   14.58    1.38
  -7  -7  -5   17.46    1.21
   7   7   5   13.23    1.54
   7   7   5   14.13    1.12
   7   7   5   16.37    1.67
  -8  -7  -5   37.88    1.90
  -8  -7  -5   38.00    1.82
  -8  -7  -5   41.33    2.32
   8   7   5   42.67    2.30
   8   7   5   44.34    2.47
   8   7   5   42.53    1.69
  -9  -7  -5   19.35    1.86
  -9  -7  -5   15.79    1.19
  -9  -7  -5   18.80    1.57
   9   7   5   17.59    1.07
   9   7   5   16.84    1.86
   9   7   5   20.88    1.95
 -10  -7  -5    0.33    1.17
 -10  -7  -5    1.68    0.87
  10   7   5    2.58    1.29
  10   7   5   -0.09    0.93
 -11  -7  -5   23.07    2.32
 -11  -7  -5   20.70    1.12
 -11  -7  -5   26.55    2.06
  11   7   5   24.09    2.42
  11   7   5   24.44    2.35
 -12  -7  -5    2.57    1.49
 -12  -7  -5    2.58    1.72
  12   7   5   -1.51    1.10
  12   7   5    3.28    1.67
   4  -8  -5    1.42    1.29
   4  -8  -5    1.80    1.27
  -4   8   5    0.22    1.71
  -4   8   5    3.51    1.78
  -4   8   5    0.93    1.68
   3  -8  -5    0.09    1.05
   3  -8  -5   -0.94    1.05
  -3   8   5    0.44    1.49
  -3   8   5   -0.26    1.28
  -3   8   5   -0.26    1.33
   2  -8  -5    1.33    0.96
   2  -8  -5    1.76    0.96
  -2   8   5   -0.67    1.28
  -2   8   5    2.34    1.39
  -2   8   5    1.00    1.24
   1  -8  -5   25.09    1.69
   1  -8  -5   23.43    1.71
  -1   8   5   25.32    2.22
  -1   8   5   26.68    2.10
  -1   8   5   28.22    1.98
   0  -8  -5    0.11    0.91
   0  -8  -5   -0.01    0.69
   0   8   5    0.92    1.06
   0   8   5   -0.74    0.82
   0   8   5    0.07    0.93
  -1  -8  -5   34.13    1.77
  -1  -8  -5   35.53    1.99
   1   8   5   33.31    2.22
   1   8   5   34.95    2.18
   1   8   5   36.16    1.84
  -2  -8  -5    9.18    1.12
  -2  -8  -5    6.62    1.18
  -2  -8  -5    7.32    1.27
   2   8   5    8.63    1.40
   2   8   5    8.52    0.95
   2   8   5    8.46    1.42
  -3  -8  -5    0.09    0.79
  -3  -8  -5    0.29    0.15
  -3  -8  -5    0.12    0.18
  -3  -8  -5   -0.57    0.65
   3   8   5    0.10    0.48
   3   8   5    1.00    0.86
   3   8   5    0.19    0.86
  -4  -8  -5    4.83    0.56
  -4  -8  -5    5.89    1.19
   4   8   5    5.11    1.09
   4   8   5    5.73    1.14
   4   8   5    6.24    0.68
   4   8   5    4.55    0.45
  -5  -8  -5   11.43    1.42
  -5  -8  -5   13.16    0.89
   5   8   5   11.96    1.10
   5   8   5   12.92    1.35
   5   8   5   12.26    1.32
  -6  -8  -5    4.38    1.22
   6   8   5    3.19    1.03
   6   8   5    5.65    1.09
   6   8   5    3.86    1.20
   6   8   5    4.85    1.19
  -7  -8  -5    5.98    1.36
  -7  -8  -5    5.77    0.94
   7   8   5    7.14    1.45
   7   8   5    7.16    1.13
   7   8   5    6.34    1.36
  -8  -8  -5    0.24    0.78
  -8  -8  -5    1.40    1.11
  -8  -8  -5   -1.87    0.93
   8   8   5   -0.55    1.02
   8   8   5    0.01    1.01
  -9  -8  -5    2.96    1.28
  -9  -8  -5    2.28    0.96
   9   8   5    2.81    1.29
   9   8   5    2.32    0.76
   9   8   5    3.26    1.12
 -10  -8  -5    2.09    1.12
 -10  -8  -5   -0.31    1.34
  10   8   5    2.42    0.62
  10   8   5    2.30    1.41
  10   8   5    3.63    1.43
 -11  -8  -5   24.85    2.08
 -11  -8  -5   29.16    2.59
  11   8   5   20.97    2.47
  11   8   5   27.28    2.62
 -12  -8  -5    3.75    1.50
 -12  -8  -5    6.01    2.05
  12   8   5    5.50    1.85
  12   8   5    3.15    1.39
   3  -9  -5   -0.86    1.17
   3  -9  -5    4.19    1.37
  -3   9   5    0.33    1.76
  -3   9   5   -0.15    1.71
  -3   9   5   -3.23    1.66
   2  -9  -5   10.84    1.54
   2  -9  -5   11.72    1.59
  -2   9   5    9.67    1.91
  -2   9   5    8.17    2.01
  -2   9   5    8.17    1.92
   1  -9  -5    1.74    0.95
   1  -9  -5    2.69    1.13
  -1   9   5    2.06    1.51
  -1   9   5    2.19    1.36
  -1   9   5   -0.13    1.28
   0  -9  -5   28.20    1.83
   0  -9  -5   22.17    1.79
   0   9   5   29.68    2.33
   0   9   5   24.64    1.91
   0   9   5   24.97    2.08
  -1  -9  -5    0.10    0.77
  -1  -9  -5   -0.64    1.01
   1   9   5   -0.07    0.89
   1   9   5    0.43    0.88
   1   9   5    1.72    0.92
  -2  -9  -5    5.88    1.41
  -2  -9  -5    5.84    1.28
  -2  -9  -5    6.11    1.15
   2   9   5    6.19    1.03
   2   9   5    6.18    1.37
   2   9   5    5.97    1.43
  -3  -9  -5   -0.26    1.01
  -3  -9  -5    0.73    0.92
  -3  -9  -5    2.66    0.89
   3   9   5    1.58    0.64
   3   9   5    1.85    1.17
   3   9   5    0.74    1.01
  -4  -9  -5    1.50    0.25
  -4  -9  -5    1.52    1.06
   4   9   5    1.26    0.45
   4   9   5    1.02    0.89
   4   9   5    0.46    1.04
  -5  -9  -5   -0.11    0.98
  -5  -9  -5    2.64    0.56
   5   9   5    2.81    0.73
   5   9   5    1.83    0.98
   5   9   5    1.02    1.08
  -6  -9  -5    0.97    1.05
  -6  -9  -5    0.86    0.60
   6   9   5   -1.54    0.98
   6   9   5    0.52    1.02
   6   9   5    1.86    0.94
  -7  -9  -5    2.94    0.79
  -7  -9  -5    2.37    1.17
   7   9   5    4.18    1.35
   7   9   5    3.47    1.22
   7   9   5    3.51    1.00
  -8  -9  -5    1.93    1.09
  -8  -9  -5    1.66    0.86
   8   9   5    0.38    1.27
   8   9   5    1.54    0.89
   8   9   5    1.11    0.92
  -9  -9  -5    0.45    1.21
  -9  -9  -5   -0.59    0.88
   9   9   5    1.25    1.18
   9   9   5    0.19    0.95
 -10  -9  -5    0.59    1.39
 -10  -9  -5   -0.80    1.02
  10   9   5    0.48    1.15
  10   9   5   -0.11    0.70
  10   9   5    2.14    1.58
 -11  -9  -5    0.86    1.64
 -11  -9  -5    2.55    1.16
  11   9   5   -1.11    1.65
  11   9   5   -3.63    1.54
 -12  -9  -5    7.44    1.68
  12   9   5    6.69    2.14
   1 -10  -5    0.18    1.26
   1 -10  -5    0.44    1.16
  -1  10   5    2.84    1.78
  -1  10   5   -2.41    1.58
  -1  10   5   -2.34    1.41
   0 -10  -5    4.47    1.30
   0 -10  -5    2.42    1.13
   0  10   5    3.35    1.60
   0  10   5    2.83    1.39
   0  10   5    2.87    1.59
  -1 -10  -5    0.49    0.90
  -1 -10  -5    1.50    1.15
   1  10   5    0.60    1.11
   1  10   5    0.03    1.36
   1  10   5   -0.72    1.28
  -2 -10  -5    0.48    1.05
  -2 -10  -5   -0.23    0.85
   2  10   5    1.57    0.99
   2  10   5    1.65    1.28
   2  10   5    0.11    1.26
  -3 -10  -5    0.96    0.98
  -3 -10  -5    1.13    1.17
   3  10   5    0.03    1.18
   3  10   5    0.68    0.74
   3  10   5    1.63    1.03
  -4 -10  -5    3.91    1.25
   4  10   5   -0.05    1.12
   4  10   5    1.49    0.56
   4  10   5    1.47    0.98
  -5 -10  -5    0.02    1.07
  -5 -10  -5    0.62    0.32
   5  10   5    2.34    1.34
   5  10   5    1.60    1.13
  -6 -10  -5   28.99    1.26
  -6 -10  -5   30.80    2.23
   6  10   5   33.08    2.51
   6  10   5   29.75    2.12
  -7 -10  -5    2.61    0.81
  -7 -10  -5    3.98    1.46
   7  10   5    3.74    1.50
   7  10   5    5.41    1.34
   7  10   5    2.27    1.38
  -8 -10  -5    3.07    0.94
  -8 -10  -5    2.31    1.45
   8  10   5    5.33    1.62
   8  10   5    1.92    1.37
   8  10   5    2.12    1.08
  -9 -10  -5   10.92    2.02
  -9 -10  -5    9.52    1.31
   9  10   5    7.83    1.88
   9  10   5    7.89    1.36
   9  10   5   11.59    1.94
 -10 -10  -5    3.50    1.67
 -10 -10  -5    5.58    1.33
  10  10   5    5.24    1.84
  10  10   5    5.17    1.80
 -11 -10  -5   -0.35    1.76
 -11 -10  -5    2.15    1.38
  11  10   5    0.33    1.84
  11  10   5    0.11    1.77
   0 -11  -5   12.30    1.77
   0 -11  -5   10.76    1.84
   0  11   5   14.95    2.09
   0  11   5   12.80    2.42
  -1 -11  -5    0.20    0.92
  -1 -11  -5    0.26    1.40
   1  11   5    1.46    1.71
   1  11   5   -1.47    1.71
   1  11   5    1.30    1.38
  -2 -11  -5    1.98    1.38
  -2 -11  -5    3.25    1.30
   2  11   5    2.29    1.22
   2  11   5   -0.37    1.63
   2  11   5    0.92    1.75
  -3 -11  -5    1.28    1.33
  -3 -11  -5    2.29    1.15
   3  11   5    0.46    1.52
   3  11   5    1.76    1.02
   3  11   5   -0.58    1.14
  -4 -11  -5   -0.48    1.21
   4  11   5    1.93    1.41
   4  11   5    0.11    1.44
   4  11   5    0.27    0.67
  -5 -11  -5    0.65    1.23
   5  11   5   -0.26    1.28
   5  11   5   -0.19    1.39
  -6 -11  -5    0.63    1.45
  -6 -11  -5    0.49    0.44
   6  11   5    0.65    1.19
   6  11   5    0.09    1.30
  -7 -11  -5    0.71    1.34
  -7 -11  -5    0.85    1.23
   7  11   5    0.20    1.32
   7  11   5    1.72    1.55
   7  11   5    1.21    1.24
  -8 -11  -5    3.65    1.64
  -8 -11  -5    1.24    0.91
   8  11   5    1.84    1.63
   8  11   5    4.10    1.39
   8  11   5    2.88    1.43
  -9 -11  -5    0.65    1.53
  -9 -11  -5    1.33    1.06
   9  11   5    0.43    1.17
   9  11   5    0.83    1.29
   9  11   5   -0.33    1.68
 -10 -11  -5   12.30    1.60
 -10 -11  -5   12.72    2.42
  10  11   5   13.99    2.39
  10  11   5   13.22    2.70
  10  11   5   14.90    1.88
  -2 -12  -5   -2.56    1.37
  -2 -12  -5   -0.18    1.55
   2  12   5   -0.36    1.47
  -3 -12  -5    4.52    1.64
   3  12   5    3.16    1.96
   3  12   5    2.00    1.91
   3  12   5    2.05    1.94
  -4 -12  -5   10.41    1.94
   4  12   5    5.61    2.06
   4  12   5   14.07    2.39
  -5 -12  -5    3.88    1.61
   5  12   5    0.76    1.78
   5  12   5    2.74    1.69
  -6 -12  -5    4.97    1.77
   6  12   5    1.19    1.79
   6  12   5   -0.62    1.49
  -7 -12  -5    0.23    1.59
   7  12   5    0.17    1.49
   7  12   5    1.44    1.81
  -8 -12  -5    1.80    1.72
  -8 -12  -5    0.13    1.01
   8  12   5    0.02    1.28
   8  12   5    2.49    1.60
   8  12   5   -1.31    1.75
  -9 -12  -5    0.20    1.77
  -9 -12  -5    2.28    1.07
   9  12   5    0.45    2.02
   9  12   5    3.91    1.61
   9  12   5    1.62    1.89
   7  11  -6    1.21    1.58
   7  11  -6   -1.53    1.73
   7  11  -6    0.09    1.86
   6  11  -6    1.05    1.70
   6  11  -6    2.71    1.79
   6  11  -6    3.66    1.86
   5  11  -6    1.94    1.84
   5  11  -6    2.37    1.43
   5  11  -6    2.58    1.69
   4  11  -6    1.29    1.64
   4  11  -6    2.23    1.32
   4  11  -6    0.10    1.95
   3  11  -6    1.67    1.76
   3  11  -6    2.16    1.28
   3  11  -6    0.14    1.93
   2  11  -6    8.09    1.45
   2  11  -6    6.32    1.46
   2  11  -6    6.69    2.01
   2  11  -6    6.86    2.37
  -2 -11   6   10.60    1.72
   1  11  -6   15.86    1.74
   1  11  -6   21.74    2.93
   1  11  -6   16.08    2.59
  -1 -11   6   16.28    2.02
   8  10  -6    1.93    1.65
   8  10  -6    0.95    1.56
   8  10  -6   -2.18    1.59
   7  10  -6   -2.16    1.40
   7  10  -6    1.30    1.63
   7  10  -6   -1.13    1.44
   6  10  -6    7.37    1.86
   6  10  -6    9.59    1.87
   6  10  -6    6.86    1.85
   5  10  -6   -0.19    1.43
   5  10  -6   -1.51    1.47
   4  10  -6   -0.85    1.36
   4  10  -6    0.97    1.18
   4  10  -6    3.33    1.66
   3  10  -6    1.15    1.57
   3  10  -6    2.49    1.49
   3  10  -6    2.58    1.17
   2  10  -6   -2.90    1.31
   2  10  -6   -2.23    1.60
   2  10  -6    2.06    1.12
   2  10  -6    0.63    1.11
  -2 -10   6    2.63    1.04
   1  10  -6   -2.14    1.09
   1  10  -6   -2.04    1.57
   1  10  -6    0.12    0.84
   1  10  -6    0.26    1.62
  -1 -10   6    0.96    1.10
   0  10  -6    3.64    1.80
   0  10  -6    5.85    1.37
   0  10  -6    6.90    2.05
   0 -10   6    5.70    1.28
  -1  10  -6    3.56    1.52
  -1  10  -6    4.08    1.38
  -1  10  -6    6.51    1.99
   1 -10   6    6.36    1.44
  -2  10  -6   -0.56    1.91
  -2  10  -6   -1.87    1.79
   2 -10   6    2.53    2.01
   2 -10   6    0.71    1.19
   9   9  -6    5.10    2.02
   9   9  -6    1.77    1.49
  -9  -9   6    3.51    1.41
  -9  -9   6    4.38    1.50
   8   9  -6    8.25    1.70
   8   9  -6    4.46    1.47
   8   9  -6    5.50    1.72
  -8  -9   6    7.38    1.66
  -8  -9   6    3.72    1.37
   7   9  -6    0.60    1.20
   7   9  -6    1.93    1.33
   6   9  -6    5.63    1.54
   6   9  -6    4.49    1.50
   3   9  -6    7.20    1.62
   3   9  -6    6.73    1.18
   2   9  -6   -0.53    1.20
   2   9  -6    1.05    0.94
  -2  -9   6    0.66    0.89
   1   9  -6    0.76    1.36
   1   9  -6   -0.23    0.76
   1   9  -6    0.47    0.98
  -1  -9   6    1.17    0.88
   0   9  -6    3.83    1.10
   0   9  -6    3.05    0.68
   0   9  -6   -0.54    1.45
   0   9  -6   11.43    2.13
   0  -9   6    3.11    1.03
   0  -9   6    3.85    1.30
  -1   9  -6    0.85    1.08
  -1   9  -6    1.13    1.10
  -1   9  -6    0.77    1.62
   1  -9   6    0.75    1.04
   1  -9   6   -0.67    1.19
  -2   9  -6   10.02    2.09
  -2   9  -6    6.04    1.37
  -2   9  -6    8.08    2.03
   2  -9   6    6.94    1.41
   2  -9   6    5.70    1.43
  -3   9  -6   17.97    2.77
  -3   9  -6   17.36    1.95
  -3   9  -6   16.43    2.58
   3  -9   6   18.31    2.45
   3  -9   6   18.90    2.00
  10   8  -6    2.95    1.94
 -10  -8   6   -1.35    1.39
 -10  -8   6   -0.48    1.65
   9   8  -6   -1.17    1.19
   9   8  -6    0.14    1.58
  -9  -8   6    2.24    1.47
  -9  -8   6    1.98    1.21
   8   8  -6    8.14    1.43
   8   8  -6   12.33    1.90
  -8  -8   6   11.89    1.71
  -8  -8   6    8.26    1.56
   7   8  -6    1.36    1.17
   7   8  -6    1.46    1.35
  -7  -8   6    1.03    1.06
  -7  -8   6    0.97    1.11
   6   8  -6    1.23    1.12
   6   8  -6    1.49    1.14
   2   8  -6   -0.59    1.07
   2   8  -6    1.77    0.85
  -2  -8   6    1.66    0.79
   1   8  -6   34.82    1.61
   1   8  -6   30.51    2.36
   1   8  -6   33.96    1.71
   1   8  -6   32.74    1.87
  -1  -8   6   33.19    1.75
  -1  -8   6   32.09    2.01
   0   8  -6    1.69    0.64
   0   8  -6    1.61    1.29
   0   8  -6    2.77    0.87
   0   8  -6    1.58    0.90
   0  -8   6    3.18    0.95
   0  -8   6    2.17    0.86
  -1   8  -6    3.68    1.52
  -1   8  -6    3.18    1.06
   1  -8   6    1.47    1.11
   1  -8   6    3.51    0.99
  -2   8  -6   -1.69    1.30
  -2   8  -6    0.39    1.46
  -2   8  -6   -0.24    0.98
   2  -8   6   -0.19    0.88
   2  -8   6    0.09    0.87
  -3   8  -6    1.26    1.63
  -3   8  -6    0.46    1.09
  -3   8  -6    1.19    1.55
   3  -8   6   -0.35    1.24
   3  -8   6    0.44    0.99
  -4   8  -6    5.60    1.46
  -4   8  -6    6.94    1.79
  -4   8  -6    5.52    1.97
   4  -8   6    6.14    1.44
   4  -8   6    7.20    1.74
  -5   8  -6   -0.04    1.49
  -5   8  -6   -0.20    1.50
   5  -8   6    0.00    1.03
  10   7  -6   -0.59    1.73
 -10  -7   6    1.79    1.53
 -10  -7   6   -0.86    1.36
   9   7  -6    0.01    1.46
  -9  -7   6   -1.10    1.10
  -9  -7   6   -1.12    1.34
   8   7  -6   63.23    3.14
  -8  -7   6   63.94    2.82
  -8  -7   6   61.81    2.93
   7   7  -6    2.49    1.24
   7   7  -6    4.08    1.01
  -7  -7   6    4.02    1.07
  -7  -7   6    3.59    1.25
   6   7  -6   19.42    1.84
   6   7  -6   19.84    1.59
  -6  -7   6   22.02    1.64
  -6  -7   6   19.85    1.73
   5   7  -6   10.54    1.44
  -5  -7   6   10.84    1.44
   2   7  -6    1.44    0.76
  -2  -7   6    3.23    0.76
  -2  -7   6    2.31    0.69
   1   7  -6    4.17    1.26
   1   7  -6    4.64    1.10
   1   7  -6    2.79    0.82
   1   7  -6    2.86    0.83
  -1  -7   6    2.79    0.77
  -1  -7   6    3.47    1.00
   0   7  -6    4.52    0.98
   0   7  -6    3.79    1.09
   0   7  -6    5.16    0.97
   0   7  -6    3.00    0.67
   0  -7   6    3.91    0.84
   0  -7   6    3.33    0.99
  -1   7  -6    0.07    0.37
  -1   7  -6   -0.58    0.81
  -1   7  -6    1.38    1.22
  -1   7  -6   -0.28    0.49
   1  -7   6   -0.68    0.83
   1  -7   6    0.64    0.64
  -2   7  -6    5.64    1.13
  -2   7  -6    4.45    1.52
   2  -7   6    6.43    1.13
   2  -7   6    5.73    1.31
  -3   7  -6    0.52    1.32
  -3   7  -6    0.78    1.06
   3  -7   6    1.22    0.90
   3  -7   6    1.02    1.08
  -4   7  -6   11.90    1.58
  -4   7  -6   13.82    2.06
   4  -7   6   10.80    1.55
   4  -7   6    8.23    1.70
  -5   7  -6    3.18    1.70
  -5   7  -6    0.26    1.16
  -5   7  -6    3.75    1.81
   5  -7   6    0.01    1.38
   5  -7   6    0.24    1.06
  -6   7  -6    0.28    1.71
  -6   7  -6   -2.61    1.37
   6  -7   6   -1.28    1.09
   6  -7   6    2.93    1.38
  10   6  -6    4.87    1.90
 -10  -6   6    7.80    1.89
 -10  -6   6    6.23    1.32
   9   6  -6    4.41    1.64
  -9  -6   6    4.86    1.40
  -9  -6   6    6.14    1.48
   8   6  -6   16.46    1.87
   8   6  -6   17.24    1.08
  -8  -6   6   17.37    1.81
  -8  -6   6   17.17    1.68
   7   6  -6    2.87    1.22
   7   6  -6    4.54    0.91
   7   6  -6    4.29    0.83
   7   6  -6    5.13    1.30
  -7  -6   6    4.43    1.09
  -7  -6   6    5.18    1.22
   6   6  -6   46.26    1.98
   6   6  -6   46.89    2.28
   6   6  -6   49.00    1.98
  -6  -6   6   53.57    2.46
  -6  -6   6   49.66    2.24
  -6  -6   6   52.28    2.13
   5   6  -6    1.76    0.91
   5   6  -6    2.60    1.00
  -5  -6   6    3.09    0.89
  -5  -6   6    1.02    0.78
  -5  -6   6    2.55    0.96
  -4  -6   6   15.32    1.40
  -4  -6   6   15.82    1.35
  -3  -6   6   98.58    3.31
  -3  -6   6  101.77    3.04
  -2  -6   6    7.27    1.02
  -2  -6   6    8.01    0.83
  -2  -6   6    6.46    1.12
   1   6  -6   21.61    1.40
   1   6  -6   21.13    1.32
   1   6  -6   21.91    1.28
  -1  -6   6   22.03    1.20
  -1  -6   6   24.89    1.51
   0   6  -6   13.03    0.93
   0   6  -6   11.81    1.09
   0   6  -6   11.48    1.08
   0   6  -6   12.50    1.36
   0  -6   6   13.99    1.16
   0  -6   6   14.23    1.06
  -1   6  -6    3.18    0.81
  -1   6  -6    0.87    1.05
  -1   6  -6    1.44    0.60
  -1   6  -6    1.87    0.48
   1  -6   6    2.34    0.67
   1  -6   6    2.13    0.90
  -2   6  -6   14.07    1.36
  -2   6  -6   17.09    1.82
   2  -6   6   17.10    1.17
   2  -6   6   15.71    1.50
  -3   6  -6   -1.73    1.05
  -3   6  -6    1.57    0.87
   3  -6   6   -0.33    0.68
   3  -6   6   -0.75    0.86
  -4   6  -6    2.30    1.07
  -4   6  -6    2.21    1.37
   4  -6   6    1.64    1.15
   4  -6   6    1.82    0.95
  -5   6  -6   11.06    1.52
  -5   6  -6    8.77    1.70
  -5   6  -6    7.19    1.72
   5  -6   6   10.60    1.58
   5  -6   6    9.73    1.35
  -6   6  -6    2.65    1.28
  -6   6  -6    1.39    1.46
  -6   6  -6    1.44    1.67
   6  -6   6    2.56    1.46
   6  -6   6    1.89    0.95
  -7   6  -6    3.13    1.74
  -7   6  -6    4.79    1.92
  -7   6  -6    6.12    2.49
   7  -6   6    3.81    1.75
   7  -6   6    6.22    1.61
  10   5  -6    9.06    1.82
 -10  -5   6    9.50    1.60
 -10  -5   6    6.88    1.77
   9   5  -6    2.99    1.35
  -9  -5   6    3.50    1.29
  -9  -5   6    0.52    1.11
   8   5  -6    8.63    1.47
  -8  -5   6    7.54    1.27
  -8  -5   6    6.23    0.95
  -8  -5   6    6.64    1.43
   7   5  -6    4.19    1.16
   7   5  -6    4.82    0.61
   7   5  -6    4.85    1.09
   7   5  -6    5.35    0.60
  -7  -5   6    5.09    1.13
  -7  -5   6    3.70    1.10
  -7  -5   6    6.03    0.96
   6   5  -6   63.76    1.94
   6   5  -6   61.88    1.93
   6   5  -6   59.35    2.38
   6   5  -6   64.10    2.54
  -6  -5   6   61.95    2.62
  -6  -5   6   62.24    2.47
   5   5  -6    1.57    0.80
   5   5  -6   -0.71    1.01
   5   5  -6    1.66    0.73
   5   5  -6    0.43    0.67
  -5  -5   6    0.71    0.62
  -5  -5   6    1.36    0.70
  -5  -5   6    0.26    0.73
   4   5  -6    7.72    1.02
   4   5  -6    6.90    1.00
   4   5  -6    6.42    1.31
   4   5  -6    8.14    0.92
  -4  -5   6    6.67    1.02
  -4  -5   6    5.84    1.04
  -4  -5   6    6.95    0.98
   3   5  -6    8.66    0.92
   3   5  -6    9.08    1.14
  -3  -5   6    8.65    1.10
  -3  -5   6    7.91    0.95
  -3  -5   6    8.74    0.85
   2   5  -6   24.07    1.18
   2   5  -6   23.55    1.61
   2   5  -6   22.27    1.47
  -2  -5   6   26.12    1.32
  -2  -5   6   26.68    1.60
   1   5  -6   14.82    1.10
   1   5  -6   14.38    1.01
   1   5  -6   15.62    1.03
   1   5  -6   14.08    1.00
  -1  -5   6   13.56    1.31
  -1  -5   6   13.51    1.10
  -1  -5   6   14.36    0.90
   0   5  -6    0.77    0.51
   0   5  -6    1.50    0.66
   0   5  -6    2.04    0.82
   0   5  -6    0.82    0.58
   0  -5   6    2.06    0.79
   0  -5   6    0.17    0.42
   0  -5   6    0.55    0.63
  -1   5  -6    6.02    0.74
  -1   5  -6    6.25    1.09
  -1   5  -6    4.65    0.86
  -1   5  -6    5.86    0.67
   1  -5   6    5.18    0.77
   1  -5   6    6.29    1.05
  -2   5  -6   30.83    1.90
  -2   5  -6   28.61    1.59
  -2   5  -6   29.00    0.99
   2  -5   6   30.56    1.77
   2  -5   6   29.88    1.48
  -3   5  -6    0.02    0.76
  -3   5  -6   -0.05    0.88
   3  -5   6    0.95    0.63
   3  -5   6    0.62    0.63
  -4   5  -6    1.07    0.89
  -4   5  -6    1.00    0.81
   4  -5   6    1.15    0.89
   4  -5   6   -0.36    0.68
  -5   5  -6    2.33    1.07
  -5   5  -6    2.25    1.06
   5  -5   6    0.33    0.76
   5  -5   6    2.58    1.03
  -6   5  -6   15.65    1.85
  -6   5  -6   11.37    2.06
  -6   5  -6   15.38    2.18
   6  -5   6   13.98    1.64
   6  -5   6   15.48    1.85
  -7   5  -6    6.37    1.83
  -7   5  -6    7.01    1.60
  -7   5  -6    8.19    2.01
   7  -5   6    5.96    1.22
   7  -5   6    8.24    1.73
  -8   5  -6   20.44    2.63
  -8   5  -6   16.25    2.10
   8  -5   6   18.85    2.33
   8  -5   6   19.79    2.23
  10   4  -6    5.08    1.67
 -10  -4   6    4.80    1.60
 -10  -4   6    4.07    1.53
   9   4  -6    0.69    1.17
  -9  -4   6    1.00    1.16
  -9  -4   6   -0.36    1.10
  -9  -4   6    0.33    0.73
   8   4  -6   -0.06    0.99
  -8  -4   6    2.19    1.08
  -8  -4   6    1.07    0.76
  -8  -4   6    0.68    0.72
   7   4  -6    5.52    1.10
   7   4  -6    5.46    1.12
  -7  -4   6    7.45    1.23
  -7  -4   6    5.37    1.25
  -7  -4   6    7.61    0.99
   6   4  -6    0.26    0.32
   6   4  -6   -0.84    0.88
   6   4  -6    0.29    0.28
   6   4  -6   -0.24    0.70
  -6  -4   6    0.12    0.77
  -6  -4   6    0.80    0.65
  -6  -4   6   -0.15    0.60
   5   4  -6   -0.29    0.89
   5   4  -6    1.36    0.64
   5   4  -6   -0.03    0.41
   5   4  -6    0.55    0.56
   5   4  -6    0.67    0.48
  -5  -4   6    1.14    0.58
  -5  -4   6    1.15    0.62
  -5  -4   6    0.96    0.70
   4   4  -6   34.88    1.36
   4   4  -6   37.75    1.58
   4   4  -6   37.30    1.41
   4   4  -6   35.58    1.71
  -4  -4   6   33.11    1.78
  -4  -4   6   34.04    1.66
   3   4  -6    9.01    0.93
   3   4  -6    8.67    0.85
   3   4  -6   10.21    1.19
   3   4  -6    9.34    0.75
  -3  -4   6   10.53    0.78
  -3  -4   6    9.80    1.06
  -3  -4   6    9.31    1.00
   2   4  -6   44.06    1.80
   2   4  -6   44.28    1.43
   2   4  -6   45.94    2.03
   2   4  -6   42.68    1.82
   2   4  -6   39.52    1.66
  -2  -4   6   45.20    1.62
  -2  -4   6   42.74    1.90
  -2  -4   6   40.70    1.90
   1   4  -6   17.50    1.11
   1   4  -6   19.30    0.94
   1   4  -6   18.26    1.16
   1   4  -6   19.51    1.14
   1   4  -6   20.11    1.28
  -1  -4   6   17.77    1.33
  -1  -4   6   17.41    0.86
  -1  -4   6   15.25    1.16
   0   4  -6   80.78    2.54
   0   4  -6   84.36    2.39
   0   4  -6   84.75    2.38
   0   4  -6   82.19    2.37
   0  -4   6   88.13    2.30
   0  -4   6   82.47    2.85
   0  -4   6   86.31    2.67
  -1   4  -6   24.11    1.56
  -1   4  -6   23.47    1.06
  -1   4  -6   23.01    1.02
  -1   4  -6   21.70    1.23
  -1   4  -6   21.28    1.24
   1  -4   6   24.51    1.49
   1  -4   6   21.87    1.38
   1  -4   6   24.13    1.09
  -2   4  -6   65.53    1.73
  -2   4  -6   68.50    2.64
  -2   4  -6   64.37    2.24
  -2   4  -6   62.63    2.70
  -2   4  -6   62.81    1.71
   2  -4   6   61.56    2.37
   2  -4   6   65.42    2.11
   2  -4   6   64.09    2.54
  -3   4  -6    4.25    0.99
  -3   4  -6    3.15    0.38
  -3   4  -6    3.41    0.44
  -3   4  -6    2.52    0.79
   3  -4   6    4.43    0.80
   3  -4   6    2.93    0.93
  -4   4  -6   13.09    1.62
  -4   4  -6   13.12    1.33
   4  -4   6   16.25    1.28
   4  -4   6   14.14    1.44
  -5   4  -6    1.58    0.87
  -5   4  -6    0.00    0.97
   5  -4   6    1.68    0.75
   5  -4   6    1.24    0.68
  -6   4  -6   -1.08    0.86
  -6   4  -6    1.99    1.27
   6  -4   6    0.03    1.02
   6  -4   6   -0.45    0.80
  -7   4  -6   27.56    2.07
  -7   4  -6   26.45    2.21
  -7   4  -6   30.51    2.43
   7  -4   6   29.15    2.09
   7  -4   6   31.18    2.28
  -8   4  -6   16.40    2.01
  -8   4  -6   17.69    2.35
  -8   4  -6   13.38    2.34
   8  -4   6   16.46    2.11
   8  -4   6   15.64    2.01
  -9   4  -6    8.12    1.88
  -9   4  -6   12.99    2.34
   9  -4   6   10.43    2.05
  10   3  -6    6.82    2.10
  10   3  -6    4.89    1.75
 -10  -3   6    4.73    1.77
 -10  -3   6    5.28    1.50
   9   3  -6    4.44    1.60
   9   3  -6    1.44    1.24
  -9  -3   6    2.07    0.88
  -9  -3   6    1.60    1.39
  -9  -3   6    1.56    1.11
   8   3  -6    7.02    1.38
  -8  -3   6    7.76    1.35
  -8  -3   6    7.01    1.02
  -8  -3   6    6.23    1.41
   7   3  -6   12.20    1.43
   7   3  -6   12.78    1.43
  -7  -3   6   13.87    1.22
  -7  -3   6   14.93    1.25
  -7  -3   6   13.63    1.54
   6   3  -6    3.69    1.00
   6   3  -6    4.85    0.96
  -6  -3   6    3.89    0.93
  -6  -3   6    3.66    1.07
  -6  -3   6    3.38    0.81
   5   3  -6   12.40    1.05
   5   3  -6   12.97    0.39
   5   3  -6   11.63    0.37
   5   3  -6   11.81    1.15
  -5  -3   6   13.02    1.29
  -5  -3   6   11.17    1.10
  -5  -3   6   14.29    1.06
   4   3  -6    1.29    0.49
   4   3  -6    1.57    0.40
   4   3  -6    0.23    0.72
   4   3  -6    1.16    0.51
  -4  -3   6    2.21    0.69
  -4  -3   6    1.88    0.72
  -4  -3   6    2.14    0.64
   3   3  -6    4.41    0.52
   3   3  -6    4.43    0.62
   3   3  -6    4.02    0.89
   3   3  -6    5.18    0.87
   3   3  -6    5.52    0.64
  -3  -3   6    4.09    0.52
  -3  -3   6    4.01    0.79
  -3  -3   6    4.66    0.89
  -3  -3   6    4.45    0.77
   2   3  -6   12.18    1.14
   2   3  -6   12.67    0.66
   2   3  -6   13.00    1.11
   2   3  -6   11.90    1.15
   2   3  -6   13.63    0.95
  -2  -3   6   11.03    1.08
  -2  -3   6   13.05    0.81
  -2  -3   6   13.31    1.05
   1   3  -6  210.39    5.28
   1   3  -6  213.07    5.34
   1   3  -6  222.41    5.16
   1   3  -6  222.66    5.10
   1   3  -6  224.76    4.65
   1   3  -6  207.93    5.01
  -1  -3   6  219.24    5.02
  -1  -3   6  220.53    4.62
  -1  -3   6  219.34    5.40
   0   3  -6    0.81    0.78
   0   3  -6   -0.24    0.56
   0   3  -6    0.08    0.36
   0   3  -6    0.84    0.65
   0   3  -6    0.42    0.41
   0  -3   6    0.19    0.40
   0  -3   6    0.59    0.27
   0  -3   6    0.18    0.56
  -1   3  -6    0.09    0.40
  -1   3  -6   -0.51    0.77
  -1   3  -6    0.87    0.49
   1  -3   6    0.04    0.43
   1  -3   6    0.36    0.33
   1  -3   6    0.76    0.42
  -2   3  -6   26.52    1.58
  -2   3  -6   27.01    1.37
  -2   3  -6   26.17    1.32
  -2   3  -6   27.48    1.06
   2  -3   6   28.01    1.43
   2  -3   6   30.60    1.67
   2  -3   6   27.74    1.21
  -3   3  -6    4.55    0.55
  -3   3  -6    4.74    0.88
  -3   3  -6    4.07    0.93
  -3   3  -6    3.95    0.97
   3  -3   6    5.03    0.99
   3  -3   6    3.68    0.87
   3  -3   6    6.12    0.81
  -4   3  -6    1.38    0.90
  -4   3  -6    1.93    0.39
  -4   3  -6    1.37    0.72
   4  -3   6    0.45    0.69
   4  -3   6    1.63    0.67
  -5   3  -6   21.21    1.37
  -5   3  -6   20.87    0.69
  -5   3  -6   23.55    1.89
   5  -3   6   22.19    1.69
   5  -3   6   22.58    1.50
  -6   3  -6    0.14    0.83
  -6   3  -6    0.75    1.05
   6  -3   6    0.75    0.85
   6  -3   6    0.66    0.90
  -7   3  -6   14.76    2.05
  -7   3  -6   13.08    1.58
   7  -3   6   12.37    1.74
   7  -3   6   12.89    1.63
  -8   3  -6   19.45    1.88
  -8   3  -6   22.28    2.16
  -8   3  -6   20.81    2.32
   8  -3   6   20.12    1.78
   8  -3   6   15.94    1.89
  -9   3  -6    6.52    1.96
  -9   3  -6    7.45    1.77
  -9   3  -6    6.95    1.77
   9  -3   6    8.23    1.77
   9  -3   6    6.64    1.60
  10   2  -6   -1.29    1.36
  10   2  -6   -0.59    1.74
 -10  -2   6   -0.18    1.47
 -10  -2   6    0.21    1.39
   9   2  -6    3.02    1.40
   9   2  -6    5.26    1.71
  -9  -2   6    2.43    1.42
  -9  -2   6    4.80    1.41
   8   2  -6    0.33    1.05
   8   2  -6   -1.39    1.17
  -8  -2   6   -0.19    1.08
  -8  -2   6   -0.13    0.89
   7   2  -6   11.96    1.44
   7   2  -6   11.10    1.36
   7   2  -6    9.92    1.61
  -7  -2   6   10.85    1.45
  -7  -2   6   12.23    1.33
   6   2  -6   32.12    2.01
   6   2  -6   31.09    1.76
   6   2  -6   35.81    1.71
  -6  -2   6   36.24    1.81
  -6  -2   6   36.74    2.06
  -6  -2   6   33.06    1.82
  -6  -2   6   34.11    2.01
   5   2  -6   26.68    1.31
   5   2  -6   22.29    1.54
   5   2  -6   22.75    1.66
  -5  -2   6   25.65    1.64
  -5  -2   6   28.82    1.48
  -5  -2   6   24.83    1.43
   4   2  -6   16.89    1.22
   4   2  -6   18.07    0.97
   4   2  -6   17.85    1.36
  -4  -2   6   18.32    1.16
  -4  -2   6   17.37    1.33
  -4  -2   6   17.51    1.18
   3   2  -6   49.87    1.88
   3   2  -6   47.11    1.98
   3   2  -6   49.29    1.35
   3   2  -6   47.81    1.36
   3   2  -6   47.42    1.46
  -3  -2   6   48.74    1.87
  -3  -2   6   45.71    1.75
  -3  -2   6   46.56    1.28
  -3  -2   6   49.03    2.01
   2   2  -6   15.61    1.27
   2   2  -6   15.37    1.08
   2   2  -6   17.98    0.75
   2   2  -6   16.88    1.17
   2   2  -6   19.10    0.90
   2   2  -6   18.59    0.64
   2   2  -6   17.06    1.14
  -2  -2   6   17.90    1.19
  -2  -2   6   17.22    1.12
  -2  -2   6   17.51    0.82
   1   2  -6   15.82    1.15
   1   2  -6   16.79    1.18
   1   2  -6   16.75    1.01
   1   2  -6   16.43    1.04
   1   2  -6   16.91    1.00
  -1  -2   6   16.91    0.90
  -1  -2   6   16.22    1.10
   0   2  -6    0.06    0.50
   0   2  -6    0.45    0.43
   0   2  -6    0.38    0.27
   0   2  -6   -0.35    0.45
   0   2  -6    1.57    0.65
   0   2  -6   -0.10    0.59
   0  -2   6   -0.13    0.50
   0  -2   6    0.25    0.20
   0  -2   6    0.31    0.39
   0  -2   6   -0.09    0.38
  -1   2  -6    0.09    0.33
  -1   2  -6   -1.20    0.43
  -1   2  -6   -0.47    0.65
  -1   2  -6    0.99    0.64
  -1   2  -6    0.07    0.41
  -1   2  -6    0.20    0.33
   1  -2   6   -0.17    0.24
   1  -2   6    0.03    0.45
  -2   2  -6   85.64    2.87
  -2   2  -6   86.60    2.86
  -2   2  -6   86.54    2.77
  -2   2  -6   92.72    2.37
  -2   2  -6   91.47    2.46
   2  -2   6   88.60    2.78
   2  -2   6   91.94    2.66
   2  -2   6   94.13    2.40
   2  -2   6   90.68    2.91
   2  -2   6   89.31    2.34
  -3   2  -6    3.26    0.73
  -3   2  -6    2.75    0.52
  -3   2  -6    3.52    0.73
  -3   2  -6    2.12    0.81
   3  -2   6    1.68    0.74
   3  -2   6    3.12    0.56
   3  -2   6    2.60    0.53
   3  -2   6    1.97    0.61
  -4   2  -6   45.98    2.11
  -4   2  -6   45.11    1.44
  -4   2  -6   49.73    1.94
   4  -2   6   44.16    1.77
   4  -2   6   44.04    1.98
   4  -2   6   45.17    1.40
   4  -2   6   43.60    2.04
  -5   2  -6    4.99    0.63
  -5   2  -6    6.14    1.06
  -5   2  -6    4.32    1.08
   5  -2   6    5.45    0.65
   5  -2   6    4.60    1.02
   5  -2   6    5.38    0.85
  -6   2  -6   45.95    1.47
  -6   2  -6   49.45    2.19
  -6   2  -6   44.25    2.44
   6  -2   6   46.03    1.46
   6  -2   6   46.01    2.30
   6  -2   6   46.63    2.17
  -7   2  -6    6.89    0.73
  -7   2  -6    9.91    1.44
  -7   2  -6    7.77    1.52
   7  -2   6    5.85    1.14
   7  -2   6    7.56    1.28
   7  -2   6    9.12    0.86
  -8   2  -6    0.55    1.08
  -8   2  -6   -1.87    1.20
   8  -2   6    2.41    1.16
   8  -2   6    0.43    1.10
  -9   2  -6    0.05    1.34
  -9   2  -6   -0.24    1.22
  -9   2  -6    3.32    1.45
   9  -2   6    0.16    1.28
   9  -2   6   -0.36    0.90
 -10   2  -6    4.72    1.91
 -10   2  -6    2.95    1.57
 -10   2  -6    6.59    1.75
  10  -2   6    2.92    1.23
  10  -2   6    2.27    1.64
  10   1  -6    2.74    1.89
  10   1  -6    1.95    1.63
 -10  -1   6   -0.64    1.67
 -10  -1   6    0.74    1.37
   9   1  -6    1.97    1.35
   9   1  -6    2.97    1.61
  -9  -1   6    3.18    1.49
  -9  -1   6    1.20    1.24
  -9  -1   6    0.21    1.04
   8   1  -6    1.66    1.26
   8   1  -6    2.09    1.11
  -8  -1   6    0.09    1.15
  -8  -1   6    0.91    0.98
  -8  -1   6    0.23    0.87
   7   1  -6   26.26    1.97
   7   1  -6   26.79    1.74
  -7  -1   6   23.88    1.57
  -7  -1   6   23.23    1.65
  -7  -1   6   25.33    1.97
   6   1  -6    0.53    0.66
   6   1  -6   -0.85    1.09
   6   1  -6    0.82    1.02
  -6  -1   6    0.14    0.69
  -6  -1   6   -0.54    0.76
  -6  -1   6    0.58    0.74
   5   1  -6   28.21    1.78
   5   1  -6   31.97    1.41
   5   1  -6   30.87    1.81
  -5  -1   6   30.36    1.82
  -5  -1   6   29.56    1.47
  -5  -1   6   31.54    1.59
   4   1  -6   76.75    2.71
   4   1  -6   74.97    2.11
   4   1  -6   69.21    2.42
  -4  -1   6   71.37    2.65
  -4  -1   6   73.67    2.22
  -4  -1   6   74.98    2.43
  -4  -1   6   77.26    2.49
   3   1  -6    0.77    0.68
   3   1  -6    0.78    0.38
   3   1  -6    0.51    0.22
   3   1  -6    0.71    0.62
  -3  -1   6    0.77    0.18
  -3  -1   6    0.75    0.51
  -3  -1   6    0.58    0.47
  -3  -1   6    0.91    0.47
   2   1  -6   60.01    1.99
   2   1  -6   62.14    2.14
   2   1  -6   59.70    1.45
   2   1  -6   56.69    2.15
   2   1  -6   64.56    1.41
   2   1  -6   59.73    2.16
   2   1  -6   62.57    1.66
  -2  -1   6   63.09    1.62
  -2  -1   6   61.43    2.23
  -2  -1   6   63.29    2.16
   1   1  -6    3.33    0.71
   1   1  -6    2.26    0.72
   1   1  -6    3.04    0.16
   1   1  -6    2.83    0.52
   1   1  -6    3.14    0.70
   1   1  -6    3.29    0.63
   1   1  -6    3.22    0.18
  -1  -1   6    2.38    0.62
  -1  -1   6    3.63    0.49
  -1  -1   6    4.09    0.70
   0   1  -6    0.43    0.46
   0   1  -6    0.75    0.48
   0   1  -6   -0.55    0.52
   0   1  -6    0.29    0.16
   0   1  -6    0.10    0.33
   0   1  -6    0.76    0.62
   0  -1   6    0.01    0.34
   0  -1   6    0.15    0.56
   0  -1   6    0.28    0.37
   0  -1   6   -0.28    0.44
  -1   1  -6   15.53    1.09
  -1   1  -6   17.96    0.97
  -1   1  -6   16.63    0.93
  -1   1  -6   17.91    0.69
  -1   1  -6   16.50    1.05
  -1   1  -6   17.27    1.09
   1  -1   6   16.24    0.96
   1  -1   6   16.39    0.99
   1  -1   6   17.03    0.61
   1  -1   6   15.85    1.09
   1  -1   6   16.75    1.08
  -2   1  -6  151.92    3.95
  -2   1  -6  146.31    3.87
  -2   1  -6  146.78    3.56
  -2   1  -6  146.93    3.76
  -2   1  -6  149.88    3.46
  -2   1  -6  152.79    3.93
   2  -1   6  150.77    3.86
   2  -1   6  146.88    3.36
   2  -1   6  153.33    3.58
   2  -1   6  146.44    3.72
   2  -1   6  146.31    3.94
  -3   1  -6  194.39    4.91
  -3   1  -6  200.93    4.51
  -3   1  -6  203.88    4.65
  -3   1  -6  192.16    4.84
  -3   1  -6  193.94    4.95
  -3   1  -6  194.68    4.97
   3  -1   6  204.02    4.48
   3  -1   6  199.26    4.98
   3  -1   6  200.81    4.80
   3  -1   6  201.68    4.54
  -4   1  -6    0.45    0.47
  -4   1  -6    0.61    0.69
  -4   1  -6    0.40    0.42
  -4   1  -6   -0.27    0.66
  -4   1  -6   -0.22    0.78
   4  -1   6    0.22    0.60
   4  -1   6    0.38    0.56
   4  -1   6   -0.24    0.42
   4  -1   6    0.10    0.46
  -5   1  -6    1.13    0.58
  -5   1  -6    1.40    0.52
  -5   1  -6   -0.31    0.70
   5  -1   6    0.90    0.56
   5  -1   6    0.79    0.62
   5  -1   6   -0.85    0.64
   5  -1   6    0.10    0.67
  -6   1  -6    6.12    0.98
  -6   1  -6    4.90    1.02
  -6   1  -6    5.93    0.79
   6  -1   6    5.51    1.13
   6  -1   6    7.02    0.87
   6  -1   6    5.93    1.04
  -7   1  -6   61.69    2.59
  -7   1  -6   60.40    2.79
  -7   1  -6   60.70    1.98
   7  -1   6   55.81    1.96
   7  -1   6   58.02    2.56
   7  -1   6   59.38    2.57
  -8   1  -6    8.76    0.99
  -8   1  -6   11.26    1.54
  -8   1  -6   11.20    1.43
   8  -1   6    9.94    1.43
   8  -1   6    8.79    1.19
   8  -1   6   10.39    1.52
  -9   1  -6   25.69    2.27
  -9   1  -6   22.43    1.99
  -9   1  -6   24.86    2.07
  -9   1  -6   22.37    1.70
   9  -1   6   21.07    2.01
   9  -1   6   24.16    1.92
 -10   1  -6   18.29    2.07
 -10   1  -6   16.45    2.13
 -10   1  -6   15.11    2.30
  10  -1   6   16.13    2.09
  10  -1   6   17.08    2.30
   9   0  -6   -0.21    1.42
   9   0  -6   -1.58    1.21
  -9   0   6   -1.57    1.42
  -9   0   6   -1.05    1.09
  -9   0   6   -0.97    1.12
   8   0  -6    2.86    1.22
   8   0  -6    1.71    1.33
  -8   0   6    2.60    1.02
  -8   0   6    1.03    0.96
  -8   0   6    1.31    1.17
   7   0  -6    1.57    0.97
   7   0  -6    2.32    1.25
  -7   0   6    3.16    1.22
  -7   0   6    1.10    0.90
  -7   0   6    1.03    0.94
   6   0  -6   48.86    2.40
   6   0  -6   47.10    2.03
  -6   0   6   50.05    2.12
  -6   0   6   45.89    2.42
  -6   0   6   47.50    2.04
   5   0  -6    5.25    0.81
   5   0  -6    5.42    1.12
  -5   0   6    4.22    1.01
  -5   0   6    5.89    0.96
  -5   0   6    3.77    0.83
  -5   0   6    3.05    0.80
   4   0  -6   47.66    2.07
   4   0  -6   50.62    2.15
   4   0  -6   48.57    1.61
  -4   0   6   46.66    1.79
  -4   0   6   46.66    1.75
  -4   0   6   49.83    1.99
  -4   0   6   47.23    2.14
   3   0  -6   36.14    1.16
   3   0  -6   31.72    1.62
   3   0  -6   34.18    1.68
  -3   0   6   34.45    1.48
  -3   0   6   35.12    1.73
  -3   0   6   36.15    1.27
  -3   0   6   33.12    1.76
  -3   0   6   34.10    0.78
   2   0  -6   19.74    1.23
   2   0  -6   19.96    0.78
   2   0  -6   20.88    1.12
   2   0  -6   18.37    1.19
   2   0  -6   18.81    0.64
   2   0  -6   20.37    1.35
  -2   0   6   19.12    0.71
  -2   0   6   19.26    0.75
  -2   0   6   19.46    1.20
  -2   0   6   18.55    1.15
   1   0  -6   37.53    1.42
   1   0  -6   37.92    1.28
   1   0  -6   36.92    1.59
   1   0  -6   38.40    1.60
   1   0  -6   39.34    1.57
  -1   0   6   35.83    1.23
  -1   0   6   37.45    1.64
  -1   0   6   37.10    1.56
  -1   0   6   38.00    1.60
   0   0  -6   20.69    1.19
   0   0  -6   20.11    1.00
   0   0  -6   18.30    1.00
   0   0  -6   18.91    1.02
   0   0  -6   19.58    0.99
   0   0  -6   17.57    1.04
   0   0   6   17.19    1.11
   0   0   6   17.83    1.08
   0   0   6   17.94    1.02
   0   0   6   18.67    0.92
  -1   0  -6    0.72    0.19
  -1   0  -6    0.69    0.56
  -1   0  -6    0.78    0.45
  -1   0  -6    1.43    0.51
  -1   0  -6    1.15    0.50
  -1   0  -6    0.89    0.56
   1   0   6    0.81    0.46
   1   0   6    0.30    0.37
   1   0   6    0.90    0.16
   1   0   6    0.34    0.52
   1   0   6    0.75    0.44
  -2   0  -6    5.91    0.79
  -2   0  -6    6.32    0.82
  -2   0  -6    5.96    0.87
  -2   0  -6    5.56    0.82
  -2   0  -6    6.28    0.68
  -2   0  -6    4.46    0.51
   2   0   6    5.55    0.67
   2   0   6    5.11    0.67
   2   0   6    4.77    0.67
   2   0   6    5.02    0.45
   2   0   6    5.46    0.75
  -3   0  -6   12.98    1.05
  -3   0  -6   10.89    0.93
  -3   0  -6    9.77    1.07
  -3   0  -6   10.80    0.98
  -3   0  -6   10.15    0.82
  -3   0  -6   10.56    0.78
   3   0   6   11.58    0.99
   3   0   6   11.59    0.85
   3   0   6   10.85    0.73
   3   0   6   11.43    0.96
   3   0   6   11.64    0.96
  -4   0  -6    0.81    0.62
  -4   0  -6    0.25    0.67
  -4   0  -6    1.65    0.53
  -4   0  -6    1.09    0.58
  -4   0  -6    0.51    0.58
   4   0   6    0.89    0.63
   4   0   6    0.97    0.49
   4   0   6    0.55    0.51
   4   0   6    1.29    0.56
  -5   0  -6   24.74    1.56
  -5   0  -6   21.12    1.40
  -5   0  -6   19.68    1.32
  -5   0  -6   23.04    1.15
  -5   0  -6   23.75    1.47
   5   0   6   21.97    1.17
   5   0   6   23.42    1.28
   5   0   6   20.80    1.46
  -6   0  -6   25.57    1.57
  -6   0  -6   27.17    1.65
  -6   0  -6   28.94    1.71
  -6   0  -6   25.57    1.29
   6   0   6   26.74    1.36
   6   0   6   27.60    1.72
   6   0   6   26.72    1.59
   6   0   6   27.85    1.59
  -7   0  -6    0.12    0.87
  -7   0  -6   -0.11    0.58
  -7   0  -6    0.56    0.80
   7   0   6   -0.01    0.83
   7   0   6    0.45    0.83
   7   0   6    0.54    0.79
  -8   0  -6    1.44    0.99
  -8   0  -6    1.02    1.14
  -8   0  -6    1.10    0.81
   8   0   6    2.81    1.16
   8   0   6    1.80    1.05
   8   0   6    1.43    0.81
  -9   0  -6   18.05    1.48
  -9   0  -6   15.33    1.90
  -9   0  -6   15.39    1.75
   9   0   6   17.50    2.05
   9   0   6   19.40    1.91
 -10   0  -6    1.49    1.13
 -10   0  -6   -1.44    1.19
 -10   0  -6    1.53    1.14
 -10   0  -6    1.48    1.43
  10   0   6    1.17    1.31
  10   0   6    0.06    1.22
 -11   0  -6    7.01    1.49
 -11   0  -6    3.97    1.41
 -11   0  -6    2.92    1.72
 -11   0  -6    6.17    1.83
  11   0   6    5.36    1.73
  11   0   6    5.41    1.82
   9  -1  -6    2.37    1.72
   9  -1  -6    2.78    1.41
  -9   1   6    3.87    1.78
  -9   1   6    2.81    1.43
  -9   1   6    4.00    1.41
   8  -1  -6   -1.15    1.27
   8  -1  -6    1.45    1.15
  -8   1   6    0.25    1.06
  -8   1   6   -2.17    1.25
  -8   1   6    0.48    1.16
   7  -1  -6    6.82    1.28
   7  -1  -6    8.18    1.58
  -7   1   6    7.34    1.24
  -7   1   6    7.93    1.44
  -7   1   6    5.76    1.19
   6  -1  -6    0.74    0.77
   6  -1  -6    0.98    1.04
  -6   1   6    0.02    0.75
  -6   1   6    2.30    0.88
  -6   1   6    2.49    1.10
   5  -1  -6    5.90    0.88
   5  -1  -6    5.56    1.18
  -5   1   6    5.27    1.00
  -5   1   6    6.85    1.28
  -5   1   6    4.10    0.94
  -5   1   6    6.41    0.98
   4  -1  -6    1.26    0.75
   4  -1  -6   -0.15    0.44
  -4   1   6    0.22    0.76
  -4   1   6    0.42    0.56
  -4   1   6   -0.63    0.51
  -4   1   6   -0.13    0.61
   3  -1  -6    3.21    0.51
   3  -1  -6    4.77    0.86
   3  -1  -6    3.54    1.00
  -3   1   6    3.38    0.34
  -3   1   6    3.43    0.68
  -3   1   6    2.81    0.76
  -3   1   6    3.49    0.32
  -3   1   6    3.63    0.63
  -3   1   6    3.49    0.84
   2  -1  -6   46.52    1.64
   2  -1  -6   44.31    1.82
   2  -1  -6   48.13    1.28
   2  -1  -6   47.17    1.88
  -2   1   6   46.22    1.91
  -2   1   6   47.42    1.35
  -2   1   6   47.68    1.38
   1  -1  -6    1.75    0.21
   1  -1  -6    2.29    0.48
   1  -1  -6    1.64    0.55
   1  -1  -6    1.78    0.47
   1  -1  -6    1.54    0.65
  -1   1   6    2.63    0.45
  -1   1   6    1.91    0.25
  -1   1   6    2.05    0.58
  -1   1   6    3.08    0.69
  -1   1   6    2.65    0.61
   0  -1  -6    7.70    0.76
   0  -1  -6    8.15    0.65
   0  -1  -6    8.57    0.72
   0  -1  -6    8.29    0.74
   0  -1  -6    8.78    0.84
   0  -1  -6    7.49    0.71
   0   1   6    6.32    0.74
   0   1   6    7.00    0.68
   0   1   6    7.49    0.88
   0   1   6    7.94    0.83
  -1  -1  -6    4.54    0.69
  -1  -1  -6    3.77    0.77
  -1  -1  -6    3.70    0.63
  -1  -1  -6    3.28    0.62
  -1  -1  -6    4.78    0.74
   1   1   6    3.67    0.73
   1   1   6    3.58    0.63
   1   1   6    3.50    0.21
   1   1   6    3.41    0.25
   1   1   6    3.91    0.73
   1   1   6    4.04    0.61
  -2  -1  -6  109.91    2.95
  -2  -1  -6  109.10    2.91
  -2  -1  -6  112.02    3.02
  -2  -1  -6  106.90    2.86
  -2  -1  -6  111.06    3.01
   2   1   6  111.50    2.50
   2   1   6  110.84    2.89
   2   1   6  106.83    3.07
   2   1   6  110.52    2.92
   2   1   6  106.46    3.00
   2   1   6  105.32    2.91
  -3  -1  -6    1.21    0.44
  -3  -1  -6    0.10    0.39
  -3  -1  -6    0.98    0.49
  -3  -1  -6    0.66    0.49
  -3  -1  -6    0.44    0.57
  -3  -1  -6    0.79    0.51
   3   1   6    0.29    0.46
   3   1   6    0.38    0.34
   3   1   6    0.74    0.54
   3   1   6    0.56    0.38
   3   1   6    0.97    0.54
  -4  -1  -6    5.16    0.84
  -4  -1  -6    4.94    0.75
  -4  -1  -6    5.03    0.79
  -4  -1  -6    5.94    0.86
  -4  -1  -6    6.55    1.05
  -4  -1  -6    4.85    0.76
  -4  -1  -6    5.81    0.84
   4   1   6    5.06    0.93
   4   1   6    5.21    0.90
   4   1   6    5.92    0.80
   4   1   6    5.14    0.81
   4   1   6    4.46    0.67
  -5  -1  -6    2.84    0.70
  -5  -1  -6    2.61    0.67
  -5  -1  -6    3.21    1.65
  -5  -1  -6    3.05    0.85
  -5  -1  -6    2.14    0.76
   5   1   6    4.00    0.76
   5   1   6    3.02    0.68
   5   1   6    2.87    0.84
   5   1   6    3.18    0.70
  -6  -1  -6   44.82    1.86
  -6  -1  -6   43.77    1.97
  -6  -1  -6   41.41    1.94
  -6  -1  -6   45.51    1.83
   6   1   6   46.05    1.97
   6   1   6   44.26    1.77
   6   1   6   46.50    2.15
   6   1   6   43.91    1.81
  -7  -1  -6   -2.28    0.85
  -7  -1  -6   -0.52    0.74
  -7  -1  -6    2.03    0.75
  -7  -1  -6    0.40    0.72
   7   1   6   -0.80    0.95
   7   1   6   -0.45    0.54
   7   1   6   -0.25    0.52
  -8  -1  -6    1.25    1.09
  -8  -1  -6    2.07    0.90
  -8  -1  -6    2.12    0.82
  -8  -1  -6    1.90    0.94
   8   1   6    1.98    1.01
   8   1   6    3.57    1.15
  -9  -1  -6   12.02    1.40
  -9  -1  -6   14.76    1.78
  -9  -1  -6   14.41    1.82
   9   1   6   15.16    1.72
   9   1   6   12.35    1.72
 -10  -1  -6   23.84    2.24
 -10  -1  -6   18.46    1.68
 -10  -1  -6   20.73    2.00
 -10  -1  -6   21.09    1.77
  10   1   6   17.03    1.78
  10   1   6   21.49    2.09
 -11  -1  -6    0.01    1.43
 -11  -1  -6    0.98    1.33
 -11  -1  -6    2.17    1.17
 -11  -1  -6    3.11    1.19
  11   1   6   -0.60    1.48
  11   1   6    0.48    1.44
   8  -2  -6    0.39    1.30
   8  -2  -6    1.89    1.43
  -8   2   6   -1.12    1.16
  -8   2   6   -0.70    1.40
  -8   2   6   -2.26    1.22
   7  -2  -6   -0.06    0.93
   7  -2  -6   -0.26    1.26
  -7   2   6   -0.52    0.93
  -7   2   6   -0.87    1.18
  -7   2   6    0.63    1.03
   6  -2  -6    1.27    0.82
   6  -2  -6    1.35    1.05
  -6   2   6    1.56    1.13
  -6   2   6    2.67    0.90
  -6   2   6    1.89    0.97
   5  -2  -6   18.62    1.66
   5  -2  -6   20.88    1.36
  -5   2   6   19.82    1.32
  -5   2   6   19.87    0.61
  -5   2   6   20.39    1.72
  -5   2   6   18.68    0.58
  -5   2   6   17.90    1.53
   4  -2  -6   22.35    1.53
  -4   2   6   23.94    0.92
  -4   2   6   22.66    0.86
  -4   2   6   24.25    1.68
  -4   2   6   23.79    1.30
  -4   2   6   24.34    1.58
  -4   2   6   18.46    1.41
   3  -2  -6    3.28    0.83
   3  -2  -6    2.54    0.52
   3  -2  -6    1.92    0.79
  -3   2   6    1.01    0.66
  -3   2   6    1.83    0.76
  -3   2   6    2.67    0.83
  -3   2   6    2.68    0.47
  -3   2   6    2.67    0.45
  -3   2   6    2.74    0.63
   2  -2  -6   72.88    2.45
   2  -2  -6   69.32    1.86
   2  -2  -6   72.42    2.14
  -2   2   6   66.45    2.46
  -2   2   6   71.77    2.50
  -2   2   6   71.30    1.97
  -2   2   6   72.72    2.01
   1  -2  -6   75.70    2.47
   1  -2  -6   77.45    2.16
   1  -2  -6   75.94    2.50
   1  -2  -6   75.93    2.14
   1  -2  -6   74.71    2.59
   1  -2  -6   78.56    1.84
  -1   2   6   78.33    1.93
  -1   2   6   75.88    2.53
  -1   2   6   73.14    2.51
  -1   2   6   78.10    2.16
   0  -2  -6   98.34    2.62
   0  -2  -6   96.51    2.87
   0  -2  -6   94.92    2.11
   0  -2  -6   98.54    2.74
   0  -2  -6   99.54    2.60
   0  -2  -6   93.22    2.82
   0  -2  -6   98.42    2.51
   0   2   6   96.75    2.74
   0   2   6   92.70    2.92
   0   2   6   94.30    2.59
   0   2   6   95.50    2.82
  -1  -2  -6   39.94    1.56
  -1  -2  -6   40.46    1.49
  -1  -2  -6   39.18    1.69
  -1  -2  -6   41.75    1.64
  -1  -2  -6   41.54    1.45
   1   2   6   40.69    1.63
   1   2   6   41.35    1.55
   1   2   6   41.81    1.51
   1   2   6   40.80    1.15
   1   2   6   40.30    1.62
  -2  -2  -6   -0.37    0.39
  -2  -2  -6   -0.21    0.45
  -2  -2  -6    0.24    0.58
  -2  -2  -6   -0.42    0.55
  -2  -2  -6    0.14    0.40
   2   2   6    0.50    0.27
   2   2   6   -0.14    0.35
   2   2   6   -0.06    0.53
   2   2   6   -0.06    0.44
   2   2   6   -0.18    0.44
   2   2   6   -0.04    0.22
   2   2   6   -1.05    0.45
  -3  -2  -6    5.20    0.67
  -3  -2  -6    5.11    0.78
  -3  -2  -6    3.18    0.70
  -3  -2  -6    5.04    0.75
  -3  -2  -6    4.70    0.61
   3   2   6    3.59    0.71
   3   2   6    3.58    0.79
   3   2   6    3.87    0.57
   3   2   6    4.38    0.76
   3   2   6    4.22    0.72
  -4  -2  -6    1.52    0.87
  -4  -2  -6    3.47    0.73
  -4  -2  -6    4.41    0.63
  -4  -2  -6    3.98    0.67
  -4  -2  -6    3.07    0.74
   4   2   6    4.07    0.63
   4   2   6    3.90    0.82
   4   2   6    3.27    0.79
   4   2   6    3.65    0.68
   4   2   6    3.73    0.79
  -5  -2  -6   50.10    1.87
  -5  -2  -6   52.18    1.87
  -5  -2  -6   50.90    1.97
  -5  -2  -6   50.53    1.83
  -5  -2  -6   51.78    1.99
   5   2   6   53.52    1.96
   5   2   6   52.73    2.17
   5   2   6   51.41    1.92
   5   2   6   51.39    1.89
  -6  -2  -6    0.40    0.59
  -6  -2  -6    0.34    0.62
  -6  -2  -6    0.76    0.67
  -6  -2  -6    1.02    0.65
   6   2   6    0.49    0.57
   6   2   6   -1.11    0.82
   6   2   6    0.13    0.64
   6   2   6   -0.23    0.61
  -7  -2  -6   23.83    1.50
  -7  -2  -6   26.14    1.62
  -7  -2  -6   27.09    1.47
  -7  -2  -6   27.29    1.53
   7   2   6   24.17    1.70
   7   2   6   27.05    1.44
   7   2   6   25.46    1.64
  -8  -2  -6   46.99    1.98
  -8  -2  -6   47.13    2.13
  -8  -2  -6   51.43    2.35
  -8  -2  -6   45.90    2.16
   8   2   6   50.84    1.97
   8   2   6   49.26    2.45
   8   2   6   53.07    2.47
  -9  -2  -6   -2.33    0.93
  -9  -2  -6    1.35    0.99
  -9  -2  -6    0.74    0.96
  -9  -2  -6    0.15    0.93
   9   2   6    1.05    1.02
   9   2   6   -0.95    0.98
 -10  -2  -6   49.85    2.70
 -10  -2  -6   51.29    2.55
 -10  -2  -6   53.47    2.74
  10   2   6   49.94    2.77
  10   2   6   57.21    2.96
 -11  -2  -6   17.71    1.99
 -11  -2  -6   15.13    1.92
 -11  -2  -6   16.83    1.55
 -11  -2  -6   15.45    1.99
  11   2   6   15.53    2.09
  11   2   6   15.77    2.05
 -12  -2  -6   -1.41    1.49
 -12  -2  -6    1.26    1.54
  12   2   6   -1.58    1.43
  12   2   6   -4.10    1.56
   8  -3  -6    2.31    1.69
   8  -3  -6    3.64    1.53
  -8   3   6    0.44    1.43
  -8   3   6    0.99    1.43
   7  -3  -6   -0.46    1.05
   7  -3  -6   -1.02    1.19
  -7   3   6    0.62    1.35
  -7   3   6   -0.07    1.07
  -7   3   6    0.85    1.33
   6  -3  -6    4.45    1.14
   6  -3  -6    5.31    1.39
  -6   3   6    3.79    1.11
  -6   3   6    3.10    1.20
  -6   3   6    3.21    0.58
  -6   3   6    4.04    1.32
   5  -3  -6    0.90    0.75
   5  -3  -6    0.65    0.97
  -5   3   6    1.12    0.63
  -5   3   6    0.57    0.53
  -5   3   6    1.64    1.02
  -5   3   6    1.04    0.96
  -5   3   6    0.53    0.77
   4  -3  -6    0.79    0.61
   4  -3  -6    0.69    0.86
  -4   3   6   -0.55    0.73
  -4   3   6    0.15    0.52
  -4   3   6    1.87    0.90
  -4   3   6    0.27    0.55
  -4   3   6    0.89    0.64
   3  -3  -6   74.32    2.20
   3  -3  -6   70.91    2.36
   3  -3  -6   70.54    2.59
  -3   3   6   74.46    2.05
  -3   3   6   68.97    2.71
  -3   3   6   72.00    2.13
  -3   3   6   69.48    2.72
  -3   3   6   70.10    2.38
  -3   3   6   75.12    2.27
   2  -3  -6   -0.09    0.59
   2  -3  -6    0.77    0.63
   2  -3  -6   -0.18    0.35
  -2   3   6   -0.68    0.55
  -2   3   6   -0.18    0.63
  -2   3   6   -0.12    0.48
  -2   3   6    0.60    0.60
  -2   3   6    0.11    0.48
   1  -3  -6    0.50    0.63
   1  -3  -6    1.12    0.48
   1  -3  -6    1.07    0.37
   1  -3  -6    0.88    0.63
  -1   3   6    0.71    0.59
  -1   3   6    1.20    0.48
  -1   3   6    1.66    0.51
  -1   3   6    1.87    0.73
   0  -3  -6    4.17    0.77
   0  -3  -6    4.26    0.56
   0  -3  -6    2.22    0.69
   0  -3  -6    3.27    0.40
   0  -3  -6    3.27    0.55
   0  -3  -6    3.40    0.77
   0  -3  -6    3.00    0.76
   0   3   6    3.30    0.66
   0   3   6    3.06    0.45
   0   3   6    3.53    0.85
   0   3   6    2.81    0.66
   0   3   6    3.33    0.67
  -1  -3  -6   31.40    1.21
  -1  -3  -6   31.14    1.31
  -1  -3  -6   28.82    1.56
  -1  -3  -6   30.58    1.45
   1   3   6   30.70    1.41
   1   3   6   32.55    1.01
   1   3   6   33.32    1.33
   1   3   6   31.67    1.41
  -2  -3  -6   79.02    2.52
  -2  -3  -6   82.39    2.58
  -2  -3  -6   84.46    2.32
  -2  -3  -6   84.26    2.28
   2   3   6   85.04    2.59
   2   3   6   83.17    2.60
   2   3   6   84.27    2.24
   2   3   6   85.01    2.63
   2   3   6   84.87    2.03
   2   3   6   80.90    2.28
  -3  -3  -6  128.84    3.44
  -3  -3  -6  118.58    3.44
  -3  -3  -6  131.51    3.05
  -3  -3  -6  127.74    3.24
   3   3   6  125.62    3.16
   3   3   6  122.34    3.07
   3   3   6  125.70    3.19
   3   3   6  123.52    3.55
   3   3   6  120.43    3.38
   3   3   6  127.61    3.45
  -4  -3  -6    1.25    0.63
  -4  -3  -6    1.30    0.42
  -4  -3  -6    1.76    0.71
  -4  -3  -6    0.96    0.50
  -4  -3  -6    1.76    0.62
   4   3   6    1.17    0.52
   4   3   6    0.94    0.62
   4   3   6    1.02    0.76
   4   3   6    1.19    0.51
   4   3   6    0.20    0.61
  -5  -3  -6    5.16    0.70
  -5  -3  -6    6.43    0.85
  -5  -3  -6    5.52    0.70
  -5  -3  -6    6.57    0.98
  -5  -3  -6    6.98    1.02
  -5  -3  -6    6.91    0.95
   5   3   6    6.63    0.80
   5   3   6    6.21    0.95
   5   3   6    5.93    0.87
  -6  -3  -6   15.50    1.20
  -6  -3  -6   13.06    0.99
  -6  -3  -6   12.98    1.02
  -6  -3  -6   13.17    1.10
  -6  -3  -6   13.03    1.17
   6   3   6   13.63    1.06
   6   3   6   14.67    1.35
   6   3   6   15.05    1.09
  -7  -3  -6    8.00    1.02
  -7  -3  -6    7.65    0.95
  -7  -3  -6    8.44    1.23
  -7  -3  -6    8.53    1.20
   7   3   6    7.79    1.28
   7   3   6    8.79    1.24
   7   3   6    8.68    0.98
  -8  -3  -6   -0.46    0.75
  -8  -3  -6   -0.53    0.56
  -8  -3  -6   -0.45    0.65
  -8  -3  -6    0.06    0.83
   8   3   6    0.24    0.64
   8   3   6   -0.34    0.59
   8   3   6   -0.20    0.84
  -9  -3  -6    8.83    1.39
  -9  -3  -6    8.07    1.26
  -9  -3  -6    9.31    1.49
  -9  -3  -6    7.45    1.08
   9   3   6    8.61    1.46
   9   3   6    8.08    1.30
 -10  -3  -6   20.50    1.79
 -10  -3  -6   20.40    1.89
 -10  -3  -6   17.94    1.87
  10   3   6   21.10    2.10
  10   3   6   23.12    2.08
 -11  -3  -6    4.28    1.41
 -11  -3  -6    2.23    0.75
 -11  -3  -6    4.00    1.24
 -11  -3  -6    2.15    1.13
  11   3   6    2.14    1.11
  11   3   6    2.78    1.46
 -12  -3  -6    2.46    1.67
 -12  -3  -6    0.09    1.54
 -12  -3  -6    3.13    1.46
  12   3   6    4.26    1.76
  12   3   6    2.38    1.82
   7  -4  -6    6.68    1.41
   7  -4  -6    6.67    1.67
  -7   4   6    3.86    1.65
  -7   4   6    5.15    1.92
  -7   4   6    3.04    1.29
   6  -4  -6    0.16    0.96
   6  -4  -6    1.16    1.25
  -6   4   6    1.04    1.00
  -6   4   6    2.32    1.40
  -6   4   6    1.20    1.21
  -6   4   6   -0.13    0.77
   5  -4  -6    3.93    1.00
   5  -4  -6    4.44    1.22
  -5   4   6    3.51    0.98
  -5   4   6    1.87    0.81
  -5   4   6    3.82    1.36
  -5   4   6    1.76    1.11
   4  -4  -6   32.37    1.99
   4  -4  -6   27.53    1.53
  -4   4   6   31.80    1.53
  -4   4   6   29.64    2.05
  -4   4   6   28.84    1.57
  -4   4   6   29.28    2.04
  -4   4   6   29.01    1.51
   3  -4  -6   11.16    1.19
   3  -4  -6    8.55    0.98
   3  -4  -6   10.42    1.22
  -3   4   6   10.04    1.36
  -3   4   6    8.96    1.07
  -3   4   6    8.64    0.99
  -3   4   6   10.26    1.18
   2  -4  -6    5.60    1.07
   2  -4  -6    7.10    0.85
  -2   4   6    6.80    0.96
  -2   4   6    6.22    1.01
  -2   4   6    7.57    0.90
  -2   4   6    5.29    1.02
  -2   4   6    7.33    0.99
   1  -4  -6    3.28    0.60
   1  -4  -6    3.29    0.79
   1  -4  -6    2.28    0.51
  -1   4   6    2.28    0.84
  -1   4   6    2.81    0.71
  -1   4   6    2.74    0.78
  -1   4   6    2.34    0.65
   0  -4  -6    5.17    0.62
   0  -4  -6    5.26    0.58
   0  -4  -6    4.37    0.89
   0  -4  -6    5.52    0.63
   0  -4  -6    4.91    0.91
   0   4   6    6.73    0.66
   0   4   6    5.34    0.80
   0   4   6    5.13    0.94
   0   4   6    5.04    0.78
  -1  -4  -6   10.85    1.09
  -1  -4  -6   11.36    0.92
  -1  -4  -6   11.54    1.06
  -1  -4  -6   10.32    0.69
  -1  -4  -6   11.96    0.76
  -1  -4  -6   10.06    0.72
   1   4   6   10.27    0.81
   1   4   6   11.24    0.74
   1   4   6   10.32    1.07
   1   4   6   11.07    0.95
  -2  -4  -6    0.35    0.48
  -2  -4  -6    0.54    0.72
  -2  -4  -6    0.54    0.40
  -2  -4  -6   -0.49    0.42
  -2  -4  -6   -1.23    0.73
   2   4   6    0.47    0.85
   2   4   6   -0.67    0.51
   2   4   6    0.28    0.41
   2   4   6   -0.40    0.34
  -3  -4  -6    0.55    0.53
  -3  -4  -6    0.26    0.42
  -3  -4  -6   -0.92    0.66
  -3  -4  -6    0.20    0.37
  -3  -4  -6   -2.07    0.77
   3   4   6    0.40    0.47
   3   4   6   -0.08    0.54
   3   4   6    0.34    0.35
   3   4   6   -0.05    0.54
   3   4   6   -0.65    0.38
  -4  -4  -6   33.07    1.41
  -4  -4  -6   35.45    1.16
  -4  -4  -6   34.13    1.67
  -4  -4  -6   35.39    1.60
   4   4   6   34.02    1.53
   4   4   6   33.23    1.66
   4   4   6   32.43    1.43
   4   4   6   33.02    1.48
  -5  -4  -6  103.77    2.46
  -5  -4  -6  103.12    2.56
  -5  -4  -6   96.52    2.89
  -5  -4  -6   98.54    3.16
  -5  -4  -6  103.65    2.94
   5   4   6   99.21    3.28
   5   4   6  103.58    2.95
   5   4   6   93.72    2.84
  -6  -4  -6   15.29    1.20
  -6  -4  -6   14.90    0.87
  -6  -4  -6   15.54    1.07
  -6  -4  -6   17.16    0.94
  -6  -4  -6   15.09    1.30
   6   4   6   17.80    1.11
   6   4   6   16.58    1.41
   6   4   6   14.04    1.24
  -7  -4  -6   23.00    1.34
  -7  -4  -6   22.18    1.17
  -7  -4  -6   21.58    1.57
  -7  -4  -6   24.01    1.53
  -7  -4  -6   22.66    1.19
   7   4   6   23.07    1.29
   7   4   6   20.78    1.65
   7   4   6   24.53    1.65
  -8  -4  -6    4.37    0.84
  -8  -4  -6    6.17    1.04
  -8  -4  -6    4.03    1.15
  -8  -4  -6    4.44    0.82
   8   4   6    3.93    0.78
   8   4   6    4.53    1.17
   8   4   6    4.29    1.13
  -9  -4  -6    1.33    0.75
  -9  -4  -6   -0.01    0.67
  -9  -4  -6   -0.55    0.96
  -9  -4  -6    1.08    0.75
   9   4   6   -1.01    0.91
   9   4   6    1.24    1.04
   9   4   6    1.37    0.63
 -10  -4  -6   14.42    1.72
 -10  -4  -6   15.52    1.78
 -10  -4  -6   12.68    1.44
 -10  -4  -6   13.04    1.76
  10   4   6   13.79    1.93
  10   4   6   13.95    1.87
 -11  -4  -6   -0.59    1.03
 -11  -4  -6    1.39    1.32
 -11  -4  -6    2.03    1.46
  11   4   6    0.66    1.29
  11   4   6    0.79    1.32
 -12  -4  -6    5.67    1.67
 -12  -4  -6    4.08    1.73
 -12  -4  -6    5.39    1.42
  12   4   6    4.61    1.95
  12   4   6    3.83    1.71
   6  -5  -6   -0.55    1.32
   6  -5  -6   -1.10    1.01
  -6   5   6    0.12    1.10
  -6   5   6    0.41    1.08
  -6   5   6    4.69    1.67
  -6   5   6   -0.44    1.27
   5  -5  -6   -0.15    1.05
   5  -5  -6   -0.09    0.95
  -5   5   6    0.31    1.26
  -5   5   6   -0.03    1.28
  -5   5   6    0.34    0.87
  -5   5   6    1.16    0.96
   4  -5  -6    3.17    0.90
   4  -5  -6    5.18    1.22
  -4   5   6    5.30    1.40
  -4   5   6    4.09    1.28
  -4   5   6    5.56    0.97
   3  -5  -6   28.26    1.82
   3  -5  -6   30.56    1.61
   3  -5  -6   26.43    1.53
  -3   5   6   31.00    1.68
  -3   5   6   27.34    1.84
  -3   5   6   30.01    1.98
   2  -5  -6   34.00    1.43
   2  -5  -6   30.29    1.50
   2  -5  -6   33.85    1.86
  -2   5   6   31.94    1.69
  -2   5   6   33.49    1.78
  -2   5   6   32.49    2.02
  -2   5   6   29.02    1.82
   1  -5  -6    2.14    0.57
   1  -5  -6    1.79    0.52
   1  -5  -6    0.87    0.81
   1  -5  -6    2.17    0.57
  -1   5   6    1.34    0.68
  -1   5   6    1.67    0.86
  -1   5   6    2.56    0.78
  -1   5   6    1.00    0.80
  -1   5   6    0.89    0.75
   0  -5  -6   -0.16    0.35
   0  -5  -6   -0.33    0.39
   0  -5  -6    0.45    0.89
   0  -5  -6    0.02    0.40
   0  -5  -6   -0.57    0.63
   0   5   6    1.05    0.62
   0   5   6    0.28    0.61
   0   5   6   -0.52    0.50
   0   5   6    0.30    0.74
  -1  -5  -6    0.49    0.40
  -1  -5  -6   -0.12    0.70
  -1  -5  -6    0.48    0.40
  -1  -5  -6    0.67    0.40
  -1  -5  -6    0.21    0.62
   1   5   6    1.30    0.56
   1   5   6    0.74    0.58
   1   5   6    0.86    0.63
   1   5   6    1.12    0.59
  -2  -5  -6   15.92    1.23
  -2  -5  -6   15.93    0.87
  -2  -5  -6   17.01    1.02
   2   5   6   16.21    0.95
   2   5   6   16.32    1.26
   2   5   6   16.72    0.99
   2   5   6   17.08    1.29
  -3  -5  -6   19.03    1.33
  -3  -5  -6   19.74    0.97
  -3  -5  -6   19.75    0.94
   3   5   6   20.36    0.91
   3   5   6   19.70    1.41
   3   5   6   20.11    1.06
   3   5   6   21.31    1.38
   3   5   6   18.75    1.00
  -4  -5  -6    7.04    1.08
  -4  -5  -6    7.19    0.56
  -4  -5  -6    8.10    0.79
  -4  -5  -6    7.98    1.15
   4   5   6    7.53    0.99
   4   5   6    8.90    0.83
   4   5   6    7.52    0.93
   4   5   6    7.32    0.93
   4   5   6    7.14    0.90
  -5  -5  -6    8.75    1.14
  -5  -5  -6    9.39    0.57
  -5  -5  -6    7.91    0.94
  -5  -5  -6   10.47    1.20
   5   5   6   10.40    1.19
   5   5   6    8.24    1.15
   5   5   6    9.75    1.35
   5   5   6   10.30    1.16
   5   5   6    9.98    1.16
  -6  -5  -6   31.85    1.62
  -6  -5  -6   30.67    1.79
  -6  -5  -6   34.66    1.61
  -6  -5  -6   31.98    1.02
   6   5   6   30.85    1.76
   6   5   6   31.74    1.78
   6   5   6   31.32    1.53
  -7  -5  -6   95.35    2.35
  -7  -5  -6   89.51    3.26
  -7  -5  -6   93.35    2.80
  -7  -5  -6   95.69    2.31
  -7  -5  -6   92.00    3.03
   7   5   6   92.27    3.29
   7   5   6   92.54    3.38
   7   5   6   97.28    2.81
  -8  -5  -6    2.36    1.02
  -8  -5  -6    2.63    0.97
  -8  -5  -6    3.78    0.65
  -8  -5  -6    4.09    0.84
  -8  -5  -6    2.97    0.71
   8   5   6    3.50    0.94
   8   5   6    3.56    1.05
   8   5   6    4.20    0.76
  -9  -5  -6    4.44    0.85
  -9  -5  -6    6.19    0.88
  -9  -5  -6    6.85    1.43
  -9  -5  -6    6.39    1.25
   9   5   6    6.80    1.25
   9   5   6    7.08    1.40
   9   5   6    6.41    0.83
 -10  -5  -6    1.09    0.84
 -10  -5  -6    1.39    1.24
 -10  -5  -6    1.94    0.72
  10   5   6    1.28    1.17
  10   5   6    3.57    1.28
 -11  -5  -6   -0.15    0.92
 -11  -5  -6   -1.79    1.26
 -11  -5  -6   -0.48    1.15
  11   5   6    0.91    1.37
  11   5   6   -1.00    1.21
 -12  -5  -6    1.74    1.40
 -12  -5  -6   -1.57    1.08
 -12  -5  -6    0.56    1.64
  12   5   6   -2.97    1.45
  12   5   6    1.50    1.65
   6  -6  -6    9.16    1.82
   6  -6  -6    4.13    1.45
  -6   6   6    9.22    1.67
  -6   6   6    9.74    2.18
   5  -6  -6    9.98    1.66
   5  -6  -6   12.54    1.58
  -5   6   6   10.33    1.99
  -5   6   6   12.32    1.59
  -5   6   6   10.66    2.08
   4  -6  -6    3.28    1.20
   4  -6  -6    2.65    1.05
  -4   6   6   -0.08    1.27
  -4   6   6    1.57    1.25
  -4   6   6    3.44    1.09
   3  -6  -6    5.24    1.22
   3  -6  -6    5.42    1.05
  -3   6   6    2.72    1.01
  -3   6   6    5.65    1.32
  -3   6   6    5.72    1.43
   2  -6  -6   -0.72    0.84
   2  -6  -6    1.47    0.67
   2  -6  -6    0.26    0.67
  -2   6   6    1.41    0.98
  -2   6   6    0.99    1.08
  -2   6   6    0.69    0.91
   1  -6  -6   18.06    0.92
   1  -6  -6   19.68    0.96
   1  -6  -6   18.42    1.44
   1  -6  -6   20.16    1.30
  -1   6   6   18.97    1.73
  -1   6   6   17.53    1.45
  -1   6   6   18.79    1.50
   0  -6  -6   22.14    1.24
   0  -6  -6   24.35    0.95
   0  -6  -6   23.20    1.54
   0  -6  -6   23.53    0.94
   0   6   6   25.12    1.64
   0   6   6   22.95    1.75
   0   6   6   23.27    1.46
  -1  -6  -6   26.93    0.95
  -1  -6  -6   26.01    1.59
  -1  -6  -6   26.69    1.29
  -1  -6  -6   24.54    0.97
  -1  -6  -6   23.83    1.50
   1   6   6   26.95    1.69
   1   6   6   25.66    1.37
   1   6   6   24.60    1.73
  -2  -6  -6   13.79    0.97
  -2  -6  -6   11.68    0.72
  -2  -6  -6   12.25    1.22
  -2  -6  -6   12.70    1.06
  -2  -6  -6   13.53    0.75
   2   6   6   11.39    0.90
   2   6   6   13.08    1.29
   2   6   6   15.12    1.23
   2   6   6   13.69    1.33
  -3  -6  -6   37.65    1.34
  -3  -6  -6   35.33    1.28
  -3  -6  -6   34.07    1.82
   3   6   6   33.59    1.84
   3   6   6   34.57    1.82
   3   6   6   35.45    1.74
   3   6   6   37.47    1.30
  -4  -6  -6    5.28    0.51
  -4  -6  -6    4.07    1.07
  -4  -6  -6    5.72    0.75
   4   6   6    4.23    0.48
   4   6   6    4.78    0.84
   4   6   6    5.69    1.00
   4   6   6    4.43    0.93
  -5  -6  -6   94.38    2.79
  -5  -6  -6   99.99    3.35
   5   6   6   98.81    2.88
   5   6   6   99.41    3.26
   5   6   6   98.46    3.47
   5   6   6  101.35    3.13
  -6  -6  -6    4.52    1.13
  -6  -6  -6    3.27    0.99
  -6  -6  -6    4.20    0.81
   6   6   6    4.89    0.87
   6   6   6    3.72    0.96
   6   6   6    5.73    1.15
  -7  -6  -6   32.65    1.99
  -7  -6  -6   31.71    1.65
  -7  -6  -6   28.68    1.55
   7   6   6   28.34    1.88
   7   6   6   32.33    1.93
   7   6   6   32.29    1.56
  -8  -6  -6    6.26    0.42
  -8  -6  -6    5.92    0.40
  -8  -6  -6    7.65    1.05
  -8  -6  -6    7.25    1.21
  -8  -6  -6    8.07    1.41
   8   6   6    6.81    0.92
   8   6   6    5.88    1.17
   8   6   6    6.59    1.34
  -9  -6  -6    2.80    0.93
  -9  -6  -6    1.14    0.56
  -9  -6  -6    0.52    1.08
  -9  -6  -6    1.03    0.81
  -9  -6  -6    0.93    0.49
   9   6   6    2.24    0.69
   9   6   6    2.23    1.05
   9   6   6    0.88    1.11
 -10  -6  -6    5.21    1.27
 -10  -6  -6    4.72    1.41
 -10  -6  -6    4.13    0.74
  10   6   6    4.10    1.36
  10   6   6    3.24    0.64
  10   6   6    3.95    1.21
 -11  -6  -6    6.52    1.00
 -11  -6  -6    5.59    1.49
 -11  -6  -6    5.16    1.62
  11   6   6    5.18    1.59
  11   6   6    4.94    1.58
 -12  -6  -6    3.71    1.53
 -12  -6  -6    7.74    1.83
 -12  -6  -6    4.18    1.14
  12   6   6    5.52    1.93
  12   6   6    6.79    1.98
   5  -7  -6    1.30    1.40
   5  -7  -6    1.06    1.38
  -5   7   6    1.88    1.67
  -5   7   6    0.20    1.53
  -5   7   6    3.66    1.89
   4  -7  -6   13.66    1.72
   4  -7  -6   13.60    1.68
  -4   7   6   18.17    2.02
  -4   7   6   13.56    2.18
  -4   7   6   13.82    2.14
   3  -7  -6    2.80    1.06
   3  -7  -6   -0.05    1.07
  -3   7   6    2.67    1.33
  -3   7   6    0.71    1.23
  -3   7   6   -0.65    0.91
   2  -7  -6   10.06    1.49
   2  -7  -6   10.37    0.76
   2  -7  -6   11.22    1.32
   2  -7  -6    9.01    0.97
  -2   7   6   10.85    1.80
  -2   7   6   10.70    1.57
  -2   7   6   11.81    1.63
   1  -7  -6    2.28    0.39
   1  -7  -6    3.56    0.90
   1  -7  -6    2.15    0.93
  -1   7   6    2.68    1.00
  -1   7   6    3.44    1.19
  -1   7   6    2.86    1.12
   0  -7  -6    0.35    0.25
   0  -7  -6    0.57    0.70
   0  -7  -6    1.05    0.87
   0   7   6    1.29    0.81
   0   7   6    0.71    0.98
   0   7   6    0.67    0.91
  -1  -7  -6  101.28    2.23
  -1  -7  -6  102.88    3.41
  -1  -7  -6  103.16    3.06
   1   7   6   99.38    3.61
   1   7   6  102.79    3.09
   1   7   6  105.58    3.62
  -2  -7  -6    7.15    0.53
  -2  -7  -6    8.45    1.03
  -2  -7  -6    7.25    1.06
  -2  -7  -6    8.41    1.29
  -2  -7  -6    8.24    0.56
   2   7   6    7.98    1.23
   2   7   6    7.24    1.18
   2   7   6    8.80    0.92
  -3  -7  -6    6.15    1.12
  -3  -7  -6    4.50    0.58
  -3  -7  -6    3.26    0.72
   3   7   6    4.58    0.65
   3   7   6    5.24    1.07
   3   7   6    3.13    1.02
  -4  -7  -6   -0.14    0.47
  -4  -7  -6    0.82    0.38
  -4  -7  -6    0.36    0.85
   4   7   6   -0.53    0.72
   4   7   6   -0.04    0.31
   4   7   6    0.60    0.63
   4   7   6    0.24    0.64
  -5  -7  -6   26.33    1.27
  -5  -7  -6   25.01    1.76
   5   7   6   25.29    1.74
   5   7   6   28.10    1.69
   5   7   6   28.35    1.80
   5   7   6   27.93    1.45
  -6  -7  -6    0.52    0.94
  -6  -7  -6    0.27    0.57
   6   7   6   -0.22    0.83
   6   7   6    1.81    0.94
   6   7   6    1.25    0.74
  -7  -7  -6   21.67    1.80
  -7  -7  -6   22.91    1.42
   7   7   6   25.70    1.54
   7   7   6   23.69    1.81
   7   7   6   21.38    1.88
  -8  -7  -6    0.01    1.04
  -8  -7  -6   -0.43    0.77
  -8  -7  -6   -0.28    0.99
   8   7   6    1.63    0.84
   8   7   6   -0.12    0.72
   8   7   6   -0.22    0.73
  -9  -7  -6    3.33    1.08
  -9  -7  -6    6.39    1.22
  -9  -7  -6    4.76    1.46
   9   7   6    5.02    0.93
   9   7   6    3.68    1.07
   9   7   6    2.52    1.28
 -10  -7  -6    6.24    1.50
 -10  -7  -6    4.33    1.25
  10   7   6    5.72    0.78
  10   7   6    7.30    1.52
  10   7   6    6.17    1.60
 -11  -7  -6   19.22    2.40
 -11  -7  -6   20.53    1.94
  11   7   6   18.17    2.23
  11   7   6   16.46    2.24
 -12  -7  -6   21.46    2.75
 -12  -7  -6   20.59    2.14
  12   7   6   14.54    2.39
  12   7   6   19.47    2.64
   4  -8  -6    8.91    1.69
   4  -8  -6    5.23    1.58
  -4   8   6   10.43    1.99
  -4   8   6    2.59    1.83
  -4   8   6    7.70    2.12
   3  -8  -6   15.09    1.80
   3  -8  -6   16.88    1.91
  -3   8   6   14.80    2.19
  -3   8   6   18.94    2.29
  -3   8   6   15.85    2.42
   2  -8  -6    0.12    1.08
   2  -8  -6    1.62    0.97
  -2   8   6    0.51    1.39
  -2   8   6    0.65    1.23
  -2   8   6    0.43    1.05
   1  -8  -6    0.63    0.87
   1  -8  -6   -0.98    1.00
  -1   8   6    0.76    1.29
  -1   8   6   -0.47    1.14
  -1   8   6   -0.39    1.03
   0  -8  -6    5.03    1.18
   0  -8  -6    5.14    1.00
   0   8   6    2.38    1.22
   0   8   6    4.78    1.49
   0   8   6    5.53    1.23
  -1  -8  -6   14.15    1.46
  -1  -8  -6   10.97    1.19
   1   8   6   13.31    1.68
   1   8   6   13.24    1.42
   1   8   6   13.82    1.79
  -2  -8  -6   -1.27    1.02
  -2  -8  -6   -0.63    0.92
  -2  -8  -6   -1.50    0.61
   2   8   6    0.82    0.99
   2   8   6   -0.08    0.92
  -3  -8  -6    2.00    0.81
  -3  -8  -6    1.26    0.33
  -3  -8  -6    1.46    0.36
  -3  -8  -6    0.44    0.92
   3   8   6    1.36    0.55
   3   8   6    2.77    1.06
   3   8   6    0.88    0.70
  -4  -8  -6   33.66    1.21
  -4  -8  -6   34.18    2.06
  -4  -8  -6   32.60    1.21
   4   8   6   34.06    1.93
   4   8   6   33.66    2.04
   4   8   6   32.34    1.10
  -5  -8  -6    5.44    1.28
  -5  -8  -6    5.02    0.76
   5   8   6    3.86    1.04
   5   8   6    6.62    0.96
   5   8   6    2.19    1.16
  -6  -8  -6   59.16    2.75
  -6  -8  -6   53.18    1.93
   6   8   6   57.41    2.89
   6   8   6   52.48    2.37
   6   8   6   55.37    2.67
  -7  -8  -6   16.95    1.23
  -7  -8  -6   19.69    1.83
   7   8   6   16.72    1.54
   7   8   6   14.48    1.83
   7   8   6   16.40    1.74
  -8  -8  -6    4.93    1.01
  -8  -8  -6    3.29    1.28
   8   8   6    4.45    0.98
   8   8   6    5.06    1.21
   8   8   6    5.84    1.40
  -9  -8  -6   -0.21    1.14
  -9  -8  -6    1.31    0.92
   9   8   6    2.28    1.34
   9   8   6    2.18    1.23
 -10  -8  -6   -0.35    1.24
 -10  -8  -6    0.51    1.04
  10   8   6   -0.07    1.30
  10   8   6    0.50    0.79
  10   8   6    3.07    1.41
 -11  -8  -6    3.66    1.71
 -11  -8  -6    3.21    1.28
  11   8   6    1.63    1.66
  11   8   6    3.92    1.59
 -12  -8  -6   10.26    2.23
 -12  -8  -6    8.17    1.84
  12   8   6    7.98    2.08
  12   8   6   11.61    2.26
   2  -9  -6   14.66    1.82
   2  -9  -6   15.58    1.87
  -2   9   6   17.40    2.30
  -2   9   6   17.59    2.39
  -2   9   6   18.62    2.52
   1  -9  -6    3.39    1.24
   1  -9  -6    2.09    1.12
  -1   9   6    1.20    1.50
  -1   9   6    4.30    1.44
  -1   9   6    2.93    1.72
   0  -9  -6    1.21    0.93
   0  -9  -6    1.32    1.19
   0   9   6   -0.71    1.23
   0   9   6   -1.03    1.21
   0   9   6    1.24    1.08
  -1  -9  -6    7.18    1.37
  -1  -9  -6    6.79    1.25
   1   9   6    7.84    1.32
   1   9   6    4.29    1.45
   1   9   6    7.45    1.64
  -2  -9  -6    4.23    1.00
  -2  -9  -6    3.21    1.13
   2   9   6    0.88    1.13
   2   9   6    2.28    0.92
   2   9   6    3.39    1.29
  -3  -9  -6    1.77    1.08
  -3  -9  -6    0.11    0.96
   3   9   6    1.54    1.09
   3   9   6    0.91    0.66
   3   9   6   -0.64    1.08
  -4  -9  -6    4.43    0.47
  -4  -9  -6    7.12    1.37
  -4  -9  -6    5.09    0.76
   4   9   6    3.41    1.24
   4   9   6    5.17    1.40
   4   9   6    4.06    0.58
  -5  -9  -6    0.32    1.00
  -5  -9  -6   -0.30    0.49
   5   9   6    0.37    0.94
   5   9   6   -0.53    0.72
   5   9   6    0.87    0.85
  -6  -9  -6    0.62    1.07
  -6  -9  -6    0.82    0.69
   6   9   6    0.37    0.91
   6   9   6    1.35    1.21
   6   9   6   -0.92    1.06
   6   9   6    0.71    1.08
  -7  -9  -6    0.45    1.19
  -7  -9  -6    0.73    0.76
   7   9   6   -0.36    1.16
   7   9   6    0.76    1.25
   7   9   6    0.75    0.92
  -8  -9  -6    1.21    0.87
  -8  -9  -6    0.97    1.31
   8   9   6    1.18    1.13
   8   9   6    2.00    1.36
   8   9   6    2.09    1.07
  -9  -9  -6    0.60    0.92
  -9  -9  -6    0.11    1.32
   9   9   6    0.42    1.01
   9   9   6   -0.21    0.91
   9   9   6   -1.10    1.42
 -10  -9  -6    8.01    1.44
 -10  -9  -6    9.69    1.94
  10   9   6    6.68    1.23
  10   9   6    9.45    1.91
  10   9   6   10.48    1.90
 -11  -9  -6   -0.19    1.51
 -11  -9  -6    1.40    1.30
  11   9   6    1.28    1.55
  11   9   6   -0.69    1.70
 -12  -9  -6   -0.10    1.43
  12   9   6    0.85    1.74
   1 -10  -6    2.85    1.32
   1 -10  -6    4.84    1.50
  -1  10   6    2.39    1.86
  -1  10   6    3.99    1.76
   0 -10  -6    9.64    1.66
   0 -10  -6    6.86    1.45
   0  10   6    6.67    1.85
   0  10   6    8.37    1.97
   0  10   6    7.21    1.64
  -1 -10  -6    0.96    1.03
  -1 -10  -6    0.49    1.28
   1  10   6    0.50    1.40
   1  10   6   -1.13    1.39
   1  10   6    1.14    1.20
  -2 -10  -6    1.99    1.25
  -2 -10  -6    0.91    0.99
   2  10   6    1.74    1.38
   2  10   6    0.14    1.01
   2  10   6    0.19    1.37
  -3 -10  -6    1.02    1.14
   3  10   6   -1.38    0.81
   3  10   6   -1.01    1.14
   3  10   6   -0.12    1.25
  -4 -10  -6    6.10    1.51
   4  10   6    4.45    0.69
   4  10   6    8.16    1.61
   4  10   6    4.92    1.57
  -5 -10  -6    1.45    0.41
  -5 -10  -6    1.48    1.29
   5  10   6    0.79    1.32
   5  10   6    1.94    1.30
  -6 -10  -6   11.59    0.99
  -6 -10  -6   15.61    2.06
   6  10   6   11.50    1.77
   6  10   6   12.08    1.72
  -7 -10  -6    0.52    0.77
  -7 -10  -6    1.41    1.20
   7  10   6    0.20    1.16
   7  10   6   -0.17    1.18
   7  10   6    0.00    1.36
  -8 -10  -6   15.63    2.27
  -8 -10  -6   17.95    1.45
   8  10   6   17.56    2.16
   8  10   6   17.67    1.79
   8  10   6   22.13    2.45
  -9 -10  -6    2.43    1.25
  -9 -10  -6    0.77    0.98
   9  10   6    1.30    1.64
   9  10   6    3.25    1.49
   9  10   6    1.59    1.16
 -10 -10  -6    1.42    1.69
 -10 -10  -6    1.71    1.23
  10  10   6    2.76    1.28
  10  10   6    6.08    2.02
  10  10   6    2.82    1.67
 -11 -10  -6   12.94    1.78
  11  10   6    9.39    2.14
  11  10   6    9.31    1.90
  -1 -11  -6    1.21    1.27
  -1 -11  -6    2.60    1.48
   1  11   6    1.23    1.96
   1  11   6    1.60    1.49
   1  11   6   -1.27    1.81
  -2 -11  -6    0.10    1.03
  -2 -11  -6    1.88    1.49
   2  11   6    2.99    1.81
   2  11   6    1.05    1.27
   2  11   6   -1.42    1.62
  -3 -11  -6    1.74    1.34
   3  11   6   -0.89    1.03
   3  11   6    0.65    1.57
   3  11   6   -0.30    1.39
  -4 -11  -6   10.22    1.83
   4  11   6   12.30    2.12
   4  11   6    9.13    1.83
   4  11   6    8.25    1.30
  -5 -11  -6    5.06    1.67
   5  11   6    6.40    1.63
   5  11   6    6.00    1.59
  -6 -11  -6    6.63    1.78
   6  11   6    5.05    1.53
   6  11   6    4.06    1.55
  -7 -11  -6    2.45    1.61
   7  11   6   -0.30    1.27
   7  11   6    5.81    1.85
   7  11   6    1.97    1.48
  -8 -11  -6    2.04    1.57
  -8 -11  -6    0.06    0.90
   8  11   6    0.59    1.10
   8  11   6   -0.15    1.30
   8  11   6   -1.05    1.30
  -9 -11  -6   13.74    1.64
  -9 -11  -6   17.05    2.48
   9  11   6   10.49    2.18
   9  11   6   14.06    1.94
   9  11   6   12.87    2.46
 -10 -11  -6    2.86    2.22
 -10 -11  -6    2.42    1.35
  10  11   6    4.40    1.90
  10  11   6    1.82    1.39
  10  11   6    4.18    2.03
  -3 -12  -6    4.29    1.74
   3  12   6    3.50    2.22
   3  12   6    3.16    2.54
  -4 -12  -6    7.81    1.93
   4  12   6    8.11    1.91
   4  12   6    7.85    1.84
  -5 -12  -6    6.42    1.93
   5  12   6    2.81    2.06
   5  12   6    1.72    1.75
  -6 -12  -6   -0.52    1.58
   6  12   6   -3.33    1.69
   6  12   6   -0.56    1.64
  -7 -12  -6    3.62    1.88
   7  12   6    1.25    1.73
   7  12   6    1.76    1.88
   7  12   6    1.09    1.52
  -8 -12  -6    3.78    1.89
   8  12   6    1.30    1.72
   8  12   6    4.34    1.64
   8  12   6    4.71    1.81
   5  11  -7    1.76    1.57
   5  11  -7    4.79    2.18
   5  11  -7   -0.01    1.72
   4  11  -7    3.24    2.15
   4  11  -7    2.88    1.83
   4  11  -7   -1.47    1.43
   3  11  -7    0.93    2.08
   3  11  -7    2.39    1.34
   3  11  -7    1.87    1.81
   3  11  -7    2.56    1.50
   2  11  -7    0.98    1.46
   2  11  -7   -1.03    1.74
   2  11  -7    5.44    2.26
  -2 -11   7    2.59    1.41
   7  10  -7    2.80    1.73
   7  10  -7   -0.52    1.68
   7  10  -7    1.39    1.81
   6  10  -7   -0.04    1.52
   6  10  -7    2.18    1.68
   4  10  -7    7.43    1.89
   4  10  -7    4.36    1.40
   3  10  -7    4.35    1.95
   3  10  -7   -0.01    1.21
   3  10  -7   -0.44    1.26
   2  10  -7    7.31    1.46
   2  10  -7    3.93    2.00
   2  10  -7    5.97    1.35
  -2 -10   7    9.34    1.41
   1  10  -7    2.58    1.80
   1  10  -7    2.05    1.29
   1  10  -7   -2.89    1.47
  -1 -10   7   -0.05    1.07
   0  10  -7    3.64    2.04
   0  10  -7    0.73    1.39
   0  10  -7    2.58    1.60
   0 -10   7    0.77    1.15
  -1  10  -7    1.83    1.94
  -1  10  -7    1.41    1.45
   1 -10   7    0.05    1.21
   8   9  -7    1.49    1.48
   8   9  -7    4.56    1.93
  -8  -9   7    1.01    1.55
   7   9  -7    6.23    1.80
   7   9  -7    3.62    1.61
   6   9  -7    2.69    1.44
   6   9  -7    5.13    1.52
   3   9  -7    7.79    1.41
   3   9  -7    9.69    1.92
   2   9  -7    7.85    1.86
   2   9  -7    9.45    1.45
   2   9  -7    9.66    1.40
  -2  -9   7    8.57    1.23
   1   9  -7    0.48    1.47
   1   9  -7   -0.85    1.06
   1   9  -7    0.42    0.96
  -1  -9   7   -1.56    0.87
  -1  -9   7    0.96    1.18
   0   9  -7    0.60    0.66
   0   9  -7    0.50    1.09
   0   9  -7    0.74    1.62
   0  -9   7    2.50    1.28
   0  -9   7    0.57    0.93
  -1   9  -7   -2.28    1.58
  -1   9  -7   -0.02    1.24
  -1   9  -7    2.27    1.50
   1  -9   7    2.06    1.12
   1  -9   7    0.72    1.29
  -2   9  -7    1.38    1.68
  -2   9  -7    3.70    2.00
  -2   9  -7   -0.70    1.29
   2  -9   7    1.41    1.11
   2  -9   7    1.03    1.07
  -3   9  -7   12.20    1.85
  -3   9  -7   16.16    2.80
   3  -9   7    9.88    1.69
   9   8  -7   -2.11    1.70
  -9  -8   7    0.71    1.71
  -9  -8   7    0.93    1.50
   8   8  -7    2.33    1.66
   8   8  -7    0.34    1.21
  -8  -8   7    3.66    1.61
  -8  -8   7    2.93    1.27
   7   8  -7    8.25    1.51
   7   8  -7    9.86    1.82
  -7  -8   7   11.94    1.78
  -7  -8   7   10.36    1.58
   6   8  -7    6.56    1.46
   6   8  -7    6.79    1.34
  -6  -8   7    8.80    1.55
   5   8  -7    4.29    1.35
   3   8  -7   -0.16    0.90
   2   8  -7    0.58    0.91
   2   8  -7   -0.02    0.96
   2   8  -7    0.37    1.19
  -2  -8   7   -0.58    0.72
  -2  -8   7    0.28    0.89
   1   8  -7    2.56    1.02
   1   8  -7    2.51    0.92
   1   8  -7    1.87    1.27
  -1  -8   7    1.61    1.04
  -1  -8   7    1.68    0.84
   0   8  -7   17.28    1.51
   0   8  -7   18.23    1.20
   0   8  -7   21.44    2.27
   0  -8   7   16.28    1.54
   0  -8   7   17.32    1.47
  -1   8  -7    2.89    1.16
  -1   8  -7    4.46    1.66
  -1   8  -7    2.40    0.40
   1  -8   7    3.82    1.22
   1  -8   7    4.71    1.05
  -2   8  -7   10.20    2.23
  -2   8  -7    4.69    1.28
   2  -8   7    4.81    1.22
   2  -8   7    6.49    1.25
  -3   8  -7    2.84    1.41
  -3   8  -7   -0.69    1.68
  -3   8  -7    2.29    1.76
   3  -8   7    2.20    1.12
   3  -8   7    0.68    1.41
  -4   8  -7    4.48    1.49
  -4   8  -7    4.72    1.99
  -4   8  -7    6.16    2.09
   4  -8   7    3.05    1.64
   4  -8   7    3.10    1.33
   9   7  -7    4.66    1.85
  -9  -7   7    6.12    1.67
  -9  -7   7    5.41    1.60
   8   7  -7    0.37    0.84
   8   7  -7    1.07    1.41
  -8  -7   7   -0.19    0.86
  -8  -7   7    1.65    1.30
   7   7  -7   18.95    2.08
  -7  -7   7   16.42    1.73
  -7  -7   7   16.80    1.88
   6   7  -7    5.61    1.15
   6   7  -7    6.25    1.39
  -6  -7   7    5.58    1.34
   5   7  -7   13.38    1.64
  -5  -7   7   13.27    1.59
   2   7  -7   -0.15    0.79
   2   7  -7   -0.17    0.78
  -2  -7   7   -0.08    0.70
  -2  -7   7    0.55    0.68
   1   7  -7    6.19    1.47
   1   7  -7    5.29    1.37
   1   7  -7    7.79    1.11
   1   7  -7    5.88    1.09
  -1  -7   7    6.96    1.02
  -1  -7   7    8.00    1.23
   0   7  -7    3.19    1.01
   0   7  -7    2.32    0.71
   0   7  -7    2.26    1.31
   0   7  -7    4.23    1.05
   0  -7   7    3.54    0.87
   0  -7   7    2.68    0.80
  -1   7  -7    2.09    0.96
  -1   7  -7    0.12    1.22
  -1   7  -7    0.58    0.68
  -1   7  -7    0.85    0.52
   1  -7   7    2.26    1.06
   1  -7   7    0.77    0.74
  -2   7  -7   -0.32    1.00
  -2   7  -7    2.34    1.45
   2  -7   7    0.06    0.99
   2  -7   7   -0.67    0.77
  -3   7  -7    1.09    1.01
  -3   7  -7    1.97    1.47
   3  -7   7    1.04    0.86
   3  -7   7   -1.23    1.12
  -4   7  -7   13.48    1.77
  -4   7  -7   14.57    2.34
   4  -7   7   15.60    1.99
   4  -7   7   12.06    1.61
  -5   7  -7   -0.15    1.26
  -5   7  -7    2.27    1.75
  -5   7  -7    4.36    1.93
   5  -7   7    1.61    1.50
   5  -7   7    2.63    1.16
  10   6  -7    5.60    1.89
 -10  -6   7   10.04    2.03
   9   6  -7    6.76    1.76
  -9  -6   7    8.46    1.72
  -9  -6   7    7.47    1.68
   8   6  -7   15.06    1.86
  -8  -6   7   16.25    1.98
  -8  -6   7   16.91    1.54
  -8  -6   7   15.53    1.76
   7   6  -7    3.15    0.79
   7   6  -7    2.99    1.13
  -7  -6   7    1.68    0.86
  -7  -6   7    3.22    0.96
  -7  -6   7    3.09    1.24
   6   6  -7   20.11    1.75
   6   6  -7   18.98    1.38
   6   6  -7   17.08    1.49
  -6  -6   7   18.74    1.43
  -6  -6   7   19.49    1.50
  -6  -6   7   21.16    1.80
   5   6  -7    0.32    1.06
   5   6  -7    1.48    0.87
  -5  -6   7    0.89    0.81
  -5  -6   7    0.82    0.87
   4   6  -7    2.42    0.96
  -4  -6   7    3.60    0.97
  -4  -6   7    4.27    1.10
   3   6  -7    3.21    1.07
  -3  -6   7    3.87    0.85
  -3  -6   7    4.24    1.08
   2   6  -7    5.08    1.02
  -2  -6   7    4.59    0.74
  -2  -6   7    3.40    0.87
  -2  -6   7    3.83    1.09
   1   6  -7    1.62    1.07
   1   6  -7    1.50    0.81
   1   6  -7    1.24    0.75
  -1  -6   7    0.65    0.94
  -1  -6   7    0.28    0.69
  -1  -6   7    1.50    0.58
   0   6  -7   67.39    2.17
   0   6  -7   66.98    2.44
   0   6  -7   66.03    2.27
   0   6  -7   67.52    3.04
   0  -6   7   65.39    2.65
   0  -6   7   66.21    2.28
  -1   6  -7    7.79    0.97
  -1   6  -7    7.61    1.51
  -1   6  -7    7.19    1.15
  -1   6  -7    6.22    0.76
   1  -6   7    6.35    1.20
   1  -6   7    7.86    1.00
  -2   6  -7    0.90    0.36
  -2   6  -7    1.72    0.93
  -2   6  -7   -0.16    1.11
   2  -6   7    0.28    0.88
   2  -6   7    1.47    0.76
  -3   6  -7   -0.43    1.19
  -3   6  -7   -0.52    0.85
   3  -6   7   -0.85    0.96
   3  -6   7   -0.28    0.71
  -4   6  -7   19.51    2.34
  -4   6  -7   14.94    1.73
   4  -6   7   18.11    1.59
   4  -6   7   19.67    1.94
  -5   6  -7   12.29    1.71
  -5   6  -7   12.75    2.01
   5  -6   7   10.40    1.61
   5  -6   7   12.65    1.54
  -6   6  -7   22.89    2.87
  -6   6  -7   25.21    2.70
  -6   6  -7   23.04    2.12
   6  -6   7   22.50    2.04
   6  -6   7   25.74    2.48
  -7   6  -7    2.02    1.86
  -7   6  -7    2.40    1.58
  -7   6  -7    2.99    1.76
   7  -6   7    1.14    1.86
   7  -6   7    1.49    1.51
  10   5  -7    4.09    1.67
 -10  -5   7    1.20    1.62
   9   5  -7    1.68    1.46
  -9  -5   7    4.54    1.07
  -9  -5   7    3.86    1.46
  -9  -5   7    2.51    1.52
   8   5  -7    8.27    1.49
  -8  -5   7   11.61    1.71
  -8  -5   7    7.85    1.29
  -8  -5   7    8.81    1.37
   7   5  -7   -0.39    1.04
  -7  -5   7   -1.25    0.91
  -7  -5   7   -1.13    0.85
  -7  -5   7   -0.63    0.79
   6   5  -7   -0.37    0.64
   6   5  -7    0.38    0.87
   6   5  -7    0.09    0.54
  -6  -5   7    1.20    0.91
  -6  -5   7    0.28    0.94
  -6  -5   7    0.72    0.82
   5   5  -7   10.39    1.15
   5   5  -7   10.91    1.17
   5   5  -7   10.99    1.27
  -5  -5   7   10.57    1.19
  -5  -5   7   13.21    1.30
  -5  -5   7   12.08    1.41
   4   5  -7    5.04    1.03
   4   5  -7    5.34    0.89
   4   5  -7    5.44    0.84
  -4  -5   7    3.82    1.05
  -4  -5   7    7.15    1.17
   3   5  -7   31.43    1.41
   3   5  -7   33.36    1.82
   3   5  -7   32.39    1.73
  -3  -5   7   31.95    1.79
  -3  -5   7   32.86    1.82
  -3  -5   7   35.19    1.51
   2   5  -7    2.53    0.83
   2   5  -7    0.37    0.61
  -2  -5   7    1.12    0.60
  -2  -5   7    2.51    0.90
   1   5  -7   33.81    1.68
   1   5  -7   34.76    1.81
   1   5  -7   33.90    1.58
   1   5  -7   36.63    1.53
  -1  -5   7   34.21    1.34
  -1  -5   7   35.21    1.99
  -1  -5   7   32.79    1.66
   0   5  -7    1.90    0.87
   0   5  -7    4.64    0.95
   0   5  -7    3.77    0.89
   0   5  -7    3.92    0.78
   0  -5   7    3.73    0.63
   0  -5   7    3.69    0.89
   0  -5   7    5.23    1.16
  -1   5  -7   19.84    1.61
  -1   5  -7   19.05    1.35
  -1   5  -7   19.25    1.05
  -1   5  -7   18.91    1.19
   1  -5   7   19.75    1.67
   1  -5   7   20.18    1.20
   1  -5   7   19.79    1.49
  -2   5  -7   17.51    1.58
  -2   5  -7   15.40    0.83
  -2   5  -7   15.36    0.91
  -2   5  -7   15.64    1.32
   2  -5   7   15.37    1.20
   2  -5   7   15.53    1.46
  -3   5  -7    9.27    0.46
  -3   5  -7    9.56    1.28
  -3   5  -7   11.69    1.70
  -3   5  -7    9.61    0.43
   3  -5   7   10.48    1.21
   3  -5   7    9.14    1.08
  -4   5  -7    4.82    1.25
  -4   5  -7    6.19    1.20
   4  -5   7    5.68    1.06
   4  -5   7    3.95    1.14
  -5   5  -7   11.67    1.56
  -5   5  -7   10.99    1.75
   5  -5   7   11.43    1.59
   5  -5   7   10.67    1.42
  -6   5  -7    0.88    1.48
  -6   5  -7   -0.05    1.14
   6  -5   7    1.64    1.03
   6  -5   7   -0.19    1.19
  -7   5  -7    6.69    2.10
  -7   5  -7   11.10    1.98
  -7   5  -7    6.35    1.67
   7  -5   7    7.66    1.57
   7  -5   7   11.24    2.00
  10   4  -7    2.85    2.23
  10   4  -7    7.75    1.91
 -10  -4   7    7.30    1.94
   9   4  -7    1.14    1.58
   9   4  -7    2.10    1.36
  -9  -4   7    3.05    1.54
  -9  -4   7    0.10    1.26
  -9  -4   7   -0.02    1.33
   8   4  -7   11.26    2.00
   8   4  -7   11.72    1.63
  -8  -4   7   13.08    1.88
  -8  -4   7   11.34    1.40
  -8  -4   7   12.72    1.36
   7   4  -7    7.59    1.54
   7   4  -7    9.87    1.37
  -7  -4   7   10.03    1.19
  -7  -4   7    9.27    1.52
  -7  -4   7   11.06    1.50
   6   4  -7   10.71    1.23
  -6  -4   7   11.12    1.26
  -6  -4   7   10.40    1.22
  -6  -4   7   10.50    1.33
   5   4  -7    2.57    0.78
   5   4  -7    3.34    0.62
   5   4  -7    1.00    1.01
   5   4  -7    4.30    0.60
   5   4  -7    2.19    0.74
  -5  -4   7    3.75    0.85
  -5  -4   7    3.61    1.05
  -5  -4   7    3.55    0.93
   4   4  -7   11.26    0.89
   4   4  -7   10.41    0.99
   4   4  -7   10.99    0.99
   4   4  -7    9.08    1.10
  -4  -4   7   11.07    1.27
  -4  -4   7   10.77    1.29
   3   4  -7   52.44    1.82
   3   4  -7   51.54    1.93
   3   4  -7   55.11    1.65
   3   4  -7   52.98    2.27
  -3  -4   7   52.81    1.77
  -3  -4   7   51.54    2.31
  -3  -4   7   52.33    2.23
   2   4  -7   14.68    1.21
   2   4  -7   15.04    1.21
   2   4  -7   17.79    0.95
  -2  -4   7   16.12    1.37
  -2  -4   7   17.64    1.04
  -2  -4   7   16.15    1.39
   1   4  -7   27.07    1.63
   1   4  -7   29.25    1.54
   1   4  -7   28.17    1.43
   1   4  -7   30.16    1.25
  -1  -4   7   27.31    1.70
  -1  -4   7   30.06    1.13
  -1  -4   7   30.20    1.47
   0   4  -7   64.00    2.19
   0   4  -7   68.95    2.39
   0   4  -7   68.47    2.07
   0   4  -7   68.57    2.19
   0  -4   7   68.03    2.39
   0  -4   7   71.77    1.98
   0  -4   7   64.96    2.63
  -1   4  -7   27.18    1.39
  -1   4  -7   28.37    1.25
  -1   4  -7   28.54    1.32
  -1   4  -7   28.06    1.50
   1  -4   7   26.71    1.76
   1  -4   7   29.60    1.21
   1  -4   7   28.60    1.61
  -2   4  -7   12.41    1.11
  -2   4  -7   12.19    0.81
  -2   4  -7   12.23    1.50
  -2   4  -7   12.36    0.87
   2  -4   7   11.25    1.08
   2  -4   7   11.44    1.37
   2  -4   7   11.02    0.91
  -3   4  -7    8.40    0.68
  -3   4  -7    8.29    1.44
  -3   4  -7    7.95    0.70
  -3   4  -7    8.70    1.20
   3  -4   7   10.12    1.27
   3  -4   7    9.36    1.41
   3  -4   7    8.41    1.02
  -4   4  -7    0.92    1.02
  -4   4  -7    1.24    0.86
  -4   4  -7    0.90    0.32
  -4   4  -7    0.72    0.30
   4  -4   7    0.19    0.85
   4  -4   7    0.55    0.64
  -5   4  -7   23.78    1.69
  -5   4  -7   22.33    2.08
   5  -4   7   22.28    1.68
   5  -4   7   24.05    1.62
  -6   4  -7   36.42    2.17
  -6   4  -7   41.29    2.56
   6  -4   7   39.32    2.45
   6  -4   7   39.59    2.17
  -7   4  -7    5.13    1.65
  -7   4  -7    4.26    1.45
   7  -4   7    4.20    1.52
   7  -4   7    3.50    1.19
  -8   4  -7    5.42    1.73
  -8   4  -7    6.45    1.99
  -8   4  -7    2.99    1.70
   8  -4   7    3.33    1.52
   8  -4   7    5.09    1.25
  10   3  -7    2.23    1.58
  10   3  -7   -0.21    2.01
 -10  -3   7    3.71    1.80
   9   3  -7    3.05    1.36
   9   3  -7    1.21    1.61
  -9  -3   7    0.09    1.07
  -9  -3   7    0.01    1.20
  -9  -3   7   -0.84    1.02
   8   3  -7    1.34    1.15
   8   3  -7    0.22    1.42
  -8  -3   7   -1.12    1.02
  -8  -3   7    0.37    0.90
  -8  -3   7    2.19    1.29
   7   3  -7    0.86    0.93
   7   3  -7    0.99    0.83
  -7  -3   7   -0.22    0.76
  -7  -3   7   -0.91    0.74
  -7  -3   7    1.21    0.95
   6   3  -7   52.01    2.09
   6   3  -7   53.76    2.63
  -6  -3   7   55.57    2.61
  -6  -3   7   52.95    2.32
  -6  -3   7   51.20    2.20
   5   3  -7   47.91    1.82
   5   3  -7   48.61    2.38
  -5  -3   7   49.85    2.36
  -5  -3   7   47.76    2.03
  -5  -3   7   48.91    2.06
   4   3  -7   67.41    2.07
   4   3  -7   67.22    1.88
   4   3  -7   66.48    2.59
   4   3  -7   65.33    1.81
  -4  -3   7   67.58    2.44
  -4  -3   7   69.34    2.67
  -4  -3   7   66.30    2.46
   3   3  -7    4.83    0.62
   3   3  -7    4.91    0.53
   3   3  -7    4.75    0.71
   3   3  -7    5.33    1.04
  -3  -3   7    4.59    0.59
  -3  -3   7    6.04    1.05
  -3  -3   7    4.82    0.92
   2   3  -7   86.89    2.49
   2   3  -7   85.61    2.24
   2   3  -7   87.15    2.08
   2   3  -7   81.33    2.76
  -2  -3   7   83.97    2.86
  -2  -3   7   85.80    2.39
  -2  -3   7   83.12    2.91
   1   3  -7   22.46    1.27
   1   3  -7   25.61    0.94
   1   3  -7   22.73    1.32
  -1  -3   7   22.20    1.47
  -1  -3   7   25.49    1.54
  -1  -3   7   22.58    1.18
   0   3  -7  124.71    2.92
   0   3  -7  117.93    3.44
   0   3  -7  122.54    3.26
   0   3  -7  119.36    3.38
   0  -3   7  122.76    3.68
   0  -3   7  123.51    2.81
   0  -3   7  113.66    3.64
  -1   3  -7   18.30    1.03
  -1   3  -7   18.34    1.23
  -1   3  -7   17.84    1.05
   1  -3   7   18.05    1.24
   1  -3   7   19.33    0.89
   1  -3   7   16.39    1.38
  -2   3  -7    9.06    1.02
  -2   3  -7    9.31    1.13
  -2   3  -7   10.63    0.82
  -2   3  -7    8.70    1.10
   2  -3   7    8.88    1.08
   2  -3   7   12.47    0.86
   2  -3   7    9.46    1.20
  -3   3  -7    8.32    1.27
  -3   3  -7    9.58    1.41
  -3   3  -7    8.36    0.72
  -3   3  -7    9.27    1.10
   3  -3   7    8.78    0.98
   3  -3   7    9.49    0.87
   3  -3   7    8.85    1.05
  -4   3  -7    3.31    0.56
  -4   3  -7    3.97    0.98
  -4   3  -7    2.54    0.87
   4  -3   7    4.57    0.95
   4  -3   7    2.81    0.97
   4  -3   7    3.60    0.83
  -5   3  -7    3.46    0.53
  -5   3  -7    4.99    1.14
  -5   3  -7    4.51    1.26
   5  -3   7    3.37    0.89
   5  -3   7    3.32    1.09
  -6   3  -7    4.46    0.46
  -6   3  -7    6.28    1.30
  -6   3  -7    4.81    1.41
   6  -3   7    3.93    1.02
   6  -3   7    4.34    1.20
  -7   3  -7    4.04    1.50
  -7   3  -7    4.57    1.24
   7  -3   7    6.00    1.29
   7  -3   7    3.63    1.36
  -8   3  -7    8.02    1.60
  -8   3  -7    7.52    1.89
   8  -3   7    6.93    1.63
   8  -3   7    7.50    1.51
  -9   3  -7   18.09    2.57
  -9   3  -7   15.51    2.31
  -9   3  -7   12.46    2.07
   9  -3   7   16.46    2.30
   9  -3   7   14.38    2.12
   9   2  -7    2.77    1.35
   9   2  -7    2.81    1.72
  -9  -2   7    2.09    1.12
  -9  -2   7    3.90    1.58
  -9  -2   7    3.21    1.42
   8   2  -7    7.59    1.71
   8   2  -7    7.62    1.40
  -8  -2   7    7.91    1.64
  -8  -2   7    8.14    1.34
  -8  -2   7    5.25    1.12
   7   2  -7    3.21    1.01
   7   2  -7    1.99    1.31
  -7  -2   7    3.72    1.09
  -7  -2   7    5.28    1.01
  -7  -2   7    3.68    1.23
   6   2  -7    1.88    1.18
   6   2  -7    0.42    0.72
  -6  -2   7    1.25    0.80
  -6  -2   7    2.53    0.78
  -6  -2   7    0.93    0.80
   5   2  -7   39.72    1.59
   5   2  -7   37.23    2.09
  -5  -2   7   38.92    1.80
  -5  -2   7   40.93    2.05
  -5  -2   7   41.14    1.93
   4   2  -7   16.63    0.93
   4   2  -7   18.01    0.52
   4   2  -7   18.35    1.47
  -4  -2   7   16.52    1.25
  -4  -2   7   16.91    1.44
  -4  -2   7   18.38    1.39
   3   2  -7   11.39    0.59
   3   2  -7   12.97    1.23
   3   2  -7   15.25    1.65
   3   2  -7   11.94    0.71
   3   2  -7   11.03    0.73
  -3  -2   7   10.19    1.08
  -3  -2   7   11.39    1.18
  -3  -2   7   10.64    0.66
   2   2  -7   15.89    1.35
   2   2  -7   16.51    0.96
   2   2  -7   17.61    1.23
   2   2  -7   16.65    0.68
  -2  -2   7   17.67    1.28
  -2  -2   7   16.85    0.87
  -2  -2   7   14.72    1.13
   1   2  -7   25.89    0.84
   1   2  -7   30.05    1.45
   1   2  -7   28.18    1.30
   1   2  -7   28.82    1.87
  -1  -2   7   27.95    1.55
  -1  -2   7   29.30    1.23
  -1  -2   7   27.68    1.55
   0   2  -7   62.39    2.14
   0   2  -7   65.20    2.12
   0   2  -7   62.42    2.19
   0   2  -7   65.58    1.62
   0  -2   7   64.15    2.10
   0  -2   7   63.40    2.37
   0  -2   7   61.13    2.37
   0  -2   7   64.49    1.53
  -1   2  -7    1.39    0.51
  -1   2  -7    1.32    0.42
  -1   2  -7    1.84    0.55
  -1   2  -7    0.46    0.76
   1  -2   7    1.52    0.56
   1  -2   7    0.87    0.30
  -2   2  -7    1.67    0.52
  -2   2  -7    1.60    0.52
  -2   2  -7    1.09    0.62
   2  -2   7    1.03    0.70
   2  -2   7    2.10    0.43
   2  -2   7    2.56    0.66
   2  -2   7    2.22    0.72
  -3   2  -7   13.15    1.07
  -3   2  -7   14.32    1.38
  -3   2  -7   13.25    1.13
  -3   2  -7   13.36    0.87
   3  -2   7   14.10    1.29
   3  -2   7   13.45    0.95
   3  -2   7   14.64    0.91
   3  -2   7   14.53    1.26
  -4   2  -7    4.78    1.07
  -4   2  -7    4.61    0.67
  -4   2  -7    4.56    0.94
   4  -2   7    4.08    0.98
   4  -2   7    4.24    0.86
   4  -2   7    3.79    0.70
   4  -2   7    4.22    0.74
  -5   2  -7   -1.18    0.85
  -5   2  -7    0.78    0.78
  -5   2  -7    0.12    0.49
   5  -2   7    1.24    0.86
   5  -2   7    1.04    0.59
   5  -2   7   -0.50    0.77
   5  -2   7    0.70    0.69
  -6   2  -7   11.74    1.47
  -6   2  -7    9.28    0.84
  -6   2  -7    8.82    1.54
   6  -2   7    9.11    1.24
   6  -2   7   11.20    1.48
   6  -2   7    6.91    0.85
  -7   2  -7   23.72    1.82
  -7   2  -7   23.50    1.13
  -7   2  -7   20.75    2.00
   7  -2   7   22.80    1.80
   7  -2   7   21.57    1.96
   7  -2   7   22.40    1.16
  -8   2  -7   28.60    2.40
  -8   2  -7   26.85    1.20
  -8   2  -7   26.40    2.03
   8  -2   7   24.79    2.17
   8  -2   7   27.49    2.12
  -9   2  -7   12.58    1.75
  -9   2  -7   11.38    1.92
  -9   2  -7   12.75    2.06
   9  -2   7   16.49    2.00
   9  -2   7   14.92    2.14
 -10   2  -7   25.80    2.67
 -10   2  -7   22.56    2.64
 -10   2  -7   27.88    3.00
  10  -2   7   22.49    2.69
  10  -2   7   24.84    2.51
   9   1  -7   -0.30    1.32
   9   1  -7    0.32    1.70
  -9  -1   7    2.42    1.23
  -9  -1   7    1.53    1.40
  -9  -1   7    0.88    1.49
   8   1  -7    2.52    1.06
   8   1  -7    3.52    1.48
  -8  -1   7    1.43    1.08
  -8  -1   7    1.69    1.10
  -8  -1   7    2.87    1.18
   7   1  -7    0.73    1.17
   7   1  -7    2.11    1.00
  -7  -1   7    1.73    0.93
  -7  -1   7    2.67    1.03
  -7  -1   7    2.81    1.24
   6   1  -7    2.04    0.81
   6   1  -7    3.16    1.05
  -6  -1   7    2.50    1.07
  -6  -1   7    1.93    0.89
  -6  -1   7    3.80    1.42
  -6  -1   7    2.64    0.95
   5   1  -7   37.24    1.51
   5   1  -7   35.11    2.05
  -5  -1   7   35.89    1.95
  -5  -1   7   38.54    1.79
  -5  -1   7   35.44    1.80
  -5  -1   7   36.05    1.81
   4   1  -7   21.10    1.44
   4   1  -7   23.72    1.04
  -4  -1   7   20.78    1.54
  -4  -1   7   21.97    1.35
  -4  -1   7   23.16    1.50
   3   1  -7   36.85    1.12
   3   1  -7   37.62    2.10
   3   1  -7   35.84    1.82
  -3  -1   7   36.28    1.00
  -3  -1   7   35.44    1.74
  -3  -1   7   36.29    1.85
   2   1  -7   10.54    1.22
   2   1  -7   10.74    0.77
   2   1  -7    9.92    1.05
   2   1  -7   11.42    0.40
   2   1  -7   11.51    0.37
  -2  -1   7   11.82    1.11
  -2  -1   7   11.20    0.68
  -2  -1   7   11.47    1.08
   1   1  -7   49.14    1.64
   1   1  -7   47.16    1.86
   1   1  -7   43.03    1.92
  -1  -1   7   48.58    1.58
  -1  -1   7   45.33    1.88
  -1  -1   7   43.86    1.86
   0   1  -7   92.48    3.01
   0   1  -7   97.14    1.92
   0   1  -7   93.81    2.74
   0   1  -7   95.04    3.00
   0   1  -7   97.74    2.76
   0   1  -7   96.76    2.96
   0   1  -7   95.49    2.80
   0  -1   7  101.93    3.09
   0  -1   7   97.66    2.69
   0  -1   7   97.86    2.89
   0  -1   7   98.82    3.00
  -1   1  -7    6.93    0.82
  -1   1  -7    4.93    1.00
  -1   1  -7    7.44    0.92
  -1   1  -7    8.02    1.06
  -1   1  -7    7.37    0.93
   1  -1   7    8.91    1.00
   1  -1   7    5.80    0.89
   1  -1   7    5.93    0.37
   1  -1   7    6.38    0.79
   1  -1   7    7.74    0.81
  -2   1  -7   38.19    1.84
  -2   1  -7   41.29    1.54
  -2   1  -7   40.22    1.68
  -2   1  -7   41.95    1.38
  -2   1  -7   36.89    1.81
   2  -1   7   41.79    1.57
   2  -1   7   38.38    1.73
   2  -1   7   40.74    1.26
   2  -1   7   40.85    1.81
  -3   1  -7    5.15    0.87
  -3   1  -7    6.57    0.82
  -3   1  -7    5.79    0.79
   3  -1   7    6.30    0.61
   3  -1   7    6.19    0.96
   3  -1   7    6.86    0.89
   3  -1   7    5.81    1.00
  -4   1  -7    0.21    0.51
  -4   1  -7    0.59    0.64
  -4   1  -7   -1.20    0.68
  -4   1  -7    1.57    0.81
   4  -1   7    0.45    0.58
   4  -1   7    0.63    0.46
   4  -1   7   -0.06    0.64
   4  -1   7    0.83    0.69
  -5   1  -7   -0.06    0.70
  -5   1  -7    1.84    0.62
  -5   1  -7    2.88    0.98
   5  -1   7    2.98    0.72
   5  -1   7    2.39    0.83
   5  -1   7    1.65    0.84
   5  -1   7    1.76    0.66
  -6   1  -7  106.26    2.92
  -6   1  -7  102.37    3.71
  -6   1  -7  109.28    3.51
   6  -1   7  105.77    3.37
   6  -1   7  107.51    2.89
   6  -1   7  105.88    3.55
   6  -1   7  108.52    3.70
  -7   1  -7   55.96    1.95
  -7   1  -7   54.32    2.40
  -7   1  -7   49.63    2.53
   7  -1   7   54.52    2.68
   7  -1   7   55.35    2.48
   7  -1   7   54.25    1.99
  -8   1  -7   81.33    2.54
  -8   1  -7   84.73    3.56
  -8   1  -7   81.26    3.28
   8  -1   7   82.43    3.46
   8  -1   7   82.26    3.27
  -9   1  -7    3.12    1.48
  -9   1  -7    0.96    0.98
   9  -1   7    0.23    1.23
   9  -1   7    1.77    1.20
 -10   1  -7   28.76    2.74
 -10   1  -7   29.99    2.47
 -10   1  -7   29.29    2.54
  10  -1   7   30.78    2.70
  10  -1   7   25.95    2.58
   9   0  -7    2.45    1.45
   9   0  -7    6.34    1.97
  -9   0   7    7.77    1.66
  -9   0   7    4.01    1.45
  -9   0   7    3.06    1.44
   8   0  -7    1.75    1.50
   8   0  -7    3.25    1.19
  -8   0   7    5.22    1.36
  -8   0   7    3.33    1.49
  -8   0   7    5.86    1.31
   7   0  -7   13.98    1.83
   7   0  -7   10.82    1.36
  -7   0   7   10.28    1.43
  -7   0   7   12.74    1.55
  -7   0   7   11.99    1.44
   6   0  -7   11.33    1.63
   6   0  -7   10.87    1.22
  -6   0   7   11.74    1.65
  -6   0   7   11.21    1.39
  -6   0   7   10.45    1.29
   5   0  -7    1.09    0.99
   5   0  -7    2.37    0.65
  -5   0   7    2.96    0.88
  -5   0   7    2.69    0.98
  -5   0   7    1.36    0.94
  -5   0   7    2.11    0.84
   4   0  -7    8.25    1.25
   4   0  -7    6.23    0.70
  -4   0   7    6.60    1.04
  -4   0   7    5.28    0.95
  -4   0   7    5.76    0.84
  -4   0   7    8.34    1.26
   3   0  -7   -0.53    0.65
   3   0  -7    0.40    0.34
  -3   0   7    0.18    0.42
  -3   0   7    0.24    0.58
  -3   0   7   -0.40    0.66
  -3   0   7   -0.78    0.58
  -3   0   7    0.30    0.19
   2   0  -7    6.43    0.97
   2   0  -7    6.91    0.31
   2   0  -7    6.27    0.63
  -2   0   7    7.84    1.03
  -2   0   7    6.80    0.98
  -2   0   7    6.26    0.59
   1   0  -7    3.22    0.87
   1   0  -7    3.94    0.62
   1   0  -7    2.75    0.72
   1   0  -7    2.79    0.72
  -1   0   7    2.60    0.71
  -1   0   7    3.57    0.76
  -1   0   7    2.50    0.50
   0   0  -7   65.20    2.52
   0   0  -7   68.16    2.16
   0   0  -7   64.17    2.45
   0   0  -7   70.54    2.36
   0   0  -7   70.11    2.45
   0   0  -7   73.35    2.20
   0   0   7   70.61    2.38
   0   0   7   73.41    2.45
   0   0   7   75.65    2.17
  -1   0  -7   95.50    2.79
  -1   0  -7   96.19    2.77
  -1   0  -7   97.09    2.77
  -1   0  -7   91.87    2.90
   1   0   7   96.90    2.75
   1   0   7   94.58    2.83
   1   0   7   91.47    3.01
   1   0   7   96.26    1.92
   1   0   7   94.11    2.78
  -2   0  -7   20.48    1.12
  -2   0  -7   18.93    1.19
  -2   0  -7   17.88    1.11
  -2   0  -7   17.62    1.09
  -2   0  -7   17.16    1.11
  -2   0  -7   19.05    0.81
   2   0   7   17.29    1.10
   2   0   7   18.07    1.08
   2   0   7   19.60    0.74
   2   0   7   18.92    1.25
  -3   0  -7   60.40    1.86
  -3   0  -7   56.70    1.94
  -3   0  -7   56.13    2.13
  -3   0  -7   59.72    2.07
  -3   0  -7   55.79    2.14
  -3   0  -7   57.87    2.45
   3   0   7   62.31    2.28
   3   0   7   58.11    1.72
   3   0   7   58.16    2.16
   3   0   7   56.93    1.93
  -4   0  -7   52.65    2.19
  -4   0  -7   54.04    1.94
  -4   0  -7   49.44    1.82
  -4   0  -7   51.69    2.05
   4   0   7   54.90    1.81
   4   0   7   51.62    1.83
   4   0   7   54.62    2.18
   4   0   7   49.29    2.14
  -5   0  -7    3.81    0.75
  -5   0  -7    3.29    0.91
  -5   0  -7    3.57    0.74
  -5   0  -7    2.56    0.94
   5   0   7    3.82    0.82
   5   0   7    2.23    0.85
   5   0   7    2.65    0.83
   5   0   7    2.89    0.69
  -6   0  -7   21.96    1.29
  -6   0  -7   20.64    1.39
  -6   0  -7   22.24    1.65
   6   0   7   22.39    1.61
   6   0   7   20.07    1.33
   6   0   7   22.84    1.69
   6   0   7   22.87    1.46
  -7   0  -7   24.68    1.81
  -7   0  -7   23.09    1.69
   7   0   7   23.32    1.82
   7   0   7   16.71    1.49
   7   0   7   25.60    1.72
   7   0   7   24.26    1.65
  -8   0  -7   15.49    1.37
  -8   0  -7   15.47    1.67
  -8   0  -7   15.12    1.70
   8   0   7   17.72    1.68
   8   0   7   16.51    1.81
  -9   0  -7    3.46    1.09
  -9   0  -7    7.07    1.55
  -9   0  -7    3.81    1.31
   9   0   7    4.00    1.50
   9   0   7    4.43    1.37
 -10   0  -7    1.09    1.15
 -10   0  -7    1.21    1.12
 -10   0  -7    1.12    1.50
  10   0   7    0.13    1.38
  10   0   7   -1.20    1.20
 -11   0  -7    6.93    1.51
 -11   0  -7    8.18    2.01
 -11   0  -7    5.73    1.87
 -11   0  -7    6.78    1.62
  11   0   7    1.96    1.75
  11   0   7    3.62    1.71
   8  -1  -7    0.16    1.23
   8  -1  -7    0.37    1.39
  -8   1   7   -0.64    1.10
  -8   1   7   -0.01    1.27
  -8   1   7    2.02    1.19
   7  -1  -7    9.08    1.30
   7  -1  -7   11.89    1.86
  -7   1   7   11.64    1.54
  -7   1   7   10.48    1.43
  -7   1   7    9.57    1.64
   6  -1  -7    1.33    1.11
   6  -1  -7    4.21    0.95
  -6   1   7    4.37    1.31
  -6   1   7    3.68    1.02
  -6   1   7    5.24    1.11
   5  -1  -7   68.76    2.31
   5  -1  -7   71.14    2.86
  -5   1   7   69.86    2.71
  -5   1   7   69.43    2.54
  -5   1   7   71.32    2.78
  -5   1   7   66.78    2.85
   4  -1  -7    1.22    0.86
   4  -1  -7    0.77    0.47
  -4   1   7    0.10    0.68
  -4   1   7    0.75    0.67
  -4   1   7    0.05    0.78
  -4   1   7    0.27    0.71
   3  -1  -7    6.79    1.13
   3  -1  -7    7.30    0.60
  -3   1   7    5.92    0.90
  -3   1   7    6.22    1.02
  -3   1   7    6.71    0.48
  -3   1   7    6.30    1.11
  -3   1   7    6.95    0.75
   2  -1  -7    1.11    0.60
   2  -1  -7    1.06    0.25
   2  -1  -7    0.65    0.45
  -2   1   7    0.68    0.65
  -2   1   7    1.39    0.65
  -2   1   7    0.90    0.38
  -2   1   7   -0.04    0.32
   1  -1  -7   11.04    1.03
   1  -1  -7   10.24    0.82
   1  -1  -7   11.26    0.94
  -1   1   7   12.53    1.10
  -1   1   7    8.13    0.96
  -1   1   7   10.97    0.35
  -1   1   7   10.51    0.75
   0  -1  -7    0.07    0.56
   0  -1  -7   -0.01    0.52
   0  -1  -7    0.20    0.57
   0  -1  -7    0.46    0.60
   0  -1  -7   -0.15    0.41
   0  -1  -7   -0.56    0.64
   0   1   7    0.85    0.62
   0   1   7    0.12    0.42
   0   1   7    1.24    0.42
  -1  -1  -7   20.78    1.22
  -1  -1  -7   22.91    1.18
  -1  -1  -7   22.06    1.24
  -1  -1  -7   23.00    1.28
   1   1   7   22.44    1.37
   1   1   7   19.30    0.52
   1   1   7   22.36    1.20
   1   1   7   22.86    1.24
   1   1   7   24.64    0.52
   1   1   7   23.26    1.19
  -2  -1  -7   64.83    2.23
  -2  -1  -7   68.06    2.32
  -2  -1  -7   68.05    2.30
  -2  -1  -7   66.73    2.18
   2   1   7   69.01    1.67
   2   1   7   73.29    2.28
   2   1   7   68.23    2.29
   2   1   7   66.83    2.17
   2   1   7   63.12    2.68
  -3  -1  -7  343.97    7.49
  -3  -1  -7  347.80    7.12
  -3  -1  -7  328.27    7.57
  -3  -1  -7  337.20    7.70
  -3  -1  -7  335.01    7.49
  -3  -1  -7  348.63    7.47
   3   1   7  347.82    7.45
   3   1   7  348.77    7.73
   3   1   7  336.92    7.04
   3   1   7  329.44    7.41
   3   1   7  302.90    8.08
  -4  -1  -7    3.01    0.91
  -4  -1  -7    3.63    0.74
  -4  -1  -7    3.81    0.81
  -4  -1  -7    3.65    0.75
  -4  -1  -7    4.11    0.81
   4   1   7    4.08    0.81
   4   1   7    4.11    0.66
   4   1   7    4.30    0.85
   4   1   7    2.84    0.81
  -5  -1  -7   36.99    1.85
  -5  -1  -7   37.95    1.71
  -5  -1  -7   38.91    1.81
  -5  -1  -7   38.53    1.83
  -5  -1  -7   38.41    1.79
   5   1   7   39.78    1.81
   5   1   7   36.53    1.81
   5   1   7   34.37    1.69
   5   1   7   37.88    1.95
  -6  -1  -7   25.88    1.50
  -6  -1  -7   27.85    1.66
  -6  -1  -7   26.10    1.48
   6   1   7   25.94    1.54
   6   1   7   24.84    1.59
   6   1   7   25.31    1.60
   6   1   7   28.25    1.65
  -7  -1  -7   20.40    1.45
  -7  -1  -7   21.95    1.62
  -7  -1  -7   20.59    1.58
   7   1   7   24.21    1.80
   7   1   7   20.94    1.56
   7   1   7   20.19    1.46
  -8  -1  -7   -0.26    0.93
  -8  -1  -7    0.88    0.99
  -8  -1  -7   -0.60    0.84
   8   1   7   -1.11    0.82
   8   1   7   -0.21    0.76
   8   1   7    0.03    0.96
  -9  -1  -7    6.70    1.41
  -9  -1  -7    7.60    1.50
  -9  -1  -7    9.73    1.43
   9   1   7    8.09    1.50
   9   1   7    8.39    1.52
 -10  -1  -7   13.49    1.66
 -10  -1  -7   16.57    1.98
 -10  -1  -7   16.14    2.04
  10   1   7   16.96    2.05
  10   1   7   15.06    2.09
 -11  -1  -7   -0.18    1.24
 -11  -1  -7    2.67    1.69
 -11  -1  -7    0.54    1.37
 -11  -1  -7    2.54    1.47
  11   1   7    2.30    1.64
  11   1   7    0.99    1.64
   8  -2  -7   -0.98    1.70
   8  -2  -7    0.36    1.37
  -8   2   7    1.54    1.34
  -8   2   7    0.65    1.39
  -8   2   7    1.75    1.74
   7  -2  -7    4.30    1.30
   7  -2  -7    7.23    1.59
  -7   2   7    4.28    1.39
  -7   2   7    3.12    1.60
  -7   2   7    5.95    1.37
   6  -2  -7    1.28    1.14
   6  -2  -7   -0.58    0.86
  -6   2   7    0.74    1.05
  -6   2   7    0.60    0.95
  -6   2   7    1.60    1.17
   5  -2  -7   34.66    2.11
   5  -2  -7   35.88    1.71
  -5   2   7   37.77    1.83
  -5   2   7   34.05    2.15
  -5   2   7   33.00    2.19
   4  -2  -7   25.20    1.72
   4  -2  -7   22.42    1.19
  -4   2   7   21.66    1.66
  -4   2   7   23.76    1.74
  -4   2   7   22.64    1.39
  -4   2   7   22.70    0.78
  -4   2   7   20.49    1.57
   3  -2  -7    0.84    0.79
   3  -2  -7    0.39    0.38
  -3   2   7   -1.64    0.63
  -3   2   7   -0.29    0.35
  -3   2   7   -0.32    0.71
  -3   2   7   -0.32    0.41
   2  -2  -7   24.91    1.52
   2  -2  -7   22.39    0.87
  -2   2   7   24.22    1.05
  -2   2   7   21.57    1.46
  -2   2   7   23.69    1.43
  -2   2   7   22.09    1.03
   1  -2  -7   -0.44    0.53
   1  -2  -7    1.08    0.61
   1  -2  -7    0.87    0.24
   1  -2  -7    1.28    0.70
  -1   2   7    1.36    0.64
  -1   2   7    0.85    0.34
  -1   2   7    0.53    0.42
  -1   2   7    0.69    0.63
   0  -2  -7  144.70    3.89
   0  -2  -7  146.53    3.97
   0  -2  -7  153.25    3.67
   0  -2  -7  151.54    3.75
   0  -2  -7  149.48    3.75
   0   2   7  153.99    3.12
   0   2   7  143.56    4.09
   0   2   7  148.81    3.72
  -1  -2  -7    6.04    0.92
  -1  -2  -7    7.73    0.92
  -1  -2  -7    6.76    0.80
  -1  -2  -7    6.84    0.86
  -1  -2  -7    6.48    0.92
   1   2   7    5.76    0.79
   1   2   7    6.10    0.92
   1   2   7    4.45    0.97
   1   2   7    6.38    0.77
   1   2   7    6.47    0.36
   1   2   7    5.04    0.39
  -2  -2  -7    0.13    0.48
  -2  -2  -7    0.36    0.74
  -2  -2  -7    0.27    0.66
  -2  -2  -7    0.17    0.34
  -2  -2  -7    0.46    0.57
   2   2   7   -0.24    0.42
   2   2   7    0.98    0.53
   2   2   7    0.70    0.78
   2   2   7    0.02    0.27
   2   2   7   -0.11    0.52
   2   2   7    0.71    0.25
  -3  -2  -7   70.91    2.37
  -3  -2  -7   65.31    2.48
  -3  -2  -7   75.34    2.23
  -3  -2  -7   71.37    2.43
  -3  -2  -7   66.64    2.39
   3   2   7   71.26    1.97
   3   2   7   72.59    2.43
   3   2   7   71.76    2.27
   3   2   7   61.18    2.65
   3   2   7   67.33    2.35
  -4  -2  -7   12.02    1.17
  -4  -2  -7   14.66    1.12
  -4  -2  -7   13.29    0.97
  -4  -2  -7   13.84    1.04
  -4  -2  -7   12.19    1.04
   4   2   7   13.04    0.87
   4   2   7   14.01    1.22
   4   2   7   13.52    1.21
  -5  -2  -7   10.63    1.11
  -5  -2  -7   10.66    1.04
  -5  -2  -7    9.62    1.06
  -5  -2  -7   13.23    1.21
  -5  -2  -7    8.94    1.09
  -5  -2  -7   11.85    1.02
   5   2   7   10.48    1.23
   5   2   7   11.81    1.01
  -6  -2  -7   22.14    1.59
  -6  -2  -7   21.63    1.47
  -6  -2  -7   22.28    1.41
  -6  -2  -7   25.28    1.49
   6   2   7   23.50    1.43
   6   2   7   24.63    1.69
   6   2   7   23.26    1.43
  -7  -2  -7   22.60    1.72
  -7  -2  -7   23.97    1.52
  -7  -2  -7   23.33    1.61
  -7  -2  -7   21.79    1.57
   7   2   7   20.77    1.55
   7   2   7   18.59    1.48
   7   2   7   22.40    1.48
  -8  -2  -7   19.80    1.90
  -8  -2  -7   20.77    1.68
  -8  -2  -7   19.12    1.64
  -8  -2  -7   18.42    1.60
   8   2   7   21.44    1.86
   8   2   7   21.23    1.53
   8   2   7   18.04    1.66
  -9  -2  -7    5.31    1.36
  -9  -2  -7    9.32    1.42
  -9  -2  -7    9.89    1.53
   9   2   7    7.19    1.52
   9   2   7    6.64    1.44
 -10  -2  -7    0.62    1.22
 -10  -2  -7    1.43    1.30
 -10  -2  -7    2.68    1.36
  10   2   7    2.12    1.27
  10   2   7    2.15    1.33
 -11  -2  -7    0.92    1.12
 -11  -2  -7    0.31    1.41
 -11  -2  -7    1.92    1.48
 -11  -2  -7   -0.85    1.36
  11   2   7   -0.44    1.36
  11   2   7   -0.04    1.37
 -12  -2  -7    1.09    1.91
 -12  -2  -7    4.84    1.70
 -12  -2  -7    3.16    1.77
  12   2   7    2.61    1.93
   7  -3  -7    3.51    1.36
   7  -3  -7    6.47    1.70
  -7   3   7    3.99    1.28
  -7   3   7    5.38    1.65
  -7   3   7    4.92    1.45
   6  -3  -7   -0.60    0.92
   6  -3  -7   -1.52    1.12
  -6   3   7   -0.57    1.12
  -6   3   7   -0.12    1.17
  -6   3   7    0.28    0.96
   5  -3  -7   13.18    1.28
   5  -3  -7   14.16    1.70
  -5   3   7   13.89    1.51
  -5   3   7   12.67    0.76
  -5   3   7   12.46    0.85
  -5   3   7   12.06    1.27
  -5   3   7   13.52    1.66
   4  -3  -7   54.83    2.46
   4  -3  -7   52.77    1.97
  -4   3   7   49.97    1.65
  -4   3   7   49.05    2.52
  -4   3   7   52.21    2.52
  -4   3   7   53.91    2.06
  -4   3   7   51.58    1.64
   3  -3  -7   15.43    1.45
   3  -3  -7   17.89    1.00
  -3   3   7   17.03    1.02
  -3   3   7   15.64    1.47
  -3   3   7   18.70    1.57
  -3   3   7   15.75    1.01
  -3   3   7   14.42    1.30
   2  -3  -7    0.46    0.76
   2  -3  -7    0.61    0.40
   2  -3  -7    1.65    0.86
  -2   3   7    0.93    0.75
  -2   3   7    1.13    0.75
  -2   3   7    1.47    0.57
  -2   3   7    1.67    0.68
   1  -3  -7   29.61    1.55
   1  -3  -7   29.69    1.31
   1  -3  -7   32.19    1.07
  -1   3   7   31.14    1.22
  -1   3   7   26.93    1.58
  -1   3   7   31.21    1.63
  -1   3   7   31.39    1.42
   0  -3  -7   28.27    1.48
   0  -3  -7   28.00    0.95
   0  -3  -7   28.25    1.21
   0  -3  -7   25.34    1.53
   0  -3  -7   28.20    1.53
   0  -3  -7   27.94    1.25
   0   3   7   29.34    1.37
   0   3   7   28.95    1.03
   0   3   7   26.86    1.43
   0   3   7   28.51    1.65
  -1  -3  -7   55.78    2.06
  -1  -3  -7   54.32    1.95
  -1  -3  -7   55.26    1.84
  -1  -3  -7   54.56    2.12
   1   3   7   57.36    1.49
   1   3   7   54.97    2.16
   1   3   7   53.16    2.00
   1   3   7   59.79    2.03
  -2  -3  -7   80.12    2.37
  -2  -3  -7   76.41    2.60
  -2  -3  -7   80.48    2.35
  -2  -3  -7   80.99    2.66
   2   3   7   80.43    1.95
   2   3   7   78.72    2.65
   2   3   7   80.86    2.41
   2   3   7   79.55    2.15
  -3  -3  -7  100.20    2.88
  -3  -3  -7  105.20    2.74
  -3  -3  -7  100.75    3.05
  -3  -3  -7   96.54    3.02
  -3  -3  -7   99.86    3.20
   3   3   7  102.91    2.77
   3   3   7   99.89    2.67
   3   3   7  106.28    2.48
   3   3   7   93.25    2.78
   3   3   7  101.21    3.10
   3   3   7  103.92    3.16
  -4  -3  -7    5.84    0.98
  -4  -3  -7    5.47    0.70
  -4  -3  -7    5.44    0.85
  -4  -3  -7    4.23    0.94
   4   3   7    5.60    0.88
   4   3   7    4.42    0.94
   4   3   7    3.42    0.69
   4   3   7    4.93    0.71
  -5  -3  -7    8.16    1.04
  -5  -3  -7    9.39    1.12
  -5  -3  -7    7.51    0.86
  -5  -3  -7    9.18    1.00
  -5  -3  -7    7.56    0.90
   5   3   7    9.33    0.90
   5   3   7    7.43    0.96
  -6  -3  -7   14.89    1.15
  -6  -3  -7   14.10    1.24
  -6  -3  -7   14.02    1.14
  -6  -3  -7   13.44    1.25
  -6  -3  -7   13.13    1.23
   6   3   7   13.89    1.40
   6   3   7   13.78    1.17
  -7  -3  -7    3.33    0.99
  -7  -3  -7    5.13    0.90
  -7  -3  -7    4.02    0.90
  -7  -3  -7    3.64    0.95
  -7  -3  -7    5.01    1.06
   7   3   7    3.06    1.09
   7   3   7    5.54    1.07
  -8  -3  -7   -0.10    0.83
  -8  -3  -7   -1.73    0.92
  -8  -3  -7    0.23    0.82
  -8  -3  -7   -0.12    0.83
   8   3   7    0.54    0.96
   8   3   7    0.45    0.93
  -9  -3  -7   38.37    2.06
  -9  -3  -7   42.11    2.17
  -9  -3  -7   38.93    2.28
  -9  -3  -7   43.55    2.36
   9   3   7   40.07    2.47
   9   3   7   45.17    2.44
 -10  -3  -7    1.51    1.21
 -10  -3  -7    0.46    1.24
 -10  -3  -7    3.12    1.09
  10   3   7    1.99    1.24
  10   3   7    1.33    1.32
 -11  -3  -7   13.61    2.06
 -11  -3  -7   16.31    1.82
 -11  -3  -7   15.39    2.01
  11   3   7   13.91    2.12
  11   3   7   14.96    2.24
 -12  -3  -7    2.99    1.61
 -12  -3  -7    2.69    2.02
 -12  -3  -7    1.62    1.52
  12   3   7    0.53    1.73
   7  -4  -7    3.71    1.78
   7  -4  -7    1.39    1.30
  -7   4   7    1.57    1.38
  -7   4   7   -0.79    1.65
   6  -4  -7    0.62    1.12
   6  -4  -7    3.98    1.52
  -6   4   7    1.11    1.04
  -6   4   7    1.25    1.45
  -6   4   7    2.67    1.46
   5  -4  -7   23.52    2.16
   5  -4  -7   22.49    1.70
  -5   4   7   23.89    2.20
  -5   4   7   22.69    1.62
  -5   4   7   23.84    1.37
  -5   4   7   27.79    2.22
   4  -4  -7   19.86    1.40
   4  -4  -7   21.40    1.80
  -4   4   7   20.65    1.89
  -4   4   7   18.81    1.28
  -4   4   7   18.79    1.66
  -4   4   7   14.70    1.45
   3  -4  -7    8.13    0.96
   3  -4  -7    9.37    1.43
  -3   4   7    8.69    1.01
  -3   4   7    6.90    0.98
  -3   4   7    6.65    1.29
  -3   4   7    7.93    1.34
   2  -4  -7   28.52    1.77
   2  -4  -7   27.71    1.53
   2  -4  -7   29.61    1.47
  -2   4   7   30.89    1.64
  -2   4   7   28.13    1.89
  -2   4   7   32.60    1.55
  -2   4   7   30.25    1.79
  -2   4   7   30.06    1.45
   1  -4  -7   21.54    1.15
   1  -4  -7   19.57    1.44
   1  -4  -7   19.28    0.98
  -1   4   7   20.29    1.28
  -1   4   7   17.93    1.38
  -1   4   7   17.06    1.16
  -1   4   7   19.09    1.56
   0  -4  -7    1.11    0.49
   0  -4  -7   -0.36    0.53
   0  -4  -7    0.68    0.38
   0  -4  -7    0.46    0.69
   0   4   7    0.72    0.56
   0   4   7    1.08    0.54
   0   4   7    1.15    0.73
   0   4   7    0.47    0.54
  -1  -4  -7    2.22    0.88
  -1  -4  -7    1.50    0.52
  -1  -4  -7    3.23    0.77
  -1  -4  -7    1.65    0.58
  -1  -4  -7    2.54    0.79
   1   4   7    1.70    0.48
   1   4   7    1.19    0.54
   1   4   7    1.99    0.75
   1   4   7    2.47    0.78
  -2  -4  -7   20.51    1.10
  -2  -4  -7   21.78    1.41
  -2  -4  -7   19.76    1.54
  -2  -4  -7   22.76    1.25
   2   4   7   22.84    1.41
   2   4   7   20.63    1.33
   2   4   7   22.80    0.96
   2   4   7   22.04    1.15
  -3  -4  -7    6.74    0.86
  -3  -4  -7    6.75    0.75
  -3  -4  -7    8.13    0.78
   3   4   7    5.93    0.95
   3   4   7    7.51    0.91
   3   4   7    7.51    0.62
   3   4   7    6.94    0.80
   3   4   7    7.12    1.06
   3   4   7    7.00    0.75
  -4  -4  -7   61.22    2.43
  -4  -4  -7   64.67    2.19
  -4  -4  -7   71.31    1.96
   4   4   7   61.35    2.19
   4   4   7   68.38    2.24
   4   4   7   67.27    2.42
   4   4   7   67.14    1.99
   4   4   7   64.27    2.55
  -5  -4  -7   15.25    0.96
  -5  -4  -7   14.05    1.12
  -5  -4  -7   11.60    1.30
  -5  -4  -7   13.42    1.29
  -5  -4  -7   14.27    0.87
   5   4   7   14.97    1.38
   5   4   7   15.04    1.19
  -6  -4  -7   19.11    1.05
  -6  -4  -7   17.23    1.27
  -6  -4  -7   16.08    1.05
  -6  -4  -7   17.29    1.35
  -6  -4  -7   17.06    1.41
   6   4   7   14.90    1.44
   6   4   7   15.70    1.49
   6   4   7   15.09    1.27
  -7  -4  -7   -0.03    0.80
  -7  -4  -7   -0.48    0.69
  -7  -4  -7   -0.35    0.71
  -7  -4  -7   -0.61    0.57
  -7  -4  -7    0.53    0.88
   7   4   7    0.47    0.76
   7   4   7    0.88    0.89
  -8  -4  -7   35.87    1.86
  -8  -4  -7   35.50    2.01
  -8  -4  -7   35.56    2.09
  -8  -4  -7   32.42    1.78
  -8  -4  -7   39.03    1.72
   8   4   7   30.90    2.15
   8   4   7   36.35    1.75
   8   4   7   35.96    2.09
  -9  -4  -7   -0.69    0.96
  -9  -4  -7   -0.04    0.77
  -9  -4  -7   -0.18    0.92
  -9  -4  -7    1.66    1.09
   9   4   7    0.10    0.84
   9   4   7    0.24    0.72
   9   4   7    0.64    1.07
 -10  -4  -7    9.76    1.64
 -10  -4  -7   11.31    1.67
 -10  -4  -7    9.49    1.30
  10   4   7   10.08    1.74
  10   4   7   10.64    1.78
 -11  -4  -7   -0.96    1.31
 -11  -4  -7    0.37    1.30
 -11  -4  -7   -1.07    1.08
  11   4   7    0.99    1.28
  11   4   7    2.08    1.45
 -12  -4  -7   14.00    2.12
 -12  -4  -7   14.93    1.85
 -12  -4  -7   15.44    2.07
  12   4   7   14.59    2.33
  12   4   7   15.47    2.42
   6  -5  -7   -0.68    1.09
   6  -5  -7   -3.84    1.35
  -6   5   7   -0.87    1.59
  -6   5   7    0.16    1.62
   5  -5  -7   -0.21    1.03
   5  -5  -7   -1.67    1.16
  -5   5   7   -0.07    1.24
  -5   5   7   -0.07    1.34
   4  -5  -7    4.69    1.34
   4  -5  -7    3.59    0.99
  -4   5   7    3.56    0.95
  -4   5   7    3.11    1.27
  -4   5   7    4.40    1.23
   3  -5  -7   12.33    1.60
   3  -5  -7    9.23    1.08
  -3   5   7   10.27    1.25
  -3   5   7   12.97    1.72
  -3   5   7   11.65    1.63
   2  -5  -7   -0.43    0.62
   2  -5  -7    1.16    0.83
   2  -5  -7   -0.81    0.86
  -2   5   7    1.33    0.90
  -2   5   7   -0.76    0.89
  -2   5   7    1.01    0.79
   1  -5  -7    7.27    0.87
   1  -5  -7    6.38    0.79
   1  -5  -7    6.46    0.80
   1  -5  -7    7.67    1.26
  -1   5   7    5.03    1.13
  -1   5   7    5.24    1.19
  -1   5   7    7.17    1.03
  -1   5   7    6.29    1.08
   0  -5  -7   90.57    3.08
   0  -5  -7   94.01    2.51
   0  -5  -7   87.94    2.40
   0  -5  -7   94.32    2.54
   0   5   7   89.54    2.67
   0   5   7   87.72    3.28
   0   5   7   94.39    3.04
   0   5   7   92.45    3.00
  -1  -5  -7   16.95    1.44
  -1  -5  -7   16.64    0.98
  -1  -5  -7   18.23    0.97
  -1  -5  -7   16.44    1.35
  -1  -5  -7   17.78    0.95
   1   5   7   17.02    1.34
   1   5   7   18.49    1.04
   1   5   7   15.84    1.29
  -2  -5  -7    1.72    0.64
  -2  -5  -7    0.99    0.74
  -2  -5  -7    1.74    0.54
   2   5   7    1.51    0.59
   2   5   7    1.30    0.77
   2   5   7    2.51    0.63
   2   5   7    1.35    0.67
  -3  -5  -7   22.10    1.16
  -3  -5  -7   20.55    1.11
  -3  -5  -7   20.54    1.38
   3   5   7   21.90    1.51
   3   5   7   22.41    1.08
   3   5   7   22.84    1.44
   3   5   7   21.17    1.06
  -4  -5  -7   41.58    2.02
  -4  -5  -7   44.23    1.42
  -4  -5  -7   37.06    1.76
   4   5   7   39.23    1.66
   4   5   7   44.15    2.05
   4   5   7   40.14    1.91
   4   5   7   41.60    1.54
   4   5   7   39.55    1.39
   4   5   7   39.68    1.96
  -5  -5  -7   22.35    1.34
  -5  -5  -7   23.33    0.96
  -5  -5  -7   18.67    1.51
   5   5   7   23.04    1.46
   5   5   7   23.23    1.44
   5   5   7   22.29    1.52
  -6  -5  -7    3.19    0.53
  -6  -5  -7    3.71    0.90
  -6  -5  -7    3.13    0.80
  -6  -5  -7    2.32    0.49
  -6  -5  -7    4.51    1.17
   6   5   7    1.69    0.80
   6   5   7    2.78    0.80
   6   5   7    1.58    0.77
  -7  -5  -7    9.11    1.47
  -7  -5  -7    6.73    0.77
  -7  -5  -7    9.89    1.20
  -7  -5  -7    9.20    0.80
  -7  -5  -7    9.78    1.32
   7   5   7   10.07    1.33
   7   5   7   11.76    1.27
   7   5   7    9.73    1.19
  -8  -5  -7  131.96    4.04
  -8  -5  -7  125.38    3.67
  -8  -5  -7  132.02    3.29
  -8  -5  -7  131.56    3.31
  -8  -5  -7  133.91    4.29
   8   5   7  134.16    4.29
   8   5   7  124.73    4.04
   8   5   7  130.11    4.40
  -9  -5  -7   15.02    1.15
  -9  -5  -7   16.62    1.48
  -9  -5  -7   11.58    1.62
  -9  -5  -7   12.05    1.34
  -9  -5  -7   13.93    1.82
   9   5   7   11.94    1.65
   9   5   7   11.95    1.22
   9   5   7   13.02    1.80
 -10  -5  -7    0.51    1.24
 -10  -5  -7    1.59    1.15
 -10  -5  -7   -0.57    0.86
  10   5   7    0.75    1.20
  10   5   7    0.29    1.23
  10   5   7    0.71    0.77
 -11  -5  -7    2.39    1.29
 -11  -5  -7    2.94    1.01
 -11  -5  -7    2.06    1.42
  11   5   7    1.92    1.37
  11   5   7    0.16    1.42
 -12  -5  -7    6.20    1.85
 -12  -5  -7    8.04    2.01
 -12  -5  -7    6.65    1.41
  12   5   7    6.65    1.95
  12   5   7    7.93    2.02
   5  -6  -7    2.65    1.30
   5  -6  -7    2.32    1.43
  -5   6   7    1.49    1.26
  -5   6   7    3.41    1.80
  -5   6   7    0.96    1.66
   4  -6  -7    1.02    0.99
   4  -6  -7   -0.44    1.28
  -4   6   7   -1.09    1.24
  -4   6   7    0.73    1.39
  -4   6   7   -0.66    1.06
   3  -6  -7    3.88    0.99
   3  -6  -7    6.75    1.36
  -3   6   7    2.37    1.14
  -3   6   7    2.35    1.08
  -3   6   7    5.09    1.41
   2  -6  -7    2.18    1.09
   2  -6  -7   -1.12    0.85
   2  -6  -7    0.38    0.61
   2  -6  -7    1.38    0.76
  -2   6   7    1.57    0.94
  -2   6   7    1.01    1.12
  -2   6   7   -0.05    0.92
   1  -6  -7   10.61    1.45
   1  -6  -7    8.81    1.01
   1  -6  -7    8.42    0.86
   1  -6  -7    9.01    0.94
  -1   6   7    8.43    1.52
  -1   6   7    8.82    1.34
  -1   6   7   10.79    1.38
   0  -6  -7   29.53    1.21
   0  -6  -7   29.38    1.22
   0  -6  -7   32.41    1.50
   0  -6  -7   26.67    1.73
   0   6   7   28.40    2.00
   0   6   7   29.66    1.80
   0   6   7   30.05    1.70
  -1  -6  -7   54.59    1.91
  -1  -6  -7   54.83    1.64
  -1  -6  -7   51.92    2.33
  -1  -6  -7   56.03    1.70
   1   6   7   55.42    2.56
   1   6   7   54.30    2.09
   1   6   7   53.22    2.44
  -2  -6  -7    2.68    0.82
  -2  -6  -7    1.14    0.84
  -2  -6  -7    3.08    0.59
  -2  -6  -7    0.36    0.52
   2   6   7    0.85    0.82
   2   6   7    0.07    0.75
   2   6   7    2.03    0.89
   2   6   7    1.61    0.65
  -3  -6  -7   11.54    0.90
  -3  -6  -7   11.87    1.01
  -3  -6  -7   11.35    1.28
   3   6   7   10.08    1.39
   3   6   7   10.50    1.17
   3   6   7   10.45    0.87
   3   6   7   10.85    1.12
  -4  -6  -7    9.71    1.10
  -4  -6  -7    8.67    0.79
  -4  -6  -7   10.39    0.90
   4   6   7    8.69    0.72
   4   6   7   10.33    1.15
   4   6   7    9.18    1.10
   4   6   7    8.49    1.24
   4   6   7    9.73    1.18
  -5  -6  -7    0.99    0.60
  -5  -6  -7    0.48    0.81
  -5  -6  -7    0.85    0.39
   5   6   7    0.85    0.77
   5   6   7    0.30    0.60
   5   6   7    1.91    1.02
   5   6   7   -0.11    0.70
  -6  -6  -7    1.54    0.70
  -6  -6  -7    0.55    0.25
  -6  -6  -7    0.99    0.26
  -6  -6  -7   -0.12    0.88
   6   6   7    1.35    0.82
   6   6   7    0.05    0.64
   6   6   7    1.16    0.78
  -7  -6  -7   12.81    0.49
  -7  -6  -7   13.00    0.50
  -7  -6  -7   13.91    1.78
  -7  -6  -7   13.21    1.25
   7   6   7   13.38    1.25
   7   6   7   12.76    1.38
   7   6   7   12.50    1.38
  -8  -6  -7    7.86    1.26
  -8  -6  -7    7.53    1.29
  -8  -6  -7    5.70    0.52
  -8  -6  -7    7.70    1.43
   8   6   7    7.84    1.40
   8   6   7    6.93    1.09
   8   6   7    8.03    1.48
  -9  -6  -7    2.75    1.11
  -9  -6  -7    2.95    1.09
  -9  -6  -7    2.17    0.53
  -9  -6  -7    2.07    0.60
  -9  -6  -7    3.22    1.36
   9   6   7    2.73    0.84
   9   6   7    2.02    1.31
   9   6   7    2.00    1.20
 -10  -6  -7    1.17    0.67
 -10  -6  -7    0.79    1.05
 -10  -6  -7   -0.54    1.20
  10   6   7    0.15    0.78
  10   6   7   -0.17    1.20
  10   6   7    0.51    1.20
 -11  -6  -7    1.86    1.38
 -11  -6  -7    3.55    1.58
 -11  -6  -7    3.64    0.93
  11   6   7    3.72    1.49
  11   6   7    3.07    1.61
 -12  -6  -7    8.86    1.89
 -12  -6  -7    5.27    1.96
 -12  -6  -7    5.58    1.24
  12   6   7    4.81    1.94
  12   6   7    5.40    1.90
   4  -7  -7   -0.26    1.11
   4  -7  -7   -3.13    1.38
  -4   7   7   -0.90    1.54
  -4   7   7    3.88    1.67
  -4   7   7   -2.03    1.34
   3  -7  -7    2.78    1.27
   3  -7  -7    3.32    0.80
   3  -7  -7    2.40    1.14
  -3   7   7    1.84    1.42
  -3   7   7    0.96    1.28
  -3   7   7    2.90    1.49
   2  -7  -7    0.52    0.84
   2  -7  -7    0.24    1.08
   2  -7  -7    1.20    0.63
  -2   7   7    1.82    1.36
  -2   7   7    0.34    1.20
  -2   7   7   -0.41    1.12
   1  -7  -7    2.18    0.82
   1  -7  -7    1.28    0.53
   1  -7  -7    0.29    0.63
   1  -7  -7   -0.99    1.01
  -1   7   7    0.63    1.15
  -1   7   7   -0.28    0.90
  -1   7   7    0.17    0.98
   0  -7  -7    6.19    1.36
   0  -7  -7    4.37    0.56
   0  -7  -7    3.98    0.91
   0  -7  -7    5.18    0.63
   0   7   7    5.34    1.41
   0   7   7    5.07    1.18
   0   7   7    4.92    1.16
  -1  -7  -7    4.30    0.57
  -1  -7  -7    2.39    0.51
  -1  -7  -7    3.97    0.88
  -1  -7  -7    4.13    1.12
   1   7   7    3.79    1.12
   1   7   7    5.52    1.27
   1   7   7    5.24    1.05
  -2  -7  -7   39.05    1.27
  -2  -7  -7   40.31    2.13
  -2  -7  -7   37.63    1.31
  -2  -7  -7   37.88    1.95
   2   7   7   39.26    2.24
   2   7   7   39.62    2.27
   2   7   7   35.21    1.83
  -3  -7  -7   77.50    2.15
  -3  -7  -7   73.51    2.36
  -3  -7  -7   75.21    2.97
   3   7   7   77.58    3.08
   3   7   7   76.48    2.29
   3   7   7   80.93    3.18
  -4  -7  -7   53.44    1.77
  -4  -7  -7   48.58    1.59
  -4  -7  -7   50.25    2.33
   4   7   7   48.37    2.41
   4   7   7   48.17    2.36
   4   7   7   52.57    1.58
  -5  -7  -7   -1.52    0.84
  -5  -7  -7    0.24    0.26
   5   7   7    0.30    0.78
   5   7   7    1.02    0.97
   5   7   7   -1.52    0.70
   5   7   7   -0.05    0.94
  -6  -7  -7   53.59    2.57
  -6  -7  -7   48.43    1.94
   6   7   7   51.07    2.45
   6   7   7   51.77    2.66
   6   7   7   51.05    2.34
  -7  -7  -7    1.12    1.09
  -7  -7  -7    4.02    0.97
   7   7   7    4.52    1.02
   7   7   7    2.88    1.25
   7   7   7    2.57    0.95
  -8  -7  -7    1.35    0.88
  -8  -7  -7    1.35    1.08
   8   7   7    1.48    1.10
   8   7   7    2.68    1.10
   8   7   7    2.06    0.91
  -9  -7  -7    7.67    1.60
  -9  -7  -7    6.41    1.26
   9   7   7    6.48    1.44
   9   7   7    7.77    1.28
   9   7   7    6.80    1.37
 -10  -7  -7    0.13    1.12
 -10  -7  -7    0.91    1.25
  10   7   7   -0.24    0.82
  10   7   7   -0.79    1.18
  10   7   7    1.11    1.34
 -11  -7  -7    0.66    1.59
 -11  -7  -7   -0.37    1.26
  11   7   7    2.01    1.62
  11   7   7    2.63    1.36
 -12  -7  -7    5.92    2.05
 -12  -7  -7    9.99    1.84
  12   7   7    8.09    1.94
  12   7   7    8.75    2.15
   3  -8  -7   -2.50    1.04
   3  -8  -7   -0.34    1.39
  -3   8   7    1.53    1.78
  -3   8   7    0.46    1.60
  -3   8   7   -0.67    1.57
   2  -8  -7    0.98    0.99
   2  -8  -7    3.45    1.38
  -2   8   7    3.12    1.56
  -2   8   7    2.72    1.36
  -2   8   7    1.11    1.50
   1  -8  -7    2.36    1.32
   1  -8  -7    3.52    1.11
  -1   8   7    2.61    1.23
  -1   8   7    2.71    1.32
  -1   8   7    2.01    1.41
   0  -8  -7    7.42    1.21
   0  -8  -7   10.08    1.55
   0   8   7   10.69    1.54
   0   8   7   11.59    1.82
   0   8   7   10.93    1.67
  -1  -8  -7    1.30    1.06
  -1  -8  -7    2.43    0.82
   1   8   7    0.73    1.15
   1   8   7   -0.37    0.82
   1   8   7    1.14    1.06
  -2  -8  -7    7.60    0.48
  -2  -8  -7    7.49    1.10
  -2  -8  -7    9.24    1.51
   2   8   7    8.51    1.13
   2   8   7    9.21    1.45
   2   8   7    7.62    1.46
  -3  -8  -7    4.23    0.57
  -3  -8  -7    2.67    1.16
  -3  -8  -7    2.84    0.98
  -3  -8  -7    3.65    0.56
   3   8   7    3.93    1.22
   3   8   7    3.13    0.72
   3   8   7    4.47    1.23
  -4  -8  -7   76.59    2.16
  -4  -8  -7   76.43    3.13
  -4  -8  -7   74.09    2.14
   4   8   7   79.37    3.25
   4   8   7   76.24    3.14
   4   8   7   76.23    2.08
  -5  -8  -7   -0.11    0.74
  -5  -8  -7    0.79    0.62
   5   8   7   -1.21    1.03
   5   8   7    0.13    0.84
   5   8   7    0.23    0.92
  -6  -8  -7    0.48    0.66
  -6  -8  -7    0.85    0.96
   6   8   7    0.37    0.83
   6   8   7    0.39    0.90
   6   8   7    0.64    0.88
  -7  -8  -7   -0.12    1.12
  -7  -8  -7    0.60    0.80
   7   8   7   -0.09    0.91
   7   8   7   -0.24    0.97
   7   8   7    3.58    1.30
  -8  -8  -7   -0.22    0.86
  -8  -8  -7    2.87    1.33
   8   8   7    3.72    1.28
   8   8   7    3.50    1.08
   8   8   7    2.02    1.28
  -9  -8  -7   -0.39    0.89
  -9  -8  -7   -0.11    1.32
   9   8   7    1.20    0.96
   9   8   7    1.13    1.28
   9   8   7    3.37    1.27
 -10  -8  -7    3.22    1.57
 -10  -8  -7    0.68    1.16
  10   8   7    3.02    1.52
  10   8   7    3.74    1.51
 -11  -8  -7    3.64    1.72
 -11  -8  -7    1.66    1.28
  11   8   7    2.00    1.21
  11   8   7    2.90    1.82
 -12  -8  -7    2.83    2.01
 -12  -8  -7    4.22    1.69
  12   8   7    4.39    1.94
  12   8   7    7.44    2.08
   2  -9  -7   17.09    2.02
   2  -9  -7   19.76    2.24
  -2   9   7   24.73    3.51
  -2   9   7   18.23    2.49
  -2   9   7   15.70    2.40
   1  -9  -7    6.42    1.49
   1  -9  -7    7.19    1.35
  -1   9   7    5.94    1.88
  -1   9   7    5.75    1.66
  -1   9   7    6.43    2.06
   0  -9  -7    1.67    1.31
   0  -9  -7   -1.28    1.01
   0   9   7    0.76    1.40
   0   9   7   -0.97    1.40
   0   9   7    0.84    1.18
  -1  -9  -7    2.97    1.24
  -1  -9  -7   -0.67    0.86
   1   9   7   -0.07    1.31
   1   9   7    0.47    1.05
   1   9   7    0.04    1.33
  -2  -9  -7   13.99    1.83
  -2  -9  -7   13.20    1.44
   2   9   7   13.28    1.46
   2   9   7   15.74    1.69
   2   9   7   13.10    1.98
  -3  -9  -7    1.57    1.17
   3   9   7    0.31    0.90
   3   9   7    0.24    0.72
   3   9   7    1.14    1.25
  -4  -9  -7    8.47    0.77
  -4  -9  -7    7.88    0.69
  -4  -9  -7    7.68    0.93
  -4  -9  -7    8.75    1.63
   4   9   7    8.87    1.73
   4   9   7    9.88    0.87
   4   9   7    6.62    1.45
  -5  -9  -7    3.36    0.71
  -5  -9  -7    3.08    1.21
   5   9   7    3.30    1.22
   5   9   7    4.91    1.42
  -6  -9  -7    0.86    0.68
  -6  -9  -7   -0.20    1.15
   6   9   7    0.79    1.15
   6   9   7    0.71    1.01
   6   9   7    0.49    0.91
  -7  -9  -7   -0.74    1.21
  -7  -9  -7    0.66    0.80
   7   9   7    1.56    1.29
   7   9   7    0.64    1.04
  -8  -9  -7   -2.40    1.15
  -8  -9  -7   -0.23    0.83
   8   9   7    0.72    1.10
   8   9   7    0.46    1.36
   8   9   7    0.73    1.08
  -9  -9  -7   -0.09    0.99
  -9  -9  -7    1.12    1.36
   9   9   7    0.32    1.44
   9   9   7    1.65    1.08
   9   9   7    1.96    1.15
 -10  -9  -7    6.15    1.50
 -10  -9  -7    8.10    1.71
  10   9   7    7.51    1.81
  10   9   7    7.05    1.34
  10   9   7    9.97    2.06
 -11  -9  -7    6.09    1.69
 -11  -9  -7    7.44    1.56
  11   9   7    3.88    1.73
  11   9   7    5.84    2.29
   0 -10  -7    3.06    1.59
   0 -10  -7   -2.09    1.23
   0  10   7    1.54    1.56
   0  10   7    0.71    1.77
   0  10   7    0.49    1.43
  -1 -10  -7    4.74    1.28
  -1 -10  -7    4.04    1.54
   1  10   7    3.31    1.34
   1  10   7    3.17    1.46
   1  10   7    1.43    1.65
  -2 -10  -7    1.99    1.17
  -2 -10  -7    1.49    1.31
   2  10   7   -0.54    1.48
   2  10   7    0.72    1.48
   2  10   7    2.84    1.19
  -3 -10  -7    5.65    1.57
   3  10   7    6.91    1.70
   3  10   7    3.70    1.64
  -4 -10  -7    3.96    1.51
   4  10   7    0.16    1.33
   4  10   7    0.90    0.66
   4  10   7    1.63    1.32
  -5 -10  -7    1.66    0.51
  -5 -10  -7    2.14    1.31
   5  10   7    1.59    1.20
   5  10   7    0.01    1.27
  -6 -10  -7    1.58    0.72
  -6 -10  -7   -0.67    1.29
   6  10   7    1.75    1.43
   6  10   7    0.33    1.21
  -7 -10  -7    1.56    1.35
  -7 -10  -7    0.36    0.79
   7  10   7    0.94    1.22
   7  10   7   -0.67    1.23
   7  10   7    1.30    1.45
  -8 -10  -7    2.32    1.00
  -8 -10  -7    4.64    1.68
   8  10   7    3.93    1.50
   8  10   7    3.59    1.48
   8  10   7    2.67    1.65
  -9 -10  -7   -1.19    0.98
  -9 -10  -7    1.17    1.56
   9  10   7    0.05    1.42
   9  10   7    0.06    1.47
   9  10   7   -1.67    1.19
 -10 -10  -7    2.27    1.82
 -10 -10  -7    0.66    1.24
  10  10   7    0.38    1.60
  10  10   7    1.27    1.34
  10  10   7    0.36    1.30
 -11 -10  -7    1.88    1.47
 -11 -10  -7    2.63    2.22
  11  10   7    1.83    1.79
  11  10   7    2.28    2.07
  -2 -11  -7    0.79    1.30
  -2 -11  -7    1.17    1.60
   2  11   7   -1.90    1.66
   2  11   7    1.05    1.41
   2  11   7    2.08    1.81
  -3 -11  -7    2.48    1.70
   3  11   7    8.11    1.93
   3  11   7    5.22    1.23
   3  11   7    5.01    1.97
  -4 -11  -7    1.62    1.48
   4  11   7    4.96    1.78
   4  11   7    2.36    1.54
  -5 -11  -7    1.34    1.47
   5  11   7   -1.06    1.63
   5  11   7    0.20    1.45
  -6 -11  -7    0.99    1.46
   6  11   7   -1.89    1.60
   6  11   7   -0.50    1.36
  -7 -11  -7    4.83    1.75
   7  11   7    1.17    1.49
   7  11   7    1.34    1.70
   7  11   7    3.10    1.48
  -8 -11  -7   -0.01    1.63
  -8 -11  -7   -0.14    0.99
   8  11   7   -2.66    1.32
   8  11   7    3.09    1.73
   8  11   7    2.34    1.49
  -9 -11  -7    9.28    1.44
  -9 -11  -7   14.36    2.43
   9  11   7   10.58    2.19
   9  11   7    9.11    2.30
   9  11   7    9.65    1.86
 -10 -11  -7    2.59    1.36
 -10 -11  -7    0.59    2.21
  10  11   7    0.69    1.50
  10  11   7   -0.61    1.67
  -5 -12  -7   19.91    2.65
   5  12   7   15.43    2.36
  -6 -12  -7    2.33    1.77
   6  12   7    0.05    1.66
  -7 -12  -7    8.18    2.26
   7  12   7   11.45    2.15
   7  12   7    4.19    2.00
   6  10  -8    3.73    1.85
   6  10  -8    5.93    1.98
   5  10  -8    0.85    1.58
   4  10  -8    3.43    1.99
   4  10  -8    2.41    1.53
   4  10  -8    1.25    1.44
   3  10  -8   28.97    3.00
   3  10  -8   15.52    1.89
   3  10  -8   19.25    2.12
   2  10  -8    9.43    1.57
   2  10  -8    9.41    2.28
   2  10  -8   10.25    1.72
  -2 -10   8    8.40    1.58
   1  10  -8   14.98    2.69
   1  10  -8   12.74    1.82
  -1 -10   8   13.57    1.79
   0  10  -8    2.74    2.22
   0  10  -8    2.78    1.53
   0 -10   8    3.94    1.36
   0 -10   8    1.22    1.54
   7   9  -8    0.78    1.72
   7   9  -8    1.70    1.55
   6   9  -8    1.18    1.46
   6   9  -8    0.17    1.58
   5   9  -8    0.57    1.42
   4   9  -8    1.96    1.33
   4   9  -8    5.19    1.49
   3   9  -8    7.01    1.90
   3   9  -8    6.25    1.53
   3   9  -8    8.39    1.57
   2   9  -8   -1.31    1.47
   2   9  -8   -1.75    1.07
   2   9  -8    1.54    1.22
  -2  -9   8    0.04    0.99
   1   9  -8    6.96    1.24
   1   9  -8    6.98    1.40
   1   9  -8    7.55    2.10
  -1  -9   8    7.11    1.32
  -1  -9   8    9.42    1.71
   0   9  -8    6.66    1.01
   0   9  -8    8.64    1.48
   0   9  -8    4.38    2.00
   0  -9   8    6.31    1.37
   0  -9   8    7.20    1.32
  -1   9  -8   -1.24    1.26
  -1   9  -8   -0.33    1.86
   1  -9   8   -0.06    1.07
   1  -9   8   -2.08    1.19
  -2   9  -8    0.62    2.00
  -2   9  -8   -1.69    1.99
  -2   9  -8    3.07    1.50
   2  -9   8    0.81    1.09
   2  -9   8    1.30    1.73
   8   8  -8    0.57    1.54
  -8  -8   8    1.06    1.61
   7   8  -8    5.17    1.59
   7   8  -8    2.30    1.34
  -7  -8   8    3.49    1.60
   6   8  -8    0.70    1.39
   6   8  -8    0.11    1.27
  -6  -8   8    1.52    1.27
   5   8  -8   10.45    1.76
   4   8  -8    8.40    1.56
   3   8  -8    5.70    1.32
   3   8  -8    3.66    1.23
   2   8  -8    0.52    1.02
   2   8  -8    1.35    1.01
  -2  -8   8   -0.52    0.92
  -2  -8   8   -0.75    0.74
   1   8  -8   13.12    2.09
   1   8  -8   15.26    1.47
   1   8  -8   14.98    1.67
  -1  -8   8   13.91    1.51
  -1  -8   8   13.87    1.45
   0   8  -8    9.19    1.12
   0   8  -8    9.99    1.56
   0   8  -8    8.55    1.94
   0  -8   8    9.36    1.24
   0  -8   8    8.01    1.49
  -1   8  -8   14.65    2.15
  -1   8  -8   14.88    1.77
  -1   8  -8   10.31    0.84
   1  -8   8   12.59    1.42
   1  -8   8   12.04    1.51
  -2   8  -8    8.05    1.62
  -2   8  -8    9.65    2.26
   2  -8   8   10.50    1.70
   2  -8   8   10.02    1.39
  -3   8  -8    2.19    1.77
  -3   8  -8    1.62    1.31
   3  -8   8    1.45    1.12
   3  -8   8   -0.72    1.35
  -4   8  -8    3.44    3.17
  -4   8  -8   -0.10    1.62
   4  -8   8    0.69    1.27
   9   7  -8    2.56    1.79
  -9  -7   8    1.39    1.66
   8   7  -8    0.37    1.44
  -8  -7   8   -0.64    1.29
  -8  -7   8    2.03    1.48
   7   7  -8    4.47    1.34
  -7  -7   8    7.93    1.63
   6   7  -8    7.28    1.47
   6   7  -8    8.31    1.32
  -6  -7   8    5.86    1.50
  -6  -7   8    8.17    1.46
   5   7  -8    1.03    1.21
   5   7  -8    3.50    1.06
  -5  -7   8    4.44    1.28
  -5  -7   8    0.57    1.11
   4   7  -8    1.89    1.21
  -4  -7   8    2.05    1.11
   3   7  -8    3.15    1.07
  -3  -7   8    2.66    0.92
  -3  -7   8    1.41    1.11
   2   7  -8    1.27    0.96
   2   7  -8    1.05    0.92
  -2  -7   8   -0.66    0.84
   1   7  -8   13.95    1.50
   1   7  -8   13.30    1.36
  -1  -7   8   16.12    1.53
  -1  -7   8   15.37    1.30
   0   7  -8    4.65    1.15
   0   7  -8    4.81    1.36
   0   7  -8    3.90    1.54
   0  -7   8    3.90    1.11
   0  -7   8    4.92    0.93
  -1   7  -8   53.64    2.40
  -1   7  -8   56.70    3.21
  -1   7  -8   48.84    1.73
   1  -7   8   50.88    2.52
   1  -7   8   54.80    2.28
  -2   7  -8   -0.36    1.39
  -2   7  -8   -0.07    1.09
   2  -7   8    0.54    0.78
   2  -7   8    1.39    0.96
  -3   7  -8   -0.26    1.53
  -3   7  -8   -1.06    1.09
   3  -7   8    1.41    1.26
   3  -7   8    0.09    0.84
  -4   7  -8    7.12    1.61
  -4   7  -8    6.78    1.77
   4  -7   8    7.61    1.80
   4  -7   8    3.68    1.16
  -5   7  -8   12.33    2.51
  -5   7  -8   17.02    2.16
  -5   7  -8   17.68    2.81
   5  -7   8   16.86    1.96
   5  -7   8   18.09    2.43
   9   6  -8    0.21    1.56
   9   6  -8   -0.09    1.97
  -9  -6   8   -0.07    1.00
  -9  -6   8    0.96    1.53
   8   6  -8   14.30    1.90
   8   6  -8   15.55    2.53
  -8  -6   8   13.02    1.55
  -8  -6   8   14.36    1.72
  -8  -6   8   15.10    2.10
   7   6  -8    6.10    1.41
   7   6  -8    7.33    1.76
   7   6  -8    7.79    0.88
  -7  -6   8    9.20    1.67
  -7  -6   8    6.68    1.27
  -7  -6   8    8.55    1.57
   6   6  -8   11.40    1.51
   6   6  -8    8.80    1.13
   6   6  -8    9.55    1.84
  -6  -6   8    9.97    1.48
  -6  -6   8    9.58    1.70
   5   6  -8   -1.71    1.25
   5   6  -8    0.47    0.91
   5   6  -8    0.54    1.04
  -5  -6   8   -0.81    0.96
  -5  -6   8   -0.83    0.92
   4   6  -8    0.15    0.94
   4   6  -8    0.25    0.85
  -4  -6   8    1.72    0.95
  -4  -6   8   -0.03    0.69
   3   6  -8    4.38    1.09
  -3  -6   8    5.85    0.97
  -3  -6   8    4.06    1.19
   2   6  -8    3.32    0.88
   2   6  -8    3.37    1.00
  -2  -6   8    3.05    1.13
  -2  -6   8    4.49    0.97
   1   6  -8    7.89    1.23
   1   6  -8    7.44    1.13
  -1  -6   8    8.33    0.98
  -1  -6   8    7.22    1.38
  -1  -6   8    9.48    1.28
   0   6  -8    2.85    0.91
   0   6  -8    1.60    1.16
   0   6  -8    0.81    0.81
   0  -6   8    1.50    1.05
   0  -6   8    0.11    0.60
   0  -6   8    2.13    0.87
  -1   6  -8    2.13    0.94
  -1   6  -8    0.15    0.62
  -1   6  -8    1.64    0.91
  -1   6  -8    2.63    1.20
   1  -6   8    1.36    0.65
   1  -6   8    1.03    0.95
  -2   6  -8    1.43    0.70
  -2   6  -8    2.26    0.59
  -2   6  -8    1.98    1.00
  -2   6  -8    1.72    1.33
   2  -6   8    2.42    1.11
   2  -6   8    1.83    0.77
  -3   6  -8   21.87    1.76
  -3   6  -8   21.53    2.33
   3  -6   8   21.91    1.56
   3  -6   8   21.00    1.70
  -4   6  -8   -0.22    1.16
  -4   6  -8   -0.53    1.45
   4  -6   8   -0.57    0.82
   4  -6   8    0.05    0.84
  -5   6  -8   18.44    2.09
  -5   6  -8   16.87    2.47
   5  -6   8   15.35    1.66
   5  -6   8   15.72    1.79
  -6   6  -8    3.93    1.97
  -6   6  -8    5.37    1.71
   6  -6   8    3.49    1.70
   6  -6   8    5.11    1.49
   9   5  -8    6.47    1.69
   9   5  -8    8.30    2.18
  -9  -5   8    6.89    1.69
  -9  -5   8    8.69    1.92
  -9  -5   8    6.55    1.35
   8   5  -8    0.30    1.61
   8   5  -8    1.07    1.29
  -8  -5   8    1.30    1.35
  -8  -5   8    2.08    1.09
  -8  -5   8    0.28    1.17
   7   5  -8   -0.61    1.06
   7   5  -8   -0.60    1.36
  -7  -5   8   -1.20    1.14
  -7  -5   8   -0.60    0.97
  -7  -5   8   -0.07    0.94
   6   5  -8    3.26    1.05
   6   5  -8    3.71    0.74
   6   5  -8    4.27    0.68
   6   5  -8    5.20    1.45
  -6  -5   8    5.40    1.06
  -6  -5   8    2.82    1.11
  -6  -5   8    2.94    0.97
   5   5  -8    7.45    1.09
   5   5  -8    6.04    1.14
   5   5  -8    6.14    1.01
   5   5  -8    6.49    1.44
  -5  -5   8    5.64    1.19
  -5  -5   8    5.20    1.30
   4   5  -8    4.08    1.11
   4   5  -8    3.85    0.81
   4   5  -8    4.08    1.17
   4   5  -8    3.12    0.82
  -4  -5   8    2.63    0.97
  -4  -5   8    2.72    1.11
   3   5  -8   15.52    1.23
   3   5  -8   17.07    1.15
   3   5  -8   13.94    1.44
  -3  -5   8   16.99    1.15
  -3  -5   8   15.54    1.58
  -3  -5   8   16.89    1.57
   2   5  -8   77.42    2.85
   2   5  -8   76.51    2.35
  -2  -5   8   79.35    3.08
  -2  -5   8   81.60    2.66
   1   5  -8   24.52    1.42
   1   5  -8   25.66    1.56
   1   5  -8   27.45    1.63
  -1  -5   8   27.22    1.21
  -1  -5   8   24.73    1.59
  -1  -5   8   25.50    1.86
   0   5  -8    7.77    1.20
   0   5  -8    8.47    1.10
   0   5  -8    9.36    1.14
   0   5  -8    8.32    1.27
   0  -5   8    7.70    0.80
   0  -5   8    8.77    1.35
   0  -5   8    8.94    1.20
  -1   5  -8    3.57    0.78
  -1   5  -8    5.18    1.05
  -1   5  -8    4.65    0.99
  -1   5  -8    3.30    1.22
   1  -5   8    4.27    1.01
   1  -5   8    3.89    0.74
   1  -5   8    2.69    0.89
  -2   5  -8    1.78    0.79
  -2   5  -8    2.31    0.94
  -2   5  -8    1.89    1.14
  -2   5  -8    2.44    0.65
   2  -5   8    1.60    0.90
   2  -5   8    2.53    0.76
   2  -5   8    3.31    1.19
  -3   5  -8   28.62    2.29
  -3   5  -8   29.26    1.84
  -3   5  -8   31.68    1.19
  -3   5  -8   31.22    1.13
   3  -5   8   29.82    2.03
   3  -5   8   33.35    1.67
  -4   5  -8    2.92    1.17
  -4   5  -8    3.43    1.15
   4  -5   8    3.49    0.97
   4  -5   8    2.63    0.95
  -5   5  -8   13.74    1.98
  -5   5  -8   14.99    1.82
   5  -5   8   12.13    1.79
   5  -5   8   10.27    1.44
  -6   5  -8   36.84    2.40
  -6   5  -8   36.65    2.93
   6  -5   8   32.64    2.19
   6  -5   8   30.81    2.25
  -7   5  -8    5.73    1.71
  -7   5  -8    2.82    2.00
   7  -5   8    6.19    1.77
   7  -5   8    5.99    1.48
   9   4  -8    0.34    1.38
   9   4  -8    1.39    1.78
  -9  -4   8   -1.20    1.48
  -9  -4   8    3.59    1.26
  -9  -4   8    1.00    1.29
   8   4  -8    7.48    1.49
   8   4  -8   11.22    2.07
  -8  -4   8    8.50    1.34
  -8  -4   8    8.31    1.57
  -8  -4   8    8.50    1.75
   7   4  -8   10.66    1.87
   7   4  -8    8.64    1.32
  -7  -4   8    6.98    1.52
  -7  -4   8    7.90    1.33
  -7  -4   8    7.60    1.24
   6   4  -8    1.80    1.23
   6   4  -8   -1.50    0.95
   6   4  -8    0.54    0.81
  -6  -4   8    1.19    0.97
  -6  -4   8    1.29    1.03
  -6  -4   8   -0.26    0.86
   5   4  -8   -0.01    0.58
   5   4  -8    1.06    0.69
   5   4  -8   -0.17    0.46
   5   4  -8    0.85    0.99
   5   4  -8    0.38    0.67
  -5  -4   8    0.89    0.98
  -5  -4   8    0.54    0.63
  -5  -4   8    0.72    0.86
   4   4  -8   -0.13    0.72
   4   4  -8    1.19    0.59
   4   4  -8    0.10    0.84
   4   4  -8    0.32    0.59
  -4  -4   8    0.47    0.80
  -4  -4   8   -0.06    0.88
   3   4  -8    4.01    1.10
   3   4  -8    4.73    0.67
   3   4  -8    4.68    0.98
   3   4  -8    4.22    0.72
  -3  -4   8    5.09    0.75
  -3  -4   8    4.42    1.18
  -3  -4   8    4.35    1.03
   2   4  -8   93.26    3.03
   2   4  -8   93.40    2.43
   2   4  -8  100.37    3.18
  -2  -4   8   90.97    3.32
  -2  -4   8   89.60    3.28
  -2  -4   8   93.62    2.81
   1   4  -8   21.04    1.12
   1   4  -8   22.44    1.41
   1   4  -8   22.97    1.47
  -1  -4   8   22.59    1.68
  -1  -4   8   23.68    1.36
   0   4  -8   45.74    1.85
   0   4  -8   49.09    1.77
   0   4  -8   45.65    2.04
   0   4  -8   46.91    2.06
   0  -4   8   47.38    2.34
   0  -4   8   50.12    1.57
   0  -4   8   48.82    2.06
  -1   4  -8    3.80    0.94
  -1   4  -8    2.77    0.75
  -1   4  -8    2.33    0.82
   1  -4   8    3.45    1.03
   1  -4   8    3.24    0.59
   1  -4   8    2.75    0.89
  -2   4  -8   22.95    1.53
  -2   4  -8   25.64    1.23
  -2   4  -8   24.04    1.78
   2  -4   8   24.48    1.24
   2  -4   8   23.70    1.68
   2  -4   8   23.24    1.68
  -3   4  -8   10.12    1.09
  -3   4  -8    9.46    1.58
  -3   4  -8    9.26    0.84
   3  -4   8   10.43    1.17
   3  -4   8   10.91    1.52
   3  -4   8    8.23    0.97
  -4   4  -8   -0.22    0.90
  -4   4  -8    0.88    1.13
  -4   4  -8    0.52    0.51
   4  -4   8    2.25    0.84
   4  -4   8    0.34    0.71
  -5   4  -8    5.87    1.59
  -5   4  -8    7.59    1.32
   5  -4   8    5.80    1.12
   5  -4   8    4.85    1.35
  -6   4  -8   18.79    1.82
  -6   4  -8   14.58    1.81
   6  -4   8   17.58    1.63
   6  -4   8   14.92    1.65
  -7   4  -8    2.92    1.36
  -7   4  -8    6.80    1.86
   7  -4   8    3.92    1.24
   7  -4   8    5.33    1.33
  -8   4  -8    2.06    1.71
  -8   4  -8    1.24    1.78
  -8   4  -8    2.70    1.85
   8  -4   8    2.26    1.63
   8  -4   8    0.34    1.22
   9   3  -8   13.57    1.86
   9   3  -8   20.72    2.69
  -9  -3   8   16.94    2.41
  -9  -3   8   11.51    1.52
  -9  -3   8   14.08    2.08
   8   3  -8   16.11    2.35
   8   3  -8   10.96    1.59
  -8  -3   8   15.37    2.07
  -8  -3   8   12.37    1.51
  -8  -3   8   15.32    1.90
   7   3  -8    5.76    1.14
   7   3  -8    6.14    1.62
  -7  -3   8    4.85    1.15
  -7  -3   8    6.66    1.34
  -7  -3   8    6.33    1.50
   6   3  -8   11.89    1.83
  -6  -3   8   10.51    1.61
  -6  -3   8   13.45    1.47
  -6  -3   8   10.47    1.32
   5   3  -8   31.76    1.45
   5   3  -8   29.01    2.00
   5   3  -8   32.54    1.38
  -5  -3   8   30.30    1.78
  -5  -3   8   32.45    1.83
  -5  -3   8   30.48    1.99
   4   3  -8    0.24    0.51
   4   3  -8    0.31    0.66
   4   3  -8    0.80    0.47
   4   3  -8    0.02    0.50
  -4  -3   8    0.83    0.64
  -4  -3   8   -1.07    0.67
   3   3  -8    3.45    0.77
   3   3  -8    4.12    1.06
   3   3  -8    4.11    0.50
   3   3  -8    4.35    0.61
  -3  -3   8    3.21    1.01
  -3  -3   8    4.80    0.66
  -3  -3   8    4.87    0.96
   2   3  -8   51.77    1.41
   2   3  -8   53.01    1.56
   2   3  -8   46.78    1.92
   2   3  -8   48.02    2.17
  -2  -3   8   53.55    2.34
  -2  -3   8   52.34    2.27
  -2  -3   8   52.46    1.80
   1   3  -8  108.65    3.37
   1   3  -8  117.77    2.68
   1   3  -8  113.47    3.31
   1   3  -8  116.70    3.40
  -1  -3   8  113.53    3.68
  -1  -3   8  115.77    3.66
   0   3  -8    0.25    0.60
   0   3  -8    1.57    0.48
   0   3  -8    1.24    0.70
   0  -3   8    1.58    0.38
   0  -3   8    0.86    0.62
   0  -3   8    1.31    0.67
  -1   3  -8   23.64    1.25
  -1   3  -8   20.24    1.40
  -1   3  -8   25.88    1.21
   1  -3   8   23.52    0.99
   1  -3   8   24.10    1.69
   1  -3   8   25.21    1.50
  -2   3  -8   40.04    1.59
  -2   3  -8   42.87    1.93
  -2   3  -8   37.29    1.70
   2  -3   8   37.80    2.00
   2  -3   8   41.06    1.49
   2  -3   8   41.42    1.92
  -3   3  -8   25.94    1.24
  -3   3  -8   24.49    1.94
  -3   3  -8   27.32    1.64
   3  -3   8   27.56    1.32
   3  -3   8   26.18    1.72
   3  -3   8   28.53    1.80
  -4   3  -8    3.99    0.68
  -4   3  -8    3.88    0.88
  -4   3  -8    3.50    1.16
   4  -3   8    1.97    0.95
   4  -3   8    3.79    1.12
   4  -3   8    4.41    0.86
  -5   3  -8    7.98    0.81
  -5   3  -8    8.99    1.60
  -5   3  -8    8.28    1.39
   5  -3   8    9.63    1.40
   5  -3   8    7.11    1.28
   5  -3   8    8.45    1.17
  -6   3  -8   47.75    2.85
  -6   3  -8   47.13    1.49
  -6   3  -8   53.94    2.54
   6  -3   8   50.56    2.56
   6  -3   8   52.73    2.38
  -7   3  -8   15.31    1.80
  -7   3  -8   15.81    2.25
   7  -3   8   18.30    1.76
   7  -3   8   16.60    1.70
  -8   3  -8    5.79    1.66
  -8   3  -8    9.38    1.92
   8  -3   8    5.08    1.74
   8  -3   8    6.67    1.43
  -9   3  -8    2.36    1.78
  -9   3  -8   -2.01    1.69
  -9   3  -8    2.92    1.74
   9  -3   8    1.36    1.42
   9  -3   8    3.95    1.74
   9   2  -8    4.62    1.53
   9   2  -8    9.14    2.05
  -9  -2   8    4.94    1.38
  -9  -2   8    2.46    1.51
  -9  -2   8    5.53    1.95
   8   2  -8    2.62    1.24
   8   2  -8    5.06    1.76
  -8  -2   8    4.65    1.36
  -8  -2   8    4.55    1.16
  -8  -2   8    4.59    1.23
   7   2  -8   44.70    2.12
   7   2  -8   49.77    2.68
  -7  -2   8   49.12    2.33
  -7  -2   8   49.77    2.78
  -7  -2   8   48.21    2.44
   6   2  -8    1.64    1.08
  -6  -2   8    0.49    0.66
  -6  -2   8    0.15    0.92
  -6  -2   8    0.71    0.99
   5   2  -8    9.88    1.55
   5   2  -8    7.67    0.89
  -5  -2   8    6.09    1.28
  -5  -2   8    7.97    1.18
  -5  -2   8    8.73    1.22
   4   2  -8   -0.12    0.41
   4   2  -8    0.42    0.27
   4   2  -8   -0.44    0.62
   4   2  -8   -0.02    0.43
  -4  -2   8   -0.49    0.78
  -4  -2   8    0.00    0.74
   3   2  -8    0.31    0.52
   3   2  -8    0.43    0.27
   3   2  -8    0.68    0.46
   3   2  -8    1.26    0.81
  -3  -2   8    0.37    0.71
  -3  -2   8    0.29    0.54
  -3  -2   8    0.84    0.39
   2   2  -8   41.58    0.97
   2   2  -8   41.56    1.62
   2   2  -8   39.47    1.02
   2   2  -8   38.99    1.90
  -2  -2   8   40.18    1.45
  -2  -2   8   39.25    1.89
  -2  -2   8   39.42    2.01
   1   2  -8   40.00    1.81
   1   2  -8   39.64    0.97
   1   2  -8   37.88    1.64
   1   2  -8   40.73    1.01
  -1  -2   8   41.24    2.00
  -1  -2   8   38.03    1.87
  -1  -2   8   42.41    1.61
   0   2  -8   58.83    2.11
   0   2  -8   54.88    2.09
   0   2  -8   53.08    2.12
   0  -2   8   56.05    2.34
   0  -2   8   58.08    2.34
  -1   2  -8   15.21    1.09
  -1   2  -8   15.06    0.84
   1  -2   8   14.57    1.21
   1  -2   8   13.72    1.15
   1  -2   8   14.92    0.68
  -2   2  -8    7.38    0.85
  -2   2  -8    8.38    0.83
  -2   2  -8    7.47    0.85
   2  -2   8    9.55    1.11
   2  -2   8    7.36    0.63
   2  -2   8    8.68    1.14
   2  -2   8    8.69    1.26
  -3   2  -8   20.22    1.16
  -3   2  -8   17.68    1.23
  -3   2  -8   17.27    1.34
  -3   2  -8   21.58    1.70
   3  -2   8   20.05    1.56
   3  -2   8   19.97    1.51
   3  -2   8   18.81    1.24
   3  -2   8   19.79    1.09
  -4   2  -8  114.58    3.57
  -4   2  -8  111.21    3.90
  -4   2  -8  112.34    3.03
   4  -2   8  116.88    3.20
   4  -2   8  111.54    3.79
   4  -2   8  112.28    3.03
   4  -2   8  112.74    3.73
  -5   2  -8   20.71    1.82
  -5   2  -8   19.26    1.55
  -5   2  -8   19.17    1.14
   5  -2   8   20.94    1.23
   5  -2   8   20.70    1.72
   5  -2   8   20.31    1.38
   5  -2   8   18.55    1.72
  -6   2  -8   29.78    2.25
  -6   2  -8   28.65    1.89
   6  -2   8   30.10    2.12
   6  -2   8   29.40    1.75
   6  -2   8   28.27    1.39
   6  -2   8   27.72    2.02
  -7   2  -8  125.43    3.28
  -7   2  -8  130.29    4.29
  -7   2  -8  132.72    4.72
   7  -2   8  132.70    4.19
   7  -2   8  130.75    4.55
  -8   2  -8    2.71    0.77
  -8   2  -8    3.23    1.27
  -8   2  -8    3.55    1.52
   8  -2   8    1.99    1.19
   8  -2   8    4.41    1.52
  -9   2  -8   -0.47    1.41
  -9   2  -8    5.25    1.72
   9  -2   8    5.00    1.41
   9  -2   8    3.88    1.44
   9   1  -8    3.80    1.98
   9   1  -8    3.86    1.54
  -9  -1   8    2.13    1.56
  -9  -1   8    1.36    1.39
   8   1  -8    6.43    1.73
   8   1  -8    3.54    1.17
  -8  -1   8    1.26    1.54
  -8  -1   8    3.12    1.24
  -8  -1   8    1.89    1.24
   7   1  -8   13.90    1.48
   7   1  -8   15.99    1.99
  -7  -1   8   13.68    1.76
  -7  -1   8   15.59    1.69
  -7  -1   8   13.23    1.65
   6   1  -8   11.03    1.75
   6   1  -8    9.22    1.10
  -6  -1   8    7.46    1.47
  -6  -1   8   10.04    1.42
  -6  -1   8    8.77    1.41
   5   1  -8    0.35    0.52
   5   1  -8    1.99    1.10
  -5  -1   8   -1.24    0.76
  -5  -1   8   -0.23    0.87
  -5  -1   8   -0.16    0.82
   4   1  -8   43.16    1.38
   4   1  -8   41.97    2.19
  -4  -1   8   41.66    1.87
  -4  -1   8   44.89    2.11
  -4  -1   8   42.33    2.13
   3   1  -8   19.91    1.40
   3   1  -8   21.83    0.92
   3   1  -8   21.52    0.72
  -3  -1   8   22.25    0.81
  -3  -1   8   19.89    1.42
  -3  -1   8   22.41    1.53
   2   1  -8    1.85    0.59
   2   1  -8    2.21    0.69
  -2  -1   8    2.09    0.47
  -2  -1   8    0.75    0.73
  -2  -1   8    1.44    0.77
   1   1  -8    1.09    0.65
   1   1  -8    0.34    0.61
  -1  -1   8   -0.42    0.63
  -1  -1   8    1.15    0.53
  -1  -1   8   -0.35    0.63
   0   1  -8   62.86    2.18
   0   1  -8   63.15    2.27
   0   1  -8   64.05    2.24
   0  -1   8   64.93    2.13
   0  -1   8   64.76    2.39
   0  -1   8   60.10    2.46
  -1   1  -8   -0.15    0.54
  -1   1  -8   -0.28    0.32
  -1   1  -8   -0.23    0.43
   1  -1   8    0.37    0.55
   1  -1   8   -0.12    0.43
   1  -1   8    0.46    0.81
   1  -1   8    0.03    0.18
   1  -1   8   -0.16    0.66
  -2   1  -8   82.55    2.67
  -2   1  -8   86.89    2.23
   2  -1   8   81.91    2.75
   2  -1   8   83.92    2.07
   2  -1   8   83.51    2.97
   2  -1   8   79.68    2.56
  -3   1  -8    1.74    0.63
  -3   1  -8    0.83    0.56
  -3   1  -8    0.69    0.54
   3  -1   8    1.10    0.42
   3  -1   8    0.52    0.76
   3  -1   8    1.99    0.68
   3  -1   8    0.94    0.57
  -4   1  -8  118.30    3.85
  -4   1  -8  113.57    3.37
  -4   1  -8  115.25    3.52
  -4   1  -8  122.45    3.25
   4  -1   8  114.25    3.75
   4  -1   8  120.48    3.21
   4  -1   8  110.97    3.14
   4  -1   8  115.34    3.71
  -5   1  -8    7.00    0.92
  -5   1  -8    7.81    1.37
  -5   1  -8    8.69    1.26
   5  -1   8    9.18    1.34
   5  -1   8    8.89    1.08
   5  -1   8    7.87    1.29
   5  -1   8    7.65    1.03
  -6   1  -8   82.77    3.37
  -6   1  -8   85.98    3.13
  -6   1  -8   84.09    2.60
   6  -1   8   84.94    3.20
   6  -1   8   79.13    2.57
   6  -1   8   86.55    2.93
   6  -1   8   85.03    3.33
  -7   1  -8    4.99    0.97
  -7   1  -8    5.87    1.47
  -7   1  -8    7.03    1.31
   7  -1   8    4.86    1.08
   7  -1   8    5.05    1.32
   7  -1   8    4.07    1.23
   7  -1   8    3.87    1.06
  -8   1  -8    6.71    1.49
  -8   1  -8    4.38    1.14
   8  -1   8    3.53    1.23
   8  -1   8    2.96    1.14
  -9   1  -8   15.62    2.08
  -9   1  -8   13.09    2.11
   9  -1   8   15.42    1.96
   9  -1   8   16.00    2.18
 -10   1  -8    0.60    1.62
 -10   1  -8    0.67    1.54
  10  -1   8   -2.89    1.41
  10  -1   8   -1.02    1.57
   8   0  -8    0.86    1.14
   8   0  -8   -1.04    1.54
  -8   0   8   -2.02    1.15
  -8   0   8    1.66    1.62
  -8   0   8   -0.34    1.31
   7   0  -8   17.05    2.16
   7   0  -8   12.49    1.42
  -7   0   8   16.32    1.66
  -7   0   8   14.87    2.21
  -7   0   8   13.19    1.65
   6   0  -8    6.70    1.54
   6   0  -8    8.33    1.07
  -6   0   8    6.49    1.51
  -6   0   8    7.80    1.38
  -6   0   8    7.29    1.24
   5   0  -8    0.08    1.01
   5   0  -8   -0.44    0.53
  -5   0   8    0.39    0.99
  -5   0   8    2.15    0.87
  -5   0   8    1.17    0.98
  -5   0   8    1.40    0.91
   4   0  -8   -0.37    0.40
   4   0  -8    1.04    0.90
  -4   0   8    1.00    0.66
  -4   0   8    0.58    0.74
  -4   0   8    0.68    0.86
  -4   0   8    0.83    0.75
   3   0  -8   42.75    1.49
   3   0  -8   40.75    2.05
  -3   0   8   39.65    1.92
  -3   0   8   38.30    1.96
  -3   0   8   42.12    1.13
   2   0  -8    1.59    0.54
   2   0  -8    0.35    0.72
  -2   0   8    1.06    0.43
  -2   0   8    1.73    0.83
  -2   0   8    0.76    0.77
   1   0  -8    6.59    0.84
   1   0  -8    6.84    1.06
  -1   0   8    5.52    0.96
  -1   0   8    5.12    0.71
  -1   0   8    4.65    0.95
   0   0  -8    0.78    0.67
   0   0  -8    1.09    0.64
   0   0  -8    1.79    0.59
   0   0   8    0.95    0.53
   0   0   8    1.92    0.58
   0   0   8    0.52    0.54
  -1   0  -8   13.94    1.11
  -1   0  -8   11.37    1.23
  -1   0  -8   14.10    1.10
   1   0   8   12.74    1.23
   1   0   8   13.18    1.15
   1   0   8   13.88    1.02
  -2   0  -8    5.01    0.87
  -2   0  -8    4.40    0.85
  -2   0  -8    4.56    0.52
  -2   0  -8    4.66    1.02
   2   0   8    4.57    0.93
   2   0   8    4.23    0.41
   2   0   8    4.31    0.93
   2   0   8    5.61    0.90
  -3   0  -8   13.66    1.16
  -3   0  -8   13.73    1.22
  -3   0  -8   10.96    0.88
   3   0   8   13.50    0.79
   3   0   8   14.19    1.14
   3   0   8   12.24    1.14
   3   0   8   13.50    1.19
  -4   0  -8   10.29    1.14
  -4   0  -8   11.54    1.28
  -4   0  -8   10.36    1.27
   4   0   8   11.38    1.11
   4   0   8   10.98    1.25
   4   0   8   12.16    1.13
   4   0   8   11.44    0.89
  -5   0  -8   10.57    1.27
  -5   0  -8    9.87    1.25
  -5   0  -8   10.73    1.38
  -5   0  -8    8.90    1.30
   5   0   8   10.54    1.26
   5   0   8    9.62    1.12
   5   0   8    9.48    1.09
   5   0   8   10.96    1.06
  -6   0  -8    4.98    0.96
  -6   0  -8    4.11    1.10
  -6   0  -8    3.54    1.02
   6   0   8    4.06    1.01
   6   0   8    3.86    1.06
   6   0   8    2.61    1.09
   6   0   8    3.76    0.90
  -7   0  -8   24.07    1.53
  -7   0  -8   20.86    1.83
  -7   0  -8   20.87    1.72
   7   0   8   23.04    1.86
   7   0   8   23.57    1.94
   7   0   8   28.09    1.77
  -8   0  -8    7.90    1.47
  -8   0  -8    7.78    1.28
  -8   0  -8    8.11    1.61
   8   0   8   10.71    1.67
   8   0   8    9.66    1.50
  -9   0  -8    0.66    1.06
  -9   0  -8    0.26    1.18
  -9   0  -8   -0.07    1.34
   9   0   8    1.70    1.19
   9   0   8   -3.28    1.21
 -10   0  -8    8.93    1.89
 -10   0  -8    6.21    1.83
 -10   0  -8    7.66    1.47
  10   0   8    7.68    1.91
  10   0   8    3.77    1.51
 -11   0  -8    4.56    1.94
 -11   0  -8    4.07    1.67
 -11   0  -8    4.91    1.63
  11   0   8    3.74    1.80
   8  -1  -8   -1.74    1.65
   8  -1  -8    1.91    1.35
  -8   1   8   -0.14    1.42
  -8   1   8    0.90    1.44
  -8   1   8    0.13    1.71
   7  -1  -8    0.74    1.42
   7  -1  -8   -0.17    1.01
  -7   1   8    0.18    1.12
  -7   1   8    0.29    1.45
  -7   1   8   -0.31    1.10
   6  -1  -8    7.13    1.11
   6  -1  -8    6.41    1.56
  -6   1   8    8.48    1.44
  -6   1   8    7.04    1.54
  -6   1   8    8.06    1.33
   5  -1  -8    6.38    1.38
  -5   1   8    5.93    1.28
  -5   1   8    7.09    1.31
  -5   1   8    4.45    1.25
  -5   1   8    7.46    1.18
   4  -1  -8    0.60    0.47
   4  -1  -8    1.69    0.96
  -4   1   8   -0.67    0.80
  -4   1   8   -0.04    0.80
  -4   1   8    1.57    0.95
   3  -1  -8    2.58    0.97
   3  -1  -8    1.60    0.39
  -3   1   8    1.78    0.85
  -3   1   8    1.50    0.58
  -3   1   8    1.31    0.36
  -3   1   8    1.63    0.88
   2  -1  -8    6.02    1.12
   2  -1  -8    5.87    0.34
   2  -1  -8    6.54    0.76
  -2   1   8    6.91    1.12
  -2   1   8    5.34    0.91
  -2   1   8    5.75    0.68
  -2   1   8    4.86    0.44
   1  -1  -8    3.38    0.87
   1  -1  -8    2.47    0.71
  -1   1   8    3.50    0.88
  -1   1   8    3.10    0.84
  -1   1   8    2.83    0.61
   0  -1  -8   90.35    2.75
   0  -1  -8   86.29    2.62
   0  -1  -8   88.14    2.89
   0   1   8   88.15    2.98
   0   1   8   87.12    2.87
   0   1   8   90.55    2.60
  -1  -1  -8  173.00    4.44
  -1  -1  -8  175.15    4.44
  -1  -1  -8  178.79    4.78
  -1  -1  -8  171.28    4.53
   1   1   8  178.22    4.43
   1   1   8  170.19    4.54
   1   1   8  175.19    4.73
  -2  -1  -8  124.50    3.52
  -2  -1  -8  130.76    3.59
  -2  -1  -8  128.90    3.52
  -2  -1  -8  123.36    3.63
   2   1   8  122.11    3.60
   2   1   8  129.00    3.80
   2   1   8  129.09    2.73
   2   1   8  121.30    3.55
  -3  -1  -8   16.26    1.20
  -3  -1  -8   16.68    1.20
  -3  -1  -8   16.04    0.94
  -3  -1  -8   16.89    1.27
   3   1   8   18.88    0.86
   3   1   8   16.30    1.29
   3   1   8   17.01    1.33
  -4  -1  -8   12.01    1.16
  -4  -1  -8   12.98    1.12
  -4  -1  -8   13.56    1.01
  -4  -1  -8   14.00    1.29
   4   1   8   11.33    1.09
   4   1   8   13.00    0.91
   4   1   8   14.06    1.15
  -5  -1  -8    9.99    1.21
  -5  -1  -8   11.02    1.22
  -5  -1  -8    9.50    1.21
  -5  -1  -8    8.09    0.94
   5   1   8    9.86    1.16
   5   1   8    9.60    1.32
  -6  -1  -8    0.56    0.84
  -6  -1  -8   -0.24    0.76
  -6  -1  -8    0.74    0.79
   6   1   8   -0.08    0.76
   6   1   8   -0.10    0.69
   6   1   8   -0.64    0.83
  -7  -1  -8    1.68    0.95
  -7  -1  -8    0.69    0.85
  -7  -1  -8    0.16    0.81
   7   1   8   -0.59    0.93
   7   1   8    0.57    0.88
   7   1   8    0.51    0.76
  -8  -1  -8   -1.75    0.90
  -8  -1  -8   -0.06    0.93
  -8  -1  -8    0.37    1.01
   8   1   8    1.17    0.92
   8   1   8   -0.26    0.86
   8   1   8    0.13    1.01
  -9  -1  -8   19.06    1.94
  -9  -1  -8   16.79    1.67
  -9  -1  -8   16.78    1.60
   9   1   8   19.73    1.93
   9   1   8   19.61    1.78
 -10  -1  -8    6.88    1.49
 -10  -1  -8    5.29    1.63
 -10  -1  -8    6.67    1.62
  10   1   8    6.61    1.67
  10   1   8    7.91    1.85
 -11  -1  -8    4.59    1.73
 -11  -1  -8    1.88    1.50
 -11  -1  -8    0.26    1.49
  11   1   8    3.67    1.72
  11   1   8    4.38    1.72
   7  -2  -8   -0.05    1.52
   7  -2  -8    1.92    1.14
  -7   2   8    2.68    1.29
  -7   2   8   -0.21    1.36
  -7   2   8    0.03    1.19
   6  -2  -8   -0.27    0.86
   6  -2  -8    0.59    1.31
  -6   2   8    0.33    1.03
  -6   2   8    2.67    1.31
  -6   2   8    1.58    1.32
   5  -2  -8   14.03    1.23
   5  -2  -8   14.02    1.81
  -5   2   8   12.91    1.85
  -5   2   8   13.08    1.39
  -5   2   8   15.11    1.66
   4  -2  -8   17.15    1.04
   4  -2  -8   20.02    1.71
  -4   2   8   16.72    0.60
  -4   2   8   18.14    1.55
  -4   2   8   19.55    1.52
  -4   2   8   19.31    0.58
  -4   2   8   18.89    1.62
   3  -2  -8   11.59    0.77
   3  -2  -8   13.68    1.27
  -3   2   8   10.62    1.36
  -3   2   8   14.61    1.47
  -3   2   8   14.32    1.10
  -3   2   8   11.81    0.75
  -3   2   8   13.03    0.82
   2  -2  -8    1.01    0.85
   2  -2  -8    1.22    0.33
  -2   2   8    1.50    0.67
  -2   2   8    1.14    0.51
  -2   2   8    1.02    0.77
  -2   2   8    0.56    0.50
   1  -2  -8    4.86    0.35
   1  -2  -8    5.85    1.08
   1  -2  -8    6.90    0.92
  -1   2   8    5.31    1.02
  -1   2   8    4.98    0.96
  -1   2   8    6.10    0.78
   0  -2  -8    9.46    0.92
   0  -2  -8    9.31    1.10
   0  -2  -8    7.97    1.06
   0   2   8    8.20    0.35
   0   2   8    9.19    0.87
   0   2   8    8.33    0.35
   0   2   8    7.99    1.11
   0   2   8    7.27    0.86
  -1  -2  -8   20.94    1.22
  -1  -2  -8   18.00    1.35
  -1  -2  -8   18.41    1.32
  -1  -2  -8   21.27    1.35
   1   2   8   19.91    0.57
   1   2   8   20.13    1.20
   1   2   8   18.99    1.29
   1   2   8   18.89    0.59
   1   2   8   19.08    1.23
  -2  -2  -8   10.12    1.04
  -2  -2  -8    9.42    1.24
  -2  -2  -8    9.58    0.95
  -2  -2  -8    8.43    1.03
   2   2   8    9.76    0.56
   2   2   8    8.94    0.99
   2   2   8   10.63    0.48
   2   2   8   10.62    1.09
   2   2   8   10.42    1.13
  -3  -2  -8   51.32    1.96
  -3  -2  -8   46.27    1.92
  -3  -2  -8   47.68    1.86
   3   2   8   47.73    2.10
   3   2   8   48.30    1.87
   3   2   8   48.57    1.52
   3   2   8   49.53    2.09
  -4  -2  -8   39.15    1.66
  -4  -2  -8   35.50    1.66
  -4  -2  -8   35.68    1.77
   4   2   8   34.49    1.84
   4   2   8   38.18    1.47
   4   2   8   39.44    1.87
  -5  -2  -8   -1.01    0.63
  -5  -2  -8   -1.22    0.62
  -5  -2  -8   -0.44    0.77
  -5  -2  -8    1.08    0.78
   5   2   8   -0.22    0.45
   5   2   8   -0.05    0.67
   5   2   8    0.34    0.55
  -6  -2  -8    3.42    0.86
  -6  -2  -8    4.98    0.95
  -6  -2  -8    5.23    1.04
   6   2   8    4.45    0.92
   6   2   8    4.69    1.13
   6   2   8    5.68    1.06
  -7  -2  -8    2.92    1.00
  -7  -2  -8    3.97    1.03
  -7  -2  -8    3.74    1.03
   7   2   8    3.31    1.12
   7   2   8    3.18    0.96
   7   2   8    4.15    1.05
  -8  -2  -8   19.36    1.72
  -8  -2  -8   20.93    1.74
  -8  -2  -8   19.77    1.59
   8   2   8   18.97    1.55
   8   2   8   20.21    1.70
   8   2   8   17.26    1.63
  -9  -2  -8    1.99    1.11
  -9  -2  -8    3.63    1.06
  -9  -2  -8    5.37    1.31
   9   2   8    3.01    1.09
   9   2   8    0.14    0.99
   9   2   8    0.27    1.24
 -10  -2  -8   17.44    2.00
 -10  -2  -8   20.29    2.00
 -10  -2  -8   16.42    1.97
  10   2   8   19.76    2.26
  10   2   8   19.76    2.11
 -11  -2  -8    3.79    1.58
 -11  -2  -8    4.08    1.66
 -11  -2  -8    3.82    1.58
  11   2   8    2.43    1.65
  11   2   8    3.02    1.66
   7  -3  -8   -0.76    1.08
   7  -3  -8   -3.11    1.68
  -7   3   8    0.61    1.40
  -7   3   8    0.06    1.54
  -7   3   8   -0.80    1.75
   6  -3  -8    0.69    1.32
   6  -3  -8    1.41    1.04
  -6   3   8   -0.36    1.33
  -6   3   8   -0.88    1.11
  -6   3   8   -0.25    1.40
   5  -3  -8    2.73    1.28
   5  -3  -8    1.17    0.80
  -5   3   8    0.54    1.06
  -5   3   8    0.48    1.08
   4  -3  -8   -0.04    0.63
   4  -3  -8    3.09    1.20
  -4   3   8   -0.61    0.56
  -4   3   8   -0.65    0.50
  -4   3   8   -0.21    0.95
  -4   3   8   -0.11    1.03
   3  -3  -8   33.93    1.35
   3  -3  -8   33.29    2.04
  -3   3   8   35.05    1.40
  -3   3   8   34.45    1.34
  -3   3   8   31.99    2.02
  -3   3   8   28.13    2.03
  -3   3   8   27.95    1.70
   2  -3  -8    8.02    1.32
   2  -3  -8    6.65    0.65
  -2   3   8    6.31    1.16
  -2   3   8    7.94    0.90
  -2   3   8    9.14    1.39
  -2   3   8    6.85    0.87
   1  -3  -8    5.60    1.11
   1  -3  -8    4.68    0.52
  -1   3   8    4.75    0.62
  -1   3   8    3.78    0.97
  -1   3   8    6.77    0.88
  -1   3   8    4.03    0.85
   0  -3  -8    0.03    0.51
   0  -3  -8    1.05    0.77
   0  -3  -8    1.30    0.77
   0  -3  -8   -0.49    0.81
   0   3   8    0.72    0.60
   0   3   8    1.11    0.64
   0   3   8    0.12    0.38
   0   3   8    0.15    0.64
  -1  -3  -8   58.82    2.30
  -1  -3  -8   59.34    2.06
  -1  -3  -8   58.85    2.08
  -1  -3  -8   62.26    2.39
   1   3   8   61.68    2.23
   1   3   8   64.17    1.58
   1   3   8   57.71    2.37
   1   3   8   62.99    1.70
  -2  -3  -8    2.86    0.70
  -2  -3  -8    2.37    0.76
  -2  -3  -8    3.27    0.80
   2   3   8    2.19    0.63
   2   3   8    3.44    0.81
   2   3   8    3.29    0.89
   2   3   8    2.27    0.38
   2   3   8    2.82    0.49
  -3  -3  -8   54.44    1.92
  -3  -3  -8   50.34    1.96
  -3  -3  -8   51.27    2.18
   3   3   8   54.36    1.53
   3   3   8   51.01    2.18
   3   3   8   52.39    1.95
   3   3   8   52.87    2.24
   3   3   8   54.46    1.72
  -4  -3  -8    0.69    0.65
  -4  -3  -8   -0.36    0.55
  -4  -3  -8   -0.55    0.66
   4   3   8    0.46    0.70
   4   3   8   -1.50    0.58
   4   3   8   -0.31    0.47
  -5  -3  -8   24.68    1.36
  -5  -3  -8   26.31    1.43
  -5  -3  -8   24.78    1.59
  -5  -3  -8   25.39    1.51
   5   3   8   25.80    1.73
   5   3   8   25.08    1.58
   5   3   8   26.82    1.40
  -6  -3  -8    7.65    1.22
  -6  -3  -8    6.19    0.98
  -6  -3  -8    6.93    1.04
  -6  -3  -8    6.74    1.06
   6   3   8    4.56    1.16
   6   3   8    6.64    1.12
   6   3   8    5.13    1.00
  -7  -3  -8    2.07    1.09
  -7  -3  -8    1.45    0.94
  -7  -3  -8    2.60    0.80
  -7  -3  -8    2.20    0.86
   7   3   8    1.59    0.99
   7   3   8    0.64    0.84
   7   3   8    2.68    0.89
  -8  -3  -8    2.17    0.86
  -8  -3  -8    2.92    1.08
  -8  -3  -8    2.16    0.94
   8   3   8    3.77    1.24
   8   3   8    1.12    0.89
   8   3   8    2.73    1.01
  -9  -3  -8   40.18    2.23
  -9  -3  -8   37.82    2.35
  -9  -3  -8   40.15    2.27
   9   3   8   39.90    2.40
   9   3   8   39.58    2.09
   9   3   8   43.49    2.44
 -10  -3  -8   17.34    1.96
 -10  -3  -8   16.53    1.78
 -10  -3  -8   19.90    1.89
  10   3   8   16.41    1.99
  10   3   8   19.82    2.16
 -11  -3  -8    0.31    1.50
 -11  -3  -8    0.44    1.26
 -11  -3  -8    0.26    1.44
  11   3   8    2.07    1.51
  11   3   8    0.02    1.61
 -12  -3  -8    0.24    1.53
 -12  -3  -8   -0.99    1.68
 -12  -3  -8   -2.95    1.68
  12   3   8   -1.19    1.88
  12   3   8    3.48    1.98
   6  -4  -8    2.31    1.10
   6  -4  -8    7.82    1.81
  -6   4   8    4.61    1.81
  -6   4   8    3.88    1.62
   5  -4  -8    5.26    1.60
   5  -4  -8    3.96    1.06
  -5   4   8    5.04    1.57
  -5   4   8    5.45    0.81
  -5   4   8    4.73    1.48
   4  -4  -8   12.26    1.27
   4  -4  -8   13.73    1.76
  -4   4   8   15.61    1.98
  -4   4   8   17.66    1.93
  -4   4   8   13.16    1.18
   3  -4  -8    7.08    0.92
   3  -4  -8    9.76    1.58
  -3   4   8    8.46    1.48
  -3   4   8    7.66    1.02
  -3   4   8    9.23    1.18
  -3   4   8    8.53    1.43
   2  -4  -8    0.02    0.47
   2  -4  -8   -0.96    0.85
  -2   4   8   -1.57    0.72
  -2   4   8    0.84    0.80
  -2   4   8    0.82    0.87
  -2   4   8   -0.79    0.88
  -2   4   8   -0.29    0.66
   1  -4  -8   14.03    1.42
   1  -4  -8   14.17    1.36
   1  -4  -8   13.41    1.07
   1  -4  -8   12.27    0.83
  -1   4   8   12.53    1.13
  -1   4   8   13.36    1.34
  -1   4   8   12.83    1.48
   0  -4  -8   60.87    1.75
   0  -4  -8   57.44    2.23
   0  -4  -8   61.23    2.50
   0  -4  -8   60.76    2.04
   0   4   8   59.97    2.36
   0   4   8   61.34    2.57
   0   4   8   60.57    1.85
   0   4   8   59.88    2.25
  -1  -4  -8    2.04    0.90
  -1  -4  -8    0.72    0.73
   1   4   8    1.61    0.50
   1   4   8    1.65    0.68
   1   4   8    1.93    0.74
   1   4   8    2.01    0.84
  -2  -4  -8   33.96    1.82
  -2  -4  -8   33.42    1.67
   2   4   8   35.75    1.24
   2   4   8   37.43    1.43
   2   4   8   32.99    1.76
   2   4   8   35.47    1.59
   2   4   8   36.36    1.83
  -3  -4  -8    8.78    0.94
  -3  -4  -8    9.09    1.17
  -3  -4  -8    9.25    1.02
   3   4   8    8.28    0.99
   3   4   8    9.35    0.92
   3   4   8    9.82    0.86
   3   4   8    9.99    0.73
   3   4   8    9.03    1.00
  -4  -4  -8   29.95    1.36
  -4  -4  -8   30.01    1.55
  -4  -4  -8   27.82    1.71
   4   4   8   30.39    1.26
   4   4   8   29.30    1.79
   4   4   8   29.85    1.41
   4   4   8   30.62    1.74
  -5  -4  -8   51.98    1.78
  -5  -4  -8   48.02    2.02
  -5  -4  -8   49.48    2.26
   5   4   8   44.75    2.10
   5   4   8   48.66    2.34
  -6  -4  -8    1.15    0.79
  -6  -4  -8    2.01    0.71
  -6  -4  -8    1.88    0.71
  -6  -4  -8    3.37    1.04
   6   4   8    1.92    0.76
   6   4   8    4.21    1.07
   6   4   8    1.97    0.78
  -7  -4  -8    1.71    0.93
  -7  -4  -8    1.18    0.85
  -7  -4  -8    1.80    0.74
  -7  -4  -8    1.86    0.84
   7   4   8    1.31    0.78
   7   4   8    0.01    0.84
   7   4   8    0.51    0.80
  -8  -4  -8    0.66    1.06
  -8  -4  -8   -1.04    0.78
  -8  -4  -8    0.91    1.07
   8   4   8   -0.06    0.82
   8   4   8   -0.33    0.76
   8   4   8   -0.42    0.82
  -9  -4  -8    2.04    1.20
  -9  -4  -8    1.67    1.12
  -9  -4  -8    3.35    0.98
   9   4   8    4.22    1.04
   9   4   8    1.75    1.35
   9   4   8    3.54    1.22
 -10  -4  -8    1.25    1.25
 -10  -4  -8    4.14    1.11
 -10  -4  -8    0.87    1.25
  10   4   8    1.87    1.42
  10   4   8    0.49    1.25
  10   4   8    1.77    1.05
 -11  -4  -8    1.63    1.50
 -11  -4  -8    0.11    1.19
 -11  -4  -8    1.66    1.47
  11   4   8    0.77    1.37
  11   4   8    0.07    1.55
 -12  -4  -8    6.24    1.87
 -12  -4  -8    2.65    1.52
  12   4   8    5.94    2.04
  12   4   8    6.15    2.12
   5  -5  -8    6.67    1.83
   5  -5  -8    8.18    1.39
  -5   5   8    7.36    1.85
  -5   5   8    6.47    1.79
  -5   5   8    9.08    1.98
   4  -5  -8    7.55    1.16
   4  -5  -8    6.73    1.57
  -4   5   8    6.30    1.61
  -4   5   8    9.20    1.71
   3  -5  -8   18.48    1.82
   3  -5  -8   15.92    1.33
  -3   5   8   16.20    1.44
  -3   5   8   14.94    1.95
  -3   5   8   15.81    1.84
   2  -5  -8   17.37    1.25
   2  -5  -8   18.09    1.71
  -2   5   8   20.05    1.48
  -2   5   8   20.97    1.93
  -2   5   8   17.74    1.66
   1  -5  -8    3.16    0.83
   1  -5  -8    2.47    0.66
   1  -5  -8    3.18    1.09
   1  -5  -8    3.86    0.96
  -1   5   8    2.69    1.12
  -1   5   8    2.73    0.95
  -1   5   8    3.12    0.90
  -1   5   8    2.91    0.93
   0  -5  -8    9.23    1.41
   0  -5  -8    8.09    0.88
   0  -5  -8    8.07    0.97
   0  -5  -8    8.56    0.81
   0   5   8    7.54    1.17
   0   5   8    6.91    0.97
   0   5   8    8.54    1.22
   0   5   8    9.18    1.32
  -1  -5  -8    5.39    1.16
  -1  -5  -8    6.55    0.85
  -1  -5  -8    5.63    0.80
   1   5   8    5.23    1.04
   1   5   8    5.50    1.15
   1   5   8    3.92    0.91
   1   5   8    5.38    0.80
  -2  -5  -8   12.55    1.31
  -2  -5  -8   11.91    1.30
  -2  -5  -8   13.13    0.97
   2   5   8   13.42    1.25
   2   5   8   13.52    0.97
   2   5   8   10.66    1.19
   2   5   8   12.55    1.33
  -3  -5  -8  105.28    2.92
  -3  -5  -8   97.02    3.18
  -3  -5  -8  100.75    3.43
   3   5   8  100.76    3.45
   3   5   8  104.00    2.90
   3   5   8  106.51    3.04
   3   5   8  102.26    2.70
   3   5   8  101.67    3.47
  -4  -5  -8    0.46    0.60
  -4  -5  -8   -0.94    0.75
  -4  -5  -8    1.35    0.63
   4   5   8    0.20    0.80
   4   5   8    0.89    0.60
   4   5   8    0.19    0.52
   4   5   8    0.21    0.56
   4   5   8    0.06    0.67
  -5  -5  -8   12.32    1.39
  -5  -5  -8   15.12    1.21
  -5  -5  -8   16.30    1.01
   5   5   8   12.84    1.48
   5   5   8   14.59    1.29
   5   5   8   14.00    1.30
  -6  -5  -8    4.04    1.15
  -6  -5  -8    5.20    0.75
  -6  -5  -8    5.35    1.00
  -6  -5  -8    5.10    0.70
   6   5   8    4.35    0.99
   6   5   8    5.03    1.00
   6   5   8    3.37    0.97
  -7  -5  -8   35.02    1.47
  -7  -5  -8   35.06    1.42
  -7  -5  -8   33.10    2.05
  -7  -5  -8   33.03    1.83
   7   5   8   33.65    1.96
   7   5   8   31.03    1.79
   7   5   8   29.98    2.10
  -8  -5  -8   16.84    1.23
  -8  -5  -8   15.58    1.22
  -8  -5  -8   13.33    1.70
  -8  -5  -8   13.36    1.50
   8   5   8   15.73    1.59
   8   5   8   14.56    1.48
   8   5   8   15.89    1.85
  -9  -5  -8   12.82    1.69
  -9  -5  -8   15.31    1.98
  -9  -5  -8   14.10    1.29
  -9  -5  -8   14.57    1.65
   9   5   8   13.06    1.76
   9   5   8   13.69    1.97
   9   5   8   12.59    1.47
 -10  -5  -8    2.08    1.27
 -10  -5  -8    0.75    1.33
 -10  -5  -8    1.60    0.90
  10   5   8    1.12    1.32
  10   5   8    0.52    1.04
  10   5   8    0.51    1.37
 -11  -5  -8    3.68    1.58
 -11  -5  -8    2.70    1.25
 -11  -5  -8    2.07    1.15
  11   5   8    4.62    1.83
  11   5   8    3.57    1.55
 -12  -5  -8    3.29    1.80
 -12  -5  -8    1.82    1.30
 -12  -5  -8    3.93    1.78
  12   5   8    3.58    1.83
  12   5   8    3.26    1.81
   5  -6  -8    5.73    1.38
   5  -6  -8    7.56    1.80
  -5   6   8    7.62    2.07
  -5   6   8    3.80    2.00
   4  -6  -8    2.89    1.59
   4  -6  -8    3.93    1.21
  -4   6   8    2.94    1.66
  -4   6   8    7.37    1.91
  -4   6   8    4.39    1.25
   3  -6  -8   10.80    1.69
   3  -6  -8    9.47    1.29
  -3   6   8   10.08    1.83
  -3   6   8   15.78    2.11
  -3   6   8    9.06    1.42
   2  -6  -8   15.79    1.36
   2  -6  -8   18.70    1.81
   2  -6  -8   18.85    1.38
  -2   6   8   17.83    1.76
  -2   6   8   18.01    1.68
  -2   6   8   19.93    1.88
   1  -6  -8   -0.23    0.65
   1  -6  -8   -0.53    0.83
   1  -6  -8    0.10    0.96
   1  -6  -8    0.54    0.70
  -1   6   8    0.12    0.96
  -1   6   8    0.11    0.80
  -1   6   8    1.24    0.92
   0  -6  -8   36.60    1.66
   0  -6  -8   39.82    1.56
   0  -6  -8   37.52    2.14
   0  -6  -8   40.55    1.57
   0   6   8   39.03    2.03
   0   6   8   40.47    2.12
   0   6   8   39.80    2.38
  -1  -6  -8   99.27    2.66
  -1  -6  -8   93.50    2.55
  -1  -6  -8   93.77    2.75
  -1  -6  -8   92.81    3.37
   1   6   8   97.04    3.37
   1   6   8   90.96    3.54
   1   6   8   91.97    3.03
  -2  -6  -8   28.86    1.34
  -2  -6  -8   25.40    1.76
  -2  -6  -8   26.60    1.85
  -2  -6  -8   28.08    1.30
   2   6   8   28.50    1.58
   2   6   8   26.85    1.63
   2   6   8   27.52    1.85
   2   6   8   27.58    1.79
  -3  -6  -8   42.72    1.84
  -3  -6  -8   45.32    2.29
  -3  -6  -8   45.48    1.70
   3   6   8   41.95    1.71
   3   6   8   47.50    2.06
   3   6   8   47.36    2.35
   3   6   8   45.48    2.31
  -4  -6  -8   20.23    1.65
  -4  -6  -8   20.31    1.24
  -4  -6  -8   18.86    1.16
   4   6   8   20.23    1.56
   4   6   8   21.38    1.62
   4   6   8   19.61    1.46
   4   6   8   21.15    1.12
  -5  -6  -8    5.94    0.76
  -5  -6  -8    5.72    1.29
  -5  -6  -8    5.98    0.94
   5   6   8    4.27    0.93
   5   6   8    6.92    1.31
   5   6   8    4.90    1.08
  -6  -6  -8    5.30    0.66
  -6  -6  -8    5.15    0.66
  -6  -6  -8    6.03    1.07
  -6  -6  -8    4.30    1.21
   6   6   8    6.70    1.17
   6   6   8    6.30    1.13
   6   6   8    5.09    1.25
  -7  -6  -8    5.64    0.60
  -7  -6  -8    6.28    1.13
  -7  -6  -8    6.04    0.65
  -7  -6  -8    5.97    1.37
   7   6   8    5.03    1.20
   7   6   8    7.51    1.30
   7   6   8    5.70    1.17
  -8  -6  -8   12.30    0.84
  -8  -6  -8   13.93    1.71
  -8  -6  -8   14.16    1.64
  -8  -6  -8   14.09    0.85
   8   6   8   14.54    1.87
   8   6   8   14.22    1.50
   8   6   8   12.51    1.61
  -9  -6  -8    0.39    0.56
  -9  -6  -8   -0.65    0.70
  -9  -6  -8    1.18    1.23
  -9  -6  -8   -1.14    1.17
   9   6   8    1.61    0.95
   9   6   8    1.84    1.18
   9   6   8    1.10    1.20
 -10  -6  -8   -0.33    0.72
 -10  -6  -8    0.45    1.24
 -10  -6  -8    0.62    1.27
  10   6   8    0.19    1.02
  10   6   8    0.59    1.28
  10   6   8    2.08    1.25
 -11  -6  -8    7.00    1.77
 -11  -6  -8    4.25    1.10
 -11  -6  -8    7.23    1.61
  11   6   8    3.54    0.99
  11   6   8    7.18    1.80
  11   6   8    8.13    1.66
 -12  -6  -8    6.59    1.79
 -12  -6  -8    5.91    2.06
  12   6   8    7.40    2.13
  12   6   8    5.65    1.98
   4  -7  -8    4.74    1.37
   4  -7  -8    4.64    1.65
  -4   7   8    4.88    1.96
  -4   7   8    2.95    1.68
  -4   7   8    2.65    1.53
   3  -7  -8    2.72    1.11
   3  -7  -8    4.62    1.67
  -3   7   8    4.05    1.72
  -3   7   8    2.39    1.37
  -3   7   8    3.72    1.55
   2  -7  -8    7.56    0.98
   2  -7  -8   10.52    1.74
   2  -7  -8   10.41    1.34
  -2   7   8    8.43    1.50
  -2   7   8   10.91    1.76
  -2   7   8    7.99    1.77
   1  -7  -8   12.03    1.05
   1  -7  -8   14.81    1.88
   1  -7  -8   12.31    1.37
  -1   7   8   12.66    1.94
  -1   7   8   11.78    1.67
  -1   7   8   13.05    1.78
   0  -7  -8   18.43    1.45
   0  -7  -8   20.11    1.10
   0  -7  -8   20.85    1.17
   0  -7  -8   19.27    1.80
   0   7   8   19.42    1.79
   0   7   8   17.66    1.72
   0   7   8   18.94    1.78
  -1  -7  -8    8.98    0.89
  -1  -7  -8   10.72    1.62
  -1  -7  -8   10.18    0.91
  -1  -7  -8   10.38    1.10
   1   7   8   11.76    1.72
   1   7   8   10.68    1.56
   1   7   8    9.25    1.33
  -2  -7  -8    1.51    1.05
  -2  -7  -8    1.45    0.64
  -2  -7  -8    1.49    0.60
   2   7   8    2.14    1.07
   2   7   8    1.92    0.82
   2   7   8    0.10    1.00
  -3  -7  -8   24.42    1.83
  -3  -7  -8   23.94    1.22
  -3  -7  -8   21.84    1.55
   3   7   8   24.15    1.33
   3   7   8   24.15    1.73
   3   7   8   26.43    1.97
  -4  -7  -8    8.61    1.05
  -4  -7  -8   11.34    1.62
   4   7   8   11.04    1.51
   4   7   8   10.03    1.47
   4   7   8   10.77    0.92
  -5  -7  -8   84.82    3.40
  -5  -7  -8   89.52    2.74
  -5  -7  -8   85.02    2.20
   5   7   8   93.49    3.37
   5   7   8   90.12    3.22
   5   7   8   87.56    3.54
  -6  -7  -8    9.67    1.18
  -6  -7  -8    9.22    1.58
   6   7   8    9.86    1.34
   6   7   8   10.69    1.36
   6   7   8    9.31    1.42
  -7  -7  -8    0.17    1.04
  -7  -7  -8    0.24    0.84
   7   7   8    1.30    1.13
   7   7   8    1.02    0.95
   7   7   8    0.29    0.95
  -8  -7  -8   15.63    1.49
  -8  -7  -8   12.82    1.88
   8   7   8   16.69    1.99
   8   7   8   14.31    1.62
   8   7   8   14.19    1.73
  -9  -7  -8    7.49    1.69
  -9  -7  -8    9.24    1.43
   9   7   8    5.49    1.54
   9   7   8    8.41    1.35
   9   7   8    8.59    1.65
 -10  -7  -8   10.19    2.09
 -10  -7  -8   10.44    1.61
  10   7   8    7.82    1.75
  10   7   8    8.60    1.30
  10   7   8    9.67    1.95
 -11  -7  -8    6.53    1.59
 -11  -7  -8    3.46    1.71
  11   7   8    4.76    1.83
  11   7   8    3.45    1.22
  11   7   8    2.02    1.36
 -12  -7  -8    1.79    1.45
 -12  -7  -8    1.10    1.90
  12   7   8    0.70    1.88
  12   7   8    0.05    1.64
   2  -8  -8    0.30    1.47
   2  -8  -8    1.50    1.11
  -2   8   8    0.88    1.51
  -2   8   8    1.10    1.40
  -2   8   8    0.41    1.22
   1  -8  -8   -0.98    1.34
   1  -8  -8    2.51    1.06
  -1   8   8   -0.43    1.23
  -1   8   8    2.68    1.38
  -1   8   8    1.37    1.48
   0  -8  -8    5.03    0.55
   0  -8  -8    4.87    1.41
   0  -8  -8    6.92    1.13
   0   8   8    5.42    1.45
   0   8   8    7.38    1.68
   0   8   8    7.13    1.64
  -1  -8  -8    2.28    1.00
  -1  -8  -8    3.04    0.50
  -1  -8  -8    1.99    1.23
   1   8   8    2.67    1.09
   1   8   8    3.69    1.40
   1   8   8    1.48    1.30
  -2  -8  -8    6.46    0.76
  -2  -8  -8    7.74    0.73
  -2  -8  -8    9.36    1.62
   2   8   8    8.36    1.59
   2   8   8    7.89    1.19
   2   8   8    6.16    1.42
  -3  -8  -8    3.10    0.64
  -3  -8  -8    2.43    0.69
  -3  -8  -8    4.83    1.34
  -3  -8  -8    1.52    1.11
   3   8   8    3.86    1.25
   3   8   8    6.91    1.40
   3   8   8    2.94    0.81
  -4  -8  -8    2.27    1.19
  -4  -8  -8    3.05    0.83
  -4  -8  -8    4.55    0.78
   4   8   8    4.46    1.22
   4   8   8    3.90    0.73
   4   8   8    3.94    1.28
  -5  -8  -8   42.96    2.47
  -5  -8  -8   40.95    1.73
   5   8   8   46.10    2.46
   5   8   8   44.03    2.48
   5   8   8   41.81    2.32
  -6  -8  -8    6.69    1.37
  -6  -8  -8    7.23    1.05
   6   8   8    5.47    1.27
   6   8   8    6.48    1.56
   6   8   8    7.10    1.32
  -7  -8  -8   12.46    1.35
  -7  -8  -8   14.60    1.79
   7   8   8   14.95    1.68
   7   8   8   11.30    1.70
   7   8   8   12.38    1.62
  -8  -8  -8    1.89    1.38
  -8  -8  -8    2.16    1.02
   8   8   8    1.48    1.17
   8   8   8   -0.58    0.99
   8   8   8   -0.23    1.29
  -9  -8  -8    0.69    1.31
  -9  -8  -8   -0.89    1.01
   9   8   8    1.75    1.13
   9   8   8   -0.67    1.41
   9   8   8   -0.55    1.13
 -10  -8  -8   11.05    1.69
 -10  -8  -8   10.21    2.17
  10   8   8   12.39    1.53
  10   8   8   14.96    2.35
  10   8   8   16.57    2.19
 -11  -8  -8   13.18    1.95
 -11  -8  -8   15.76    2.42
  11   8   8   14.37    2.06
  11   8   8   12.30    2.26
   1  -9  -8   -1.22    1.09
   1  -9  -8    0.69    1.51
  -1   9   8   -2.55    1.80
  -1   9   8    0.27    1.73
  -1   9   8    0.70    1.58
   0  -9  -8    1.53    1.42
   0  -9  -8    0.86    1.17
   0   9   8    5.27    1.40
   0   9   8    5.75    1.71
   0   9   8    1.97    1.54
  -1  -9  -8   -0.70    0.93
  -1  -9  -8   -0.91    1.21
   1   9   8   -0.49    1.42
   1   9   8   -1.89    1.13
   1   9   8    1.71    1.50
  -2  -9  -8   14.27    1.86
   2   9   8   17.83    1.69
   2   9   8   13.37    2.05
   2   9   8   15.95    1.82
  -3  -9  -8    3.14    0.43
  -3  -9  -8    4.43    1.44
   3   9   8    4.57    1.57
   3   9   8    3.54    1.47
   3   9   8    2.73    1.33
  -4  -9  -8   18.77    1.98
  -4  -9  -8   17.07    1.00
   4   9   8   21.74    2.12
   4   9   8   17.20    2.06
   4   9   8   17.07    1.17
  -5  -9  -8   -0.91    1.01
  -5  -9  -8    1.11    0.70
   5   9   8    0.19    0.89
   5   9   8    0.72    1.16
  -6  -9  -8   14.30    2.01
  -6  -9  -8   11.65    1.15
   6   9   8   12.81    1.77
   6   9   8   12.85    1.77
   6   9   8   13.20    2.02
  -7  -9  -8   -1.39    1.31
  -7  -9  -8   -0.36    0.82
   7   9   8    0.91    1.39
   7   9   8    1.21    1.17
   7   9   8   -1.06    1.21
  -8  -9  -8    1.52    0.95
  -8  -9  -8    3.80    1.50
   8   9   8    1.06    1.44
   8   9   8    0.97    1.11
   8   9   8    0.50    1.31
  -9  -9  -8   15.17    2.26
  -9  -9  -8   12.46    1.69
   9   9   8   13.60    2.08
   9   9   8   11.92    1.78
   9   9   8   11.64    1.98
 -10  -9  -8    3.44    1.33
 -10  -9  -8    3.36    1.71
  10   9   8    0.85    1.29
  10   9   8    4.09    1.86
  10   9   8   -1.47    1.44
 -11  -9  -8    1.09    1.96
 -11  -9  -8    1.03    1.49
  11   9   8   -0.08    1.82
  11   9   8    0.02    1.61
   0 -10  -8    1.07    1.68
   0 -10  -8   -0.01    1.34
   0  10   8    1.99    1.94
   0  10   8   -1.81    1.79
   0  10   8    1.08    1.53
  -1 -10  -8   -1.29    1.60
  -1 -10  -8    2.69    1.28
   1  10   8    4.35    1.84
   1  10   8    0.98    1.63
   1  10   8   -0.98    1.39
  -2 -10  -8    1.18    1.44
   2  10   8   -1.60    1.51
   2  10   8    0.36    1.20
   2  10   8   -0.33    1.57
  -3 -10  -8   34.44    2.54
   3  10   8   31.64    2.73
   3  10   8   31.13    1.94
   3  10   8   38.64    2.94
  -4 -10  -8    2.08    1.38
   4  10   8    0.71    1.13
   4  10   8    0.84    1.38
   4  10   8    1.21    0.76
  -5 -10  -8   11.65    1.93
  -5 -10  -8   10.67    0.90
   5  10   8   10.74    1.91
   5  10   8    6.52    1.86
  -6 -10  -8    5.87    1.63
   6  10   8    3.08    1.44
   6  10   8    4.06    1.42
   6  10   8    1.18    1.55
  -7 -10  -8   -0.76    1.43
  -7 -10  -8    0.81    0.89
   7  10   8   -0.50    1.36
   7  10   8   -0.34    1.26
   7  10   8    0.36    1.24
  -8 -10  -8    1.53    1.00
  -8 -10  -8    0.55    1.61
   8  10   8    1.83    1.37
   8  10   8    2.96    1.48
   8  10   8    0.88    1.62
  -9 -10  -8    0.27    1.16
  -9 -10  -8    0.48    1.60
   9  10   8    2.48    1.68
   9  10   8    2.21    1.74
   9  10   8    1.45    1.39
 -10 -10  -8    0.43    1.29
 -10 -10  -8    3.19    1.95
  10  10   8    2.28    1.95
  10  10   8    3.16    1.64
  10  10   8    1.42    1.47
  -2 -11  -8   -2.14    1.69
   2  11   8    3.58    2.06
   2  11   8    0.31    1.67
   2  11   8   -1.08    1.44
  -3 -11  -8   -1.75    1.49
   3  11   8    1.58    1.84
   3  11   8    0.21    1.39
   3  11   8   -0.24    1.78
  -4 -11  -8   18.58    2.42
   4  11   8   13.57    2.36
   4  11   8   18.84    2.68
  -5 -11  -8   -0.95    1.54
   5  11   8   -0.87    1.49
   5  11   8    2.75    1.86
  -6 -11  -8   22.55    2.75
   6  11   8   19.51    2.67
   6  11   8   19.02    2.32
   6  11   8   18.35    2.39
  -7 -11  -8    2.73    1.81
  -7 -11  -8    0.79    1.00
   7  11   8    0.79    1.48
   7  11   8   -0.19    1.75
   7  11   8    1.78    1.51
  -8 -11  -8    2.71    1.11
  -8 -11  -8   -0.18    1.83
   8  11   8    4.88    1.82
   8  11   8    3.47    1.97
   8  11   8    1.71    1.63
  -9 -11  -8   13.45    1.63
   9  11   8    8.66    2.17
   9  11   8    9.23    1.86
   4  10  -9   -2.44    2.10
   4  10  -9    0.89    1.62
   4  10  -9   -0.24    1.51
   3  10  -9    3.22    1.58
   3  10  -9    2.23    2.07
   3  10  -9    2.00    1.46
   2  10  -9    1.35    1.43
   2  10  -9    0.88    2.16
   2  10  -9    1.57    1.61
   6   9  -9   -0.07    1.71
   6   9  -9    2.45    1.64
   6   9  -9    0.10    1.56
   5   9  -9    1.33    1.68
   5   9  -9    2.05    1.59
   4   9  -9    2.95    1.51
   4   9  -9    2.62    1.56
   3   9  -9   -0.04    1.33
   3   9  -9   -0.18    1.20
   2   9  -9   -1.24    1.25
   2   9  -9    2.26    1.74
   2   9  -9    0.80    1.30
   1   9  -9    4.04    1.33
   1   9  -9    2.93    1.96
   1   9  -9    0.97    1.32
  -1  -9   9    1.02    1.29
  -1  -9   9    2.78    1.19
   0   9  -9   -2.99    1.88
   0   9  -9   -0.28    1.42
   0  -9   9   -0.66    1.41
   0  -9   9    1.72    1.25
  -1   9  -9    0.70    1.88
  -1   9  -9    2.00    1.51
   1  -9   9   -1.02    1.51
   1  -9   9    0.39    1.13
   7   8  -9   20.17    2.64
   7   8  -9   17.32    2.06
   7   8  -9   15.78    2.26
  -7  -8   9   20.34    2.50
   6   8  -9    0.67    1.41
   6   8  -9    6.61    1.84
   6   8  -9    2.87    1.44
   5   8  -9    3.36    1.43
   5   8  -9    3.71    1.61
   4   8  -9    4.11    1.43
   3   8  -9    3.01    1.31
   3   8  -9    1.19    1.22
   2   8  -9    3.44    1.28
   2   8  -9    1.00    1.18
  -2  -8   9    0.45    1.05
   1   8  -9    0.10    1.15
   1   8  -9    3.58    1.74
   1   8  -9    2.89    1.11
  -1  -8   9    1.41    0.97
  -1  -8   9   -0.14    1.11
   0   8  -9    1.40    1.27
   0   8  -9    0.22    0.96
   0   8  -9   -1.37    1.50
   0  -8   9   -0.16    1.15
   0  -8   9    1.62    0.88
  -1   8  -9   -0.37    1.35
  -1   8  -9    2.28    1.81
  -1   8  -9   -0.36    1.11
   1  -8   9   -0.51    0.99
   1  -8   9   -0.49    1.20
  -2   8  -9   -1.36    1.94
  -2   8  -9    0.68    1.34
   2  -8   9    0.78    1.46
   2  -8   9   -1.83    0.99
  -3   8  -9    3.80    2.15
  -3   8  -9    4.44    1.70
   3  -8   9    2.51    1.74
   3  -8   9    3.07    1.22
   8   7  -9    1.53    1.99
   8   7  -9   -1.66    1.58
  -8  -7   9   -2.15    1.57
   7   7  -9    1.56    1.52
   7   7  -9    2.49    1.19
   7   7  -9    4.96    1.72
  -7  -7   9    4.17    1.40
  -7  -7   9    4.72    1.72
   6   7  -9    1.44    1.25
   6   7  -9   -1.46    1.31
   6   7  -9    0.33    1.15
  -6  -7   9   -0.87    1.26
  -6  -7   9    0.22    1.37
   5   7  -9    5.49    1.36
   5   7  -9    3.74    1.44
  -5  -7   9    4.27    1.52
  -5  -7   9    3.43    1.32
   4   7  -9    3.19    1.13
   4   7  -9    1.84    1.16
  -4  -7   9    0.74    1.16
   3   7  -9   12.18    1.73
   3   7  -9   11.99    1.63
  -3  -7   9   11.71    1.50
  -3  -7   9   15.15    1.88
   2   7  -9   -0.28    0.98
   2   7  -9   -0.42    0.96
  -2  -7   9    0.01    1.17
  -2  -7   9    1.32    0.99
   1   7  -9    7.08    1.27
   1   7  -9    7.04    1.31
  -1  -7   9    4.68    1.24
  -1  -7   9    5.27    0.90
   0   7  -9   -0.45    0.84
   0   7  -9    1.35    1.10
   0   7  -9    1.13    1.57
   0  -7   9    2.10    1.16
   0  -7   9    1.79    0.75
  -1   7  -9    9.54    1.94
  -1   7  -9    7.43    1.02
  -1   7  -9    8.66    1.52
   1  -7   9    8.15    1.56
   1  -7   9   11.39    1.34
  -2   7  -9    1.06    1.19
  -2   7  -9   -0.50    1.58
  -2   7  -9   -0.52    0.57
   2  -7   9    0.41    1.28
   2  -7   9    0.21    0.83
  -3   7  -9    2.18    1.36
  -3   7  -9    4.14    1.73
   3  -7   9    4.26    1.28
   3  -7   9    3.56    1.13
  -4   7  -9   -0.91    1.81
  -4   7  -9    1.08    1.52
   4  -7   9   -0.24    1.45
   4  -7   9   -0.62    1.02
  -5   7  -9    5.12    1.83
  -5   7  -9    2.99    1.82
   5  -7   9    5.47    1.59
   5  -7   9    4.70    1.43
   8   6  -9   18.17    2.20
   8   6  -9   17.03    2.02
  -8  -6   9   16.70    2.00
  -8  -6   9   17.13    2.45
  -8  -6   9   17.99    2.18
   7   6  -9    9.16    1.61
   7   6  -9   13.50    2.19
  -7  -6   9   11.24    1.65
  -7  -6   9   11.24    1.90
   6   6  -9    0.67    0.88
   6   6  -9   -0.85    1.09
   6   6  -9    0.89    1.37
  -6  -6   9   -0.36    1.14
  -6  -6   9   -0.71    1.21
   5   6  -9   17.96    1.69
   5   6  -9   15.93    1.84
  -5  -6   9   19.57    1.86
  -5  -6   9   17.09    1.99
   4   6  -9   12.22    1.74
   4   6  -9   11.66    1.39
  -4  -6   9   15.89    1.90
  -4  -6   9   14.74    1.94
   3   6  -9   11.16    1.62
  -3  -6   9   10.10    1.27
  -3  -6   9   11.11    1.68
   2   6  -9   -0.08    0.93
   2   6  -9    1.06    0.91
  -2  -6   9   -0.44    0.72
  -2  -6   9   -0.59    0.72
   1   6  -9   14.52    1.33
   1   6  -9   10.48    1.17
  -1  -6   9   12.96    1.82
  -1  -6   9   12.22    1.41
  -1  -6   9   12.18    0.99
   0   6  -9    2.78    0.95
   0   6  -9    2.03    0.92
   0  -6   9    1.71    0.63
   0  -6   9    1.95    0.97
   0  -6   9    1.87    1.00
  -1   6  -9    7.86    1.48
  -1   6  -9    8.32    1.41
  -1   6  -9    8.04    1.55
   1  -6   9    8.84    1.06
   1  -6   9    7.10    1.47
   1  -6   9    8.76    1.30
  -2   6  -9    0.00    0.66
  -2   6  -9    1.54    1.07
  -2   6  -9    1.08    1.05
   2  -6   9   -1.24    0.71
   2  -6   9    0.81    0.83
  -3   6  -9    9.54    1.58
  -3   6  -9    9.66    1.82
  -3   6  -9    8.40    0.62
   3  -6   9    9.06    1.28
   3  -6   9    9.30    1.67
  -4   6  -9    0.79    1.27
  -4   6  -9    0.07    1.15
   4  -6   9    0.44    0.95
   4  -6   9   -1.02    1.22
  -5   6  -9    3.60    1.90
  -5   6  -9    1.61    1.41
   5  -6   9    1.95    1.14
   5  -6   9    0.30    1.55
  -6   6  -9    1.44    1.56
   6  -6   9    0.20    1.28
   8   5  -9    1.90    1.36
   8   5  -9   -0.59    1.66
  -8  -5   9   -0.45    1.25
  -8  -5   9   -1.26    1.30
  -8  -5   9   -0.81    1.50
   7   5  -9    0.90    1.18
   7   5  -9    0.83    1.39
  -7  -5   9    0.81    1.25
  -7  -5   9    0.13    1.31
  -7  -5   9    0.40    1.14
   6   5  -9    2.54    1.02
   6   5  -9   -1.01    1.20
   6   5  -9    0.40    0.58
  -6  -5   9    1.72    1.07
  -6  -5   9   -0.98    1.16
   5   5  -9   -0.05    1.09
  -5  -5   9    2.12    1.08
  -5  -5   9    0.42    1.03
   4   5  -9    0.86    0.73
   4   5  -9    0.35    0.92
   4   5  -9    0.46    0.73
   4   5  -9   -0.96    1.18
  -4  -5   9    1.13    1.12
  -4  -5   9    0.22    0.77
   3   5  -9    1.79    0.77
   3   5  -9    1.29    0.77
   3   5  -9    2.22    1.03
  -3  -5   9    0.27    0.95
  -3  -5   9    2.53    0.77
  -3  -5   9    2.63    1.15
   2   5  -9   -0.44    0.79
   2   5  -9   -0.43    0.76
   2   5  -9    0.16    0.88
  -2  -5   9   -0.52    0.69
  -2  -5   9    1.19    0.96
   1   5  -9   13.32    1.31
   1   5  -9   13.95    1.39
   1   5  -9   13.86    1.30
  -1  -5   9   13.69    1.66
  -1  -5   9   13.95    1.32
   0   5  -9   42.67    2.15
   0   5  -9   42.08    1.92
   0   5  -9   44.22    2.06
   0  -5   9   48.42    1.68
   0  -5   9   46.18    2.56
   0  -5   9   44.39    2.14
  -1   5  -9   95.80    3.24
  -1   5  -9   86.64    2.78
   1  -5   9   91.29    3.69
   1  -5   9   85.34    3.25
   1  -5   9   95.23    2.71
  -2   5  -9   -0.13    0.90
  -2   5  -9    0.66    0.91
  -2   5  -9   -0.12    0.67
  -2   5  -9    2.66    1.00
   2  -5   9    1.04    0.95
   2  -5   9    0.49    0.76
   2  -5   9    1.05    0.68
  -3   5  -9    1.54    0.65
  -3   5  -9    0.27    0.81
  -3   5  -9    1.28    1.35
  -3   5  -9    2.28    1.03
   3  -5   9    2.32    0.80
   3  -5   9    1.97    1.12
  -4   5  -9    4.99    1.67
  -4   5  -9    6.08    0.57
  -4   5  -9    5.61    1.32
   4  -5   9    6.39    1.08
   4  -5   9    6.87    1.48
  -5   5  -9    0.39    1.22
  -5   5  -9   -1.43    1.47
   5  -5   9   -0.38    0.88
   5  -5   9    0.74    0.98
  -6   5  -9    3.81    1.89
  -6   5  -9    4.47    1.65
   6  -5   9    4.01    1.71
   6  -5   9    2.14    1.19
  -7   5  -9    0.37    1.64
   7  -5   9   -0.60    1.15
   8   4  -9   13.69    2.49
   8   4  -9   12.53    1.69
  -8  -4   9   16.16    2.27
  -8  -4   9   14.28    2.02
  -8  -4   9   10.75    1.69
   7   4  -9   -1.96    1.36
   7   4  -9    0.20    1.00
  -7  -4   9    0.99    1.16
  -7  -4   9    3.26    1.44
  -7  -4   9   -0.87    1.10
   6   4  -9    1.99    1.37
  -6  -4   9    0.42    1.06
  -6  -4   9    0.92    1.28
   5   4  -9    9.61    1.65
   5   4  -9    5.15    0.82
   5   4  -9    4.87    0.75
   5   4  -9    5.43    0.90
  -5  -4   9    6.65    1.33
  -5  -4   9    7.00    1.47
   4   4  -9    1.54    0.88
   4   4  -9   -0.24    0.97
   4   4  -9    0.26    0.60
   4   4  -9    1.07    0.60
  -4  -4   9    1.86    1.10
  -4  -4   9    0.01    0.95
   3   4  -9    1.73    0.56
   3   4  -9    0.77    0.95
   3   4  -9    1.74    1.11
   3   4  -9    2.10    0.59
  -3  -4   9    2.10    0.71
  -3  -4   9    0.50    0.92
  -3  -4   9    3.08    1.08
   2   4  -9  108.31    2.71
   2   4  -9  108.47    3.56
   2   4  -9  112.43    2.87
  -2  -4   9  110.64    3.86
  -2  -4   9  109.16    3.82
  -2  -4   9  108.16    3.16
   1   4  -9   20.90    1.42
   1   4  -9   21.28    1.14
   1   4  -9   21.32    1.51
  -1  -4   9   22.90    1.44
  -1  -4   9   24.04    1.87
   0   4  -9   33.66    1.52
   0   4  -9   32.57    1.68
   0   4  -9   34.28    1.86
   0  -4   9   34.33    1.28
   0  -4   9   33.97    1.79
   0  -4   9   34.90    2.15
  -1   4  -9    1.06    0.73
  -1   4  -9    0.86    0.83
  -1   4  -9   -0.56    0.80
   1  -4   9   -0.25    0.81
   1  -4   9    0.28    0.45
   1  -4   9   -0.24    0.64
  -2   4  -9   -0.11    0.72
  -2   4  -9   -0.32    0.85
  -2   4  -9   -0.76    0.99
   2  -4   9   -0.41    0.52
   2  -4   9    1.59    1.08
   2  -4   9   -0.89    0.83
  -3   4  -9    4.64    0.78
  -3   4  -9    4.14    1.39
  -3   4  -9    4.28    1.01
   3  -4   9    2.85    1.11
   3  -4   9    3.71    1.27
   3  -4   9    4.37    0.88
  -4   4  -9   -2.27    1.06
  -4   4  -9    0.94    0.64
  -4   4  -9   -0.42    0.96
   4  -4   9    0.74    1.07
   4  -4   9    0.12    1.04
   4  -4   9   -1.39    0.66
  -5   4  -9    0.92    1.34
  -5   4  -9    0.52    0.55
  -5   4  -9   -0.69    1.01
   5  -4   9    0.21    0.80
   5  -4   9   -0.28    0.86
  -6   4  -9   10.41    1.69
  -6   4  -9   10.88    2.08
   6  -4   9   10.16    1.43
   6  -4   9   15.61    2.05
  -7   4  -9   10.37    2.17
  -7   4  -9    8.80    1.78
   7  -4   9    9.16    1.56
   7  -4   9    9.33    1.87
  -8   4  -9    3.08    1.81
   8  -4   9    1.92    1.35
   8   3  -9    3.07    1.30
   8   3  -9    5.04    1.89
  -8  -3   9    3.22    1.21
  -8  -3   9    3.31    1.37
  -8  -3   9    4.41    1.48
   7   3  -9    4.08    1.15
   7   3  -9    6.60    1.77
  -7  -3   9    4.49    1.17
  -7  -3   9    5.79    1.61
  -7  -3   9    3.58    1.25
   6   3  -9   -0.30    0.74
   6   3  -9    0.77    1.24
  -6  -3   9   -0.08    0.97
  -6  -3   9   -1.72    0.96
  -6  -3   9    0.30    1.10
   5   3  -9   10.66    0.94
   5   3  -9   13.02    1.85
   5   3  -9   10.08    0.98
  -5  -3   9   11.80    1.58
  -5  -3   9   10.50    1.47
   4   3  -9    6.44    0.72
   4   3  -9    8.64    1.50
   4   3  -9    8.05    0.92
   4   3  -9    7.50    0.69
  -4  -3   9    7.37    1.38
  -4  -3   9    7.31    1.30
   3   3  -9    4.28    0.50
   3   3  -9    4.10    0.48
   3   3  -9    3.92    0.91
   3   3  -9    4.80    1.16
  -3  -3   9    4.65    1.05
  -3  -3   9    4.36    1.11
  -3  -3   9    4.88    0.69
   2   3  -9   66.84    1.89
   2   3  -9   58.68    2.31
   2   3  -9   62.15    2.56
   2   3  -9   62.30    1.64
  -2  -3   9   62.90    2.74
  -2  -3   9   64.76    2.12
  -2  -3   9   63.17    2.73
   1   3  -9   13.99    1.34
   1   3  -9   15.60    1.36
   1   3  -9   17.34    0.79
  -1  -3   9   15.71    1.54
  -1  -3   9   15.68    1.52
  -1  -3   9   15.92    1.17
   0   3  -9    0.01    0.75
   0   3  -9    0.37    0.73
   0   3  -9    0.32    0.46
   0  -3   9   -0.69    0.80
   0  -3   9    0.24    0.67
   0  -3   9    0.59    0.32
  -1   3  -9    4.16    0.77
  -1   3  -9    4.78    0.95
  -1   3  -9    4.66    1.03
   1  -3   9    3.37    0.95
   1  -3   9    5.04    0.58
   1  -3   9    4.60    0.99
  -2   3  -9    1.59    0.78
  -2   3  -9    0.61    0.65
  -2   3  -9    0.32    0.68
   2  -3   9    1.18    0.92
   2  -3   9    0.66    0.49
   2  -3   9    1.12    0.85
  -3   3  -9    0.29    1.02
  -3   3  -9   -0.07    0.85
  -3   3  -9    1.51    0.68
   3  -3   9   -0.53    0.87
   3  -3   9    0.40    0.60
   3  -3   9   -0.34    0.84
  -4   3  -9    1.00    0.98
  -4   3  -9    0.07    1.02
  -4   3  -9   -0.05    0.60
   4  -3   9   -0.75    0.92
   4  -3   9   -1.36    0.71
   4  -3   9   -0.23    0.65
  -5   3  -9    8.81    0.96
  -5   3  -9    8.85    1.52
  -5   3  -9   10.51    1.52
   5  -3   9   11.16    1.36
   5  -3   9    9.37    1.19
   5  -3   9   10.45    1.64
  -6   3  -9    4.49    1.55
  -6   3  -9    4.73    0.81
  -6   3  -9    4.02    1.31
   6  -3   9    1.77    0.95
   6  -3   9    2.83    1.33
  -7   3  -9    9.78    1.62
  -7   3  -9    7.81    1.97
   7  -3   9    6.91    1.33
   7  -3   9    8.19    1.77
  -8   3  -9    3.02    1.55
  -8   3  -9    2.25    1.83
   8  -3   9    0.92    1.21
   8  -3   9   -1.04    1.14
   8   2  -9    2.59    1.73
   8   2  -9   -0.13    1.15
  -8  -2   9   -0.95    1.45
  -8  -2   9   -0.48    1.30
  -8  -2   9   -0.32    1.28
   7   2  -9    0.02    0.93
   7   2  -9    1.35    1.46
  -7  -2   9   -1.23    1.10
  -7  -2   9   -1.32    1.27
  -7  -2   9   -0.53    1.17
   6   2  -9   10.11    1.12
   6   2  -9   10.08    1.77
  -6  -2   9    7.30    1.27
  -6  -2   9   11.95    1.51
  -6  -2   9    8.73    1.74
   5   2  -9    9.43    0.92
   5   2  -9    7.51    1.57
   5   2  -9    7.36    0.86
  -5  -2   9    8.03    1.31
  -5  -2   9    8.96    1.57
   4   2  -9   14.83    1.86
   4   2  -9   12.78    0.69
   4   2  -9   12.46    0.66
   4   2  -9   12.76    0.76
  -4  -2   9   13.72    1.57
  -4  -2   9   12.99    1.58
   3   2  -9   -0.17    0.18
   3   2  -9   -0.01    0.19
   3   2  -9   -1.08    0.57
   3   2  -9   -0.32    0.61
  -3  -2   9   -0.30    0.39
  -3  -2   9   -1.30    0.74
  -3  -2   9   -0.12    0.74
   2   2  -9   44.55    1.82
   2   2  -9   44.42    2.12
  -2  -2   9   44.35    2.24
  -2  -2   9   46.40    1.66
  -2  -2   9   44.15    2.25
   1   2  -9  152.08    4.33
   1   2  -9  151.87    4.11
   1   2  -9  151.97    4.35
  -1  -2   9  156.99    4.63
  -1  -2   9  157.09    4.58
  -1  -2   9  156.36    4.02
   0   2  -9   -0.76    0.46
   0   2  -9    0.07    0.25
   0   2  -9   -0.10    0.66
   0  -2   9   -0.06    0.72
   0  -2   9   -0.02    0.61
   0  -2   9    0.68    0.79
  -1   2  -9    7.29    1.07
  -1   2  -9    6.55    0.69
  -1   2  -9    7.77    1.17
   1  -2   9    6.85    0.51
   1  -2   9    8.73    1.32
   1  -2   9    8.87    1.16
  -2   2  -9    8.19    0.97
  -2   2  -9   10.59    1.19
  -2   2  -9    9.43    1.01
   2  -2   9    9.61    0.69
   2  -2   9    9.00    1.21
   2  -2   9   10.63    1.46
  -3   2  -9   15.15    1.30
  -3   2  -9   13.47    1.16
  -3   2  -9   15.31    1.38
   3  -2   9   16.46    1.41
   3  -2   9   14.33    0.95
   3  -2   9   15.40    1.58
   3  -2   9   15.33    1.50
  -4   2  -9    4.49    0.98
  -4   2  -9    6.25    1.16
  -4   2  -9    6.95    1.37
   4  -2   9    4.82    1.13
   4  -2   9    6.00    1.22
   4  -2   9    4.04    1.04
   4  -2   9    5.62    0.87
  -5   2  -9   42.98    2.55
  -5   2  -9   41.24    2.20
  -5   2  -9   40.58    1.68
   5  -2   9   37.67    2.30
   5  -2   9   38.36    1.80
   5  -2   9   36.09    2.28
   5  -2   9   41.83    1.86
  -6   2  -9    5.41    1.48
  -6   2  -9    8.68    1.07
  -6   2  -9    5.92    1.40
   6  -2   9    7.48    1.15
   6  -2   9    7.22    1.18
   6  -2   9   11.19    1.68
   6  -2   9    8.22    1.56
  -7   2  -9    1.21    0.81
  -7   2  -9    0.76    1.04
  -7   2  -9    0.56    1.09
   7  -2   9    1.04    1.01
   7  -2   9   -0.22    1.17
  -8   2  -9    0.48    1.06
  -8   2  -9    2.97    1.59
  -8   2  -9    2.01    0.82
   8  -2   9    1.60    1.18
   8  -2   9    3.14    1.23
  -9   2  -9    2.88    1.74
  -9   2  -9   -0.77    1.37
   9  -2   9    1.12    1.64
   9  -2   9    1.18    1.30
   8   1  -9    5.78    1.88
   8   1  -9    3.77    1.31
  -8  -1   9    3.37    1.75
  -8  -1   9    4.24    1.51
  -8  -1   9    3.28    1.50
   7   1  -9    4.51    1.64
   7   1  -9    0.31    0.94
  -7  -1   9    1.05    1.38
  -7  -1   9    0.80    1.22
  -7  -1   9   -0.23    1.19
   6   1  -9    1.68    1.20
   6   1  -9    3.96    1.46
  -6  -1   9    0.76    1.25
  -6  -1   9    2.37    1.17
  -6  -1   9    0.72    1.01
   5   1  -9   18.61    1.04
   5   1  -9   20.37    1.85
  -5  -1   9   17.21    1.79
  -5  -1   9   19.23    1.68
   4   1  -9   -0.31    0.35
   4   1  -9   -0.78    0.85
  -4  -1   9    0.57    0.97
  -4  -1   9    0.75    0.88
   3   1  -9    5.63    1.24
   3   1  -9    4.87    0.65
  -3  -1   9    4.23    0.53
  -3  -1   9    4.61    1.07
  -3  -1   9    5.47    1.08
   2   1  -9   10.58    1.28
   2   1  -9   13.02    1.10
  -2  -1   9   11.27    1.36
  -2  -1   9   11.73    1.35
  -2  -1   9   12.70    0.88
   1   1  -9   11.07    1.21
   1   1  -9   10.07    1.16
  -1  -1   9   11.91    1.47
  -1  -1   9    9.33    1.32
  -1  -1   9    9.86    0.94
   0   1  -9   18.40    1.38
   0   1  -9   18.49    1.39
   0   1  -9   18.16    1.32
   0  -1   9   18.45    1.47
   0  -1   9   19.73    1.43
  -1   1  -9   44.60    1.95
  -1   1  -9   44.33    1.07
  -1   1  -9   42.68    1.97
   1  -1   9   43.54    0.99
   1  -1   9   43.73    1.89
   1  -1   9   44.23    2.05
   1  -1   9   43.07    2.19
  -2   1  -9   37.73    1.34
  -2   1  -9   38.14    1.75
  -2   1  -9   37.28    1.77
   2  -1   9   39.46    1.90
   2  -1   9   39.05    1.16
   2  -1   9   34.15    1.89
  -3   1  -9   84.04    2.70
  -3   1  -9   83.19    2.92
  -3   1  -9   81.72    2.50
   3  -1   9   85.31    2.29
   3  -1   9   87.22    3.23
   3  -1   9   82.79    3.01
  -4   1  -9    7.51    1.35
  -4   1  -9    7.37    1.16
  -4   1  -9    6.22    1.21
  -4   1  -9    6.67    1.06
   4  -1   9    7.53    0.88
   4  -1   9    9.31    1.37
   4  -1   9    7.01    1.33
   4  -1   9    7.54    1.15
  -5   1  -9  104.03    3.78
  -5   1  -9   98.73    3.03
  -5   1  -9   96.84    3.41
   5  -1   9  102.00    3.66
   5  -1   9  102.83    3.03
   5  -1   9  101.65    3.65
  -6   1  -9   14.43    1.28
  -6   1  -9   14.65    1.57
  -6   1  -9   13.91    1.89
   6  -1   9   12.88    1.39
   6  -1   9   12.96    1.53
   6  -1   9   16.44    1.54
   6  -1   9   15.00    1.66
  -7   1  -9   27.16    1.66
  -7   1  -9   24.74    1.77
  -7   1  -9   26.43    2.23
   7  -1   9   22.89    2.04
   7  -1   9   22.38    2.13
   7  -1   9   26.26    1.82
  -8   1  -9    4.42    1.49
  -8   1  -9    4.58    1.46
  -8   1  -9    3.44    1.13
   8  -1   9    4.67    1.52
   8  -1   9    1.70    1.21
  -9   1  -9    0.72    1.14
  -9   1  -9    0.99    1.14
  -9   1  -9    0.72    1.51
   9  -1   9    0.88    1.18
   9  -1   9   -0.81    1.40
 -10   1  -9   -2.18    1.65
 -10   1  -9   -0.35    1.64
  10  -1   9    2.80    1.89
  10  -1   9    2.98    1.63
   8   0  -9    9.15    2.10
   8   0  -9    7.07    1.51
  -8   0   9    9.78    1.87
  -8   0   9   12.90    2.00
   7   0  -9   10.73    1.36
   7   0  -9   15.22    2.27
  -7   0   9   12.28    1.84
  -7   0   9   13.11    1.82
  -7   0   9   13.65    2.20
   6   0  -9   14.76    1.93
   6   0  -9   14.10    1.30
  -6   0   9   15.96    2.00
  -6   0   9   14.91    1.77
  -6   0   9   16.75    1.62
   5   0  -9    4.62    0.68
   5   0  -9    2.81    1.33
  -5   0   9    2.53    1.17
  -5   0   9    3.12    1.18
   4   0  -9    5.32    0.60
   4   0  -9    6.11    1.33
  -4   0   9    7.46    1.33
  -4   0   9    6.04    1.17
   3   0  -9    4.33    0.59
   3   0  -9    4.98    0.26
   3   0  -9    5.49    1.17
  -3   0   9    4.85    0.51
  -3   0   9    4.29    1.13
  -3   0   9    5.24    1.09
   2   0  -9   31.84    1.90
   2   0  -9   31.59    1.43
  -2   0   9   33.73    1.95
  -2   0   9   32.95    1.29
  -2   0   9   33.50    1.97
   1   0  -9   27.33    1.57
   1   0  -9   26.11    1.49
  -1   0   9   29.09    1.33
  -1   0   9   29.26    1.70
  -1   0   9   27.85    1.74
   0   0  -9   17.86    1.38
   0   0  -9   18.36    1.32
   0   0  -9   17.47    1.27
   0   0   9   17.41    1.48
   0   0   9   17.09    1.40
   0   0   9   18.30    1.14
  -1   0  -9   44.51    1.90
  -1   0  -9   44.92    2.01
  -1   0  -9   46.28    2.09
   1   0   9   45.89    1.92
   1   0   9   49.13    2.15
   1   0   9   46.40    2.15
  -2   0  -9   12.64    1.16
  -2   0  -9   10.83    1.12
   2   0   9   10.41    1.25
   2   0   9   10.38    1.06
   2   0   9   12.01    0.52
   2   0   9   10.99    1.16
  -3   0  -9   25.58    1.55
  -3   0  -9   28.59    1.54
  -3   0  -9   27.56    1.25
   3   0   9   27.94    1.07
   3   0   9   28.88    1.80
   3   0   9   30.18    1.73
  -4   0  -9   -0.43    0.74
  -4   0  -9    0.27    0.78
  -4   0  -9    0.62    0.70
   4   0   9    0.23    0.80
   4   0   9    0.58    0.49
   4   0   9   -0.65    0.81
  -5   0  -9   -0.20    0.78
  -5   0  -9    0.55    1.23
  -5   0  -9    0.57    0.72
  -5   0  -9    0.91    0.82
   5   0   9    0.70    0.61
   5   0   9   -1.07    0.76
   5   0   9    1.29    0.91
  -6   0  -9   29.53    2.02
  -6   0  -9   28.91    1.71
  -6   0  -9   30.67    1.81
   6   0   9   30.02    1.94
   6   0   9   30.95    2.01
   6   0   9   29.19    1.74
  -7   0  -9   31.86    2.22
  -7   0  -9   28.02    1.98
  -7   0  -9   31.33    1.81
   7   0   9   29.08    2.24
   7   0   9   29.13    2.17
   7   0   9   37.94    2.09
  -8   0  -9    9.77    1.61
  -8   0  -9   10.77    1.78
  -8   0  -9   10.76    1.46
   8   0   9   11.05    1.57
   8   0   9   10.58    1.72
   8   0   9   10.60    1.74
  -9   0  -9    3.10    1.48
  -9   0  -9    1.57    1.36
  -9   0  -9    3.35    1.27
   9   0   9    3.90    1.65
   9   0   9    4.05    1.26
 -10   0  -9    0.45    1.34
 -10   0  -9   -1.08    1.54
 -10   0  -9    1.95    1.31
  10   0   9   -0.49    1.33
  10   0   9    1.30    1.74
   7  -1  -9    2.26    1.14
   7  -1  -9    3.65    1.73
  -7   1   9    3.27    1.59
  -7   1   9    4.86    1.49
  -7   1   9    4.32    1.71
   6  -1  -9    1.68    0.90
   6  -1  -9    4.32    1.48
  -6   1   9    1.79    1.31
  -6   1   9    2.40    1.40
  -6   1   9    1.78    1.18
   5  -1  -9    0.50    1.16
   5  -1  -9   -0.75    0.58
  -5   1   9    1.28    1.20
  -5   1   9   -1.49    0.94
   4  -1  -9    0.40    1.02
   4  -1  -9    0.45    0.45
  -4   1   9   -0.50    0.95
  -4   1   9    0.42    0.90
  -4   1   9   -1.79    0.75
   3  -1  -9    5.62    0.44
   3  -1  -9    6.56    1.34
  -3   1   9    5.20    1.15
  -3   1   9    4.81    0.58
  -3   1   9    6.40    0.70
  -3   1   9    5.78    1.20
   2  -1  -9   33.43    1.46
   2  -1  -9   37.24    2.00
  -2   1   9   34.86    2.04
  -2   1   9   33.61    1.36
  -2   1   9   36.57    1.93
   1  -1  -9   -0.69    0.70
   1  -1  -9    1.36    0.85
  -1   1   9    0.78    0.54
  -1   1   9    0.39    0.71
  -1   1   9   -0.40    0.72
   0  -1  -9   28.16    1.65
   0  -1  -9   31.65    1.77
   0  -1  -9   31.18    1.53
   0   1   9   32.32    1.48
   0   1   9   30.17    1.74
   0   1   9   30.97    1.76
  -1  -1  -9  101.73    3.11
  -1  -1  -9  101.21    3.20
  -1  -1  -9  105.47    3.30
   1   1   9  103.13    3.49
   1   1   9  104.10    3.13
   1   1   9  100.71    3.29
  -2  -1  -9    5.98    1.05
  -2  -1  -9    6.43    1.00
   2   1   9    4.73    1.08
   2   1   9    5.44    0.31
   2   1   9    5.37    0.88
   2   1   9    6.76    1.03
   2   1   9    4.96    0.33
  -3  -1  -9    1.69    0.63
  -3  -1  -9    1.57    0.80
   3   1   9    2.35    0.74
   3   1   9    0.26    0.69
   3   1   9    0.87    0.37
  -4  -1  -9    2.92    0.90
  -4  -1  -9    4.93    0.90
  -4  -1  -9    3.04    0.91
   4   1   9    4.41    0.67
   4   1   9    2.93    0.83
   4   1   9    3.74    0.96
  -5  -1  -9    0.22    0.82
  -5  -1  -9   -0.56    0.71
  -5  -1  -9   -0.80    0.95
  -5  -1  -9   -0.06    0.79
   5   1   9   -0.02    0.85
   5   1   9    0.19    0.81
  -6  -1  -9    0.02    0.77
  -6  -1  -9   -0.42    0.62
  -6  -1  -9    1.22    0.92
   6   1   9   -0.63    0.81
   6   1   9   -0.90    0.84
   6   1   9    1.33    0.67
  -7  -1  -9   14.30    1.57
  -7  -1  -9   13.03    1.47
  -7  -1  -9   16.19    1.81
   7   1   9   15.91    1.62
   7   1   9   13.48    1.50
   7   1   9   17.26    1.47
  -8  -1  -9   35.71    2.25
  -8  -1  -9   33.55    2.03
  -8  -1  -9   34.39    2.27
   8   1   9   31.91    2.17
   8   1   9   33.09    2.16
   8   1   9   34.92    2.15
  -9  -1  -9   53.79    2.87
  -9  -1  -9   48.00    2.60
  -9  -1  -9   52.83    2.56
   9   1   9   54.31    2.80
   9   1   9   53.15    3.06
   9   1   9   53.21    2.78
 -10  -1  -9    1.52    1.57
 -10  -1  -9   -0.04    1.31
 -10  -1  -9    1.94    1.56
  10   1   9    0.71    1.55
  10   1   9    1.35    1.29
 -11  -1  -9    5.15    1.90
 -11  -1  -9    0.85    1.57
  11   1   9    0.59    1.82
  11   1   9    3.87    1.75
   7  -2  -9    1.03    1.17
   7  -2  -9   -0.39    1.70
  -7   2   9   -2.51    1.52
  -7   2   9    0.22    1.35
   6  -2  -9    1.75    0.94
   6  -2  -9   -0.55    1.42
  -6   2   9   -0.59    1.31
  -6   2   9    1.50    1.22
   5  -2  -9    3.65    0.86
   5  -2  -9    2.52    1.32
  -5   2   9    3.58    1.42
  -5   2   9    3.75    1.26
   4  -2  -9   -0.13    0.54
   4  -2  -9    1.57    1.10
  -4   2   9   -0.85    1.04
  -4   2   9    0.19    0.95
  -4   2   9   -0.81    1.02
   3  -2  -9   -0.01    0.38
   3  -2  -9    0.38    1.01
  -3   2   9   -0.21    0.91
  -3   2   9    0.14    0.69
  -3   2   9   -0.04    0.50
  -3   2   9   -0.05    0.47
  -3   2   9   -0.10    0.90
   2  -2  -9    7.89    1.22
   2  -2  -9    5.88    0.44
  -2   2   9    6.94    0.82
  -2   2   9    4.12    0.95
  -2   2   9    4.19    0.93
  -2   2   9    6.50    0.64
   1  -2  -9   -0.39    0.79
   1  -2  -9    0.19    0.81
  -1   2   9    0.32    0.75
  -1   2   9   -0.47    0.54
  -1   2   9    0.04    0.72
   0  -2  -9   71.00    2.46
   0  -2  -9   69.67    2.51
   0  -2  -9   70.31    2.65
   0   2   9   69.98    2.75
   0   2   9   72.03    2.39
   0   2   9   71.12    2.65
  -1  -2  -9   15.24    1.34
  -1  -2  -9   14.90    1.57
  -1  -2  -9   15.33    1.20
   1   2   9   16.97    1.23
   1   2   9   14.34    1.40
   1   2   9   15.58    1.30
  -2  -2  -9   15.27    1.34
  -2  -2  -9   14.78    1.08
   2   2   9   14.83    0.57
   2   2   9   16.12    0.61
   2   2   9   14.62    1.26
   2   2   9   14.39    1.26
   2   2   9   17.59    1.37
  -3  -2  -9    0.55    0.70
  -3  -2  -9    0.61    0.68
   3   2   9    1.06    0.77
   3   2   9   -0.20    0.59
   3   2   9    0.58    0.77
   3   2   9    0.90    0.38
  -4  -2  -9   16.76    1.36
  -4  -2  -9   17.01    1.42
   4   2   9   17.53    1.36
   4   2   9   19.15    1.03
   4   2   9   16.97    1.51
  -5  -2  -9   -0.64    0.74
  -5  -2  -9    0.32    0.92
  -5  -2  -9    0.20    0.77
  -5  -2  -9    1.01    0.78
   5   2   9    1.46    0.63
   5   2   9    0.18    0.84
   5   2   9    0.13    0.79
  -6  -2  -9   -1.02    0.79
  -6  -2  -9    0.78    0.89
  -6  -2  -9    1.55    0.86
   6   2   9    0.06    0.70
   6   2   9    2.30    0.96
   6   2   9    1.97    0.99
  -7  -2  -9   -0.47    0.90
  -7  -2  -9    0.79    0.93
  -7  -2  -9   -1.04    0.81
   7   2   9   -0.07    0.96
   7   2   9   -1.04    0.72
   7   2   9   -0.56    1.00
  -8  -2  -9    8.59    1.45
  -8  -2  -9    8.72    1.50
  -8  -2  -9    7.88    1.43
   8   2   9    8.60    1.61
   8   2   9    6.86    1.30
   8   2   9    7.92    1.33
  -9  -2  -9    7.60    1.51
  -9  -2  -9    6.03    1.29
  -9  -2  -9    5.79    1.40
   9   2   9    5.32    1.33
   9   2   9    7.69    1.37
   9   2   9    6.29    1.45
 -10  -2  -9    0.06    1.32
 -10  -2  -9    2.92    1.43
 -10  -2  -9    4.84    1.59
  10   2   9    4.27    1.68
  10   2   9    4.37    1.38
 -11  -2  -9   -1.76    1.56
 -11  -2  -9   -1.66    1.51
 -11  -2  -9   -1.05    1.49
  11   2   9   -0.93    1.59
  11   2   9    1.98    1.75
   6  -3  -9    3.10    1.11
   6  -3  -9    1.26    1.71
  -6   3   9    0.88    1.56
  -6   3   9    3.49    1.77
   5  -3  -9   -0.72    0.79
   5  -3  -9    1.54    1.31
  -5   3   9    1.68    1.29
  -5   3   9    2.29    1.14
   4  -3  -9   17.73    1.19
   4  -3  -9   18.16    1.97
  -4   3   9   17.33    1.92
  -4   3   9   17.73    0.91
  -4   3   9   22.33    2.05
   3  -3  -9   19.90    1.06
   3  -3  -9   21.45    1.89
  -3   3   9   17.15    1.80
  -3   3   9   21.69    1.92
  -3   3   9   17.62    1.46
  -3   3   9   22.23    1.18
  -3   3   9   19.73    1.15
   2  -3  -9    4.06    1.18
   2  -3  -9    3.11    0.50
  -2   3   9    2.24    1.03
  -2   3   9    4.11    0.81
  -2   3   9    3.23    0.74
  -2   3   9    4.43    1.13
   1  -3  -9    7.44    0.58
   1  -3  -9    7.80    1.10
   1  -3  -9    9.46    1.41
  -1   3   9    7.81    0.75
  -1   3   9    8.21    1.03
  -1   3   9    7.61    1.31
  -1   3   9    8.70    1.25
   0  -3  -9    5.77    1.13
   0  -3  -9    6.41    1.22
   0  -3  -9    8.85    0.97
   0   3   9    5.55    1.07
   0   3   9    5.61    1.21
   0   3   9    7.15    1.06
   0   3   9    6.23    0.59
  -1  -3  -9   17.33    1.45
  -1  -3  -9   15.70    1.16
   1   3   9   16.41    0.72
   1   3   9   15.07    0.72
   1   3   9   15.24    1.48
   1   3   9   12.91    1.20
   1   3   9   16.15    1.29
  -2  -3  -9   45.28    2.16
  -2  -3  -9   47.74    1.95
   2   3   9   47.08    1.43
   2   3   9   47.56    2.05
   2   3   9   44.05    2.05
   2   3   9   50.83    1.30
   2   3   9   47.48    2.19
  -3  -3  -9    1.43    0.87
  -3  -3  -9    2.16    0.92
  -3  -3  -9    0.94    0.72
   3   3   9    1.91    0.81
   3   3   9    1.86    0.80
   3   3   9    2.09    0.52
   3   3   9    1.97    0.73
   3   3   9    1.65    0.42
  -4  -3  -9    5.56    1.12
  -4  -3  -9    3.40    0.89
  -4  -3  -9    5.25    1.02
   4   3   9    5.17    1.11
   4   3   9    4.96    1.05
   4   3   9    5.23    0.74
  -5  -3  -9    6.01    1.18
  -5  -3  -9    5.21    1.06
  -5  -3  -9    6.31    1.08
   5   3   9    6.84    1.17
   5   3   9    6.51    1.26
   5   3   9    7.26    0.96
  -6  -3  -9   32.50    1.77
  -6  -3  -9   34.63    1.98
  -6  -3  -9   36.48    1.84
  -6  -3  -9   31.95    2.07
   6   3   9   32.73    1.69
   6   3   9   33.91    2.02
   6   3   9   28.66    2.03
  -7  -3  -9   61.09    2.65
  -7  -3  -9   59.65    2.62
  -7  -3  -9   59.70    2.49
   7   3   9   62.61    2.54
   7   3   9   67.22    2.70
   7   3   9   61.61    2.83
  -8  -3  -9   40.41    2.18
  -8  -3  -9   43.05    2.27
  -8  -3  -9   43.17    2.35
   8   3   9   45.46    2.65
   8   3   9   46.43    2.36
   8   3   9   42.91    2.29
  -9  -3  -9    1.54    1.24
  -9  -3  -9    2.75    1.19
  -9  -3  -9    1.80    1.26
   9   3   9    2.26    1.18
   9   3   9   -1.53    1.20
   9   3   9    0.34    1.06
 -10  -3  -9    7.29    1.72
 -10  -3  -9    5.25    1.55
 -10  -3  -9    5.02    1.53
  10   3   9    5.12    1.49
  10   3   9    7.27    1.82
  10   3   9    5.46    1.39
 -11  -3  -9    8.65    1.91
 -11  -3  -9    9.94    1.74
 -11  -3  -9    5.96    1.57
  11   3   9    3.77    1.71
  11   3   9    4.52    2.00
   6  -4  -9    4.02    1.28
   6  -4  -9    4.42    1.90
  -6   4   9    4.13    1.81
   5  -4  -9   14.57    1.52
   5  -4  -9   16.48    2.17
  -5   4   9   16.78    2.45
  -5   4   9   19.63    2.36
   4  -4  -9    2.01    1.30
   4  -4  -9   -0.32    0.82
  -4   4   9    0.89    1.30
  -4   4   9   -0.17    0.72
  -4   4   9    0.73    1.25
   3  -4  -9   -0.53    1.08
   3  -4  -9    0.44    0.67
  -3   4   9    1.95    1.15
  -3   4   9    0.17    0.93
  -3   4   9   -0.10    0.78
   2  -4  -9    7.26    1.51
   2  -4  -9    6.03    0.76
  -2   4   9    6.46    1.28
  -2   4   9    4.97    1.48
  -2   4   9    6.82    1.10
  -2   4   9    6.84    1.43
  -2   4   9    7.87    1.08
   1  -4  -9   16.74    1.63
   1  -4  -9   15.16    0.88
   1  -4  -9   15.84    1.29
  -1   4   9   14.81    1.65
  -1   4   9   14.19    1.17
  -1   4   9   14.65    1.51
  -1   4   9   17.65    1.23
   0  -4  -9   13.36    1.49
   0  -4  -9   13.38    1.11
   0   4   9   12.85    1.31
   0   4   9   12.62    0.99
   0   4   9   13.01    1.35
   0   4   9   13.32    1.33
  -1  -4  -9    1.70    0.66
  -1  -4  -9    1.52    0.96
   1   4   9    2.12    0.86
   1   4   9    1.04    0.79
   1   4   9    0.85    0.92
   1   4   9    2.65    0.56
  -2  -4  -9    3.71    0.87
  -2  -4  -9    3.64    1.05
   2   4   9    2.87    0.98
   2   4   9    3.24    0.95
   2   4   9    3.16    0.84
   2   4   9    4.17    0.56
   2   4   9    3.56    0.63
  -3  -4  -9    0.83    0.70
  -3  -4  -9   -0.09    0.81
  -3  -4  -9   -1.40    0.85
   3   4   9    0.05    0.77
   3   4   9    0.39    0.52
   3   4   9    0.24    0.68
   3   4   9    0.75    0.46
  -4  -4  -9   -0.72    0.83
  -4  -4  -9    0.28    0.68
  -4  -4  -9   -0.56    0.69
   4   4   9    0.17    0.81
   4   4   9    1.51    0.57
   4   4   9    0.36    0.58
   4   4   9    0.69    0.83
  -5  -4  -9    5.92    0.95
  -5  -4  -9    5.58    1.23
  -5  -4  -9    6.87    1.06
   5   4   9    6.34    1.20
   5   4   9    7.02    1.19
  -6  -4  -9   28.97    1.62
  -6  -4  -9   30.06    1.77
  -6  -4  -9   28.72    1.94
  -6  -4  -9   27.57    1.54
   6   4   9   30.15    1.71
   6   4   9   27.89    2.00
   6   4   9   30.40    1.85
  -7  -4  -9   42.61    2.26
  -7  -4  -9   44.35    2.21
  -7  -4  -9   38.89    1.94
   7   4   9   44.54    2.21
   7   4   9   43.25    2.19
   7   4   9   40.60    2.50
  -8  -4  -9    6.59    1.45
  -8  -4  -9    6.04    1.28
  -8  -4  -9    5.42    1.13
   8   4   9    7.48    1.37
   8   4   9    6.91    1.29
   8   4   9    7.83    1.45
  -9  -4  -9   24.86    2.07
  -9  -4  -9   26.60    1.83
  -9  -4  -9   25.05    2.02
   9   4   9   28.24    2.13
   9   4   9   24.62    1.91
   9   4   9   26.85    2.35
 -10  -4  -9    2.20    1.47
 -10  -4  -9    0.47    1.15
 -10  -4  -9   -0.97    1.21
  10   4   9   -2.06    1.36
  10   4   9    0.06    1.27
  10   4   9    1.43    1.20
 -11  -4  -9    5.38    1.73
 -11  -4  -9    3.50    1.61
 -11  -4  -9    3.65    1.35
  11   4   9    4.72    1.50
  11   4   9    0.23    1.38
   5  -5  -9    4.25    1.29
   5  -5  -9    3.68    1.73
  -5   5   9    0.35    1.82
  -5   5   9    2.30    1.77
   4  -5  -9    5.45    1.69
   4  -5  -9    4.56    1.12
  -4   5   9    7.07    1.77
  -4   5   9    5.78    1.74
   3  -5  -9   21.38    2.08
   3  -5  -9   19.49    1.40
  -3   5   9   16.84    2.15
  -3   5   9   20.53    1.61
  -3   5   9   20.44    2.05
   2  -5  -9    5.40    1.02
   2  -5  -9    7.03    1.42
   2  -5  -9    5.93    0.87
  -2   5   9    6.50    1.44
  -2   5   9    6.49    1.16
  -2   5   9    8.01    1.63
   1  -5  -9    1.36    0.75
   1  -5  -9    0.99    1.06
  -1   5   9    0.81    0.87
  -1   5   9   -1.38    1.03
  -1   5   9   -0.03    1.06
  -1   5   9    1.24    0.95
   0  -5  -9   28.25    1.95
   0  -5  -9   28.85    1.26
   0  -5  -9   24.62    1.40
   0   5   9   25.56    1.84
   0   5   9   24.88    1.52
   0   5   9   28.93    1.75
   0   5   9   22.38    1.68
  -1  -5  -9   73.96    2.93
  -1  -5  -9   68.32    2.32
   1   5   9   70.93    2.65
   1   5   9   71.72    2.20
   1   5   9   70.56    2.76
   1   5   9   69.09    3.05
  -2  -5  -9    1.02    0.81
  -2  -5  -9    1.24    0.64
   2   5   9    1.87    0.67
   2   5   9   -0.65    0.76
   2   5   9    0.32    0.72
   2   5   9    0.20    0.65
  -3  -5  -9   13.65    1.13
  -3  -5  -9   12.34    1.34
  -3  -5  -9   10.64    1.40
   3   5   9   14.41    1.13
   3   5   9   12.04    1.00
   3   5   9   13.77    1.51
   3   5   9   11.62    1.42
  -4  -5  -9    8.49    1.14
  -4  -5  -9    8.69    1.04
  -4  -5  -9    8.46    1.29
   4   5   9    8.30    1.04
   4   5   9    9.69    0.97
   4   5   9    5.56    1.27
   4   5   9    9.71    1.38
   4   5   9    8.12    1.02
  -5  -5  -9    0.30    0.78
  -5  -5  -9    0.24    0.75
  -5  -5  -9   -1.28    0.79
   5   5   9    0.44    0.93
   5   5   9    1.17    0.72
   5   5   9    0.24    0.63
  -6  -5  -9    1.64    0.85
  -6  -5  -9    2.92    0.95
  -6  -5  -9    1.28    0.73
  -6  -5  -9    1.59    0.78
   6   5   9    1.26    0.79
   6   5   9    2.40    0.95
   6   5   9    2.66    0.92
  -7  -5  -9   14.70    1.47
  -7  -5  -9   12.48    1.57
  -7  -5  -9   12.86    1.24
  -7  -5  -9   13.21    1.24
   7   5   9   13.14    1.45
   7   5   9   14.75    1.81
   7   5   9   13.07    1.46
  -8  -5  -9    0.43    0.93
  -8  -5  -9   -1.10    1.01
  -8  -5  -9    1.29    0.82
  -8  -5  -9   -0.60    0.93
   8   5   9    1.74    1.03
   8   5   9    1.22    0.92
   8   5   9    0.73    1.00
  -9  -5  -9    3.02    1.38
  -9  -5  -9    0.36    1.09
   9   5   9    0.40    1.05
   9   5   9    0.28    1.27
   9   5   9    0.56    1.06
 -10  -5  -9    0.62    1.28
 -10  -5  -9    3.24    1.47
 -10  -5  -9    1.11    0.95
  10   5   9    2.60    1.57
  10   5   9    1.73    1.38
  10   5   9    2.63    1.24
 -11  -5  -9   10.29    1.38
 -11  -5  -9    9.35    1.89
 -11  -5  -9   10.86    2.10
  11   5   9   11.37    1.61
  11   5   9   13.61    2.38
  11   5   9   13.05    2.14
   4  -6  -9    5.23    1.90
   4  -6  -9    3.81    1.32
  -4   6   9    3.50    1.39
  -4   6   9    3.97    1.81
  -4   6   9    6.68    1.94
   3  -6  -9    4.64    1.10
   3  -6  -9   10.45    1.76
   3  -6  -9    4.59    1.09
  -3   6   9    3.11    1.21
  -3   6   9    3.79    1.70
  -3   6   9    4.28    1.54
   2  -6  -9    6.83    1.54
   2  -6  -9    6.07    1.01
   2  -6  -9    7.47    1.05
  -2   6   9    5.98    1.24
  -2   6   9    6.55    1.43
  -2   6   9    7.26    1.55
   1  -6  -9    3.11    0.80
   1  -6  -9    4.33    0.89
   1  -6  -9    4.52    1.38
  -1   6   9    2.65    1.07
  -1   6   9    3.04    1.38
  -1   6   9    5.51    1.26
   0  -6  -9    0.10    0.96
   0  -6  -9    0.27    0.61
   0  -6  -9    0.54    0.71
   0  -6  -9    0.51    1.07
   0   6   9    1.08    1.12
   0   6   9    1.23    0.91
   0   6   9    2.36    1.05
  -1  -6  -9    3.56    0.96
  -1  -6  -9    3.34    1.03
  -1  -6  -9    2.56    0.75
   1   6   9    1.83    0.97
   1   6   9    2.92    1.11
   1   6   9    2.23    1.19
  -2  -6  -9   33.11    1.56
  -2  -6  -9   34.15    2.16
   2   6   9   37.42    1.78
   2   6   9   34.88    2.11
   2   6   9   38.78    2.20
   2   6   9   36.59    1.87
  -3  -6  -9   13.76    1.52
  -3  -6  -9   14.76    1.18
  -3  -6  -9   15.16    1.63
   3   6   9   14.30    1.55
   3   6   9   16.13    1.46
   3   6   9   14.44    1.17
  -4  -6  -9    5.06    1.24
  -4  -6  -9    4.44    0.88
  -4  -6  -9    5.15    0.94
   4   6   9    4.59    0.84
   4   6   9    5.04    1.11
   4   6   9    5.14    1.02
   4   6   9    3.43    1.14
  -5  -6  -9    1.48    0.79
  -5  -6  -9    2.40    0.77
  -5  -6  -9    0.84    1.05
   5   6   9    0.75    0.82
   5   6   9    1.20    0.92
   5   6   9    2.18    0.96
  -6  -6  -9   19.31    1.12
  -6  -6  -9   17.97    1.18
  -6  -6  -9   15.09    1.71
  -6  -6  -9   17.15    1.40
   6   6   9   19.17    1.86
   6   6   9   20.48    1.54
   6   6   9   18.08    1.64
  -7  -6  -9    6.99    1.45
  -7  -6  -9    7.32    0.92
  -7  -6  -9    8.57    0.93
  -7  -6  -9    9.48    1.34
   7   6   9    7.58    1.32
   7   6   9    7.81    1.32
   7   6   9    6.09    1.31
  -8  -6  -9   -0.30    0.70
  -8  -6  -9    1.44    0.96
  -8  -6  -9    1.13    0.61
  -8  -6  -9   -0.97    1.13
   8   6   9   -0.20    1.16
   8   6   9   -0.42    1.00
   8   6   9   -0.12    0.98
  -9  -6  -9    0.86    0.67
  -9  -6  -9    2.94    1.40
  -9  -6  -9   -0.82    1.05
   9   6   9    2.03    1.39
   9   6   9    0.23    1.03
   9   6   9    2.57    1.24
 -10  -6  -9   -0.97    1.25
 -10  -6  -9    1.35    0.78
 -10  -6  -9   -0.35    1.37
  10   6   9    2.53    1.26
  10   6   9   -0.12    1.22
  10   6   9    0.73    1.16
 -11  -6  -9   20.34    2.28
 -11  -6  -9   19.71    2.35
  11   6   9   22.01    2.02
  11   6   9   18.64    2.48
  11   6   9   22.16    2.70
   3  -7  -9    0.51    1.14
   3  -7  -9   -0.53    1.49
  -3   7   9    1.22    1.62
  -3   7   9    0.42    1.41
  -3   7   9    1.98    1.67
   2  -7  -9   -1.27    1.37
   2  -7  -9    1.03    1.00
   2  -7  -9    3.54    1.03
  -2   7   9    1.34    1.63
  -2   7   9    4.47    1.35
  -2   7   9    0.42    1.31
   1  -7  -9   16.29    1.97
   1  -7  -9   15.83    1.54
  -1   7   9   19.26    2.05
  -1   7   9   22.37    2.40
  -1   7   9   18.99    1.99
   0  -7  -9    1.83    0.91
   0  -7  -9   -0.18    1.14
   0  -7  -9    1.93    0.78
   0   7   9    2.58    1.14
   0   7   9    1.73    1.05
   0   7   9    2.31    1.17
  -1  -7  -9    9.52    1.09
  -1  -7  -9   12.91    1.82
   1   7   9   12.38    1.56
   1   7   9   13.59    1.74
   1   7   9    9.09    1.67
  -2  -7  -9    3.60    0.88
  -2  -7  -9    2.01    1.23
  -2  -7  -9    4.65    0.85
   2   7   9    2.96    0.99
   2   7   9    2.44    1.22
   2   7   9    3.57    1.25
  -3  -7  -9    6.42    1.14
  -3  -7  -9    7.04    1.08
  -3  -7  -9    8.56    1.34
  -3  -7  -9    6.37    1.45
   3   7   9    4.09    1.31
   3   7   9    7.00    1.43
   3   7   9    5.60    0.99
  -4  -7  -9    2.59    0.85
  -4  -7  -9    3.20    1.00
  -4  -7  -9    3.02    1.24
   4   7   9    2.72    1.14
   4   7   9    2.05    0.92
   4   7   9    1.17    0.95
   4   7   9    2.22    0.75
  -5  -7  -9    8.60    1.05
  -5  -7  -9    7.04    0.90
  -5  -7  -9    7.60    1.52
   5   7   9    8.17    1.42
   5   7   9    7.78    1.41
   5   7   9    8.66    1.38
  -6  -7  -9   15.25    0.89
  -6  -7  -9   17.71    1.36
  -6  -7  -9   16.97    0.96
  -6  -7  -9   19.59    1.71
   6   7   9   16.62    1.60
   6   7   9   20.02    1.77
   6   7   9   18.85    1.96
  -7  -7  -9    0.34    0.86
  -7  -7  -9   -0.94    1.04
   7   7   9   -0.44    1.18
   7   7   9    1.24    1.10
   7   7   9    0.94    1.01
  -8  -7  -9    8.20    1.41
  -8  -7  -9   10.47    1.85
   8   7   9    9.43    1.52
   8   7   9    7.03    1.69
   8   7   9    8.61    1.47
  -9  -7  -9    6.52    1.38
  -9  -7  -9    8.56    1.79
   9   7   9    7.82    1.58
   9   7   9    7.08    1.51
   9   7   9    5.71    1.37
 -10  -7  -9   -0.67    1.39
 -10  -7  -9    1.74    1.32
  10   7   9   -0.30    1.16
  10   7   9    0.48    1.51
  10   7   9   -0.55    1.30
 -11  -7  -9    2.90    1.55
 -11  -7  -9    2.23    2.98
  11   7   9    1.43    1.75
  11   7   9    0.18    1.22
  11   7   9    0.13    1.47
   2  -8  -9   15.51    2.19
   2  -8  -9   11.71    1.66
  -2   8   9    9.32    2.71
  -2   8   9   11.04    2.05
  -2   8   9   12.92    2.26
   1  -8  -9   12.13    1.48
   1  -8  -9   13.54    2.12
  -1   8   9   15.04    1.94
  -1   8   9   14.67    2.32
  -1   8   9   12.99    2.00
   0  -8  -9    3.18    1.18
   0  -8  -9    5.49    0.78
   0  -8  -9    6.23    1.60
   0   8   9    6.11    1.44
   0   8   9    4.94    1.66
   0   8   9    6.40    1.75
  -1  -8  -9   56.17    2.96
  -1  -8  -9   57.10    1.79
   1   8   9   58.79    2.64
   1   8   9   61.19    3.30
   1   8   9   61.34    3.06
  -2  -8  -9    3.62    1.36
  -2  -8  -9    0.75    0.68
   2   8   9    2.07    1.26
   2   8   9    3.36    1.33
   2   8   9    1.35    1.04
  -3  -8  -9   15.21    1.12
  -3  -8  -9   15.91    2.04
   3   8   9   16.15    1.84
   3   8   9   16.15    2.01
   3   8   9   16.00    1.46
  -4  -8  -9   13.03    1.66
  -4  -8  -9   11.83    1.84
   4   8   9   13.71    1.86
   4   8   9    9.85    1.10
   4   8   9   12.33    1.83
  -5  -8  -9    8.83    1.72
  -5  -8  -9   10.76    1.13
  -5  -8  -9    7.41    0.94
   5   8   9    9.08    1.63
   5   8   9    7.16    1.67
   5   8   9    8.77    1.46
  -6  -8  -9    0.63    1.24
  -6  -8  -9    0.18    0.83
   6   8   9   -0.11    1.07
   6   8   9   -0.80    1.23
   6   8   9   -0.52    1.01
  -7  -8  -9    0.37    0.96
  -7  -8  -9    0.23    1.27
   7   8   9   -0.51    0.88
   7   8   9    0.03    1.09
   7   8   9    2.36    1.17
  -8  -8  -9   -0.18    0.97
  -8  -8  -9    0.97    1.39
   8   8   9   -0.57    1.07
   8   8   9   -0.88    1.19
   8   8   9    1.29    1.41
  -9  -8  -9    2.84    1.19
  -9  -8  -9    1.75    1.53
   9   8   9    2.64    1.25
   9   8   9    1.13    1.19
   9   8   9    2.59    1.31
 -10  -8  -9    1.42    1.58
 -10  -8  -9   -0.18    1.21
  10   8   9    0.88    1.59
  10   8   9   -0.13    1.25
  10   8   9    2.54    1.37
 -11  -8  -9    0.31    1.42
 -11  -8  -9   -3.11    1.69
  11   8   9   -1.19    1.54
  11   8   9   -1.15    1.45
  11   8   9   -1.15    1.76
   0  -9  -9    0.82    1.09
   0  -9  -9   -0.33    1.60
   0   9   9    1.79    1.32
   0   9   9    0.13    1.53
   0   9   9    3.29    1.82
  -1  -9  -9    3.52    1.52
  -1  -9  -9    0.17    1.06
   1   9   9    0.26    1.58
   1   9   9    0.00    1.45
   1   9   9    0.44    1.24
  -2  -9  -9   -0.49    1.42
   2   9   9    0.52    1.15
   2   9   9    0.36    1.13
   2   9   9    0.14    1.35
  -3  -9  -9    1.00    1.26
  -3  -9  -9   -0.39    0.56
   3   9   9   -1.13    1.00
   3   9   9    1.56    1.44
   3   9   9    1.10    1.03
  -4  -9  -9    4.04    1.52
  -4  -9  -9    3.53    0.78
   4   9   9    6.81    1.64
   4   9   9    3.49    0.86
   4   9   9    2.42    1.22
  -5  -9  -9   -0.72    0.76
  -5  -9  -9    1.16    1.30
   5   9   9    1.89    1.29
   5   9   9    1.16    1.35
   5   9   9   -0.14    1.18
  -6  -9  -9    2.77    0.93
  -6  -9  -9   -1.12    0.99
   6   9   9    1.96    1.21
   6   9   9    0.30    1.09
   6   9   9    1.40    1.38
  -7  -9  -9    3.65    1.08
  -7  -9  -9    4.26    1.59
   7   9   9    6.82    1.48
   7   9   9    2.06    1.25
   7   9   9    5.16    1.68
  -8  -9  -9   -0.18    1.51
  -8  -9  -9    2.27    1.14
   8   9   9    2.06    1.31
   8   9   9    4.07    1.59
   8   9   9    2.74    1.46
  -9  -9  -9   11.95    2.22
  -9  -9  -9   11.06    1.56
   9   9   9   10.18    1.90
   9   9   9    8.74    1.61
   9   9   9    9.41    2.25
 -10  -9  -9    0.91    1.84
 -10  -9  -9   -0.06    1.22
  10   9   9    1.77    1.50
  10   9   9    0.50    1.46
  10   9   9    0.85    1.79
  -1 -10  -9    2.64    1.87
   1  10   9    3.60    1.67
   1  10   9    1.37    1.91
   1  10   9    5.53    2.40
  -2 -10  -9    3.74    1.86
   2  10   9    1.52    1.72
   2  10   9    4.17    1.86
   2  10   9    2.68    1.41
  -3 -10  -9    2.45    1.62
   3  10   9    5.88    1.55
   3  10   9    7.37    1.93
   3  10   9    3.53    1.30
  -4 -10  -9    1.91    1.53
   4  10   9    0.09    0.91
   4  10   9   -1.12    1.40
   4  10   9   -0.99    1.51
  -5 -10  -9   13.71    2.16
  -5 -10  -9    8.89    1.08
   5  10   9   13.41    2.15
   5  10   9   10.99    1.97
  -6 -10  -9    0.08    0.89
  -6 -10  -9    0.92    1.49
   6  10   9    2.73    1.32
   6  10   9   -0.37    1.15
   6  10   9    1.55    1.42
  -7 -10  -9    0.04    0.95
  -7 -10  -9    0.10    1.55
   7  10   9   -0.38    1.18
   7  10   9    1.50    1.54
   7  10   9   -1.51    1.40
  -8 -10  -9    3.96    1.16
  -8 -10  -9    1.77    1.69
   8  10   9    0.04    1.57
   8  10   9    0.56    1.45
   8  10   9    2.42    1.49
  -9 -10  -9   -0.81    1.17
  -9 -10  -9    3.70    1.96
   9  10   9    0.13    1.59
   9  10   9    3.30    1.52
   9  10   9   -0.77    1.81
 -10 -10  -9    0.91    1.29
 -10 -10  -9   -0.17    2.01
  10  10   9    2.08    1.67
  10  10   9    0.37    2.01
  10  10   9   -0.14    1.57
  -4 -11  -9    7.91    1.94
   4  11   9    2.44    2.07
   4  11   9    7.94    2.13
  -5 -11  -9   -0.08    1.63
   5  11   9    2.63    1.88
   5  11   9   -1.25    1.57
  -6 -11  -9    0.11    1.72
   6  11   9    3.38    1.95
   6  11   9   -0.06    1.63
   6  11   9   -3.01    1.50
  -7 -11  -9   -2.23    1.68
   7  11   9    0.50    1.57
   7  11   9   -1.44    2.06
   7  11   9    0.96    1.65
  -8 -11  -9    0.03    1.12
   8  11   9    1.98    1.64
   8  11   9    0.59    1.68
   8  11   9    3.22    2.22
   5   9 -10    0.48    1.81
   5   9 -10    2.33    1.72
   4   9 -10    1.50    1.55
   4   9 -10    0.01    1.55
   3   9 -10   21.50    2.30
   3   9 -10   21.00    2.41
   2   9 -10    0.00    1.98
   2   9 -10   -1.05    1.41
   2   9 -10    4.94    1.56
  -2  -9  10    0.16    1.30
   1   9 -10    7.11    1.73
   1   9 -10    8.72    1.59
   1   9 -10    9.61    2.43
  -1  -9  10    5.59    1.77
  -1  -9  10    8.09    1.38
   0   9 -10    1.42    1.50
   0   9 -10    5.30    2.28
   0  -9  10    1.58    1.57
   0  -9  10    3.96    1.34
   6   8 -10    0.34    1.53
   6   8 -10   -0.50    1.75
   6   8 -10   -1.04    1.48
   5   8 -10    0.97    1.43
   5   8 -10   -0.68    1.60
   4   8 -10    8.27    1.79
   4   8 -10   11.77    1.82
   4   8 -10   10.14    1.83
   3   8 -10   15.25    2.04
   3   8 -10   14.86    1.95
   2   8 -10   14.10    1.86
   2   8 -10   17.99    1.97
  -2  -8  10   16.70    1.91
   1   8 -10    0.26    1.22
   1   8 -10    0.54    1.73
   1   8 -10    0.40    1.27
  -1  -8  10   -0.90    1.15
  -1  -8  10   -0.78    0.83
   0   8 -10    0.65    1.15
   0   8 -10   -1.86    1.29
   0   8 -10    0.34    1.84
   0  -8  10    1.11    0.94
   0  -8  10    1.39    1.38
  -1   8 -10    3.51    2.13
  -1   8 -10    3.21    1.51
   1  -8  10    1.14    1.13
   1  -8  10    5.16    1.59
  -2   8 -10    0.31    1.96
  -2   8 -10   -0.53    1.49
   2  -8  10    5.29    1.68
   2  -8  10   -0.92    1.06
   7   7 -10    0.49    1.81
   7   7 -10    0.68    1.53
  -7  -7  10    1.14    1.55
  -7  -7  10    0.75    1.74
   6   7 -10    6.23    1.56
   6   7 -10    4.35    1.41
   6   7 -10    8.26    1.99
  -6  -7  10    7.25    1.75
  -6  -7  10    5.30    1.78
   5   7 -10    5.96    1.66
   5   7 -10    2.22    1.38
  -5  -7  10    4.76    1.40
  -5  -7  10    5.66    1.54
   4   7 -10    3.11    1.27
   4   7 -10    3.85    1.42
  -4  -7  10    1.00    1.31
   3   7 -10   11.53    1.75
   3   7 -10   14.58    1.88
  -3  -7  10   14.19    1.53
  -3  -7  10   11.08    1.87
   2   7 -10    2.51    1.24
   2   7 -10    3.61    1.27
  -2  -7  10    4.41    1.61
  -2  -7  10    3.01    1.11
   1   7 -10    0.42    1.07
   1   7 -10   -0.38    1.02
  -1  -7  10   -0.84    1.29
  -1  -7  10    1.80    1.13
   0   7 -10   -0.83    1.03
   0   7 -10   -0.31    1.13
   0   7 -10    1.22    1.61
   0  -7  10   -0.15    0.80
   0  -7  10   -2.09    1.06
  -1   7 -10    6.51    1.20
  -1   7 -10    6.30    1.94
  -1   7 -10    7.06    1.59
   1  -7  10    5.30    1.17
   1  -7  10    5.99    1.30
  -2   7 -10    1.74    1.38
  -2   7 -10    0.93    1.39
   2  -7  10   -0.95    0.97
   2  -7  10    0.09    1.25
  -3   7 -10    7.45    2.20
  -3   7 -10    6.88    1.72
   3  -7  10    3.43    1.17
   3  -7  10    7.33    1.77
  -4   7 -10   14.25    2.14
   4  -7  10   11.47    1.68
   7   6 -10   19.23    2.63
   7   6 -10   13.35    1.75
  -7  -6  10   17.58    2.10
  -7  -6  10   15.30    2.40
   6   6 -10    4.65    1.33
   6   6 -10    5.59    1.67
   6   6 -10    3.95    1.05
  -6  -6  10    2.89    1.69
  -6  -6  10    3.85    1.46
   5   6 -10    6.71    1.63
   5   6 -10    5.52    1.23
  -5  -6  10    4.83    1.35
  -5  -6  10    6.84    1.63
   4   6 -10    0.97    1.02
   4   6 -10    4.45    1.47
  -4  -6  10    1.96    1.23
  -4  -6  10    1.21    1.21
   3   6 -10    0.86    0.96
   3   6 -10   -0.01    1.15
  -3  -6  10    1.91    1.15
  -3  -6  10    0.45    0.83
   2   6 -10    5.83    1.34
   2   6 -10    7.11    1.35
  -2  -6  10    6.66    1.54
  -2  -6  10    5.24    1.15
   1   6 -10    7.30    1.37
   1   6 -10    6.69    1.35
  -1  -6  10    6.78    1.31
  -1  -6  10   10.17    1.73
   0   6 -10   31.24    1.84
   0   6 -10   30.93    2.05
   0  -6  10   28.07    1.51
   0  -6  10   31.58    2.25
   0  -6  10   29.18    2.02
  -1   6 -10    0.66    1.10
  -1   6 -10    3.31    1.21
  -1   6 -10    2.49    1.02
   1  -6  10    1.20    1.21
   1  -6  10    2.17    0.80
   1  -6  10    3.18    1.24
  -2   6 -10    4.28    1.55
  -2   6 -10    4.43    1.45
  -2   6 -10    4.83    1.35
   2  -6  10    5.73    1.08
   2  -6  10    4.66    1.44
  -3   6 -10   -0.64    1.16
  -3   6 -10    2.01    1.39
  -3   6 -10    0.90    0.70
   3  -6  10    1.23    1.27
   3  -6  10   -1.30    0.82
  -4   6 -10    5.42    1.62
  -4   6 -10    6.01    2.22
   4  -6  10    4.97    1.41
   4  -6  10    6.36    1.27
  -5   6 -10    3.32    1.75
  -5   6 -10   -0.56    1.90
   5  -6  10   -0.04    1.43
   5  -6  10   -0.14    1.19
   8   5 -10    4.87    1.54
   8   5 -10    5.29    2.47
  -8  -5  10    4.90    1.64
  -8  -5  10    3.46    1.74
   7   5 -10    4.83    1.89
   7   5 -10    2.61    1.30
  -7  -5  10    1.92    1.65
  -7  -5  10    5.58    1.45
   6   5 -10    1.30    1.22
   6   5 -10    0.95    1.12
  -6  -5  10    0.60    1.42
  -6  -5  10    0.84    1.32
   5   5 -10    5.51    1.58
   5   5 -10    2.19    0.91
  -5  -5  10    4.19    1.25
  -5  -5  10    3.11    1.41
   4   5 -10    2.73    1.23
   4   5 -10    1.86    0.83
  -4  -5  10    0.46    1.16
  -4  -5  10    2.93    1.24
   3   5 -10    0.87    0.73
   3   5 -10    1.85    1.09
  -3  -5  10   -1.84    1.05
  -3  -5  10   -0.25    0.70
  -3  -5  10   -0.31    0.89
   2   5 -10   18.44    1.72
   2   5 -10   17.29    1.31
   2   5 -10   16.72    1.65
  -2  -5  10   14.73    1.35
  -2  -5  10   20.81    1.97
   1   5 -10    2.58    0.98
   1   5 -10    0.95    0.91
   1   5 -10    1.82    0.88
  -1  -5  10    1.76    0.93
  -1  -5  10    1.42    0.89
   0   5 -10   -0.25    1.07
   0   5 -10    0.73    0.98
   0   5 -10   -0.59    0.84
   0  -5  10   -1.21    1.10
   0  -5  10    0.68    0.88
   0  -5  10   -0.07    0.59
  -1   5 -10    6.03    1.13
  -1   5 -10    6.41    1.27
   1  -5  10    6.13    1.54
   1  -5  10    4.89    0.81
   1  -5  10    7.65    1.33
  -2   5 -10    1.81    1.07
  -2   5 -10    1.28    0.99
  -2   5 -10   -0.63    0.84
   2  -5  10    0.78    0.71
   2  -5  10    1.60    1.03
   2  -5  10   -0.04    1.12
  -3   5 -10   35.55    2.23
  -3   5 -10   33.44    1.57
  -3   5 -10   35.42    2.54
   3  -5  10   33.01    2.32
   3  -5  10   34.90    2.63
   3  -5  10   34.69    1.80
  -4   5 -10   10.14    0.99
  -4   5 -10   15.94    1.89
  -4   5 -10    9.77    1.95
   4  -5  10   13.53    2.00
   4  -5  10   11.03    1.34
  -5   5 -10   53.41    2.92
  -5   5 -10   47.74    3.12
   5  -5  10   51.04    3.09
   5  -5  10   51.39    2.43
  -6   5 -10    1.10    1.58
  -6   5 -10   -0.76    1.72
   6  -5  10   -0.08    1.39
   6  -5  10   -0.53    1.10
   8   4 -10   -1.97    2.12
   8   4 -10    0.65    1.53
  -8  -4  10   -1.06    1.57
  -8  -4  10   -0.46    1.52
   7   4 -10    2.77    1.17
   7   4 -10    3.18    1.66
  -7  -4  10    3.53    1.32
  -7  -4  10    0.54    1.64
   6   4 -10    2.34    0.84
   6   4 -10    3.54    1.50
  -6  -4  10    1.39    1.33
  -6  -4  10    4.21    1.29
   5   4 -10    0.25    0.70
   5   4 -10    0.05    1.14
  -5  -4  10    1.16    1.22
  -5  -4  10   -0.61    1.21
   4   4 -10    2.26    1.22
   4   4 -10    2.24    0.64
   4   4 -10    1.87    0.60
  -4  -4  10    4.25    1.29
  -4  -4  10    4.12    1.16
   3   4 -10    5.70    0.65
   3   4 -10    3.86    0.64
   3   4 -10    5.00    1.38
   3   4 -10    5.85    1.34
  -3  -4  10    4.34    1.11
  -3  -4  10    5.57    1.40
  -3  -4  10    6.33    0.90
   2   4 -10   33.74    2.04
   2   4 -10   35.22    1.98
   2   4 -10   37.20    1.35
   2   4 -10   36.60    1.31
  -2  -4  10   39.00    2.39
  -2  -4  10   37.89    1.75
  -2  -4  10   37.25    2.36
   1   4 -10  143.76    3.47
   1   4 -10  148.34    4.47
   1   4 -10  148.11    4.35
  -1  -4  10  147.80    4.17
  -1  -4  10  151.74    4.89
   0   4 -10    0.51    0.83
   0   4 -10    1.61    1.00
   0   4 -10   -0.10    0.73
   0  -4  10    0.87    0.83
   0  -4  10   -0.41    0.44
   0  -4  10   -0.50    0.71
  -1   4 -10   11.44    1.25
  -1   4 -10   11.19    1.50
  -1   4 -10   10.23    1.31
   1  -4  10   13.08    1.44
   1  -4  10   13.17    1.77
   1  -4  10   10.99    0.87
  -2   4 -10   -0.64    0.77
  -2   4 -10   -1.10    0.89
   2  -4  10   -0.73    0.54
   2  -4  10    0.87    1.11
   2  -4  10   -1.25    0.81
  -3   4 -10   13.48    1.71
  -3   4 -10   16.34    2.03
  -3   4 -10   16.15    1.84
   3  -4  10   14.11    1.75
   3  -4  10   14.79    1.99
   3  -4  10   12.87    1.16
  -4   4 -10    7.94    1.55
  -4   4 -10    8.23    1.05
  -4   4 -10    5.58    1.74
   4  -4  10    8.77    1.17
   4  -4  10   10.49    1.72
   4  -4  10    8.83    1.61
  -5   4 -10   13.69    1.78
  -5   4 -10   13.95    1.10
  -5   4 -10   12.40    2.19
   5  -4  10   12.31    1.50
   5  -4  10   12.17    1.76
  -6   4 -10    5.20    1.57
  -6   4 -10    2.88    1.75
   6  -4  10    2.49    1.64
   6  -4  10    4.87    1.20
  -7   4 -10   -0.78    1.78
  -7   4 -10    1.34    1.65
   7  -4  10    1.13    1.23
   7  -4  10    0.22    1.54
   8   3 -10    4.59    1.88
  -8  -3  10    4.05    1.57
   7   3 -10    3.34    1.66
   7   3 -10    0.66    1.06
  -7  -3  10    1.57    1.46
  -7  -3  10    1.35    1.29
   6   3 -10    0.87    0.79
   6   3 -10    0.31    1.36
  -6  -3  10   -0.05    1.19
  -6  -3  10    0.30    1.38
   5   3 -10    0.00    0.55
   5   3 -10    0.56    1.27
  -5  -3  10    0.26    1.18
  -5  -3  10    1.04    1.07
   4   3 -10    0.60    0.72
   4   3 -10    0.62    0.38
   4   3 -10    0.55    1.09
  -4  -3  10    0.05    0.96
  -4  -3  10    0.77    1.06
   3   3 -10    1.18    0.98
   3   3 -10    0.31    0.98
   3   3 -10    0.25    0.18
   3   3 -10    0.08    0.18
  -3  -3  10    1.84    1.06
  -3  -3  10    1.59    0.98
  -3  -3  10    0.41    0.58
   2   3 -10   12.03    1.49
   2   3 -10   12.03    1.58
  -2  -3  10    9.30    1.51
  -2  -3  10   10.51    1.05
  -2  -3  10   12.07    1.65
   1   3 -10    1.22    0.84
   1   3 -10    0.61    0.45
   1   3 -10    0.98    0.31
   1   3 -10    0.85    0.87
  -1  -3  10    0.73    0.66
  -1  -3  10   -0.21    0.87
  -1  -3  10    0.39    0.76
   0   3 -10    5.91    0.70
   0   3 -10    7.43    1.22
   0   3 -10    8.42    1.29
   0  -3  10    8.44    1.17
   0  -3  10    6.39    1.18
  -1   3 -10    2.98    0.87
  -1   3 -10    2.94    0.99
  -1   3 -10    2.93    0.79
   1  -3  10    4.11    1.23
   1  -3  10    3.36    0.50
   1  -3  10    3.15    0.88
  -2   3 -10    1.55    0.87
  -2   3 -10    1.61    0.89
  -2   3 -10    0.48    0.93
   2  -3  10    0.51    0.48
   2  -3  10    1.57    0.74
   2  -3  10    1.12    0.87
  -3   3 -10    2.29    0.87
  -3   3 -10    3.00    1.07
  -3   3 -10    2.51    1.24
   3  -3  10    1.93    0.61
   3  -3  10    0.36    1.02
   3  -3  10    3.00    1.12
  -4   3 -10    3.66    1.17
  -4   3 -10    1.71    0.95
  -4   3 -10    1.68    1.05
   4  -3  10    1.88    0.68
   4  -3  10    1.30    1.19
   4  -3  10    1.39    1.15
  -5   3 -10   12.49    1.71
  -5   3 -10   10.65    1.17
  -5   3 -10   11.12    1.82
   5  -3  10   10.15    1.25
   5  -3  10   10.33    1.57
   5  -3  10   10.07    1.74
  -6   3 -10    1.41    1.43
  -6   3 -10    3.45    1.32
  -6   3 -10    1.79    0.84
   6  -3  10    0.14    0.91
   6  -3  10    0.94    1.36
  -7   3 -10   12.11    2.04
  -7   3 -10   12.56    2.05
   7  -3  10   12.43    2.13
   7  -3  10   12.52    1.64
  -8   3 -10    4.98    1.84
  -8   3 -10   -0.54    1.57
   8  -3  10    0.83    1.77
   8  -3  10    2.22    1.37
   8   2 -10    2.04    2.77
  -8  -2  10    2.85    2.22
  -8  -2  10    1.23    1.46
   7   2 -10   -0.58    0.94
   7   2 -10   -0.09    1.67
  -7  -2  10    2.06    1.64
  -7  -2  10    2.28    1.38
   6   2 -10    5.63    1.65
   6   2 -10    3.67    0.79
  -6  -2  10    3.63    1.58
  -6  -2  10    3.33    1.28
   5   2 -10    0.34    0.46
   5   2 -10   -0.11    1.19
  -5  -2  10   -0.55    1.16
  -5  -2  10    1.05    1.11
   4   2 -10    1.26    0.97
  -4  -2  10   -1.41    1.03
  -4  -2  10   -0.13    1.00
   3   2 -10    1.41    0.82
   3   2 -10   -0.20    0.94
  -3  -2  10    0.17    0.52
  -3  -2  10    0.21    0.95
  -3  -2  10   -0.04    0.93
   2   2 -10    5.62    1.16
   2   2 -10    5.46    1.24
  -2  -2  10    6.01    1.27
  -2  -2  10    6.66    1.25
  -2  -2  10    6.66    0.89
   1   2 -10   24.53    2.02
   1   2 -10   18.66    1.54
   1   2 -10   21.48    1.49
  -1  -2  10   19.76    1.33
  -1  -2  10   21.76    1.76
  -1  -2  10   20.53    1.76
   0   2 -10   16.36    1.42
   0   2 -10   16.92    1.44
   0  -2  10   16.58    1.48
   0  -2  10   15.63    1.57
   0  -2  10   17.54    1.38
  -1   2 -10    7.10    1.16
  -1   2 -10    5.23    0.59
  -1   2 -10    5.23    1.08
   1  -2  10    5.41    1.20
   1  -2  10    5.43    0.43
   1  -2  10    6.14    1.10
  -2   2 -10   39.18    1.95
  -2   2 -10   40.47    1.58
  -2   2 -10   36.92    2.04
   2  -2  10   40.42    2.12
   2  -2  10   42.23    1.32
   2  -2  10   39.95    2.23
  -3   2 -10   -0.06    0.83
  -3   2 -10    0.35    0.71
  -3   2 -10    1.60    0.94
   3  -2  10    0.71    0.71
   3  -2  10   -0.58    0.49
   3  -2  10    0.37    0.68
  -4   2 -10   35.00    1.79
  -4   2 -10   35.66    2.38
  -4   2 -10   34.44    2.07
   4  -2  10   34.31    2.18
   4  -2  10   37.05    1.59
   4  -2  10   32.33    2.26
  -5   2 -10    3.24    1.34
  -5   2 -10    3.42    0.97
  -5   2 -10    4.28    1.21
   5  -2  10    5.23    1.32
   5  -2  10    3.17    0.84
   5  -2  10    5.17    1.45
  -6   2 -10   16.13    1.61
  -6   2 -10   18.43    1.45
  -6   2 -10   18.73    2.13
   6  -2  10   19.07    2.04
   6  -2  10   17.04    1.51
   6  -2  10   18.00    2.02
  -7   2 -10    0.73    1.36
  -7   2 -10    1.47    1.64
   7  -2  10    3.23    1.46
   7  -2  10    1.70    1.11
  -8   2 -10    2.83    1.63
  -8   2 -10    0.79    1.67
  -8   2 -10   -0.63    1.04
   8  -2  10   -0.38    1.48
   8  -2  10   -1.79    1.06
  -9   2 -10   -0.64    1.94
  -9   2 -10   -0.07    1.68
   9  -2  10   -1.99    1.33
   7   1 -10    0.23    0.92
   7   1 -10    3.30    1.64
  -7  -1  10    1.76    1.34
  -7  -1  10    0.80    1.58
   6   1 -10   29.51    2.43
   6   1 -10   26.16    1.35
  -6  -1  10   23.54    2.39
  -6  -1  10   27.06    2.31
   5   1 -10   13.06    0.80
   5   1 -10   13.36    1.94
  -5  -1  10   12.99    1.92
  -5  -1  10   13.98    1.74
   4   1 -10    2.11    1.04
  -4  -1  10    3.13    1.23
  -4  -1  10    1.00    1.10
   3   1 -10    8.88    0.98
   3   1 -10    8.65    1.51
  -3  -1  10    9.38    1.48
  -3  -1  10    9.63    0.75
  -3  -1  10    9.98    1.28
   2   1 -10   21.57    1.48
   2   1 -10   21.91    1.70
  -2  -1  10   23.60    1.68
  -2  -1  10   21.57    1.16
  -2  -1  10   16.86    1.66
   1   1 -10   11.01    1.33
   1   1 -10   10.96    1.41
   1   1 -10   10.90    1.12
  -1  -1  10   11.82    1.50
  -1  -1  10    9.01    1.11
  -1  -1  10   12.27    1.27
   0   1 -10   79.81    2.94
   0   1 -10   80.49    2.92
   0  -1  10   79.27    2.68
   0  -1  10   80.56    3.13
   0  -1  10   85.32    3.29
  -1   1 -10   26.85    1.68
  -1   1 -10   24.89    1.53
   1  -1  10   26.57    1.67
   1  -1  10   25.56    1.83
   1  -1  10   28.03    1.79
  -2   1 -10  158.24    3.58
  -2   1 -10  155.29    4.38
  -2   1 -10  157.30    4.51
   2  -1  10  167.79    3.43
   2  -1  10  162.07    4.58
   2  -1  10  157.39    4.85
  -3   1 -10   15.44    1.31
  -3   1 -10   14.90    1.21
  -3   1 -10   16.02    1.31
   3  -1  10   14.89    0.86
   3  -1  10   14.00    1.49
   3  -1  10   13.47    1.39
  -4   1 -10    5.22    1.18
  -4   1 -10    5.54    1.36
  -4   1 -10    5.45    1.14
  -4   1 -10    6.23    1.21
   4  -1  10    4.98    1.22
   4  -1  10    7.00    0.84
   4  -1  10    6.47    1.33
  -5   1 -10   19.26    1.91
  -5   1 -10   20.42    1.75
  -5   1 -10   19.06    1.50
   5  -1  10   17.84    1.61
   5  -1  10   20.33    1.37
   5  -1  10   19.63    1.83
  -6   1 -10    2.91    1.15
  -6   1 -10    3.15    1.07
  -6   1 -10    4.88    1.29
   6  -1  10    3.44    0.92
   6  -1  10    3.26    1.23
   6  -1  10    5.79    1.34
  -7   1 -10   16.04    1.85
  -7   1 -10   16.68    2.09
  -7   1 -10   16.93    1.57
   7  -1  10   13.81    1.54
   7  -1  10   15.37    1.88
   7  -1  10   16.82    2.08
  -8   1 -10    0.85    1.49
  -8   1 -10   -0.56    1.33
  -8   1 -10    1.13    1.15
   8  -1  10    1.00    1.15
   8  -1  10    0.74    1.41
  -9   1 -10    2.64    1.65
  -9   1 -10    1.37    1.67
  -9   1 -10    2.15    1.30
   9  -1  10    1.02    1.27
   9  -1  10    3.71    1.79
   7   0 -10   17.69    2.57
   7   0 -10   11.60    1.34
  -7   0  10   15.99    2.44
  -7   0  10    9.47    1.89
   6   0 -10    0.87    1.42
   6   0 -10    0.03    0.76
  -6   0  10   -0.19    1.24
  -6   0  10    1.45    1.52
   5   0 -10    7.91    0.77
   5   0 -10   10.85    1.87
  -5   0  10    7.80    1.75
  -5   0  10   10.65    1.66
   4   0 -10   19.44    1.91
   4   0 -10   18.64    0.62
  -4   0  10   19.28    1.96
  -4   0  10   18.99    1.88
   3   0 -10    2.73    1.12
   3   0 -10    2.82    0.65
  -3   0  10    3.80    1.22
  -3   0  10    2.67    0.95
  -3   0  10    3.39    0.53
   2   0 -10    5.37    1.03
   2   0 -10    8.26    1.36
  -2   0  10    6.51    1.29
  -2   0  10    4.26    1.14
  -2   0  10    6.15    0.79
   1   0 -10    4.47    1.09
   1   0 -10    4.11    1.04
   1   0 -10    3.16    0.92
  -1   0  10    2.42    1.01
  -1   0  10    1.81    0.68
  -1   0  10    3.93    1.09
   0   0 -10    1.72    0.67
   0   0 -10    1.84    0.87
   0   0 -10    2.59    1.06
   0   0  10    2.08    0.99
   0   0  10    0.72    0.65
   0   0  10    1.53    0.88
  -1   0 -10    6.09    1.15
  -1   0 -10    4.65    1.04
   1   0  10    3.58    0.92
   1   0  10    4.30    1.06
   1   0  10    3.50    0.90
  -2   0 -10   13.58    1.34
  -2   0 -10   14.62    1.36
   2   0  10   11.27    1.29
   2   0  10   14.15    1.27
   2   0  10   13.73    0.43
   2   0  10   12.05    1.47
  -3   0 -10    1.31    0.83
  -3   0 -10    0.07    0.80
  -3   0 -10    0.14    0.58
   3   0  10    0.71    0.71
   3   0  10    0.93    0.40
   3   0  10   -0.27    0.57
  -4   0 -10   65.56    2.30
  -4   0 -10   63.65    2.69
  -4   0 -10   64.94    2.51
   4   0  10   67.99    2.85
   4   0  10   66.57    2.92
   4   0  10   68.89    2.06
  -5   0 -10   48.68    2.56
  -5   0 -10   45.11    2.57
  -5   0 -10   44.93    2.32
  -5   0 -10   48.01    2.19
   5   0  10   45.12    1.84
   5   0  10   50.23    2.57
   5   0  10   42.41    2.45
  -6   0 -10   39.82    2.28
  -6   0 -10   41.90    2.46
  -6   0 -10   40.11    2.06
   6   0  10   41.77    2.49
   6   0  10   39.73    2.40
   6   0  10   44.46    1.96
  -7   0 -10    2.83    1.11
  -7   0 -10    2.06    0.91
  -7   0 -10   -0.14    1.15
   7   0  10    2.22    1.17
   7   0  10    1.14    1.15
   7   0  10    1.24    0.97
  -8   0 -10    5.33    1.31
  -8   0 -10    3.39    1.15
  -8   0 -10    4.71    1.55
   8   0  10    4.59    1.27
   8   0  10    4.83    1.54
   8   0  10    4.51    1.61
  -9   0 -10    2.16    1.42
  -9   0 -10    1.48    1.50
  -9   0 -10    0.18    1.35
   9   0  10    0.26    1.56
   9   0  10    1.90    1.32
 -10   0 -10    3.03    1.92
 -10   0 -10    2.55    1.91
 -10   0 -10    2.22    1.53
  10   0  10    1.28    1.90
  10   0  10    0.67    1.47
   7  -1 -10    4.95    1.30
   7  -1 -10    5.51    1.99
  -7   1  10    4.57    1.68
  -7   1  10    2.46    2.05
   6  -1 -10   10.38    1.19
   6  -1 -10   14.33    2.18
  -6   1  10   13.11    1.92
  -6   1  10   11.90    2.10
   5  -1 -10    6.66    0.78
   5  -1 -10    7.11    1.67
  -5   1  10    5.40    1.57
  -5   1  10    7.70    1.61
   4  -1 -10    0.80    0.42
   4  -1 -10    1.25    1.18
  -4   1  10    1.06    1.17
  -4   1  10    3.84    1.27
   3  -1 -10    6.42    1.30
  -3   1  10    5.58    0.63
  -3   1  10    4.30    1.24
  -3   1  10    4.49    1.30
   2  -1 -10    2.74    1.09
   2  -1 -10    1.17    0.85
  -2   1  10    0.18    0.57
  -2   1  10    0.06    0.89
  -2   1  10    0.49    0.97
   1  -1 -10   14.08    1.70
   1  -1 -10   12.02    1.12
   1  -1 -10   11.59    1.39
  -1   1  10   11.56    1.07
  -1   1  10   15.04    1.57
  -1   1  10   13.92    1.45
   0  -1 -10    4.41    0.99
   0  -1 -10    3.31    1.04
   0  -1 -10    2.79    1.15
   0   1  10    3.19    0.88
   0   1  10    4.10    0.82
   0   1  10    4.07    1.10
  -1  -1 -10   16.90    1.46
  -1  -1 -10   16.03    1.34
   1   1  10   17.47    1.45
   1   1  10   15.84    1.44
   1   1  10   14.66    1.27
  -2  -1 -10   10.15    1.30
  -2  -1 -10   11.39    1.28
   2   1  10    9.59    1.21
   2   1  10   10.84    1.52
   2   1  10   10.60    1.30
  -3  -1 -10    9.23    1.29
  -3  -1 -10    9.71    1.32
   3   1  10    9.48    1.40
   3   1  10    9.29    1.33
   3   1  10    9.50    0.66
  -4  -1 -10   28.77    1.76
  -4  -1 -10   26.05    1.76
  -4  -1 -10   29.03    1.47
   4   1  10   28.23    1.94
   4   1  10   28.34    1.25
   4   1  10   29.65    1.96
  -5  -1 -10    5.51    1.15
  -5  -1 -10    6.39    1.22
  -5  -1 -10    7.44    1.35
  -5  -1 -10    6.31    1.10
   5   1  10    3.80    1.17
   5   1  10    4.66    1.20
  -6  -1 -10    8.67    1.37
  -6  -1 -10    9.43    1.43
  -6  -1 -10    8.91    1.47
   6   1  10    8.70    1.52
   6   1  10    8.71    1.16
   6   1  10    8.42    1.43
  -7  -1 -10    6.26    1.46
  -7  -1 -10    6.34    1.38
  -7  -1 -10    6.62    1.29
   7   1  10    6.41    1.39
   7   1  10    5.82    1.18
   7   1  10    6.44    1.53
  -8  -1 -10    1.65    1.21
  -8  -1 -10    0.64    1.14
  -8  -1 -10   -0.52    1.14
   8   1  10    0.33    1.12
   8   1  10    0.04    0.99
   8   1  10    2.60    1.44
  -9  -1 -10    3.10    1.51
  -9  -1 -10    2.46    1.42
  -9  -1 -10    2.71    1.47
   9   1  10    2.95    1.47
   9   1  10    2.22    1.55
   9   1  10    2.98    1.29
 -10  -1 -10    8.85    1.72
 -10  -1 -10    4.46    1.72
 -10  -1 -10    4.00    1.35
  10   1  10    6.64    1.99
  10   1  10    2.79    1.52
   6  -2 -10   18.88    1.56
   6  -2 -10   21.56    2.73
  -6   2  10   21.14    2.71
  -6   2  10   15.48    2.18
   5  -2 -10    1.95    1.47
  -5   2  10   -1.57    1.19
  -5   2  10   -2.01    1.35
   4  -2 -10    0.46    0.51
   4  -2 -10    0.95    1.21
  -4   2  10    0.98    1.15
  -4   2  10    0.41    1.24
   3  -2 -10    1.64    1.22
   3  -2 -10    1.81    0.41
  -3   2  10    3.01    0.62
  -3   2  10    3.43    1.25
  -3   2  10    1.62    0.61
  -3   2  10    3.09    1.23
  -3   2  10    1.57    0.62
   2  -2 -10   -0.02    0.96
  -2   2  10   -0.36    0.96
  -2   2  10   -0.99    0.94
  -2   2  10   -0.01    0.62
   1  -2 -10    4.78    1.15
   1  -2 -10    6.58    1.13
   1  -2 -10    5.54    1.30
  -1   2  10    6.10    0.91
  -1   2  10    6.95    1.25
  -1   2  10    3.65    1.17
   0  -2 -10   38.89    2.19
   0  -2 -10   43.40    1.97
   0  -2 -10   39.67    2.17
   0   2  10   45.67    1.86
   0   2  10   39.67    2.17
   0   2  10   41.46    2.13
  -1  -2 -10   21.37    1.47
  -1  -2 -10   21.28    1.64
   1   2  10   17.74    1.66
   1   2  10   19.53    1.56
   1   2  10   20.65    1.42
  -2  -2 -10   78.88    2.76
  -2  -2 -10   77.58    2.94
   2   2  10   75.40    2.83
   2   2  10   79.85    2.87
   2   2  10   77.85    3.12
  -3  -2 -10    9.33    1.34
  -3  -2 -10    7.64    1.05
   3   2  10    7.92    0.55
   3   2  10    8.41    1.24
   3   2  10    7.62    1.31
   3   2  10    9.26    1.32
   3   2  10    7.29    0.64
  -4  -2 -10   42.32    2.10
  -4  -2 -10   44.83    2.19
   4   2  10   42.26    1.53
   4   2  10   42.73    2.28
   4   2  10   41.69    2.25
  -5  -2 -10   42.46    2.15
  -5  -2 -10   38.94    2.09
   5   2  10   37.52    2.09
   5   2  10   42.41    1.69
   5   2  10   42.69    2.22
  -6  -2 -10   -0.31    0.88
  -6  -2 -10   -0.04    0.90
  -6  -2 -10   -0.28    0.89
   6   2  10    0.30    0.93
   6   2  10   -0.04    0.72
   6   2  10   -0.81    1.00
  -7  -2 -10   18.13    1.64
  -7  -2 -10   16.86    1.80
  -7  -2 -10   19.22    1.57
   7   2  10   15.45    1.89
   7   2  10   17.83    1.49
   7   2  10   16.09    1.74
  -8  -2 -10   18.40    1.88
  -8  -2 -10   21.06    1.92
  -8  -2 -10   19.33    1.90
   8   2  10   22.65    2.23
   8   2  10   18.80    2.02
   8   2  10   17.08    1.66
  -9  -2 -10   -1.95    1.23
  -9  -2 -10    1.12    1.25
  -9  -2 -10    3.22    1.53
   9   2  10   -1.46    1.40
   9   2  10   -0.36    1.12
   9   2  10    0.41    1.18
 -10  -2 -10   11.52    1.85
 -10  -2 -10   14.89    2.07
 -10  -2 -10   11.66    2.00
  10   2  10   13.57    2.32
  10   2  10   12.43    1.84
  10   2  10   13.78    1.95
 -11  -2 -10    3.65    1.81
 -11  -2 -10    5.52    1.86
 -11  -2 -10    6.53    1.95
  11   2  10    1.00    1.58
  11   2  10    6.10    1.77
   6  -3 -10    8.67    2.08
   6  -3 -10    6.59    1.31
  -6   3  10   10.33    2.62
  -6   3  10    6.43    1.94
   5  -3 -10   12.05    1.41
   5  -3 -10   18.33    2.46
  -5   3  10   11.66    2.04
  -5   3  10   15.01    2.30
   4  -3 -10   22.94    2.22
  -4   3  10   18.29    2.19
  -4   3  10   19.11    2.35
   3  -3 -10   -0.35    1.20
   3  -3 -10    0.44    0.50
  -3   3  10    1.43    1.19
  -3   3  10   -0.06    0.64
  -3   3  10    0.03    1.09
   2  -3 -10    0.48    0.38
   2  -3 -10    2.86    1.16
  -2   3  10    2.95    1.13
  -2   3  10    1.89    0.77
  -2   3  10    1.43    0.64
  -2   3  10    1.78    0.91
   1  -3 -10   -0.85    0.70
   1  -3 -10    0.70    0.94
  -1   3  10   -0.31    0.90
  -1   3  10    0.04    0.88
   0  -3 -10   10.75    1.49
   0  -3 -10    8.17    1.13
   0   3  10    7.52    1.19
   0   3  10    7.52    1.27
   0   3  10    8.39    1.12
  -1  -3 -10   10.74    1.20
  -1  -3 -10    9.66    1.15
   1   3  10   10.58    1.21
   1   3  10   10.40    0.40
   1   3  10   10.70    1.35
   1   3  10   10.40    1.23
  -2  -3 -10    6.23    1.25
  -2  -3 -10    4.39    0.95
   2   3  10    3.44    0.42
   2   3  10    3.59    1.00
   2   3  10    3.79    1.10
   2   3  10    3.60    0.95
  -3  -3 -10    3.90    0.97
  -3  -3 -10    4.94    0.90
   3   3  10    3.98    0.97
   3   3  10    4.24    1.02
   3   3  10    3.49    0.57
   3   3  10    3.70    1.04
   3   3  10    3.73    0.49
  -4  -3 -10    2.32    0.93
  -4  -3 -10    2.75    1.01
   4   3  10    1.11    0.93
   4   3  10    1.51    0.56
   4   3  10    0.88    0.57
   4   3  10    0.16    0.88
  -5  -3 -10    0.52    1.00
  -5  -3 -10    1.16    0.86
   5   3  10   -0.21    0.95
   5   3  10    1.27    0.63
   5   3  10    0.87    0.76
  -6  -3 -10    0.42    0.92
  -6  -3 -10   -0.33    0.95
  -6  -3 -10    0.77    0.99
   6   3  10   -0.64    0.93
   6   3  10    0.74    0.95
   6   3  10    0.28    0.67
  -7  -3 -10    3.68    1.24
  -7  -3 -10    4.72    1.19
  -7  -3 -10    3.67    1.20
   7   3  10    2.19    1.05
   7   3  10    5.88    1.30
   7   3  10    3.16    1.23
  -8  -3 -10   61.40    2.83
  -8  -3 -10   64.35    2.72
  -8  -3 -10   59.35    2.86
   8   3  10   60.78    2.82
   8   3  10   58.08    3.12
   8   3  10   56.10    2.62
  -9  -3 -10   21.08    2.03
  -9  -3 -10   21.47    2.03
  -9  -3 -10   20.36    1.99
   9   3  10   19.25    1.86
   9   3  10   16.69    2.24
   9   3  10   17.96    2.04
 -10  -3 -10    3.18    1.47
 -10  -3 -10    4.56    1.69
 -10  -3 -10    4.00    1.56
  10   3  10    1.39    1.43
  10   3  10    3.14    1.68
  10   3  10    2.52    1.42
 -11  -3 -10   -0.45    1.61
 -11  -3 -10    1.32    1.66
  11   3  10   -1.12    1.43
  11   3  10    5.12    2.02
   5  -4 -10   -2.36    1.58
   5  -4 -10    0.92    1.05
  -5   4  10   -1.99    1.70
  -5   4  10   -0.28    1.56
   4  -4 -10   -0.27    1.37
   4  -4 -10    1.61    0.90
  -4   4  10    1.25    1.43
  -4   4  10    1.39    1.53
   3  -4 -10   21.10    2.12
  -3   4  10   20.40    2.14
  -3   4  10   18.30    1.41
  -3   4  10   24.17    2.25
   2  -4 -10    0.56    0.95
   2  -4 -10    0.33    0.56
   2  -4 -10    2.55    1.18
  -2   4  10    0.85    1.09
  -2   4  10   -1.47    1.21
  -2   4  10    2.25    1.09
   1  -4 -10   72.93    3.14
   1  -4 -10   72.06    2.59
  -1   4  10   71.49    3.27
  -1   4  10   73.80    3.06
  -1   4  10   71.20    2.58
   0  -4 -10    1.94    0.82
   0  -4 -10    0.67    1.04
   0   4  10    3.46    0.98
   0   4  10    2.49    1.13
   0   4  10    0.78    0.93
   0   4  10    1.80    0.62
  -1  -4 -10    9.51    1.55
  -1  -4 -10    9.37    1.12
   1   4  10    8.68    1.47
   1   4  10   10.31    1.32
   1   4  10    9.28    0.81
   1   4  10   10.22    1.27
   1   4  10    9.08    0.79
  -2  -4 -10   40.66    1.88
  -2  -4 -10   38.49    2.18
   2   4  10   40.26    2.00
   2   4  10   39.98    2.29
   2   4  10   38.03    1.28
   2   4  10   40.07    2.09
   2   4  10   39.16    1.41
  -3  -4 -10   13.74    1.28
  -3  -4 -10   12.11    1.47
   3   4  10   10.94    0.85
   3   4  10   12.23    1.57
   3   4  10   12.52    1.26
   3   4  10   12.71    1.45
   3   4  10   11.54    0.93
  -4  -4 -10    6.23    1.12
  -4  -4 -10    7.68    1.39
   4   4  10    5.75    1.27
   4   4  10    7.32    0.87
   4   4  10    7.40    0.91
   4   4  10    8.83    1.36
  -5  -4 -10   12.79    1.50
  -5  -4 -10   13.21    1.54
   5   4  10   12.44    1.18
   5   4  10   13.14    1.40
   5   4  10   13.39    1.58
  -6  -4 -10    5.75    1.44
  -6  -4 -10    5.86    1.19
  -6  -4 -10    5.24    1.07
   6   4  10    5.15    1.05
   6   4  10    6.90    1.30
   6   4  10    6.48    1.29
  -7  -4 -10   74.26    3.17
  -7  -4 -10   77.22    2.80
  -7  -4 -10   76.43    3.07
   7   4  10   79.39    3.21
   7   4  10   73.14    2.83
   7   4  10   76.05    3.29
  -8  -4 -10   -2.03    1.05
  -8  -4 -10    0.23    1.00
  -8  -4 -10   -0.53    0.97
   8   4  10    0.15    1.24
   8   4  10   -0.44    1.03
   8   4  10   -0.19    1.08
  -9  -4 -10    3.76    1.41
  -9  -4 -10    4.33    1.43
  -9  -4 -10    4.20    1.26
   9   4  10    4.59    1.40
   9   4  10    3.82    1.54
   9   4  10    3.22    1.22
 -10  -4 -10    1.26    1.51
 -10  -4 -10    1.95    1.25
 -10  -4 -10   -0.01    1.40
  10   4  10   -1.19    1.04
  10   4  10    0.07    1.31
  10   4  10   -1.93    1.20
 -11  -4 -10    1.86    1.70
 -11  -4 -10   -2.18    1.29
 -11  -4 -10    1.18    1.55
  11   4  10    2.26    1.75
  11   4  10    1.64    1.54
  11   4  10    1.14    1.59
   4  -5 -10    1.82    1.09
   4  -5 -10   -2.36    1.50
  -4   5  10    0.83    1.47
  -4   5  10    3.03    1.72
   3  -5 -10    4.45    1.61
   3  -5 -10    5.28    1.23
   3  -5 -10    6.20    1.03
  -3   5  10    6.49    1.24
  -3   5  10    5.15    1.75
  -3   5  10    3.87    1.57
   2  -5 -10    0.53    1.29
   2  -5 -10    0.03    0.72
   2  -5 -10    0.36    0.92
  -2   5  10    0.15    1.21
  -2   5  10    0.93    0.99
  -2   5  10    0.92    1.34
   1  -5 -10    8.00    1.21
   1  -5 -10    7.65    0.90
   1  -5 -10    8.75    1.69
  -1   5  10   12.92    1.50
  -1   5  10    9.21    1.67
  -1   5  10    9.71    1.56
   0  -5 -10   13.60    1.73
   0  -5 -10   14.71    1.33
   0   5  10   15.07    1.62
   0   5  10   11.93    1.52
   0   5  10   15.67    1.60
   0   5  10   13.60    1.38
  -1  -5 -10   11.51    1.15
  -1  -5 -10   15.18    1.87
   1   5  10   13.02    1.45
   1   5  10   11.87    1.42
   1   5  10   11.26    1.11
   1   5  10   10.62    1.37
  -2  -5 -10    9.15    1.53
  -2  -5 -10    8.32    1.16
   2   5  10    9.98    1.54
   2   5  10    8.48    1.00
   2   5  10    8.09    1.37
   2   5  10    7.13    0.93
   2   5  10    6.82    1.23
  -3  -5 -10    0.65    0.99
  -3  -5 -10    0.81    0.77
   3   5  10    0.18    0.92
   3   5  10   -0.39    0.70
   3   5  10    0.20    0.63
   3   5  10    0.35    0.75
   3   5  10    0.69    0.65
  -4  -5 -10    1.04    0.77
  -4  -5 -10    0.58    1.10
  -4  -5 -10   -0.19    0.73
   4   5  10   -0.49    0.67
   4   5  10    0.21    0.73
   4   5  10   -0.58    0.92
   4   5  10    0.41    0.68
   4   5  10    0.51    0.93
  -5  -5 -10    1.29    0.98
  -5  -5 -10    2.31    1.15
  -5  -5 -10    1.41    0.88
   5   5  10    1.36    0.99
   5   5  10    0.99    0.78
   5   5  10    1.24    1.00
  -6  -5 -10   -0.58    0.84
  -6  -5 -10    1.09    0.92
  -6  -5 -10   -0.56    1.05
  -6  -5 -10    0.15    0.96
   6   5  10    0.38    0.95
   6   5  10    0.53    0.88
   6   5  10    0.60    0.81
  -7  -5 -10   10.75    1.30
  -7  -5 -10   11.39    1.46
  -7  -5 -10   13.54    1.77
  -7  -5 -10   12.23    1.46
   7   5  10   14.38    1.54
   7   5  10   12.33    1.90
   7   5  10   12.53    1.66
  -8  -5 -10   26.29    1.98
  -8  -5 -10   21.31    2.06
   8   5  10   27.15    2.37
   8   5  10   26.27    2.02
   8   5  10   24.32    1.98
  -9  -5 -10    0.44    1.27
  -9  -5 -10    0.87    1.23
  -9  -5 -10   -1.23    0.93
   9   5  10   -1.66    0.98
   9   5  10    1.24    1.22
   9   5  10   -1.04    1.19
 -10  -5 -10    1.00    1.13
 -10  -5 -10    2.93    1.72
  10   5  10    2.49    1.37
  10   5  10    4.16    1.75
  10   5  10    3.11    1.43
 -11  -5 -10    2.34    1.31
 -11  -5 -10    3.58    1.72
 -11  -5 -10    3.23    1.73
  11   5  10    3.44    1.51
  11   5  10    5.87    1.81
  11   5  10    1.60    1.74
   3  -6 -10    4.91    1.72
   3  -6 -10    3.60    1.16
   3  -6 -10    7.27    1.27
  -3   6  10    5.72    1.38
  -3   6  10    0.82    1.45
  -3   6  10    3.58    1.81
   2  -6 -10    1.13    0.92
   2  -6 -10    1.81    1.03
   2  -6 -10    0.70    1.40
  -2   6  10   -0.74    1.29
  -2   6  10    0.74    1.34
  -2   6  10    2.37    1.20
   1  -6 -10    3.77    1.55
   1  -6 -10    2.11    0.93
   1  -6 -10    3.69    0.91
  -1   6  10    1.49    1.10
  -1   6  10    3.23    1.24
  -1   6  10    3.31    1.20
   0  -6 -10    8.45    1.15
   0  -6 -10    9.27    1.75
   0   6  10    7.42    1.38
   0   6  10    4.80    1.62
   0   6  10    6.63    1.37
  -1  -6 -10   -1.33    0.76
  -1  -6 -10    0.06    1.17
   1   6  10    1.65    1.25
   1   6  10   -0.08    1.02
   1   6  10   -0.06    1.08
  -2  -6 -10    6.03    0.99
  -2  -6 -10    4.27    1.14
   2   6  10    5.76    1.28
   2   6  10    4.65    1.18
   2   6  10    2.05    1.05
   2   6  10    3.83    1.02
  -3  -6 -10   10.61    1.70
  -3  -6 -10   10.15    1.24
   3   6  10    7.42    1.11
   3   6  10   11.94    1.36
   3   6  10   10.05    1.17
   3   6  10    8.66    1.51
   3   6  10    9.83    1.58
  -4  -6 -10    0.79    0.82
  -4  -6 -10    2.15    1.06
  -4  -6 -10    1.78    1.17
   4   6  10    1.19    0.95
   4   6  10    0.32    1.03
   4   6  10    0.98    0.84
   4   6  10    0.69    0.77
  -5  -6 -10    5.17    1.10
  -5  -6 -10    5.01    1.05
  -5  -6 -10    6.63    1.31
   5   6  10    5.40    1.27
   5   6  10    6.17    1.10
   5   6  10    8.14    1.50
  -6  -6 -10    6.19    1.54
  -6  -6 -10    8.33    1.27
  -6  -6 -10    6.94    1.07
   6   6  10    8.13    1.59
   6   6  10    6.48    1.15
   6   6  10    7.17    1.43
  -7  -6 -10    0.88    0.94
  -7  -6 -10    0.28    0.78
  -7  -6 -10    0.82    0.97
   7   6  10   -1.23    0.98
   7   6  10    1.22    1.05
   7   6  10   -0.20    1.08
  -8  -6 -10   -0.35    0.78
  -8  -6 -10    3.29    1.38
  -8  -6 -10    1.26    1.00
   8   6  10    0.60    1.10
   8   6  10    0.48    1.33
   8   6  10    0.70    1.00
  -9  -6 -10   -0.58    1.35
  -9  -6 -10    1.94    0.88
  -9  -6 -10    0.16    0.95
   9   6  10    1.68    1.25
   9   6  10   -1.80    1.15
   9   6  10    2.33    1.55
 -10  -6 -10    0.27    1.59
 -10  -6 -10   -2.60    1.19
 -10  -6 -10    0.57    0.98
  10   6  10   -0.47    1.55
  10   6  10    1.22    1.35
  10   6  10   -0.76    1.33
 -11  -6 -10   -1.12    1.56
 -11  -6 -10   -1.52    1.63
  11   6  10    0.52    1.44
  11   6  10    4.62    1.66
  11   6  10    4.76    1.97
   2  -7 -10   25.08    1.70
   2  -7 -10   24.42    2.47
   2  -7 -10   25.22    1.88
  -2   7  10   22.39    2.80
  -2   7  10   20.37    2.54
  -2   7  10   21.20    2.22
   1  -7 -10    1.02    1.50
   1  -7 -10    3.30    1.05
   1  -7 -10    3.26    0.99
  -1   7  10    0.07    1.31
  -1   7  10    0.53    1.54
  -1   7  10    3.16    1.43
   0  -7 -10   11.94    1.93
   0  -7 -10   11.90    1.26
   0   7  10   10.96    1.82
   0   7  10    9.81    1.90
   0   7  10    8.01    1.58
  -1  -7 -10    2.45    0.86
  -1  -7 -10    2.80    1.36
   1   7  10    3.60    1.32
   1   7  10    2.40    1.32
   1   7  10    1.43    1.34
  -2  -7 -10   16.86    1.96
  -2  -7 -10   15.00    1.24
   2   7  10   16.49    2.03
   2   7  10   13.74    1.47
   2   7  10   14.22    1.86
  -3  -7 -10   13.17    1.90
  -3  -7 -10   15.56    1.29
   3   7  10   11.88    1.48
   3   7  10   13.48    1.80
   3   7  10   13.34    1.86
  -4  -7 -10    1.99    0.87
  -4  -7 -10    1.23    1.15
   4   7  10   -0.32    0.91
   4   7  10    0.23    1.03
   4   7  10   -0.47    1.08
  -5  -7 -10    1.84    0.95
  -5  -7 -10    0.06    1.09
   5   7  10    0.77    0.96
   5   7  10    1.66    1.26
   5   7  10   -0.53    1.03
  -6  -7 -10    0.57    1.24
  -6  -7 -10    1.13    0.91
   6   7  10    1.33    1.06
   6   7  10   -0.56    1.27
   6   7  10   -0.39    1.11
  -7  -7 -10    5.24    1.60
  -7  -7 -10    7.19    0.88
  -7  -7 -10    7.44    1.28
   7   7  10    6.60    1.62
   7   7  10    6.31    1.42
   7   7  10    7.72    1.52
  -8  -7 -10    0.09    0.43
  -8  -7 -10   -0.72    0.97
  -8  -7 -10   -1.38    1.24
   8   7  10   -0.89    1.13
   8   7  10    0.13    1.00
   8   7  10   -0.62    1.10
  -9  -7 -10   10.13    1.67
  -9  -7 -10   11.11    2.12
   9   7  10   10.17    1.71
   9   7  10   11.32    1.81
   9   7  10   11.91    2.09
 -10  -7 -10    9.79    1.71
 -10  -7 -10    5.70    1.96
  10   7  10    7.34    1.69
  10   7  10    5.81    1.67
  10   7  10    6.41    1.57
 -11  -7 -10   -0.26    1.74
 -11  -7 -10    2.69    1.48
  11   7  10    1.43    1.48
  11   7  10    1.47    1.77
  11   7  10    3.74    2.08
   1  -8 -10    2.50    1.23
   1  -8 -10    2.65    1.82
  -1   8  10    0.79    1.62
  -1   8  10    3.72    1.80
   0  -8 -10   -0.06    1.10
   0  -8 -10    3.40    1.62
   0   8  10    1.31    1.74
   0   8  10    0.28    1.46
   0   8  10   -0.87    1.53
  -1  -8 -10    2.12    0.86
  -1  -8 -10    3.09    1.51
   1   8  10    2.74    1.42
   1   8  10    2.52    1.50
   1   8  10    4.57    1.38
  -2  -8 -10    5.72    1.65
   2   8  10    4.80    1.34
   2   8  10    4.06    1.29
   2   8  10    5.07    1.59
  -3  -8 -10   10.19    1.15
  -3  -8 -10    9.90    1.86
   3   8  10    8.53    1.74
   3   8  10    8.80    1.86
   3   8  10    7.18    1.29
  -4  -8 -10   -1.39    0.75
  -4  -8 -10    2.32    1.43
   4   8  10    2.10    1.28
   4   8  10   -0.06    0.90
   4   8  10    0.58    1.09
  -5  -8 -10   13.32    2.06
  -5  -8 -10   11.86    1.37
   5   8  10   12.51    1.99
   5   8  10   10.36    1.58
   5   8  10   14.16    1.91
  -6  -8 -10   10.50    0.91
  -6  -8 -10   11.51    1.41
  -6  -8 -10   11.97    1.85
   6   8  10   11.05    1.76
   6   8  10   13.45    1.70
   6   8  10   11.17    1.61
  -7  -8 -10    1.31    1.01
  -7  -8 -10    1.20    1.29
   7   8  10    3.29    1.37
   7   8  10    2.94    1.26
   7   8  10    2.36    1.48
  -8  -8 -10    6.54    1.57
  -8  -8 -10    7.43    1.50
   8   8  10    4.26    1.48
   8   8  10    4.90    1.72
   8   8  10    7.40    1.67
  -9  -8 -10   -1.09    1.48
  -9  -8 -10    0.73    1.29
   9   8  10   -0.39    1.29
   9   8  10    4.07    1.47
   9   8  10   -0.43    1.56
 -10  -8 -10    9.22    2.21
 -10  -8 -10   11.21    1.78
  10   8  10    9.32    1.87
  10   8  10   10.48    2.28
  10   8  10    6.69    1.74
  -1  -9 -10   12.76    2.16
   1   9  10   13.24    1.99
   1   9  10   11.51    2.02
   1   9  10   16.26    2.41
  -2  -9 -10    5.50    1.78
   2   9  10    5.42    1.49
   2   9  10    4.08    1.69
   2   9  10    6.50    1.93
  -3  -9 -10   -0.38    1.38
  -3  -9 -10    2.18    0.87
   3   9  10    1.05    1.55
   3   9  10    0.84    1.49
   3   9  10   -1.32    1.10
  -4  -9 -10   -0.72    1.41
   4   9  10    0.57    1.40
   4   9  10    0.03    1.42
  -5  -9 -10    0.17    1.38
  -5  -9 -10   -0.34    0.87
   5   9  10    1.29    1.33
   5   9  10    0.18    1.16
   5   9  10   -0.72    1.44
  -6  -9 -10   -1.07    0.94
  -6  -9 -10    1.60    1.55
   6   9  10   -0.04    1.11
   6   9  10   -1.79    1.24
   6   9  10    1.67    1.29
  -7  -9 -10   10.18    2.10
  -7  -9 -10   10.27    1.42
   7   9  10    8.17    1.70
   7   9  10    6.89    1.62
   7   9  10    9.00    1.77
  -8  -9 -10    1.04    1.11
  -8  -9 -10    3.06    1.61
   8   9  10    0.93    1.45
   8   9  10    0.18    1.25
   8   9  10    1.38    1.37
  -9  -9 -10    4.26    1.91
  -9  -9 -10    3.68    1.34
   9   9  10    0.87    1.61
   9   9  10    1.89    1.81
   9   9  10    1.97    1.60
 -10  -9 -10    1.11    1.39
  10   9  10    0.12    1.66
  10   9  10    0.01    1.57
  -3 -10 -10    1.64    1.79
   3  10  10    0.69    1.78
   3  10  10    0.20    1.27
   3  10  10    0.96    1.73
  -4 -10 -10    1.15    1.69
   4  10  10    0.30    1.68
   4  10  10    0.71    1.62
  -5 -10 -10    3.22    1.72
   5  10  10    0.63    1.66
   5  10  10   -0.84    1.38
   5  10  10    2.03    1.80
  -6 -10 -10   -0.19    1.65
  -6 -10 -10   -0.05    0.95
   6  10  10   -2.50    1.56
   6  10  10    0.05    1.52
   6  10  10    0.60    1.36
  -7 -10 -10   20.20    1.67
  -7 -10 -10   20.36    2.59
   7  10  10   16.19    2.50
   7  10  10   16.95    2.27
   7  10  10   22.82    2.46
  -8 -10 -10   14.87    3.02
  -8 -10 -10   19.37    1.83
   8  10  10   15.41    2.21
   8  10  10   14.30    2.76
   8  10  10   15.19    2.22
  -9 -10 -10    3.54    1.92
  -9 -10 -10    2.10    1.45
   9  10  10   -3.29    1.85
   9  10  10   -2.90    1.53
   9  10  10   -2.39    1.69
   4   8 -11   -1.55    1.50
   4   8 -11    3.07    1.55
   4   8 -11    0.10    1.47
   3   8 -11   -3.49    1.46
   3   8 -11    3.09    1.58
   2   8 -11    2.85    1.60
   2   8 -11    2.99    1.53
  -2  -8  11    3.45    1.35
   1   8 -11    5.43    2.35
   1   8 -11    1.12    1.41
   1   8 -11    3.49    1.58
  -1  -8  11    3.46    1.44
   0   8 -11   -0.61    1.31
   0   8 -11   -0.10    1.54
   0   8 -11   -1.35    2.04
   0  -8  11    0.78    1.15
   0  -8  11    2.57    1.56
  -1   8 -11   -1.17    1.54
   1  -8  11    2.61    1.58
   1  -8  11    4.22    1.10
   6   7 -11    5.22    1.99
  -6  -7  11    6.60    2.07
  -6  -7  11    5.51    1.75
   5   7 -11    0.62    1.65
   5   7 -11    1.00    1.31
  -5  -7  11   -1.35    1.65
  -5  -7  11    1.07    1.76
   4   7 -11    4.65    1.66
   4   7 -11    4.02    1.38
   4   7 -11    4.00    1.58
  -4  -7  11    3.17    1.74
   3   7 -11    4.50    1.55
   3   7 -11    4.13    1.48
   3   7 -11    3.26    1.33
  -3  -7  11    2.43    1.61
  -3  -7  11    4.46    1.24
   2   7 -11    0.67    1.24
   2   7 -11    0.05    1.20
  -2  -7  11    0.63    1.52
  -2  -7  11    0.02    1.24
   1   7 -11    3.42    1.36
   1   7 -11    2.54    1.36
  -1  -7  11    0.55    1.17
  -1  -7  11   -0.31    1.50
   0   7 -11    9.08    2.28
   0   7 -11   10.07    1.79
   0   7 -11   10.45    1.63
   0  -7  11   11.38    1.34
   0  -7  11    9.84    1.73
  -1   7 -11    5.94    1.64
  -1   7 -11    2.89    2.01
  -1   7 -11    5.22    1.35
   1  -7  11    7.50    1.64
   1  -7  11    5.73    1.12
  -2   7 -11    0.48    1.89
  -2   7 -11    0.92    1.57
   2  -7  11   -0.59    1.02
   2  -7  11    3.73    1.29
  -3   7 -11    3.58    1.92
   3  -7  11    6.90    1.29
   6   6 -11   10.45    2.33
  -6  -6  11   11.21    2.29
  -6  -6  11   11.96    2.10
   5   6 -11    2.74    1.72
  -5  -6  11    1.45    1.64
  -5  -6  11    3.93    1.67
   4   6 -11   -1.25    1.26
   4   6 -11    0.15    1.57
  -4  -6  11   -1.41    1.38
  -4  -6  11    0.93    1.54
   3   6 -11    0.72    1.28
   3   6 -11    0.35    1.19
  -3  -6  11   -0.07    0.90
  -3  -6  11    0.64    1.38
   2   6 -11    2.84    1.22
   2   6 -11    0.88    1.17
  -2  -6  11    1.83    1.02
  -2  -6  11    0.67    1.38
   1   6 -11    9.62    1.65
   1   6 -11   10.25    1.63
  -1  -6  11   11.63    1.99
  -1  -6  11    7.50    1.37
   0   6 -11    0.39    0.90
   0   6 -11    0.53    1.08
   0  -6  11    1.17    0.77
   0  -6  11   -0.91    1.39
   0  -6  11    0.29    1.09
  -1   6 -11   -1.19    1.06
  -1   6 -11    0.00    1.25
  -1   6 -11    3.35    1.71
   1  -6  11    0.83    0.76
   1  -6  11    1.14    1.10
   1  -6  11    0.88    1.23
  -2   6 -11    5.36    1.55
  -2   6 -11    6.03    1.95
  -2   6 -11    2.93    1.15
   2  -6  11    5.01    1.03
   2  -6  11    2.89    1.38
   2  -6  11    6.20    1.55
  -3   6 -11    3.95    1.61
  -3   6 -11   -2.10    1.32
   3  -6  11    0.11    0.94
   3  -6  11    0.71    1.31
  -4   6 -11    6.99    2.26
  -4   6 -11    4.05    1.71
   4  -6  11    2.47    1.14
   4  -6  11    4.74    1.66
   7   5 -11    2.09    2.27
  -7  -5  11   -0.72    1.96
  -7  -5  11    0.43    1.62
   6   5 -11    3.12    1.88
  -6  -5  11   -2.80    1.08
  -6  -5  11   -0.06    1.54
   5   5 -11    9.62    1.97
   5   5 -11    5.34    0.94
  -5  -5  11    8.05    1.78
  -5  -5  11    6.52    1.78
   4   5 -11    9.18    1.11
  -4  -5  11   12.54    2.10
  -4  -5  11   10.78    1.84
   3   5 -11   13.29    1.84
   3   5 -11   12.58    1.13
  -3  -5  11   10.19    1.90
  -3  -5  11   10.28    1.30
  -3  -5  11   13.58    1.91
   2   5 -11    1.34    0.77
   2   5 -11    2.59    1.19
   2   5 -11    2.94    1.17
  -2  -5  11    1.50    1.24
  -2  -5  11    0.90    0.94
   1   5 -11    9.13    1.46
   1   5 -11   10.06    1.49
  -1  -5  11    7.90    1.34
  -1  -5  11    7.60    1.72
   0   5 -11    2.91    1.12
   0   5 -11    1.38    1.16
   0  -5  11    4.39    1.24
   0  -5  11    2.88    1.12
  -1   5 -11    7.84    1.47
  -1   5 -11    7.29    1.38
   1  -5  11    6.18    1.39
   1  -5  11    5.16    0.82
   1  -5  11    4.91    1.29
  -2   5 -11    2.17    1.00
  -2   5 -11    0.25    1.44
  -2   5 -11    2.64    1.09
   2  -5  11    1.74    0.79
   2  -5  11    0.98    1.14
   2  -5  11    3.35    1.25
  -3   5 -11    9.17    1.69
  -3   5 -11    6.62    1.18
  -3   5 -11    9.12    1.99
   3  -5  11    8.49    1.88
   3  -5  11    6.69    1.09
   3  -5  11    6.95    1.59
  -4   5 -11    7.19    1.05
  -4   5 -11    5.02    1.63
  -4   5 -11    6.95    1.68
   4  -5  11    5.68    1.67
   4  -5  11    7.73    1.27
  -5   5 -11   25.55    2.45
  -5   5 -11   24.80    2.91
   5  -5  11   22.32    2.56
   5  -5  11   25.25    1.99
  -6   5 -11    4.70    1.89
  -6   5 -11    4.68    2.29
   6  -5  11    6.02    1.61
   6  -5  11    4.82    1.40
  -7  -4  11    4.71    1.75
  -7  -4  11    5.49    1.63
   6   4 -11    2.78    1.80
  -6  -4  11    0.93    1.58
  -6  -4  11    1.49    1.37
   5   4 -11   18.17    2.37
  -5  -4  11   21.05    2.40
  -5  -4  11   16.56    2.06
   4   4 -11    5.59    0.56
   4   4 -11    7.21    1.66
  -4  -4  11    8.08    1.60
  -4  -4  11    8.16    1.75
   3   4 -11    1.15    1.14
   3   4 -11   -0.61    0.27
  -3  -4  11   -1.05    0.86
  -3  -4  11   -1.02    0.68
  -3  -4  11   -0.50    1.18
   2   4 -11   22.80    0.86
   2   4 -11   24.69    1.91
   2   4 -11   21.41    1.88
  -2  -4  11   24.62    1.59
  -2  -4  11   21.58    2.16
  -2  -4  11   21.44    2.09
   1   4 -11   14.21    1.67
   1   4 -11   14.06    1.72
   1   4 -11   10.10    0.87
   1   4 -11   12.68    0.93
  -1  -4  11   12.85    1.46
  -1  -4  11   13.88    1.83
   0   4 -11    0.63    1.02
   0   4 -11   -1.13    0.84
   0   4 -11   -0.60    0.72
   0  -4  11    0.34    0.92
   0  -4  11   -0.30    1.19
  -1   4 -11    2.84    1.11
  -1   4 -11    1.47    0.97
   1  -4  11    2.66    0.60
   1  -4  11    2.22    1.09
   1  -4  11    1.20    1.22
  -2   4 -11    4.49    1.13
  -2   4 -11    2.79    1.28
   2  -4  11    2.10    1.15
   2  -4  11    4.49    0.76
   2  -4  11    3.12    1.20
  -3   4 -11   -1.80    1.32
  -3   4 -11   -0.52    0.80
  -3   4 -11    0.08    0.93
   3  -4  11    0.39    1.17
   3  -4  11    0.49    0.69
   3  -4  11    0.18    1.27
  -4   4 -11   18.18    2.13
  -4   4 -11   16.94    1.51
  -4   4 -11   14.49    2.24
   4  -4  11   16.15    2.14
   4  -4  11   16.77    1.42
   4  -4  11   15.94    1.89
  -5   4 -11    1.53    1.69
  -5   4 -11    1.78    0.93
  -5   4 -11    1.66    1.35
   5  -4  11    1.26    0.95
   5  -4  11    0.00    1.57
   5  -4  11    4.00    1.28
  -6   4 -11   30.23    3.12
  -6   4 -11   34.84    2.66
   6  -4  11   36.33    2.93
   6  -4  11   31.16    2.21
  -7   4 -11    9.39    2.09
   7  -4  11   12.09    1.78
   7  -4  11   11.00    2.19
  -7  -3  11   -1.14    1.87
  -7  -3  11    0.40    1.55
   6   3 -11    0.00    1.59
  -6  -3  11   -1.27    1.66
  -6  -3  11   -1.71    1.23
   5   3 -11   -0.12    1.37
  -5  -3  11    0.51    1.25
  -5  -3  11    3.97    1.64
   4   3 -11    1.85    1.27
  -4  -3  11   -0.28    1.10
  -4  -3  11    1.65    1.29
   3   3 -11    2.54    1.20
  -3  -3  11    2.76    0.76
  -3  -3  11    2.59    1.25
  -3  -3  11    1.72    1.20
   2   3 -11    0.64    1.00
   2   3 -11    0.83    1.02
  -2  -3  11   -1.59    1.03
  -2  -3  11   -1.33    1.03
  -2  -3  11   -0.12    0.71
   1   3 -11    8.60    1.43
   1   3 -11    7.94    1.37
  -1  -3  11    7.62    1.51
  -1  -3  11    7.37    1.19
  -1  -3  11    7.27    1.49
   0   3 -11   38.14    2.08
   0   3 -11   32.38    2.08
   0  -3  11   36.69    1.97
   0  -3  11   36.92    2.29
  -1   3 -11    1.90    0.74
  -1   3 -11    0.86    1.04
  -1   3 -11    0.20    0.87
   1  -3  11    1.80    0.42
   1  -3  11    1.96    0.96
   1  -3  11   -0.21    0.78
  -2   3 -11   16.53    1.45
  -2   3 -11   18.29    1.59
  -2   3 -11   17.37    1.50
   2  -3  11   18.22    1.69
   2  -3  11   15.69    1.93
   2  -3  11   18.83    1.01
  -3   3 -11    4.00    1.31
  -3   3 -11    5.56    1.15
  -3   3 -11    7.03    1.72
   3  -3  11    7.39    1.40
   3  -3  11    5.17    0.78
   3  -3  11    4.88    1.24
  -4   3 -11   -0.74    1.06
  -4   3 -11    0.27    1.00
  -4   3 -11   -0.21    0.98
   4  -3  11    1.08    1.16
   4  -3  11   -1.53    1.10
   4  -3  11   -0.20    0.67
  -5   3 -11    2.80    1.57
  -5   3 -11   -0.12    1.24
  -5   3 -11    1.94    1.09
   5  -3  11    2.00    0.91
   5  -3  11    2.85    1.38
   5  -3  11    3.07    1.09
  -6   3 -11    2.99    1.63
  -6   3 -11   -1.21    1.06
   6  -3  11    1.07    1.17
   6  -3  11    0.33    1.00
   6  -3  11    0.41    1.50
  -7   3 -11   20.78    2.49
  -7   3 -11   20.92    2.82
   7  -3  11   22.57    1.94
   7  -3  11   21.62    2.68
  -7  -2  11    0.45    1.44
   6   2 -11    1.76    1.27
  -6  -2  11    0.91    1.53
  -6  -2  11    0.49    1.53
   5   2 -11    3.17    1.55
  -5  -2  11    1.80    1.31
  -5  -2  11    2.41    1.46
   4   2 -11    2.57    1.38
  -4  -2  11    2.10    1.34
  -4  -2  11    3.48    1.26
   3   2 -11   14.94    1.74
  -3  -2  11   13.72    1.02
  -3  -2  11   14.29    1.60
  -3  -2  11   15.99    1.91
   2   2 -11   -0.19    1.19
   2   2 -11    1.08    1.09
  -2  -2  11    0.19    1.00
  -2  -2  11    0.76    0.84
   1   2 -11   41.40    2.24
   1   2 -11   44.40    2.28
  -1  -2  11   38.59    2.46
  -1  -2  11   45.01    2.55
  -1  -2  11   40.72    1.91
   0   2 -11   17.50    1.59
   0   2 -11   17.83    1.59
   0  -2  11   18.53    1.81
   0  -2  11   16.28    1.84
   0  -2  11   17.98    1.42
  -1   2 -11    3.12    0.33
  -1   2 -11    3.68    1.14
  -1   2 -11    2.83    1.04
   1  -2  11    2.85    1.21
   1  -2  11    3.07    1.05
  -2   2 -11    1.10    0.82
  -2   2 -11   -0.60    0.90
  -2   2 -11    0.55    0.69
   2  -2  11    0.35    0.64
   2  -2  11    0.35    0.86
   2  -2  11    0.36    0.38
  -3   2 -11   20.50    1.54
  -3   2 -11   19.52    1.76
  -3   2 -11   23.82    1.65
   3  -2  11   23.05    1.12
   3  -2  11   22.21    1.89
   3  -2  11   23.20    2.08
  -4   2 -11   -0.20    0.93
  -4   2 -11   -0.53    0.71
  -4   2 -11    1.63    1.27
   4  -2  11   -0.86    1.09
   4  -2  11    0.21    0.61
   4  -2  11   -0.23    1.11
  -5   2 -11   53.39    2.35
  -5   2 -11   55.15    2.95
  -5   2 -11   58.31    2.83
   5  -2  11   57.30    3.09
   5  -2  11   55.18    2.13
   5  -2  11   55.68    2.79
  -6   2 -11   22.96    1.89
  -6   2 -11   22.46    1.74
  -6   2 -11   27.33    2.54
   6  -2  11   21.47    1.70
   6  -2  11   26.37    2.35
   6  -2  11   22.16    2.29
  -7   2 -11    0.40    1.15
  -7   2 -11   -1.94    1.40
  -7   2 -11    4.21    1.47
   7  -2  11    0.36    1.50
   7  -2  11    0.97    1.04
   7  -2  11   -0.06    1.49
  -8   2 -11    1.28    1.72
  -8   2 -11    3.78    1.75
   8  -2  11    1.93    1.34
   8  -2  11    5.28    1.53
   6   1 -11   -0.42    1.22
  -6  -1  11   -3.40    1.30
  -6  -1  11    0.16    1.41
   5   1 -11    4.36    1.61
  -5  -1  11    3.45    1.58
  -5  -1  11    4.46    1.44
   4   1 -11    0.85    1.30
  -4  -1  11    2.14    1.32
  -4  -1  11    3.41    1.28
   3   1 -11   23.71    2.00
   3   1 -11   19.53    1.44
  -3  -1  11   22.19    1.07
  -3  -1  11   22.18    2.03
  -3  -1  11   18.49    1.96
   2   1 -11    5.42    1.22
   2   1 -11    8.83    1.46
  -2  -1  11    6.97    1.48
  -2  -1  11    8.40    1.00
  -2  -1  11    6.76    1.48
   1   1 -11    1.96    1.02
   1   1 -11    0.92    0.94
  -1  -1  11    0.47    1.00
  -1  -1  11    1.16    0.70
  -1  -1  11    0.01    0.99
   0   1 -11  102.59    3.60
   0   1 -11  106.93    3.63
   0  -1  11  105.68    3.34
   0  -1  11  106.05    3.85
   0  -1  11  102.39    3.90
  -1   1 -11    1.41    0.98
  -1   1 -11    3.27    1.07
   1  -1  11    2.71    0.91
   1  -1  11    2.15    1.10
   1  -1  11    3.01    1.15
  -2   1 -11   21.86    1.65
  -2   1 -11   20.45    1.68
   2  -1  11   22.45    0.67
   2  -1  11   20.87    1.69
   2  -1  11   24.42    2.00
  -3   1 -11   10.61    1.07
  -3   1 -11   10.69    1.51
  -3   1 -11    8.97    1.36
   3  -1  11   10.16    0.74
   3  -1  11    9.81    1.22
   3  -1  11    7.91    1.37
  -4   1 -11   -0.19    1.09
  -4   1 -11    0.58    0.97
  -4   1 -11    1.66    0.97
   4  -1  11   -0.91    0.99
   4  -1  11    0.40    0.80
   4  -1  11    0.04    0.57
  -5   1 -11    1.44    1.22
  -5   1 -11    0.36    1.03
  -5   1 -11    1.65    1.03
   5  -1  11    0.96    1.14
   5  -1  11    0.65    1.19
   5  -1  11    1.54    0.74
  -6   1 -11   21.27    2.23
  -6   1 -11   19.87    1.89
  -6   1 -11   19.64    1.71
   6  -1  11   18.82    1.82
   6  -1  11   19.35    1.56
   6  -1  11   16.43    2.05
  -7   1 -11   23.41    2.39
  -7   1 -11   20.94    2.14
  -7   1 -11   21.10    1.84
   7  -1  11   19.44    1.71
   7  -1  11   19.27    2.30
   7  -1  11   20.18    2.26
  -8   1 -11    9.52    2.13
  -8   1 -11   10.55    1.65
  -8   1 -11   11.14    2.03
   8  -1  11    8.48    1.55
   8  -1  11    5.30    1.56
   8  -1  11    8.40    1.89
  -9   1 -11   -2.64    1.77
  -9   1 -11    0.15    1.54
  -9   1 -11    0.24    1.70
   9  -1  11   -0.72    1.32
   6   0 -11    0.82    1.59
  -6   0  11    0.14    1.66
  -6   0  11    3.40    1.54
   5   0 -11    3.71    1.59
  -5   0  11    0.33    1.08
  -5   0  11    1.95    1.40
   4   0 -11   12.79    1.98
  -4   0  11   12.04    1.90
  -4   0  11   12.75    1.94
   3   0 -11    2.76    1.33
   3   0 -11    3.07    0.93
  -3   0  11    1.13    0.49
  -3   0  11    2.25    0.98
  -3   0  11   -0.89    1.04
   2   0 -11   45.13    2.35
   2   0 -11   46.49    2.01
  -2   0  11   46.69    1.76
  -2   0  11   45.07    2.56
  -2   0  11   44.71    2.59
   1   0 -11    8.15    1.39
   1   0 -11    7.83    1.41
   1   0 -11    7.81    1.30
  -1   0  11    7.47    1.35
  -1   0  11    8.38    1.18
  -1   0  11    6.63    1.29
   0   0 -11   28.48    1.94
   0   0 -11   30.17    1.88
   0   0  11   32.03    1.66
   0   0  11   29.04    2.02
   0   0  11   31.40    2.18
  -1   0 -11   51.07    2.41
  -1   0 -11   51.23    2.37
   1   0  11   50.71    2.53
   1   0  11   48.42    2.25
   1   0  11   47.22    2.51
  -2   0 -11   10.73    1.17
  -2   0 -11   12.95    1.43
   2   0  11   10.82    1.39
   2   0  11   12.82    1.71
  -3   0 -11    0.49    0.88
  -3   0 -11   -0.32    0.89
   3   0  11    1.33    0.96
   3   0  11    0.00    0.35
   3   0  11   -1.09    0.90
  -4   0 -11   -0.12    0.95
  -4   0 -11    0.71    0.91
  -4   0 -11    0.14    0.71
   4   0  11   -0.11    0.51
   4   0  11    0.47    1.01
   4   0  11   -0.61    0.99
  -5   0 -11   34.18    2.37
  -5   0 -11   33.29    1.93
  -5   0 -11   30.92    2.29
  -5   0 -11   33.36    2.14
   5   0  11   34.22    2.32
   5   0  11   33.04    1.54
   5   0  11   34.50    2.31
  -6   0 -11    5.75    1.49
  -6   0 -11    7.45    1.49
  -6   0 -11    3.83    1.28
   6   0  11    2.99    1.38
   6   0  11    6.29    1.06
   6   0  11    5.65    1.44
  -7   0 -11   -0.95    1.26
  -7   0 -11   -0.68    1.12
  -7   0 -11    0.33    1.02
   7   0  11    1.55    1.37
   7   0  11    0.74    0.87
   7   0  11   -0.98    1.26
  -8   0 -11   12.81    1.83
  -8   0 -11   12.23    1.95
  -8   0 -11   10.64    2.08
   8   0  11   14.06    2.15
   8   0  11   14.56    1.78
   8   0  11   10.82    1.89
  -9   0 -11   -1.04    1.51
  -9   0 -11    1.50    1.59
  -9   0 -11    1.31    1.47
   9   0  11    1.43    1.67
   9   0  11    0.54    1.28
   9   0  11    0.79    1.46
   6  -1 -11   14.68    2.56
  -6   1  11    9.13    2.08
   5  -1 -11    1.16    1.45
  -5   1  11    0.05    1.41
  -5   1  11    0.84    1.51
   4  -1 -11    0.58    1.40
  -4   1  11    0.07    1.34
  -4   1  11    0.70    1.37
   3  -1 -11    6.09    1.56
  -3   1  11    2.48    1.27
  -3   1  11    5.28    0.65
  -3   1  11    2.94    1.34
   2  -1 -11    2.84    1.26
   2  -1 -11    4.94    1.14
  -2   1  11    5.12    1.35
  -2   1  11    4.04    1.33
  -2   1  11    4.76    0.83
   1  -1 -11    0.08    0.76
   1  -1 -11    0.14    1.14
   1  -1 -11    0.31    0.83
  -1   1  11    0.01    0.95
  -1   1  11    0.49    1.02
   0  -1 -11    0.29    0.97
   0  -1 -11    1.66    0.92
   0   1  11    0.62    1.04
   0   1  11   -1.17    0.74
   0   1  11   -0.06    0.88
  -1  -1 -11    0.96    0.88
  -1  -1 -11    0.42    0.94
   1   1  11    2.33    0.87
   1   1  11    1.81    0.84
   1   1  11    1.80    1.08
  -2  -1 -11   63.46    2.53
  -2  -1 -11   62.84    2.71
   2   1  11   59.29    2.89
   2   1  11   64.25    2.63
   2   1  11   63.01    2.76
  -3  -1 -11    2.51    1.05
  -3  -1 -11    0.99    0.97
   3   1  11    1.10    0.31
   3   1  11    2.17    0.99
   3   1  11    1.65    1.03
  -4  -1 -11   23.27    1.75
  -4  -1 -11   22.50    1.62
   4   1  11   27.08    1.17
   4   1  11   23.54    1.97
   4   1  11   25.10    1.75
  -5  -1 -11    1.16    1.02
  -5  -1 -11    0.75    1.13
  -5  -1 -11    0.35    1.10
  -5  -1 -11    0.35    0.97
   5   1  11    1.03    0.75
   5   1  11    0.05    0.77
   5   1  11    0.67    1.02
  -6  -1 -11   12.20    1.62
  -6  -1 -11   13.52    1.73
  -6  -1 -11   15.39    1.71
   6   1  11   11.70    1.71
   6   1  11   12.32    1.31
   6   1  11   14.36    1.92
  -7  -1 -11    0.55    1.22
  -7  -1 -11    0.63    1.08
  -7  -1 -11    0.75    1.27
   7   1  11   -0.43    1.10
   7   1  11    1.03    1.26
   7   1  11   -0.99    0.83
  -8  -1 -11   36.59    2.33
  -8  -1 -11   36.62    2.62
  -8  -1 -11   37.88    2.55
   8   1  11   36.24    2.20
   8   1  11   35.28    2.58
   8   1  11   37.28    2.78
  -9  -1 -11    0.37    1.50
  -9  -1 -11    2.47    1.44
  -9  -1 -11   -0.37    1.35
   9   1  11    2.47    1.26
   9   1  11    1.51    1.48
   9   1  11    0.38    1.24
 -10  -1 -11   -0.56    1.64
 -10  -1 -11    1.52    1.86
  10   1  11    3.19    1.64
  10   1  11    3.10    2.15
   5  -2 -11    7.11    2.08
  -5   2  11    5.43    1.59
  -5   2  11    5.56    1.73
   4  -2 -11    2.94    1.46
  -4   2  11    0.91    1.33
  -4   2  11   -0.10    1.37
   3  -2 -11    4.06    1.48
  -3   2  11    1.95    1.34
  -3   2  11    2.58    1.37
  -3   2  11    2.69    0.60
   2  -2 -11    0.67    1.16
   2  -2 -11   -0.43    0.85
  -2   2  11   -0.07    1.03
  -2   2  11    0.27    0.72
  -2   2  11    0.72    1.09
   1  -2 -11   -1.19    0.82
   1  -2 -11   -1.52    1.24
   1  -2 -11   -0.16    1.00
  -1   2  11   -0.65    0.64
  -1   2  11   -1.26    1.02
  -1   2  11   -0.49    0.80
   0  -2 -11    7.12    1.20
   0  -2 -11    5.33    1.33
   0   2  11    5.88    1.31
   0   2  11    7.36    1.15
   0   2  11    7.44    1.43
  -1  -2 -11    7.79    1.23
  -1  -2 -11    9.57    1.52
   1   2  11    8.33    1.36
   1   2  11    8.26    1.24
   1   2  11    8.49    1.38
  -2  -2 -11   11.74    1.31
  -2  -2 -11    7.71    1.43
   2   2  11    9.44    1.55
   2   2  11    7.93    1.26
   2   2  11    9.53    1.38
  -3  -2 -11   -0.57    0.81
  -3  -2 -11    0.42    0.99
   3   2  11    0.70    0.93
   3   2  11   -0.04    0.27
   3   2  11   -0.28    0.68
   3   2  11    0.01    0.86
  -4  -2 -11    4.43    1.17
  -4  -2 -11    3.52    1.16
   4   2  11    4.05    1.04
   4   2  11    3.83    0.62
   4   2  11    3.84    1.16
  -5  -2 -11   35.36    2.13
  -5  -2 -11   36.92    2.17
   5   2  11   35.21    2.28
   5   2  11   37.42    1.60
   5   2  11   37.67    2.35
  -6  -2 -11    0.26    1.02
  -6  -2 -11   -1.25    0.98
  -6  -2 -11    2.43    1.14
   6   2  11    0.81    0.76
   6   2  11   -0.92    0.82
   6   2  11    1.51    1.11
  -7  -2 -11   -0.59    1.07
  -7  -2 -11   -0.07    1.10
  -7  -2 -11   -0.53    1.18
   7   2  11    0.85    1.17
   7   2  11    0.95    1.29
   7   2  11   -1.45    0.80
  -8  -2 -11    8.90    1.69
  -8  -2 -11    6.51    1.61
  -8  -2 -11    8.83    1.74
   8   2  11    7.80    1.41
   8   2  11    7.93    1.80
   8   2  11    6.60    1.62
  -9  -2 -11    5.05    1.74
  -9  -2 -11    9.68    1.69
  -9  -2 -11    5.32    1.61
   9   2  11    6.98    1.65
   9   2  11    6.54    1.56
   9   2  11    8.19    1.97
 -10  -2 -11    0.51    1.66
 -10  -2 -11    2.26    1.65
 -10  -2 -11    0.74    1.63
  10   2  11   -0.77    1.32
  10   2  11    0.63    1.73
  10   2  11   -0.23    1.48
   5  -3 -11    3.27    1.98
  -5   3  11    0.49    1.67
  -5   3  11    2.33    2.18
   4  -3 -11   -2.39    1.30
  -4   3  11    0.76    1.45
  -4   3  11   -2.33    1.48
   3  -3 -11    3.23    0.52
   3  -3 -11    3.61    1.51
  -3   3  11    6.12    1.61
  -3   3  11    2.98    0.77
  -3   3  11    7.73    1.65
   2  -3 -11    3.72    1.09
   2  -3 -11    3.61    1.36
  -2   3  11    2.49    1.33
  -2   3  11    3.98    1.45
  -2   3  11    2.13    0.92
   1  -3 -11   28.54    1.77
   1  -3 -11   28.08    2.14
  -1   3  11   24.30    2.01
  -1   3  11   23.53    1.60
  -1   3  11   26.15    2.25
   0  -3 -11    6.48    1.19
   0  -3 -11    6.19    1.41
   0   3  11    8.12    1.22
   0   3  11    3.86    1.28
   0   3  11    5.81    1.24
  -1  -3 -11    0.22    0.81
  -1  -3 -11   -1.53    0.94
   1   3  11    0.56    0.90
   1   3  11    0.14    0.84
   1   3  11    0.35    0.87
  -2  -3 -11    4.63    1.08
  -2  -3 -11    5.06    1.26
   2   3  11    4.77    1.08
   2   3  11    5.17    1.13
   2   3  11    4.94    1.12
  -3  -3 -11    7.39    1.41
  -3  -3 -11    8.72    1.30
   3   3  11    6.13    1.22
   3   3  11    6.51    1.34
   3   3  11    6.19    1.24
   3   3  11    5.93    0.59
   3   3  11    6.03    0.54
  -4  -3 -11    1.79    0.79
  -4  -3 -11    3.72    1.19
   4   3  11    2.53    1.14
   4   3  11    3.35    0.60
   4   3  11    1.63    0.87
   4   3  11    2.91    0.63
  -5  -3 -11    9.00    1.42
  -5  -3 -11    8.25    1.50
   5   3  11    7.20    1.29
   5   3  11    7.83    0.97
   5   3  11    7.85    1.49
  -6  -3 -11    5.14    1.31
  -6  -3 -11    5.33    1.34
  -6  -3 -11    3.73    1.16
   6   3  11    5.95    1.45
   6   3  11    3.68    0.94
   6   3  11    3.49    1.24
  -7  -3 -11    7.06    1.50
  -7  -3 -11    8.03    1.50
  -7  -3 -11   12.91    1.79
   7   3  11    8.87    1.34
   7   3  11    8.07    1.59
   7   3  11    9.94    1.74
  -8  -3 -11    8.50    1.61
  -8  -3 -11    8.17    1.55
  -8  -3 -11    8.08    1.44
   8   3  11    6.03    1.49
   8   3  11    5.48    1.35
   8   3  11    4.26    1.69
  -9  -3 -11    5.84    1.66
  -9  -3 -11    3.27    1.55
  -9  -3 -11    7.48    1.77
   9   3  11    4.39    1.66
   9   3  11    5.31    1.40
   9   3  11    5.84    1.81
 -10  -3 -11   -1.18    1.57
 -10  -3 -11    0.39    1.60
 -10  -3 -11    0.62    1.58
  10   3  11    2.67    1.42
  10   3  11   -0.31    1.73
  10   3  11    2.03    1.43
   4  -4 -11    2.63    1.78
  -4   4  11    6.47    1.89
  -4   4  11    1.13    1.77
   3  -4 -11    2.84    0.71
   3  -4 -11    6.31    1.76
   3  -4 -11    2.65    1.24
  -3   4  11    5.40    1.04
  -3   4  11    4.16    1.64
  -3   4  11    5.23    1.68
   2  -4 -11    9.94    1.49
   2  -4 -11    9.49    1.81
  -2   4  11   11.39    1.42
  -2   4  11   11.56    1.93
  -2   4  11   12.14    1.85
   1  -4 -11   -0.16    1.19
   1  -4 -11    0.64    0.91
  -1   4  11   -0.39    0.96
  -1   4  11   -0.82    1.13
  -1   4  11   -0.47    1.10
   0  -4 -11    0.04    1.10
   0  -4 -11   -0.23    0.92
   0   4  11    0.55    0.94
   0   4  11    1.29    1.22
   0   4  11   -0.89    0.96
   0   4  11   -0.40    0.40
  -1  -4 -11    1.71    1.20
  -1  -4 -11    2.22    0.92
   1   4  11    1.29    1.03
   1   4  11    1.93    1.17
   1   4  11    2.58    1.00
   1   4  11    0.67    0.37
  -2  -4 -11   16.47    1.53
  -2  -4 -11   15.12    1.72
   2   4  11   15.79    1.67
   2   4  11   15.05    1.78
   2   4  11   14.99    0.81
   2   4  11   16.24    0.81
   2   4  11   15.64    1.60
  -3  -4 -11    7.53    1.48
  -3  -4 -11    7.07    1.24
   3   4  11    7.17    0.78
   3   4  11    6.30    0.72
   3   4  11    6.27    1.33
   3   4  11    7.55    1.23
   3   4  11    7.26    1.49
  -4  -4 -11    3.29    1.27
  -4  -4 -11    5.06    1.18
   4   4  11    3.60    1.24
   4   4  11    3.31    1.23
   4   4  11    6.01    0.72
   4   4  11    2.93    0.75
  -5  -4 -11    6.49    1.44
  -5  -4 -11    5.89    1.21
   5   4  11    5.91    1.35
   5   4  11    5.11    1.01
   5   4  11    3.60    0.86
   5   4  11    3.08    1.24
  -6  -4 -11  131.03    4.24
  -6  -4 -11  128.48    4.42
  -6  -4 -11  135.26    4.14
   6   4  11  125.99    3.75
   6   4  11  134.50    4.53
   6   4  11  134.61    4.69
  -7  -4 -11    8.17    1.57
  -7  -4 -11    4.62    1.19
  -7  -4 -11    7.30    1.44
   7   4  11    6.03    1.67
   7   4  11    7.71    1.53
   7   4  11    8.46    1.31
  -8  -4 -11   12.28    1.91
  -8  -4 -11   11.70    1.79
  -8  -4 -11   13.04    1.65
   8   4  11   11.58    1.98
   8   4  11   11.61    1.74
   8   4  11   10.72    1.51
  -9  -4 -11    4.83    1.31
  -9  -4 -11    2.56    1.46
  -9  -4 -11    3.46    1.35
   9   4  11    4.39    1.74
   9   4  11    2.81    1.32
   9   4  11    4.41    1.36
 -10  -4 -11    3.42    1.71
 -10  -4 -11    3.92    1.48
 -10  -4 -11    4.17    1.69
  10   4  11    1.09    1.31
  10   4  11    1.56    1.52
  10   4  11    2.78    1.60
   3  -5 -11    0.70    0.92
   3  -5 -11   -0.40    1.24
   3  -5 -11   -3.27    1.70
  -3   5  11    3.03    1.46
  -3   5  11   -0.16    1.65
  -3   5  11    0.41    1.60
   2  -5 -11   -1.17    1.41
   2  -5 -11    1.40    1.00
  -2   5  11    1.50    1.48
  -2   5  11    1.03    1.12
  -2   5  11    0.99    1.52
   1  -5 -11    3.49    1.10
   1  -5 -11    6.95    1.63
  -1   5  11    1.95    1.28
  -1   5  11    3.75    1.54
  -1   5  11    1.26    1.07
   0  -5 -11   60.10    2.50
   0  -5 -11   62.89    3.07
   0   5  11   58.23    2.86
   0   5  11   61.71    2.72
   0   5  11   65.16    3.29
  -1  -5 -11    0.28    1.11
  -1  -5 -11    0.24    0.96
   1   5  11    1.33    1.04
   1   5  11    1.13    1.04
   1   5  11   -2.00    1.33
   1   5  11    0.55    0.63
   1   5  11   -0.16    1.15
  -2  -5 -11    1.77    0.93
  -2  -5 -11    1.27    1.21
   2   5  11    0.66    0.71
   2   5  11   -0.22    0.59
   2   5  11   -1.15    1.05
   2   5  11    1.14    0.96
   2   5  11   -1.32    0.92
  -3  -5 -11    0.95    0.85
  -3  -5 -11   -0.18    1.04
   3   5  11    0.49    1.06
   3   5  11    0.54    0.70
   3   5  11    0.43    1.02
   3   5  11   -0.60    1.04
   3   5  11    1.08    0.67
  -4  -5 -11   14.81    1.98
  -4  -5 -11   16.10    1.49
   4   5  11   15.14    1.83
   4   5  11   14.36    1.17
   4   5  11   15.15    1.59
   4   5  11   12.40    1.44
   4   5  11   16.93    1.28
  -5  -5 -11    3.40    1.31
  -5  -5 -11    3.18    1.09
   5   5  11    2.29    0.80
   5   5  11    2.80    1.05
   5   5  11    2.42    1.21
   5   5  11    3.12    1.17
  -6  -5 -11    5.37    1.20
  -6  -5 -11    1.14    1.17
   6   5  11    0.27    1.18
   6   5  11    0.47    0.92
   6   5  11    2.90    1.18
  -7  -5 -11   16.50    1.95
  -7  -5 -11   17.00    1.58
  -7  -5 -11   15.15    1.74
   7   5  11   15.40    1.99
   7   5  11   15.28    1.87
   7   5  11   14.93    1.61
  -8  -5 -11   11.24    1.66
  -8  -5 -11    9.54    1.74
  -8  -5 -11   12.53    1.51
   8   5  11   10.06    1.72
   8   5  11   11.83    1.83
   8   5  11    8.71    1.48
  -9  -5 -11    0.63    1.37
  -9  -5 -11    0.19    1.14
  -9  -5 -11    2.33    1.25
   9   5  11    1.43    1.35
   9   5  11   -1.15    1.46
   9   5  11   -0.78    1.35
 -10  -5 -11   -0.28    1.25
 -10  -5 -11    1.75    1.46
 -10  -5 -11   -0.99    1.53
  10   5  11    2.60    1.61
  10   5  11   -1.01    1.50
  10   5  11   -0.86    1.64
 -11  -5 -11   -0.16    1.41
 -11  -5 -11    2.20    1.96
  11   5  11    0.27    1.70
  11   5  11    0.75    1.67
  11   5  11    2.66    1.73
   2  -6 -11    4.26    1.27
   2  -6 -11    2.71    1.03
   2  -6 -11    4.60    1.84
  -2   6  11    3.51    1.38
  -2   6  11    4.84    1.70
  -2   6  11    4.29    1.86
   1  -6 -11   -0.38    1.07
   1  -6 -11   -0.11    1.44
  -1   6  11    2.09    1.47
  -1   6  11    1.25    1.33
  -1   6  11    1.11    1.34
   0  -6 -11    5.66    1.69
   0  -6 -11    7.36    1.19
   0   6  11    4.64    1.51
   0   6  11    6.30    1.77
   0   6  11    5.80    1.37
  -1  -6 -11    5.32    1.17
  -1  -6 -11    3.11    1.47
   1   6  11    3.89    1.41
   1   6  11    4.22    1.28
   1   6  11    5.05    1.36
  -2  -6 -11    0.27    0.91
  -2  -6 -11   -0.93    1.14
   2   6  11    1.04    1.26
   2   6  11    0.51    0.87
   2   6  11   -0.49    1.09
   2   6  11    1.12    1.07
  -3  -6 -11    1.61    1.00
  -3  -6 -11    1.53    1.22
   3   6  11    1.24    1.04
   3   6  11    1.29    1.19
   3   6  11    0.85    1.18
  -4  -6 -11    0.86    0.94
  -4  -6 -11    0.45    1.13
   4   6  11    0.31    1.12
   4   6  11   -1.00    0.79
   4   6  11    1.36    0.96
   4   6  11    0.16    1.08
  -5  -6 -11    4.27    1.21
  -5  -6 -11    4.04    1.11
   5   6  11    3.38    0.99
   5   6  11    3.93    1.30
   5   6  11    2.50    1.23
  -6  -6 -11   17.34    1.75
  -6  -6 -11   20.76    2.06
   6   6  11   16.93    1.90
   6   6  11   18.96    1.61
   6   6  11   17.20    2.03
  -7  -6 -11    0.66    1.32
  -7  -6 -11   -0.39    0.93
  -7  -6 -11    0.03    1.09
   7   6  11    2.30    1.46
   7   6  11    1.04    1.11
   7   6  11    0.44    1.18
  -8  -6 -11   17.81    1.62
  -8  -6 -11   17.84    1.88
  -8  -6 -11   16.78    2.33
   8   6  11   15.11    2.19
   8   6  11   17.06    1.91
   8   6  11   16.02    2.02
  -9  -6 -11    1.46    1.53
  -9  -6 -11    2.16    1.40
   9   6  11    1.42    1.36
   9   6  11    2.61    1.42
   9   6  11    1.57    1.29
 -10  -6 -11   -0.79    1.43
 -10  -6 -11    1.98    1.65
  10   6  11    0.66    1.50
  10   6  11    1.47    1.83
  10   6  11    3.23    1.57
   1  -7 -11   10.51    1.42
   1  -7 -11   10.37    2.18
  -1   7  11   14.35    1.95
  -1   7  11    7.78    2.21
  -1   7  11    9.55    2.03
   0  -7 -11    1.03    1.58
   0  -7 -11   -1.78    1.00
   0   7  11   -0.68    1.49
   0   7  11    1.52    1.48
   0   7  11   -0.30    1.60
  -1  -7 -11    6.35    1.19
  -1  -7 -11    3.29    1.49
   1   7  11    4.49    1.54
   1   7  11    5.43    1.59
   1   7  11    5.89    1.79
  -2  -7 -11   12.70    2.01
  -2  -7 -11    9.39    1.31
   2   7  11   13.25    2.08
   2   7  11    8.86    1.54
   2   7  11   12.41    1.84
  -3  -7 -11    2.37    0.96
  -3  -7 -11    0.56    1.33
   3   7  11    0.97    1.12
   3   7  11    2.11    1.40
   3   7  11    2.09    1.02
   3   7  11    1.97    1.37
  -4  -7 -11    4.03    1.50
  -4  -7 -11    3.25    1.09
   4   7  11    4.16    1.18
   4   7  11    5.63    1.11
   4   7  11    6.08    1.65
   4   7  11    4.32    1.45
  -5  -7 -11    9.74    1.85
  -5  -7 -11    9.82    1.40
   5   7  11    7.71    1.61
   5   7  11    4.87    1.19
   5   7  11    8.34    1.82
  -6  -7 -11   -0.45    0.93
  -6  -7 -11   -1.00    1.32
   6   7  11   -0.90    0.86
   6   7  11   -1.25    1.02
   6   7  11    0.04    1.06
  -7  -7 -11    0.27    1.09
  -7  -7 -11    3.84    1.55
  -7  -7 -11    0.51    0.79
   7   7  11   -1.09    1.03
   7   7  11    1.12    1.41
   7   7  11    2.73    1.41
  -8  -7 -11    0.19    1.06
  -8  -7 -11    1.72    1.20
  -8  -7 -11    1.32    1.47
   8   7  11   -0.46    1.07
   8   7  11    0.10    1.35
   8   7  11    0.66    1.24
  -9  -7 -11   -0.88    1.64
  -9  -7 -11   -0.12    1.31
   9   7  11    1.56    1.41
   9   7  11    0.65    1.39
   9   7  11    1.19    1.29
 -10  -7 -11    2.82    1.81
 -10  -7 -11    3.26    1.54
  10   7  11    0.72    1.65
  10   7  11   -0.56    1.49
  10   7  11    2.37    2.04
   0  -8 -11   -0.36    1.71
   0   8  11    1.22    1.69
   0   8  11    2.14    1.72
  -1  -8 -11    7.42    1.20
  -1  -8 -11    7.94    2.05
   1   8  11    5.30    1.79
   1   8  11    7.21    2.08
   1   8  11    2.29    1.80
  -2  -8 -11    4.17    1.68
  -2  -8 -11    1.39    0.97
   2   8  11    4.54    1.70
   2   8  11    3.70    1.83
   2   8  11    4.26    1.45
  -3  -8 -11   13.55    2.16
  -3  -8 -11   11.05    1.34
   3   8  11    9.89    1.49
   3   8  11   12.07    1.65
   3   8  11   12.53    2.09
   3   8  11   11.75    2.07
  -4  -8 -11   15.10    2.24
  -4  -8 -11   14.18    1.49
   4   8  11   10.35    1.59
   4   8  11   10.90    1.48
   4   8  11    8.49    1.83
   4   8  11   11.82    2.03
  -5  -8 -11    0.71    1.01
  -5  -8 -11   -1.37    1.40
   5   8  11    2.12    1.45
   5   8  11    1.90    1.43
   5   8  11    0.23    1.10
  -6  -8 -11    3.79    1.22
  -6  -8 -11    2.98    1.62
   6   8  11    2.56    1.47
   6   8  11    2.44    1.54
   6   8  11    0.94    1.26
  -7  -8 -11    7.87    1.95
  -7  -8 -11    7.69    1.44
   7   8  11    3.76    1.36
   7   8  11    4.01    1.59
   7   8  11    9.90    2.04
  -8  -8 -11    6.62    2.01
  -8  -8 -11   10.91    1.68
   8   8  11    9.50    1.81
   8   8  11   10.02    1.89
   8   8  11    5.25    1.89
  -9  -8 -11   -0.62    1.35
  -9  -8 -11    1.94    1.85
   9   8  11   -0.42    1.41
   9   8  11    1.52    1.62
   9   8  11    1.85    1.78
 -10  -8 -11   18.56    2.35
  10   8  11   15.57    2.37
  10   8  11   11.99    2.96
  10   8  11   14.59    2.19
  -2  -9 -11    5.32    1.95
   2   9  11    5.18    1.65
   2   9  11    6.08    1.88
  -3  -9 -11    1.69    1.59
   3   9  11    3.42    1.83
   3   9  11   -1.41    1.62
   3   9  11    0.78    1.33
  -4  -9 -11   -1.38    1.47
  -4  -9 -11    0.31    0.95
   4   9  11    2.65    1.69
   4   9  11    1.30    1.26
   4   9  11    0.38    1.27
   4   9  11    2.97    1.73
  -5  -9 -11    3.37    1.08
  -5  -9 -11   -1.75    1.48
   5   9  11   -0.45    1.52
   5   9  11    2.07    1.37
   5   9  11    0.02    1.47
  -6  -9 -11    1.68    1.14
  -6  -9 -11    1.11    1.79
   6   9  11    2.83    1.78
   6   9  11   -1.83    1.42
   6   9  11    0.52    1.36
  -7  -9 -11    1.03    1.32
  -7  -9 -11    3.77    1.26
   7   9  11    2.63    1.62
   7   9  11    0.04    1.36
   7   9  11    3.07    1.75
  -8  -9 -11    3.74    1.32
  -8  -9 -11    4.51    1.97
   8   9  11    1.49    1.43
   8   9  11    1.09    1.62
   8   9  11    1.14    1.57
  -9  -9 -11    0.08    1.40
   9   9  11   -2.38    1.44
   9   9  11   -2.04    1.87
   9   9  11    2.97    1.67
  -5 -10 -11    1.61    2.12
   5  10  11   -0.72    1.48
   5  10  11   -2.76    1.46
   5  10  11    0.80    1.89
  -6 -10 -11    6.15    1.25
   6  10  11    5.75    1.91
   6  10  11    5.37    2.12
   6  10  11    3.98    1.58
  -7 -10 -11   -3.26    2.14
  -7 -10 -11   -1.65    1.18
   7  10  11    0.08    1.76
   7  10  11    3.07    1.72
   4   7 -12    6.59    1.88
   4   7 -12    1.83    1.70
  -4  -7  12    3.90    2.04
   3   7 -12    7.27    1.81
   3   7 -12    6.92    1.88
  -3  -7  12    5.81    1.99
  -3  -7  12   10.45    1.60
   2   7 -12    0.56    1.53
   2   7 -12    1.94    1.46
  -2  -7  12    1.77    1.80
   1   7 -12   10.79    1.96
   1   7 -12   11.03    1.86
  -1  -7  12    9.95    2.23
  -1  -7  12   11.77    1.86
   0   7 -12   -0.94    1.37
   0   7 -12   -2.51    1.42
   0   7 -12   -1.49    1.89
   0  -7  12   -2.26    1.77
   0  -7  12    0.22    1.38
  -1   7 -12    1.00    1.41
  -1   7 -12    4.53    1.78
   1  -7  12    1.66    1.22
   1  -7  12    1.41    1.07
   5   6 -12    2.02    1.77
  -5  -6  12    2.06    1.73
  -5  -6  12   -0.46    1.81
   4   6 -12    0.33    1.48
   4   6 -12    1.23    1.50
  -4  -6  12    1.23    1.61
  -4  -6  12   -3.41    1.58
   3   6 -12   10.74    1.91
   3   6 -12    7.90    1.56
  -3  -6  12   11.53    2.04
  -3  -6  12    9.49    1.47
   2   6 -12   13.71    1.99
   2   6 -12   11.95    1.45
   2   6 -12   13.78    2.06
  -2  -6  12   16.53    2.35
  -2  -6  12   14.34    1.75
   1   6 -12    6.89    1.73
   1   6 -12    7.91    1.65
  -1  -6  12    7.97    1.58
  -1  -6  12    5.83    1.81
   0   6 -12   -0.97    1.23
   0   6 -12   -0.51    1.37
   0  -6  12   -0.42    1.52
   0  -6  12   -1.82    1.25
  -1   6 -12    0.02    1.41
  -1   6 -12   -0.31    1.22
  -1   6 -12    0.14    1.32
   1  -6  12   -0.96    0.83
   1  -6  12    1.92    1.27
   1  -6  12   -0.97    1.64
  -2   6 -12    3.88    2.03
  -2   6 -12    6.70    1.44
  -2   6 -12    6.54    1.70
   2  -6  12    6.56    1.99
   2  -6  12    3.53    1.11
   2  -6  12    7.99    1.78
  -3   6 -12   -0.28    1.59
   3  -6  12   -0.11    1.00
   3  -6  12   -3.19    1.33
   5   5 -12   -0.30    1.70
  -5  -5  12   -0.41    1.56
  -5  -5  12   -0.66    1.74
   4   5 -12    8.96    1.93
  -4  -5  12    7.87    1.79
  -4  -5  12   10.10    2.28
   3   5 -12    0.58    1.29
   3   5 -12    2.17    1.35
  -3  -5  12   -0.44    1.34
  -3  -5  12    1.34    1.59
  -3  -5  12    0.78    1.00
   2   5 -12    0.46    1.25
   2   5 -12    2.43    1.38
  -2  -5  12    0.82    1.08
  -2  -5  12    2.50    1.14
   1   5 -12    0.32    0.74
   1   5 -12    3.20    1.28
   1   5 -12    1.90    1.35
  -1  -5  12    1.54    1.11
  -1  -5  12    2.33    1.55
   0   5 -12    0.11    1.25
   0   5 -12   -0.10    1.21
   0  -5  12   -0.58    1.44
   0  -5  12    1.41    1.14
  -1   5 -12   -0.73    1.14
  -1   5 -12    1.78    1.22
   1  -5  12    1.16    1.53
   1  -5  12    0.60    0.72
   1  -5  12    2.92    1.28
  -2   5 -12    8.44    1.51
  -2   5 -12    7.94    2.14
  -2   5 -12    7.79    1.71
   2  -5  12    6.74    1.62
   2  -5  12    7.18    1.93
   2  -5  12    9.78    1.10
  -3   5 -12   15.89    2.72
  -3   5 -12   14.70    1.73
  -3   5 -12   21.78    2.28
   3  -5  12   19.78    1.53
   3  -5  12   21.09    2.26
   3  -5  12   25.75    2.74
  -4   5 -12    5.37    2.11
  -4   5 -12   -0.67    1.58
   4  -5  12    5.15    1.59
   4  -5  12    3.07    1.66
   4  -5  12    3.64    1.04
  -5   5 -12    2.30    1.92
  -5   5 -12    3.69    1.60
   5  -5  12    4.22    1.15
   5  -5  12   -2.72    1.92
  -6  -4  12    6.00    1.86
   5   4 -12   -1.87    1.57
  -5  -4  12    1.20    1.73
  -5  -4  12    0.18    1.48
   4   4 -12   -0.25    1.42
  -4  -4  12   -0.66    1.41
  -4  -4  12   -2.38    1.45
   3   4 -12    0.05    1.23
   3   4 -12    0.64    1.26
  -3  -4  12    0.27    1.10
  -3  -4  12    0.54    1.43
  -3  -4  12    0.20    0.87
   2   4 -12   16.53    1.85
   2   4 -12   15.36    1.86
  -2  -4  12   15.75    2.06
  -2  -4  12   16.23    2.22
  -2  -4  12   15.00    1.53
   1   4 -12    1.18    1.15
   1   4 -12    0.02    1.14
  -1  -4  12    0.48    0.88
  -1  -4  12   -0.01    1.01
   0   4 -12    1.84    1.18
   0   4 -12    1.25    1.20
   0  -4  12   -0.60    0.99
   0  -4  12   -1.84    1.27
  -1   4 -12    3.28    1.27
  -1   4 -12    6.69    1.43
   1  -4  12    4.27    1.53
   1  -4  12    3.79    1.24
   1  -4  12    3.57    0.68
  -2   4 -12   28.04    1.96
  -2   4 -12   26.29    2.24
   2  -4  12   25.96    2.57
   2  -4  12   27.19    1.45
   2  -4  12   29.45    2.26
  -3   4 -12   10.74    1.84
  -3   4 -12    9.36    2.10
  -3   4 -12    7.67    1.44
   3  -4  12   10.24    1.12
   3  -4  12    9.84    2.02
   3  -4  12    9.97    1.73
  -4   4 -12    2.18    1.20
  -4   4 -12    2.68    1.72
  -4   4 -12    1.92    1.46
   4  -4  12    2.28    1.60
   4  -4  12    0.94    1.12
   4  -4  12    2.04    0.89
  -5   4 -12    9.55    1.43
  -5   4 -12   12.18    2.36
  -5   4 -12   14.18    2.21
   5  -4  12    9.37    2.14
   5  -4  12   10.15    2.06
   5  -4  12   11.98    1.46
  -6   4 -12    0.75    1.70
   6  -4  12   -2.00    1.06
  -6  -3  12   -1.00    1.53
   5   3 -12    7.05    1.81
  -5  -3  12    6.72    1.76
  -5  -3  12    8.39    1.81
   4   3 -12    8.93    1.69
  -4  -3  12    6.50    1.70
  -4  -3  12    6.99    1.90
   3   3 -12   26.97    2.27
  -3  -3  12   24.04    2.06
  -3  -3  12   18.31    2.25
  -3  -3  12   31.28    2.54
   2   3 -12   -0.54    1.05
   2   3 -12    1.25    1.20
  -2  -3  12   -1.20    0.83
  -2  -3  12   -1.03    1.23
  -2  -3  12    0.45    1.26
   1   3 -12    1.86    1.19
   1   3 -12    1.62    1.15
  -1  -3  12    3.59    1.45
  -1  -3  12    0.57    0.96
  -1  -3  12    3.36    1.04
   0   3 -12    0.68    1.15
   0   3 -12    0.46    1.13
   0  -3  12    0.47    1.04
   0  -3  12    2.58    1.34
  -1   3 -12    0.69    1.04
  -1   3 -12    1.65    1.21
   1  -3  12    0.72    1.02
   1  -3  12    2.49    1.03
  -2   3 -12    4.26    1.39
  -2   3 -12    4.62    1.30
   2  -3  12    5.32    0.66
   2  -3  12    5.62    1.14
   2  -3  12    6.67    1.66
  -3   3 -12    7.68    1.67
  -3   3 -12    7.65    1.60
  -3   3 -12    6.72    1.31
   3  -3  12    8.62    1.59
   3  -3  12    8.60    0.96
   3  -3  12    7.50    1.72
  -4   3 -12    3.25    1.40
  -4   3 -12    2.80    1.18
  -4   3 -12    3.00    1.58
   4  -3  12    2.36    0.82
   4  -3  12    2.86    1.54
   4  -3  12    1.09    1.30
  -5   3 -12    4.30    1.80
  -5   3 -12    7.12    1.43
  -5   3 -12    5.66    1.43
   5  -3  12    5.38    1.75
   5  -3  12    8.52    1.85
   5  -3  12    5.71    1.15
  -6   3 -12    2.57    1.65
  -6   3 -12    1.99    1.88
  -6   3 -12    2.41    1.32
   6  -3  12    2.24    1.10
   6  -3  12    1.97    1.29
   6  -3  12    1.30    1.57
  -7   3 -12    0.49    1.71
  -7   3 -12    2.60    2.18
   7  -3  12    2.59    1.23
   7  -3  12    0.86    2.04
  -6  -2  12    2.70    1.59
   5   2 -12    2.97    1.71
  -5  -2  12   -0.59    1.56
  -5  -2  12    2.78    1.61
   4   2 -12    2.59    1.53
  -4  -2  12    2.23    1.50
  -4  -2  12    1.99    1.37
   3   2 -12    2.92    1.39
  -3  -2  12    2.53    0.75
  -3  -2  12    2.76    1.33
  -3  -2  12    2.52    1.41
   2   2 -12   35.18    2.41
   2   2 -12   37.29    2.32
  -2  -2  12   37.46    2.64
  -2  -2  12   34.52    2.52
  -2  -2  12   38.41    1.78
   1   2 -12    2.48    1.17
   1   2 -12    3.21    1.11
  -1  -2  12    0.75    0.87
  -1  -2  12    2.36    1.26
  -1  -2  12   -0.14    1.20
   0   2 -12   17.32    1.73
   0   2 -12   16.98    1.73
   0  -2  12   16.83    1.62
   0  -2  12   17.63    2.07
   0  -2  12   16.61    1.98
  -1   2 -12    5.06    1.26
  -1   2 -12    5.44    1.29
   1  -2  12    6.74    1.37
   1  -2  12    4.45    1.45
  -2   2 -12   21.31    1.72
  -2   2 -12   23.03    1.92
  -2   2 -12   20.09    1.05
   2  -2  12   22.26    0.80
   2  -2  12   19.98    1.91
   2  -2  12   22.37    1.84
  -3   2 -12    3.22    1.27
  -3   2 -12    1.36    1.13
   3  -2  12    1.96    1.35
   3  -2  12    0.95    1.16
   3  -2  12    0.93    0.53
  -4   2 -12    2.11    1.57
  -4   2 -12    1.65    1.23
  -4   2 -12    0.22    1.07
   4  -2  12    0.37    1.20
   4  -2  12    0.35    1.22
   4  -2  12    1.13    0.64
  -5   2 -12   13.79    1.85
  -5   2 -12   13.51    1.67
   5  -2  12   14.04    2.15
   5  -2  12   15.40    1.31
   5  -2  12   12.27    1.93
  -6   2 -12   11.52    2.18
  -6   2 -12   16.64    2.17
  -6   2 -12   15.43    1.75
   6  -2  12   14.14    2.14
   6  -2  12   10.34    2.00
   6  -2  12   12.38    1.48
  -7   2 -12    2.38    1.38
  -7   2 -12    4.38    2.00
  -7   2 -12    2.78    1.59
   7  -2  12    2.00    1.32
   7  -2  12    5.36    1.33
   7  -2  12    1.99    1.73
   6   1 -12    6.57    1.84
  -6  -1  12    7.50    2.19
  -6  -1  12    3.51    1.74
   5   1 -12   -2.38    1.51
  -5  -1  12    0.90    1.61
  -5  -1  12    0.92    1.59
   4   1 -12    7.32    1.85
  -4  -1  12    5.41    1.67
  -4  -1  12    5.71    1.61
   3   1 -12   50.77    2.87
  -3  -1  12   45.19    2.89
  -3  -1  12   45.00    2.94
  -3  -1  12   47.18    1.61
   2   1 -12    5.95    1.38
   2   1 -12    8.52    1.57
  -2  -1  12    5.63    1.60
  -2  -1  12    7.30    1.61
   1   1 -12   82.68    3.41
   1   1 -12   84.98    3.32
  -1  -1  12   84.56    3.69
  -1  -1  12   80.66    2.81
  -1  -1  12   89.03    3.70
   0   1 -12    8.87    1.51
   0   1 -12   10.78    1.55
   0  -1  12   12.59    1.89
   0  -1  12   11.69    1.43
   0  -1  12    9.65    1.77
  -1   1 -12    2.16    1.13
  -1   1 -12    4.94    1.32
   1  -1  12    3.20    1.29
   1  -1  12    5.49    1.42
   1  -1  12    4.86    1.15
  -2   1 -12   19.36    1.71
  -2   1 -12   19.58    1.79
   2  -1  12   16.33    1.69
   2  -1  12   17.17    2.01
  -3   1 -12   -1.29    0.90
  -3   1 -12    1.35    1.09
  -3   1 -12   -1.13    0.71
   3  -1  12   -0.50    0.92
   3  -1  12   -0.24    0.38
   3  -1  12    1.11    0.91
  -4   1 -12   12.94    1.68
  -4   1 -12   14.49    1.78
   4  -1  12   12.67    1.05
   4  -1  12   14.83    1.78
   4  -1  12   12.66    1.62
  -5   1 -12   12.49    2.05
  -5   1 -12   12.88    1.90
  -5   1 -12   13.31    1.68
   5  -1  12    9.29    1.61
   5  -1  12   10.51    1.82
   5  -1  12   11.65    1.14
  -6   1 -12    3.47    1.64
  -6   1 -12    2.07    1.30
  -6   1 -12    4.72    1.41
   6  -1  12   -0.65    1.44
   6  -1  12    0.47    1.47
   6  -1  12    1.17    0.95
  -7   1 -12    3.73    1.77
  -7   1 -12    4.57    1.42
  -7   1 -12    0.37    1.49
   7  -1  12    4.06    1.21
   7  -1  12    3.02    1.61
   7  -1  12    8.04    1.92
  -8   1 -12    3.34    1.71
  -8   1 -12    3.98    1.62
  -8   1 -12    0.81    1.73
   8  -1  12   -0.63    1.74
   8  -1  12    1.00    1.23
   8  -1  12    2.67    1.86
   5   0 -12   -0.96    1.69
  -5   0  12   -3.17    1.53
  -5   0  12    0.20    1.50
   4   0 -12    8.78    1.87
  -4   0  12    8.00    1.77
  -4   0  12    8.09    1.83
   3   0 -12   17.27    2.09
  -3   0  12   17.50    1.84
  -3   0  12   14.80    2.09
  -3   0  12   14.46    0.94
   2   0 -12    3.33    1.15
   2   0 -12    2.21    1.33
  -2   0  12    4.49    1.41
  -2   0  12    2.15    1.35
  -2   0  12    3.63    0.87
   1   0 -12   15.90    1.79
   1   0 -12   13.64    1.57
  -1   0  12   12.99    1.32
  -1   0  12   14.56    1.97
  -1   0  12   13.54    1.90
   0   0 -12   25.58    1.91
   0   0 -12   26.63    1.99
   0   0  12   25.21    1.98
   0   0  12   26.08    1.73
   0   0  12   24.35    2.11
  -1   0 -12    0.91    1.01
  -1   0 -12    4.76    1.25
   1   0  12    2.38    0.98
   1   0  12    3.98    1.33
   1   0  12    3.28    1.01
  -2   0 -12    2.74    1.04
  -2   0 -12    5.09    1.25
   2   0  12    2.81    1.06
   2   0  12    3.02    1.23
  -3   0 -12   12.94    1.76
  -3   0 -12   13.32    1.67
   3   0  12   12.15    0.50
   3   0  12   12.42    1.69
   3   0  12   14.62    1.86
  -4   0 -12   20.65    1.87
  -4   0 -12   18.56    1.49
  -4   0 -12   19.23    1.74
   4   0  12   21.71    2.12
   4   0  12   21.20    1.06
   4   0  12   18.49    1.88
  -5   0 -12   25.15    2.06
  -5   0 -12   26.01    2.31
  -5   0 -12   25.25    2.02
   5   0  12   27.78    2.24
   5   0  12   27.25    2.34
   5   0  12   25.36    1.38
  -6   0 -12   -0.07    1.18
  -6   0 -12    1.29    1.43
  -6   0 -12   -0.72    0.83
   6   0  12   -0.16    1.23
   6   0  12    0.44    0.84
   6   0  12   -0.24    1.26
  -7   0 -12    2.56    1.45
  -7   0 -12    2.52    1.44
  -7   0 -12    2.25    1.54
   7   0  12    5.02    1.57
   7   0  12    3.15    1.57
   7   0  12    4.25    1.10
  -8   0 -12    1.52    1.60
  -8   0 -12   -0.83    1.52
  -8   0 -12    0.64    1.43
   8   0  12    0.52    1.54
   8   0  12    0.63    1.67
   8   0  12    0.28    1.08
  -9   0 -12    5.84    1.83
  -9   0 -12    2.71    2.04
   9   0  12    1.40    2.26
   9   0  12    5.01    1.97
   9   0  12    3.42    1.37
   5  -1 -12    4.60    1.99
  -5   1  12    2.33    2.13
  -5   1  12    0.94    1.69
   4  -1 -12   15.19    2.38
  -4   1  12   15.28    2.16
  -4   1  12   13.73    2.25
   3  -1 -12   -0.83    1.26
  -3   1  12    1.21    1.37
  -3   1  12   -0.03    0.57
  -3   1  12    1.04    1.29
   2  -1 -12    1.33    1.31
   2  -1 -12    0.78    1.13
  -2   1  12    1.64    1.31
  -2   1  12    1.34    1.34
  -2   1  12    1.76    0.85
   1  -1 -12    7.64    1.36
   1  -1 -12    5.32    1.46
  -1   1  12    6.12    1.05
  -1   1  12    3.98    1.45
  -1   1  12    6.01    1.56
   0  -1 -12   13.25    1.88
   0  -1 -12   11.34    1.60
   0   1  12   12.97    1.74
   0   1  12   12.49    1.54
   0   1  12   11.97    1.43
  -1  -1 -12   14.31    1.57
  -1  -1 -12   15.72    1.72
   1   1  12   16.15    1.80
   1   1  12   16.57    1.64
   1   1  12   16.81    1.92
  -2  -1 -12   -0.71    0.93
  -2  -1 -12    0.12    0.93
   2   1  12    0.49    1.01
   2   1  12    1.35    0.92
   2   1  12    1.88    0.99
  -3  -1 -12    4.07    1.24
  -3  -1 -12    4.70    1.31
   3   1  12    3.62    1.37
   3   1  12    0.21    1.06
  -4  -1 -12   40.23    2.33
  -4  -1 -12   33.37    2.14
   4   1  12   32.59    2.44
   4   1  12   35.62    2.33
   4   1  12   37.26    1.28
  -5  -1 -12    1.12    1.13
  -5  -1 -12   -0.54    1.04
   5   1  12    1.06    1.21
   5   1  12    1.32    0.69
   5   1  12    1.03    1.15
  -6  -1 -12    4.43    1.35
  -6  -1 -12    6.76    1.55
  -6  -1 -12    5.38    1.41
   6   1  12    5.95    1.34
   6   1  12    5.67    1.62
   6   1  12    5.84    1.00
  -7  -1 -12    4.09    1.55
  -7  -1 -12    2.34    1.40
  -7  -1 -12    2.89    1.39
   7   1  12    2.51    1.48
   7   1  12    4.43    1.60
   7   1  12    4.27    1.03
  -8  -1 -12    0.52    1.49
  -8  -1 -12    0.66    1.44
  -8  -1 -12    0.18    1.49
   8   1  12    0.49    1.60
   8   1  12    1.54    1.33
   8   1  12    0.81    1.15
  -9  -1 -12    0.90    1.78
  -9  -1 -12    0.68    1.26
  -9  -1 -12    0.15    1.62
   9   1  12   -1.12    1.22
   9   1  12    0.45    1.57
   9   1  12   -1.71    1.80
   4  -2 -12    2.78    1.74
  -4   2  12    3.50    1.71
  -4   2  12    2.38    1.75
   3  -2 -12    7.94    1.91
  -3   2  12   10.47    2.00
  -3   2  12   10.03    1.97
   2  -2 -12    2.76    1.15
   2  -2 -12    3.11    1.49
  -2   2  12    0.31    1.06
  -2   2  12    3.16    1.43
  -2   2  12    1.42    0.90
   1  -2 -12   18.09    2.00
   1  -2 -12   18.75    1.62
  -1   2  12   16.70    1.46
  -1   2  12   19.93    2.09
  -1   2  12   14.49    1.89
   0  -2 -12    0.13    1.16
   0  -2 -12    1.81    1.04
   0   2  12    0.50    1.13
   0   2  12    0.02    1.08
   0   2  12    1.82    0.96
  -1  -2 -12    2.52    1.06
  -1  -2 -12    3.84    1.06
   1   2  12    2.45    1.14
   1   2  12    1.70    1.22
   1   2  12    5.12    1.20
  -2  -2 -12    4.94    1.12
  -2  -2 -12    2.44    1.11
   2   2  12    2.40    1.10
   2   2  12    0.96    1.04
   2   2  12    4.98    1.36
  -3  -2 -12   -0.45    0.72
  -3  -2 -12   -0.06    1.04
   3   2  12   -0.06    1.05
   3   2  12   -1.49    0.91
  -4  -2 -12   28.41    1.83
  -4  -2 -12   30.93    2.13
   4   2  12   28.00    1.07
   4   2  12   25.51    1.99
   4   2  12   27.23    1.10
   4   2  12   31.20    2.17
  -5  -2 -12   76.91    3.10
  -5  -2 -12   73.73    3.16
   5   2  12   79.81    3.50
   5   2  12   77.09    2.33
   5   2  12   73.55    3.34
  -6  -2 -12   27.88    2.11
  -6  -2 -12   30.88    2.42
  -6  -2 -12   27.28    1.92
   6   2  12   30.58    1.62
   6   2  12   28.35    2.37
   6   2  12   31.53    2.41
  -7  -2 -12    5.20    1.51
  -7  -2 -12    2.06    1.49
  -7  -2 -12    5.23    1.51
   7   2  12    4.16    1.52
   7   2  12    5.90    1.15
   7   2  12    4.85    1.58
  -8  -2 -12   10.28    1.75
  -8  -2 -12    9.10    1.87
  -8  -2 -12    8.03    1.74
   8   2  12    7.97    1.95
   8   2  12    5.49    1.29
   8   2  12    6.58    1.79
  -9  -2 -12    1.84    1.59
  -9  -2 -12    0.25    1.61
  -9  -2 -12   -1.62    1.08
   9   2  12    0.94    1.40
   9   2  12   -1.44    1.46
   9   2  12    1.81    1.34
   4  -3 -12    3.32    1.97
  -4   3  12    2.80    1.84
  -4   3  12    1.15    1.33
   3  -3 -12    3.07    1.66
   3  -3 -12    3.24    1.42
  -3   3  12    4.07    1.79
  -3   3  12    6.00    1.81
   2  -3 -12   27.66    2.00
   2  -3 -12   26.82    2.45
  -2   3  12   26.41    2.45
  -2   3  12   26.92    2.25
   1  -3 -12    2.40    1.38
   1  -3 -12   -0.21    0.95
  -1   3  12    1.52    1.25
  -1   3  12    2.24    1.42
  -1   3  12    1.20    0.95
   0  -3 -12   59.62    2.62
   0  -3 -12   53.15    2.89
   0   3  12   59.28    3.22
   0   3  12   60.54    2.58
   0   3  12   58.13    2.91
  -1  -3 -12    1.78    1.23
  -1  -3 -12    1.83    0.93
   1   3  12    3.17    1.20
   1   3  12    1.91    1.25
   1   3  12   -0.19    1.05
  -2  -3 -12    2.41    1.05
  -2  -3 -12    2.91    1.28
   2   3  12   -0.55    0.82
   2   3  12    0.01    1.06
   2   3  12    1.37    1.12
  -3  -3 -12   36.34    2.31
  -3  -3 -12   36.74    2.11
   3   3  12   37.01    2.23
   3   3  12   33.74    2.21
   3   3  12   34.46    2.42
  -4  -3 -12    0.55    1.06
  -4  -3 -12    2.96    1.29
   4   3  12    1.88    0.52
   4   3  12    2.90    0.59
   4   3  12    4.66    1.25
   4   3  12    3.17    1.14
  -5  -3 -12    0.20    1.05
  -5  -3 -12    0.78    1.20
   5   3  12    1.57    0.98
   5   3  12   -0.59    1.02
   5   3  12    0.78    0.72
  -6  -3 -12   13.68    1.80
  -6  -3 -12   20.83    1.92
  -6  -3 -12   15.07    1.79
   6   3  12   16.41    1.33
   6   3  12   17.64    2.18
   6   3  12   15.50    2.01
  -7  -3 -12    1.11    1.33
  -7  -3 -12    1.34    1.28
  -7  -3 -12    0.91    1.22
   7   3  12    1.33    1.04
   7   3  12    1.30    0.99
   7   3  12    3.85    1.50
  -8  -3 -12   15.93    2.15
  -8  -3 -12   20.22    2.08
  -8  -3 -12   13.91    1.93
   8   3  12   17.86    1.87
   8   3  12   18.28    2.20
   8   3  12   12.61    2.19
  -9  -3 -12    0.88    1.57
  -9  -3 -12    0.70    1.49
  -9  -3 -12    0.16    1.49
   9   3  12    1.32    1.46
   9   3  12    0.20    1.37
   9   3  12    0.81    1.74
 -10  -3 -12    0.62    1.61
 -10  -3 -12   -2.98    1.73
  10   3  12   -0.49    1.59
  10   3  12    0.42    1.54
   3  -4 -12   -1.01    1.20
   3  -4 -12    2.77    1.71
  -3   4  12   -3.09    1.57
  -3   4  12    0.73    1.66
   2  -4 -12   11.79    1.66
   2  -4 -12    9.38    1.89
  -2   4  12    7.91    1.82
  -2   4  12    8.04    1.99
  -2   4  12   11.22    1.42
   1  -4 -12    8.27    1.51
   1  -4 -12    4.89    1.53
  -1   4  12    5.76    1.30
  -1   4  12    5.35    1.59
  -1   4  12    8.66    1.86
   0  -4 -12   38.49    2.61
   0  -4 -12   40.47    2.27
   0   4  12   40.58    2.51
   0   4  12   39.68    2.27
   0   4  12   41.75    2.82
  -1  -4 -12   15.03    1.53
  -1  -4 -12   18.69    1.93
   1   4  12   15.33    1.82
   1   4  12   18.88    1.74
   1   4  12   17.33    1.81
  -2  -4 -12    1.52    0.98
  -2  -4 -12   -0.32    1.15
   2   4  12   -0.21    0.98
   2   4  12    1.70    1.32
   2   4  12   -0.76    0.98
  -3  -4 -12   25.08    1.82
  -3  -4 -12   28.20    2.20
   3   4  12   32.91    2.21
   3   4  12   26.12    0.97
   3   4  12   27.18    2.29
   3   4  12   25.49    0.99
   3   4  12   29.25    2.17
  -4  -4 -12   18.47    1.92
  -4  -4 -12   17.75    1.67
   4   4  12   15.41    1.85
   4   4  12   20.25    2.04
   4   4  12   15.68    1.06
   4   4  12   13.01    1.13
  -5  -4 -12   12.44    1.70
  -5  -4 -12   11.43    1.49
   5   4  12   11.29    1.68
   5   4  12   10.30    1.83
   5   4  12    9.93    1.16
  -6  -4 -12    9.91    1.60
  -6  -4 -12   12.32    1.93
   6   4  12   10.67    1.31
   6   4  12   10.69    1.77
   6   4  12   12.82    1.97
  -7  -4 -12    2.15    1.37
  -7  -4 -12   -0.15    1.09
  -7  -4 -12    0.77    1.26
   7   4  12    0.47    1.43
   7   4  12    0.60    1.33
   7   4  12    1.69    1.03
  -8  -4 -12    2.07    1.30
  -8  -4 -12    0.55    1.38
  -8  -4 -12    2.11    1.48
   8   4  12    0.60    1.21
   8   4  12    0.31    1.12
   8   4  12    2.27    1.42
  -9  -4 -12   -0.73    1.54
  -9  -4 -12    2.13    1.42
  -9  -4 -12    0.21    1.43
   9   4  12    3.38    1.62
   9   4  12   -1.45    1.22
   9   4  12    2.85    1.25
 -10  -4 -12   14.95    2.10
 -10  -4 -12   16.50    2.53
 -10  -4 -12   19.03    2.42
  10   4  12   14.80    2.26
  10   4  12   14.96    2.18
   2  -5 -12    1.40    1.76
   2  -5 -12   -0.53    1.22
  -2   5  12    0.55    1.18
  -2   5  12   -0.70    1.51
  -2   5  12   -1.44    1.45
   1  -5 -12    4.93    1.27
   1  -5 -12    2.99    1.60
  -1   5  12    2.18    1.69
  -1   5  12    2.23    1.29
  -1   5  12    1.95    1.38
   0  -5 -12    3.88    1.25
   0  -5 -12    5.43    1.72
   0   5  12    5.48    1.40
   0   5  12    3.18    1.26
   0   5  12    3.88    1.03
   0   5  12    5.13    1.54
  -1  -5 -12    0.79    1.21
  -1  -5 -12   -1.51    0.92
   1   5  12   -0.07    0.54
   1   5  12   -0.49    1.20
   1   5  12   -0.53    1.18
   1   5  12   -1.55    1.09
  -2  -5 -12    3.37    1.41
  -2  -5 -12    2.46    1.00
   2   5  12    2.32    1.17
   2   5  12    2.22    1.26
   2   5  12    0.50    0.57
   2   5  12    1.43    1.33
  -3  -5 -12    2.29    1.12
  -3  -5 -12    2.83    1.23
   3   5  12    2.75    1.32
   3   5  12    3.55    0.74
   3   5  12    4.11    1.22
   3   5  12    1.70    1.22
  -4  -5 -12   -0.15    1.20
  -4  -5 -12    0.46    1.10
   4   5  12    2.77    1.14
   4   5  12    2.99    0.80
   4   5  12    0.88    1.25
   4   5  12    1.25    1.25
  -5  -5 -12   19.48    1.82
  -5  -5 -12   21.60    1.82
   5   5  12   23.32    2.23
   5   5  12   22.65    2.26
  -6  -5 -12    0.12    1.30
  -6  -5 -12   -0.81    1.00
   6   5  12    0.19    1.24
   6   5  12    0.14    0.93
  -7  -5 -12   12.51    1.62
  -7  -5 -12   11.27    1.72
  -7  -5 -12    9.66    1.92
   7   5  12   12.01    2.06
   7   5  12   12.16    1.93
   7   5  12    9.20    1.48
  -8  -5 -12    2.08    1.35
  -8  -5 -12    3.36    1.28
  -8  -5 -12    3.66    1.70
   8   5  12    3.13    1.68
   8   5  12    2.25    1.45
   8   5  12    4.06    1.34
  -9  -5 -12    1.90    1.41
  -9  -5 -12    3.80    1.57
  -9  -5 -12    4.63    1.90
   9   5  12    1.57    1.83
   9   5  12    2.65    1.72
   9   5  12    2.75    1.40
 -10  -5 -12    4.65    1.59
 -10  -5 -12    7.07    2.19
 -10  -5 -12    5.99    1.88
  10   5  12    4.72    1.84
  10   5  12    5.75    1.94
   1  -6 -12    5.05    1.99
   1  -6 -12   11.37    1.61
  -1   6  12    6.64    1.62
  -1   6  12    6.19    2.06
  -1   6  12    4.09    1.80
   0  -6 -12   11.82    2.15
   0  -6 -12   10.08    1.50
   0   6  12   10.70    1.87
   0   6  12    9.11    1.63
   0   6  12    9.39    1.85
  -1  -6 -12    2.79    1.58
  -1  -6 -12    2.08    1.05
   1   6  12    2.95    1.33
   1   6  12    2.44    1.54
   1   6  12    1.94    0.90
   1   6  12    2.46    1.37
  -2  -6 -12    2.81    1.16
  -2  -6 -12    2.22    1.47
   2   6  12    2.87    1.34
   2   6  12    3.81    1.33
   2   6  12    0.53    0.83
   2   6  12    2.69    1.25
  -3  -6 -12    0.67    1.02
  -3  -6 -12    2.86    1.44
   3   6  12    0.76    1.28
   3   6  12   -0.75    1.06
   3   6  12    0.14    1.32
   3   6  12   -0.70    0.81
  -4  -6 -12    4.18    1.28
  -4  -6 -12    5.04    1.61
   4   6  12    3.85    1.53
   4   6  12    2.84    1.21
   4   6  12    3.16    1.46
  -5  -6 -12   -2.14    1.20
  -5  -6 -12    0.48    1.09
   5   6  12    0.54    0.92
   5   6  12    0.54    1.40
   5   6  12    0.24    1.26
  -6  -6 -12   18.20    2.22
  -6  -6 -12   15.38    1.71
   6   6  12   16.67    2.05
   6   6  12   20.20    1.95
   6   6  12   16.45    1.62
  -7  -6 -12    2.49    1.18
  -7  -6 -12    1.35    1.49
  -7  -6 -12    3.11    1.16
   7   6  12    3.27    1.19
   7   6  12    2.20    1.62
   7   6  12    1.89    1.41
  -8  -6 -12   15.29    1.81
  -8  -6 -12   15.99    2.33
  -8  -6 -12   17.42    2.15
   8   6  12   16.54    1.96
   8   6  12   15.86    2.16
   8   6  12   13.80    2.35
  -9  -6 -12    4.49    1.58
  -9  -6 -12    0.80    1.77
  -9  -6 -12    1.20    1.29
   9   6  12    1.18    1.69
   9   6  12    1.04    1.53
   9   6  12    2.42    1.84
 -10  -6 -12    0.62    1.24
 -10  -6 -12   -2.17    1.77
  10   6  12   -1.53    2.04
  10   6  12   -0.42    1.55
  10   6  12   -1.25    1.77
   0  -7 -12    4.98    1.91
   0  -7 -12    3.28    1.27
   0   7  12    2.39    3.08
   0   7  12    2.67    1.84
   0   7  12    2.23    1.66
  -1  -7 -12    4.95    1.68
  -1  -7 -12    3.92    1.27
   1   7  12    4.32    1.66
   1   7  12    1.77    1.54
   1   7  12    5.33    1.84
  -2  -7 -12    0.86    1.15
  -2  -7 -12    0.46    1.62
   2   7  12    0.94    1.52
   2   7  12    3.90    1.13
   2   7  12    2.81    1.65
   2   7  12    2.98    1.45
  -3  -7 -12    0.55    1.46
  -3  -7 -12    1.46    1.14
   3   7  12    3.36    1.41
   3   7  12    2.09    1.05
   3   7  12    3.31    1.60
   3   7  12    3.38    1.44
  -4  -7 -12   16.58    2.30
  -4  -7 -12   18.36    1.74
   4   7  12   16.32    1.94
   4   7  12   15.88    1.61
   4   7  12   17.90    2.26
   4   7  12   17.48    1.90
  -5  -7 -12    4.60    1.68
  -5  -7 -12    6.48    1.30
   5   7  12    5.02    1.61
   5   7  12    4.40    1.16
   5   7  12    5.69    1.62
  -6  -7 -12    5.87    1.84
  -6  -7 -12    8.63    1.49
   6   7  12    6.16    1.75
   6   7  12    7.54    1.85
   6   7  12    5.93    1.27
  -7  -7 -12   25.43    2.65
  -7  -7 -12   27.37    1.84
  -7  -7 -12   29.36    2.11
   7   7  12   26.43    2.36
   7   7  12   27.14    2.54
   7   7  12   20.45    1.87
  -8  -7 -12    0.63    1.29
  -8  -7 -12   -0.28    1.59
   8   7  12    2.37    1.70
   8   7  12   -0.84    1.62
   8   7  12    2.28    1.28
  -9  -7 -12   -1.65    1.64
  -9  -7 -12   -0.48    1.36
   9   7  12    0.08    1.89
   9   7  12    0.58    1.57
   9   7  12   -0.18    1.44
  -1  -8 -12   -2.11    1.74
  -1  -8 -12    1.65    1.67
   1   8  12   -0.23    1.97
   1   8  12    3.08    1.69
   1   8  12   -2.89    1.61
  -2  -8 -12   -0.85    1.10
  -2  -8 -12    2.56    1.80
   2   8  12    1.70    1.51
   2   8  12   -1.02    1.58
   2   8  12    0.60    1.69
  -3  -8 -12    1.35    1.14
  -3  -8 -12    1.27    1.61
   3   8  12    2.72    1.66
   3   8  12    0.54    1.65
   3   8  12    1.59    1.24
   3   8  12   -1.73    1.34
  -4  -8 -12    0.01    1.53
  -4  -8 -12    1.37    1.16
   4   8  12   -0.31    1.45
   4   8  12    0.68    1.30
   4   8  12    0.71    1.14
   4   8  12    0.30    1.51
  -5  -8 -12    0.78    1.70
  -5  -8 -12    3.17    1.31
   5   8  12    4.05    1.34
   5   8  12    2.60    1.61
   5   8  12    1.69    1.68
  -6  -8 -12    2.15    1.21
  -6  -8 -12   -0.32    1.27
   6   8  12    3.20    1.65
   6   8  12    0.44    1.30
   6   8  12    0.11    1.58
  -7  -8 -12    0.59    1.33
  -7  -8 -12    1.30    1.71
   7   8  12   -1.34    1.58
   7   8  12   -3.22    1.60
   7   8  12    0.83    1.21
  -8  -8 -12   -0.18    1.75
  -8  -8 -12    0.06    1.36
   8   8  12   -0.25    1.55
   8   8  12   -0.11    1.41
   8   8  12   -0.13    1.76
  -9  -8 -12    1.70    1.48
   9   8  12    1.74    1.88
   9   8  12   -0.13    1.97
   9   8  12    0.26    1.49
  -4  -9 -12    7.19    2.46
  -4  -9 -12    4.50    1.24
   4   9  12    3.30    1.64
   4   9  12    3.91    1.51
   4   9  12    3.73    1.97
   4   9  12    4.20    2.06
  -5  -9 -12   -2.21    1.12
  -5  -9 -12   -0.11    2.12
   5   9  12    0.16    1.47
   5   9  12    1.08    1.71
   5   9  12   -1.16    1.79
  -6  -9 -12   15.10    1.77
   6   9  12   11.59    1.91
   6   9  12   15.11    2.44
   6   9  12   14.73    2.50
  -7  -9 -12   -1.27    1.87
  -7  -9 -12    2.56    1.43
   7   9  12   -1.89    1.45
   7   9  12   -0.53    1.75
   3   6 -13   -0.40    1.68
  -3  -6  13    1.61    1.79
  -3  -6  13    3.70    1.30
   2   6 -13    1.74    1.64
   2   6 -13    3.67    1.76
  -2  -6  13    2.63    1.75
  -2  -6  13    1.73    1.35
   1   6 -13   -0.16    1.53
   1   6 -13    1.90    1.59
  -1  -6  13    3.31    1.84
  -1  -6  13    2.56    1.51
   0   6 -13    0.04    1.50
   0   6 -13   -2.16    1.47
   0  -6  13   -1.51    1.36
   0  -6  13   -3.43    1.76
  -1   6 -13    0.75    1.48
  -1   6 -13    1.04    1.64
   1  -6  13    0.96    1.52
   1  -6  13    0.44    0.95
  -2   6 -13    7.98    2.61
  -2   6 -13    9.77    1.71
  -2   6 -13    5.71    2.00
   2  -6  13    6.61    2.19
   2  -6  13    8.06    1.85
   2  -6  13    9.54    1.26
   4   5 -13    1.21    1.81
  -4  -5  13    0.96    1.80
   3   5 -13    5.52    1.63
   3   5 -13    1.84    1.67
  -3  -5  13    3.26    1.90
  -3  -5  13    2.50    1.21
  -3  -5  13    1.48    1.77
   2   5 -13   15.58    2.17
   2   5 -13   14.91    1.74
  -2  -5  13   11.60    2.18
  -2  -5  13   14.84    1.83
   1   5 -13   42.48    2.86
   1   5 -13   44.13    2.88
  -1  -5  13   46.08    2.50
  -1  -5  13   46.29    3.26
   0   5 -13   -0.22    1.30
   0   5 -13   -0.53    1.39
   0  -5  13   -1.90    1.16
   0  -5  13    1.36    1.74
  -1   5 -13    0.78    1.42
  -1   5 -13   -2.10    1.45
   1  -5  13   -1.68    1.54
   1  -5  13   -1.03    1.27
  -2   5 -13   16.54    2.40
  -2   5 -13   16.79    1.98
  -2   5 -13   15.03    2.69
   2  -5  13   16.05    1.40
   2  -5  13   18.40    2.45
   2  -5  13   17.30    2.22
  -3   5 -13    4.66    1.98
  -3   5 -13    3.72    1.50
  -3   5 -13    6.93    1.92
   3  -5  13    2.64    1.58
   3  -5  13    3.67    2.11
   3  -5  13    1.65    0.98
   4   4 -13   -0.78    1.62
  -4  -4  13   -0.66    1.61
  -4  -4  13   -1.29    1.72
   3   4 -13   -0.16    1.03
   3   4 -13    1.53    1.56
  -3  -4  13    0.67    1.72
  -3  -4  13   -0.54    0.95
  -3  -4  13   -0.80    1.54
   2   4 -13    2.59    1.50
   2   4 -13    5.35    1.61
  -2  -4  13    3.33    1.58
  -2  -4  13    2.96    1.19
  -2  -4  13    1.84    1.36
   1   4 -13    3.67    1.20
   1   4 -13    5.95    1.53
  -1  -4  13    7.00    1.92
  -1  -4  13    2.53    1.19
   0   4 -13   -0.55    1.28
   0   4 -13   -0.24    1.22
   0  -4  13   -2.33    1.40
   0  -4  13   -0.57    1.13
  -1   4 -13   13.06    1.89
  -1   4 -13   14.12    1.63
   1  -4  13   12.96    1.83
   1  -4  13   13.20    2.28
  -2   4 -13    6.29    1.47
  -2   4 -13    4.21    1.45
   2  -4  13    4.49    1.58
   2  -4  13    4.84    0.92
   2  -4  13    7.01    1.94
  -3   4 -13   26.86    3.00
  -3   4 -13   26.79    2.11
  -3   4 -13   21.29    2.34
   3  -4  13   23.34    2.43
   3  -4  13   30.83    2.90
   3  -4  13   26.71    1.51
  -4   4 -13    2.65    1.60
  -4   4 -13    0.43    1.92
  -4   4 -13    0.63    1.38
   4  -4  13    0.62    1.75
   4  -4  13    0.96    0.96
   4  -4  13    1.27    1.70
  -5   4 -13    4.85    1.81
   5  -4  13    2.83    1.15
   5   3 -13   -0.53    2.04
  -5  -3  13    1.41    1.76
  -5  -3  13   -3.06    2.04
   4   3 -13    2.30    1.78
  -4  -3  13    5.13    1.83
  -4  -3  13    4.80    1.96
   3   3 -13    1.13    1.60
   3   3 -13    3.29    1.53
  -3  -3  13    3.43    1.54
  -3  -3  13    3.80    0.99
  -3  -3  13    1.02    1.41
   2   3 -13    0.25    1.00
   2   3 -13    1.80    1.45
  -2  -3  13   -1.54    1.27
  -2  -3  13   -1.87    1.36
  -2  -3  13    2.00    1.01
   1   3 -13    3.73    1.18
   1   3 -13    3.08    1.42
  -1  -3  13    3.22    1.08
  -1  -3  13    2.60    1.46
  -1  -3  13    2.34    1.23
   0   3 -13    0.38    1.18
   0   3 -13    3.30    1.36
   0  -3  13   -3.18    1.45
   0  -3  13    0.72    1.14
  -1   3 -13    0.53    1.18
  -1   3 -13    0.81    0.91
   1  -3  13   -0.72    1.42
   1  -3  13    2.33    1.30
  -2   3 -13    0.92    1.40
  -2   3 -13    2.83    1.34
   2  -3  13    1.98    1.49
   2  -3  13    3.24    1.35
   2  -3  13    2.75    0.54
  -3   3 -13   32.92    2.24
  -3   3 -13   33.41    2.54
   3  -3  13   31.29    2.39
   3  -3  13   30.61    2.79
   3  -3  13   29.17    1.55
  -4   3 -13   23.71    2.08
  -4   3 -13   20.16    2.39
  -4   3 -13   28.44    2.91
   4  -3  13   23.43    1.47
   4  -3  13   21.68    2.25
   4  -3  13   27.93    2.47
  -5   3 -13    4.71    1.79
  -5   3 -13    3.54    1.89
  -5   3 -13    5.98    1.52
   5  -3  13    3.13    1.36
   5  -3  13    4.21    1.08
   5  -3  13    1.34    1.85
  -6   3 -13    0.78    1.48
  -6   3 -13    0.63    1.94
  -6   3 -13    1.69    1.88
   6  -3  13    2.79    1.25
   6  -3  13   -1.80    1.92
   5   2 -13    1.75    2.22
  -5  -2  13   -0.13    1.64
  -5  -2  13    0.08    1.41
   4   2 -13   -0.13    1.75
  -4  -2  13    0.10    1.55
  -4  -2  13    1.90    1.38
   3   2 -13    8.66    1.95
   3   2 -13    9.39    1.86
  -3  -2  13    7.10    1.97
  -3  -2  13    9.68    1.13
  -3  -2  13    8.91    1.81
   2   2 -13   16.30    2.08
   2   2 -13   13.49    1.95
  -2  -2  13   15.95    2.32
  -2  -2  13   15.70    1.49
  -2  -2  13   14.93    2.18
   1   2 -13   10.34    1.80
   1   2 -13    9.34    1.68
  -1  -2  13    6.47    1.74
  -1  -2  13    6.10    1.48
  -1  -2  13    7.01    1.31
   0   2 -13    2.08    1.28
   0   2 -13    2.11    1.26
   0  -2  13    2.13    1.53
   0  -2  13   -1.54    1.23
   0  -2  13    2.24    1.11
  -1   2 -13    4.98    1.40
  -1   2 -13    2.94    1.08
   1  -2  13    3.86    1.61
   1  -2  13    5.54    1.37
  -2   2 -13    0.77    1.17
  -2   2 -13    0.97    1.11
   2  -2  13   -2.37    1.35
   2  -2  13    2.32    1.18
  -3   2 -13    0.27    1.21
  -3   2 -13    2.76    1.37
   3  -2  13    1.25    0.50
   3  -2  13    4.86    1.68
   3  -2  13    0.30    1.28
  -4   2 -13    4.79    1.36
  -4   2 -13    2.42    1.67
  -4   2 -13    5.85    1.66
   4  -2  13    2.09    1.37
   4  -2  13   -0.29    1.11
   4  -2  13    3.79    1.09
  -5   2 -13   33.82    2.94
  -5   2 -13   35.08    2.69
   5  -2  13   32.67    2.92
   5  -2  13   35.55    1.77
   5  -2  13   35.52    2.73
  -6   2 -13    2.89    1.47
  -6   2 -13    0.21    1.55
  -6   2 -13    0.53    1.74
   6  -2  13    1.67    1.68
   6  -2  13   -3.79    2.33
   6  -2  13    1.76    1.03
  -7   2 -13    2.70    1.58
  -7   2 -13    1.80    1.85
   7  -2  13   -2.02    1.62
   7  -2  13   -2.61    1.79
   7  -2  13    0.61    1.23
   4   1 -13    2.41    1.71
  -4  -1  13    1.26    1.75
  -4  -1  13    2.38    1.63
   3   1 -13   -1.51    1.24
   3   1 -13    0.82    1.52
  -3  -1  13   -2.63    1.53
  -3  -1  13    0.08    0.88
  -3  -1  13    0.88    1.36
   2   1 -13   -0.28    0.86
   2   1 -13    0.58    1.36
  -2  -1  13   -3.05    1.23
  -2  -1  13   -1.02    0.84
  -2  -1  13   -0.17    1.07
   1   1 -13   15.56    2.12
   1   1 -13   15.81    1.75
  -1  -1  13   11.91    1.45
  -1  -1  13   15.99    2.07
  -1  -1  13   13.30    2.07
   0   1 -13    2.01    1.25
   0   1 -13   -0.70    0.85
   0  -1  13    0.14    1.02
   0  -1  13   -1.12    1.24
   0  -1  13   -0.96    1.28
  -1   1 -13    0.21    1.16
  -1   1 -13    0.01    1.14
   1  -1  13    2.43    1.17
   1  -1  13    0.87    0.98
   1  -1  13   -0.23    0.97
  -2   1 -13   10.79    1.72
  -2   1 -13    7.63    1.56
   2  -1  13    8.53    1.64
   2  -1  13   11.41    1.65
  -3   1 -13    6.20    1.54
  -3   1 -13    7.32    1.38
   3  -1  13    5.31    1.51
   3  -1  13    6.12    0.41
   3  -1  13    2.64    1.55
  -4   1 -13    7.95    1.63
  -4   1 -13    9.80    1.64
   4  -1  13    8.08    1.63
   4  -1  13    5.77    0.74
   4  -1  13    9.16    1.74
  -5   1 -13    2.03    1.59
  -5   1 -13    4.25    1.28
  -5   1 -13    5.64    1.53
   5  -1  13    2.95    1.57
   5  -1  13    3.26    1.58
   5  -1  13    3.46    0.86
  -6   1 -13    7.82    1.84
  -6   1 -13    7.52    1.64
  -6   1 -13    7.97    2.00
   6  -1  13    7.76    1.66
   6  -1  13    8.36    1.23
   6  -1  13   12.00    1.98
  -7   1 -13    9.08    2.12
  -7   1 -13    7.71    2.12
  -7   1 -13    8.98    1.81
   7  -1  13    8.39    1.83
   7  -1  13    7.99    2.07
   7  -1  13    6.58    1.34
   4   0 -13   19.89    2.59
  -4   0  13   17.59    2.44
  -4   0  13   16.71    2.15
   3   0 -13   26.25    2.30
   3   0 -13   27.28    2.61
  -3   0  13   30.94    2.72
  -3   0  13   32.09    2.73
   2   0 -13    1.09    0.93
   2   0 -13    0.73    1.46
  -2   0  13    1.46    1.49
  -2   0  13   -0.05    1.09
   1   0 -13    0.37    1.08
   1   0 -13    1.85    1.31
  -1   0  13    1.15    0.94
  -1   0  13    0.26    1.06
  -1   0  13    0.36    1.25
   0   0 -13    2.72    1.37
   0   0 -13   -0.60    0.78
   0   0  13    0.14    0.95
   0   0  13    1.60    1.42
   0   0  13    0.37    1.37
  -1   0 -13   12.10    1.78
  -1   0 -13    7.61    1.48
   1   0  13    9.01    1.60
   1   0  13   11.07    1.85
   1   0  13   10.78    1.50
  -2   0 -13   15.04    1.52
  -2   0 -13   15.29    1.82
   2   0  13   15.98    1.82
   2   0  13   15.83    1.70
  -3   0 -13    5.73    1.44
  -3   0 -13    5.50    1.39
   3   0  13    5.15    1.34
   3   0  13    1.93    1.40
  -4   0 -13    1.36    1.16
  -4   0 -13   -0.91    1.21
   4   0  13    0.85    1.06
   4   0  13   -1.11    1.11
   4   0  13    0.55    0.46
  -5   0 -13   18.44    2.33
  -5   0 -13   18.97    2.14
  -5   0 -13   20.84    1.96
   5   0  13   27.50    2.39
   5   0  13   19.95    2.37
  -6   0 -13    7.30    1.91
  -6   0 -13    6.51    1.73
  -6   0 -13    6.96    1.73
   6   0  13    6.56    1.77
   6   0  13    5.46    1.07
   6   0  13    5.87    1.84
  -7   0 -13    2.69    1.63
  -7   0 -13    1.16    1.54
  -7   0 -13    3.63    1.72
   7   0  13    0.63    1.06
   7   0  13   -0.54    1.53
   7   0  13    4.16    1.80
  -8   0 -13    5.28    1.98
  -8   0 -13    2.85    1.76
   8   0  13    1.37    1.31
   8   0  13    4.26    1.86
  -4   1  13   15.48    2.75
  -4   1  13   15.69    2.47
   3  -1 -13    0.32    1.67
   3  -1 -13    2.26    1.34
  -3   1  13    2.23    1.61
  -3   1  13    1.94    1.68
   2  -1 -13   17.83    1.93
   2  -1 -13   16.79    1.95
  -2   1  13   20.94    2.41
  -2   1  13   25.00    2.52
   1  -1 -13    8.76    1.84
   1  -1 -13    9.40    1.51
  -1   1  13    9.12    1.85
  -1   1  13    6.65    1.17
  -1   1  13    4.30    1.62
   0  -1 -13    7.70    1.51
   0  -1 -13    8.78    1.74
   0   1  13    6.53    1.76
   0   1  13    7.37    1.25
   0   1  13    7.79    1.73
  -1  -1 -13   12.93    1.91
  -1  -1 -13   13.02    1.78
   1   1  13   11.38    1.61
   1   1  13   12.57    1.95
   1   1  13   12.98    1.99
  -2  -1 -13   14.26    1.77
  -2  -1 -13   12.11    1.84
   2   1  13   12.53    1.87
   2   1  13   12.18    1.85
   2   1  13   12.49    1.65
  -3  -1 -13   17.19    1.82
  -3  -1 -13   17.09    1.84
   3   1  13   15.97    2.12
   3   1  13   14.76    1.79
  -4  -1 -13    4.19    1.41
  -4  -1 -13    4.84    1.41
   4   1  13    7.72    1.63
   4   1  13    6.10    1.44
   4   1  13    5.63    0.55
  -5  -1 -13    1.96    1.29
  -5  -1 -13   -1.04    1.20
   5   1  13    2.63    1.40
   5   1  13   -0.47    0.66
   5   1  13    2.05    1.38
  -6  -1 -13   13.87    2.18
  -6  -1 -13   15.65    2.02
  -6  -1 -13   14.43    2.03
   6   1  13   19.58    2.36
   6   1  13   16.28    2.27
   6   1  13   13.47    1.34
  -7  -1 -13   13.01    1.84
  -7  -1 -13   12.32    2.07
  -7  -1 -13   12.85    2.10
   7   1  13   13.45    1.48
   7   1  13   13.25    2.18
   7   1  13   14.39    2.33
  -8  -1 -13    4.16    1.75
  -8  -1 -13    7.69    2.06
  -8  -1 -13    5.42    1.77
   8   1  13   10.14    2.16
   8   1  13    4.20    1.38
   8   1  13    6.36    2.00
   3  -2 -13    3.79    1.47
   3  -2 -13    3.59    1.79
  -3   2  13    3.14    1.73
  -3   2  13    1.14    1.66
   2  -2 -13    4.07    1.32
   2  -2 -13    5.12    1.77
  -2   2  13    6.17    1.79
  -2   2  13    4.32    1.77
   1  -2 -13    2.74    1.59
   1  -2 -13    5.23    1.40
  -1   2  13    2.84    1.48
  -1   2  13    0.32    1.05
  -1   2  13    3.38    1.44
   0  -2 -13    0.28    1.41
   0  -2 -13    1.51    1.24
   0   2  13    2.15    1.19
   0   2  13    1.82    1.13
   0   2  13    2.27    1.38
  -1  -2 -13    2.14    1.05
  -1  -2 -13    2.40    1.37
   1   2  13    1.82    1.08
   1   2  13    3.83    1.34
   1   2  13    1.05    1.31
  -2  -2 -13    8.08    1.71
  -2  -2 -13    8.06    1.50
   2   2  13    7.92    1.53
   2   2  13   10.54    1.64
   2   2  13    7.21    1.71
  -3  -2 -13    4.08    1.39
  -3  -2 -13    3.77    1.25
   3   2  13    2.40    1.19
   3   2  13    2.20    1.33
  -4  -2 -13    1.12    0.96
  -4  -2 -13    1.40    1.34
   4   2  13    1.03    0.28
   4   2  13    1.14    1.19
   4   2  13    2.81    1.14
  -5  -2 -13    6.18    1.59
  -5  -2 -13    8.78    1.77
   5   2  13   11.68    1.85
   5   2  13    4.99    1.49
   5   2  13    8.01    0.96
  -6  -2 -13    6.03    1.62
  -6  -2 -13    9.16    1.66
  -6  -2 -13    7.18    1.75
   6   2  13    6.89    1.78
   6   2  13    5.90    1.01
   6   2  13    9.71    1.87
  -7  -2 -13    2.06    1.23
  -7  -2 -13   -0.16    1.39
  -7  -2 -13   -0.33    1.56
   7   2  13    0.18    1.48
   7   2  13    0.56    1.01
   7   2  13    1.08    1.21
  -8  -2 -13   -0.71    1.52
  -8  -2 -13    3.98    1.58
  -8  -2 -13    2.97    1.79
   8   2  13    0.97    1.21
   8   2  13    1.42    1.79
   8   2  13    0.87    1.62
  -9  -2 -13    5.83    1.99
  -9  -2 -13    3.80    1.79
  -9  -2 -13    0.76    1.56
   9   2  13    1.21    1.43
   9   2  13   -0.74    1.72
   3  -3 -13    0.93    1.54
  -3   3  13    0.18    1.34
  -3   3  13    0.20    1.71
   2  -3 -13    6.88    1.52
   2  -3 -13    7.21    2.01
  -2   3  13    5.77    1.94
  -2   3  13    7.08    1.64
  -2   3  13    7.80    1.97
   1  -3 -13   12.12    2.12
   1  -3 -13   11.46    1.69
  -1   3  13   10.62    1.46
  -1   3  13    9.94    1.97
  -1   3  13    8.92    1.89
   0  -3 -13   10.68    1.97
   0  -3 -13   10.05    1.62
   0   3  13    9.85    1.49
   0   3  13    9.10    1.92
   0   3  13    7.77    1.63
  -1  -3 -13    8.36    1.50
  -1  -3 -13    7.30    1.70
   1   3  13    8.90    1.53
   1   3  13    5.93    1.46
   1   3  13    6.74    1.57
  -2  -3 -13    0.50    1.09
  -2  -3 -13    0.47    1.17
   2   3  13    2.19    1.23
   2   3  13    1.51    1.20
   2   3  13   -1.67    1.17
  -3  -3 -13    0.68    0.85
  -3  -3 -13    0.49    0.94
   3   3  13    1.14    1.16
   3   3  13    0.65    1.25
   3   3  13   -0.39    1.09
  -4  -3 -13    0.41    1.20
  -4  -3 -13    0.01    1.27
   4   3  13   -1.54    1.26
   4   3  13    1.45    1.29
   4   3  13    0.11    0.33
  -5  -3 -13    4.66    1.40
  -5  -3 -13    6.42    1.54
   5   3  13    3.74    0.74
   5   3  13    4.42    1.27
   5   3  13    3.53    1.15
  -6  -3 -13    8.73    1.70
  -6  -3 -13    9.32    1.53
  -6  -3 -13    7.08    1.75
   6   3  13    6.06    1.60
   6   3  13    7.46    1.09
   6   3  13    6.71    1.69
  -7  -3 -13   15.86    2.22
  -7  -3 -13   18.03    2.32
  -7  -3 -13   18.92    2.11
   7   3  13   18.91    2.45
   7   3  13   15.01    2.27
   7   3  13   13.84    1.59
  -8  -3 -13    0.90    1.19
  -8  -3 -13    1.89    1.60
  -8  -3 -13    5.34    1.67
   8   3  13    3.14    1.71
   8   3  13    5.14    1.81
   8   3  13    3.58    1.33
  -9  -3 -13    4.60    1.82
  -9  -3 -13    1.85    2.04
  -9  -3 -13    1.83    1.87
   9   3  13   -1.24    1.77
   9   3  13    3.57    1.38
   2  -4 -13    6.47    1.68
   2  -4 -13    2.37    1.91
  -2   4  13    1.56    1.58
  -2   4  13    4.97    2.03
   1  -4 -13   -2.15    1.51
   1  -4 -13    1.35    1.29
  -1   4  13    3.84    1.58
  -1   4  13    1.81    1.68
  -1   4  13   -0.74    1.22
   0  -4 -13   14.55    1.82
   0  -4 -13   14.82    2.29
   0   4  13   15.76    1.94
   0   4  13   15.97    2.23
   0   4  13   15.07    2.14
  -1  -4 -13    2.16    1.47
  -1  -4 -13    4.59    1.34
   1   4  13    1.07    1.12
   1   4  13    2.00    1.39
   1   4  13    4.54    1.37
  -2  -4 -13    5.03    1.57
  -2  -4 -13    2.29    1.20
   2   4  13   -0.12    1.20
   2   4  13    0.31    1.43
   2   4  13    1.61    1.29
  -3  -4 -13    0.41    1.42
  -3  -4 -13   -0.58    1.08
   3   4  13   -0.99    1.30
   3   4  13    1.66    1.30
   3   4  13   -0.08    1.27
  -4  -4 -13    3.81    1.37
  -4  -4 -13    4.85    1.53
   4   4  13    2.03    0.55
   4   4  13    2.39    1.42
   4   4  13    4.23    1.56
  -5  -4 -13   -1.12    1.26
  -5  -4 -13    1.11    1.22
   5   4  13    0.41    1.45
   5   4  13    1.85    1.37
  -6  -4 -13   11.69    2.06
  -6  -4 -13   13.52    1.91
   6   4  13   13.86    2.13
   6   4  13   12.49    1.42
   6   4  13   14.54    2.18
  -7  -4 -13    1.17    1.41
  -7  -4 -13    3.50    1.46
  -7  -4 -13    2.63    1.49
   7   4  13    0.22    1.02
   7   4  13    0.20    1.36
   7   4  13    0.11    1.11
  -8  -4 -13    2.75    1.58
  -8  -4 -13    3.45    1.57
  -8  -4 -13    2.75    1.79
   8   4  13    2.66    1.30
   8   4  13    2.39    1.78
   8   4  13    0.81    1.58
  -9  -4 -13   -3.13    1.58
  -9  -4 -13   -1.82    1.65
  -9  -4 -13    2.62    1.57
   9   4  13    2.43    1.41
   9   4  13    0.74    1.80
   1  -5 -13   11.25    2.29
   1  -5 -13   13.87    1.76
  -1   5  13   12.25    2.19
  -1   5  13   11.13    1.73
  -1   5  13   11.66    2.32
   0  -5 -13   -0.19    1.57
   0  -5 -13    0.37    1.15
   0   5  13   -0.35    1.43
   0   5  13    1.38    1.38
   0   5  13    0.57    1.66
  -1  -5 -13    9.70    2.07
  -1  -5 -13    7.50    1.53
   1   5  13   11.62    2.14
   1   5  13    8.51    1.83
   1   5  13    6.39    1.60
  -2  -5 -13    0.36    1.13
  -2  -5 -13    1.94    1.49
   2   5  13   -0.98    1.38
   2   5  13    2.04    1.40
   2   5  13    1.46    1.47
  -3  -5 -13   12.52    1.94
  -3  -5 -13    9.04    1.66
   3   5  13   12.86    1.88
   3   5  13    8.99    1.75
   3   5  13   11.33    2.04
  -4  -5 -13    7.84    1.48
  -4  -5 -13    6.42    1.76
   4   5  13    5.89    0.81
   4   5  13    9.77    1.89
   4   5  13    7.30    1.47
   4   5  13   10.87    1.80
  -5  -5 -13    4.23    1.62
  -5  -5 -13    4.35    1.37
   5   5  13    5.72    1.48
   5   5  13    4.56    0.99
   5   5  13    5.89    1.62
  -6  -5 -13    8.52    1.66
  -6  -5 -13    8.56    1.85
   6   5  13    7.26    1.82
   6   5  13    9.31    1.84
   6   5  13    6.82    1.20
  -7  -5 -13    7.99    1.69
  -7  -5 -13    8.56    2.04
  -7  -5 -13    6.44    1.57
   7   5  13    7.65    2.00
   7   5  13    7.87    1.39
   7   5  13    7.00    1.84
  -8  -5 -13    3.42    1.49
  -8  -5 -13   -0.89    1.43
  -8  -5 -13    1.11    1.62
   8   5  13    1.96    1.30
   8   5  13   -0.76    1.72
   8   5  13    2.45    1.77
  -9  -5 -13   -0.02    1.58
  -9  -5 -13    2.57    1.55
  -9  -5 -13    0.40    1.75
   9   5  13   -1.32    1.68
   9   5  13   -3.12    1.44
   0  -6 -13    4.42    1.92
   0  -6 -13    2.14    1.39
   0   6  13   -0.85    1.47
   0   6  13    1.14    1.66
  -1  -6 -13    6.57    1.97
  -1  -6 -13    0.03    1.30
   1   6  13   -1.01    1.50
   1   6  13    0.55    1.71
   1   6  13    1.53    1.63
  -2  -6 -13    2.70    1.27
  -2  -6 -13    3.13    1.73
   2   6  13    4.67    1.73
   2   6  13    1.92    1.60
   2   6  13    2.57    1.50
  -3  -6 -13    0.11    1.58
  -3  -6 -13    0.56    1.16
   3   6  13    2.29    1.48
   3   6  13    1.11    1.12
   3   6  13    1.33    1.44
   3   6  13   -2.06    1.40
  -4  -6 -13   -0.05    1.54
  -4  -6 -13   -2.56    1.07
   4   6  13    2.75    1.00
   4   6  13    1.55    1.37
   4   6  13    0.37    1.57
   4   6  13    1.79    1.39
  -5  -6 -13   -1.01    1.37
  -5  -6 -13    0.80    1.30
   5   6  13    1.90    1.21
   5   6  13   -1.17    1.32
   5   6  13   -0.04    0.99
  -6  -6 -13    7.27    1.63
  -6  -6 -13    6.60    1.86
   6   6  13    3.86    1.22
   6   6  13    5.98    1.78
   6   6  13    6.72    1.87
  -7  -6 -13    2.06    1.31
  -7  -6 -13    1.71    1.65
  -7  -6 -13   -1.04    1.34
   7   6  13    2.94    1.25
   7   6  13   -3.48    1.59
   7   6  13    2.82    1.62
  -8  -6 -13    1.97    1.74
  -8  -6 -13    3.19    1.54
  -8  -6 -13    2.12    1.40
   8   6  13    4.73    1.79
   8   6  13    3.28    1.98
   8   6  13   -1.44    1.36
  -9  -6 -13   -2.50    1.68
  -9  -6 -13    0.40    1.53
   9   6  13    0.40    1.54
   9   6  13    0.87    1.81
   9   6  13    0.92    1.74
  -1  -7 -13   11.62    1.66
   1   7  13   16.52    2.22
   1   7  13   17.43    2.30
   1   7  13   15.72    2.79
  -2  -7 -13   -1.73    1.71
  -2  -7 -13    4.30    1.37
   2   7  13    0.45    1.57
   2   7  13    1.35    1.86
   2   7  13    0.66    1.63
  -3  -7 -13    0.62    1.79
  -3  -7 -13    6.09    1.33
   3   7  13    2.93    1.84
   3   7  13    4.33    1.78
   3   7  13    6.42    1.61
   3   7  13    5.31    1.72
  -4  -7 -13    0.65    1.16
  -4  -7 -13    0.54    1.65
   4   7  13   -1.48    1.45
   4   7  13    1.05    1.46
   4   7  13    1.81    1.14
   4   7  13    0.50    1.65
  -5  -7 -13    3.20    1.78
  -5  -7 -13    1.17    1.27
   5   7  13    1.00    1.12
   5   7  13    0.51    1.63
   5   7  13    3.17    1.79
  -6  -7 -13    3.80    1.57
  -6  -7 -13    5.88    1.51
   6   7  13    5.45    1.94
   6   7  13    4.51    1.78
   6   7  13    1.99    1.25
  -7  -7 -13    6.12    1.53
  -7  -7 -13    3.30    1.84
  -7  -7 -13    4.61    1.58
   7   7  13    2.83    1.36
   7   7  13    7.58    1.82
   7   7  13    4.55    1.87
  -8  -7 -13   10.40    1.94
  -8  -7 -13    6.63    2.22
   8   7  13    5.04    1.98
   8   7  13    3.93    1.52
  -4  -8 -13    1.08    1.36
   4   8  13   -1.10    1.53
   4   8  13    0.06    1.27
   4   8  13   -1.70    2.04
   4   8  13   -0.64    1.69
  -5  -8 -13    9.88    1.68
  -5  -8 -13    3.44    3.02
   5   8  13    6.17    1.45
   5   8  13    5.93    1.93
   5   8  13    8.75    2.10
  -6  -8 -13    0.20    1.28
   6   8  13    3.88    1.97
   6   8  13    0.15    1.77
   6   8  13    1.38    1.42
  -7  -8 -13    6.90    1.95
  -7  -8 -13    4.74    1.69
   7   8  13    2.15    1.49
   7   8  13    4.08    1.89
   1   5 -14   10.81    2.25
  -1  -5  14    5.67    2.50
  -1  -5  14   10.04    1.79
   0   5 -14    0.70    1.57
   0  -5  14    1.71    1.42
  -1   5 -14    4.01    1.68
   1  -5  14    3.93    2.07
   1  -5  14    1.86    1.56
   2   4 -14    1.13    1.74
  -2  -4  14    0.11    2.05
  -2  -4  14    0.94    1.29
  -2  -4  14    5.87    2.21
   1   4 -14    4.40    1.72
   1   4 -14    3.11    1.74
  -1  -4  14    3.66    1.89
  -1  -4  14    2.30    1.37
   0   4 -14   -3.11    1.38
   0   4 -14    0.03    1.55
   0  -4  14    0.46    1.65
   0  -4  14   -1.74    1.23
  -1   4 -14    1.65    1.63
  -1   4 -14   -0.25    1.42
   1  -4  14    0.77    1.79
   1  -4  14    1.57    1.42
  -2   4 -14    5.36    2.00
  -2   4 -14    7.53    1.80
   2  -4  14    8.75    2.25
   2  -4  14    8.81    1.84
  -3   4 -14    3.36    2.12
  -3   4 -14    3.54    1.69
   3  -4  14    2.90    1.75
   3   3 -14    5.61    2.07
  -3  -3  14    2.69    1.79
   2   3 -14    0.84    1.64
   2   3 -14    1.35    1.45
  -2  -3  14    0.70    1.38
  -2  -3  14    0.40    1.75
  -2  -3  14   -0.36    1.11
   1   3 -14    3.28    1.58
   1   3 -14    1.80    1.56
  -1  -3  14    3.67    1.90
  -1  -3  14    2.19    1.33
  -1  -3  14    3.40    1.88
   0   3 -14   12.32    1.96
   0   3 -14   11.51    2.02
   0  -3  14   11.09    1.99
   0  -3  14   11.65    1.73
  -1   3 -14   -1.48    1.27
  -1   3 -14    1.82    1.44
   1  -3  14    1.40    1.40
   1  -3  14   -0.04    1.73
  -2   3 -14    3.60    1.62
  -2   3 -14    5.76    1.77
   2  -3  14    6.36    1.63
   2  -3  14    2.45    1.78
  -3   3 -14    2.37    1.51
  -3   3 -14    1.37    1.23
   3  -3  14    0.72    1.43
   3  -3  14    0.87    1.85
  -4   3 -14   -2.20    1.61
  -4   3 -14    1.43    2.05
  -4   3 -14    1.70    1.62
   4  -3  14   -0.97    1.58
   4  -3  14   -2.61    1.63
   4  -3  14    0.39    1.30
   3   2 -14    6.45    1.91
   3   2 -14    8.50    2.19
  -3  -2  14   11.26    2.61
  -3  -2  14    8.17    2.11
   2   2 -14   10.24    1.66
   2   2 -14    8.87    2.11
  -2  -2  14    8.88    1.33
  -2  -2  14   12.30    2.34
  -2  -2  14    9.83    2.22
   1   2 -14   -2.53    1.34
   1   2 -14   -1.70    1.31
  -1  -2  14   -1.72    1.09
  -1  -2  14    2.15    1.34
  -1  -2  14    0.06    1.56
   0   2 -14    3.57    1.56
   0   2 -14    6.89    1.70
   0  -2  14    5.83    1.85
   0  -2  14    6.13    1.38
  -1   2 -14    4.14    1.34
  -1   2 -14    3.93    1.68
   1  -2  14    5.34    1.92
   1  -2  14    5.90    1.45
  -2   2 -14   -0.51    1.36
  -2   2 -14    1.29    1.44
   2  -2  14    1.10    1.33
   2  -2  14    0.86    1.68
  -3   2 -14    1.99    1.50
  -3   2 -14    1.70    1.45
   3  -2  14   -0.04    1.62
   3  -2  14    2.94    1.52
  -4   2 -14   -3.01    1.72
  -4   2 -14    3.87    1.63
  -4   2 -14    1.35    1.58
   4  -2  14    2.47    1.66
   4  -2  14    3.39    1.30
  -5   2 -14    2.37    1.59
  -5   2 -14    0.59    1.83
  -5   2 -14   -1.55    1.62
   5  -2  14    2.09    1.69
   5  -2  14    1.72    1.82
   5  -2  14    2.55    0.95
   3   1 -14    1.09    1.46
   3   1 -14    3.42    1.56
  -3  -1  14    0.04    1.77
   2   1 -14    0.67    1.36
   2   1 -14   -0.95    1.56
  -2  -1  14    2.66    1.79
  -2  -1  14   -0.73    1.54
  -2  -1  14    0.94    0.98
   1   1 -14    0.49    1.41
   1   1 -14   -1.07    1.34
  -1  -1  14    1.01    1.60
  -1  -1  14    0.51    1.09
  -1  -1  14    0.81    1.11
   0   1 -14   -0.24    1.32
   0   1 -14    0.63    1.37
   0  -1  14    3.37    1.70
   0  -1  14    2.04    1.60
   0  -1  14   -0.52    1.03
  -1   1 -14    0.55    1.29
  -1   1 -14    0.85    1.37
   1  -1  14    0.37    1.19
   1  -1  14   -0.27    1.19
  -2   1 -14    2.93    1.22
  -2   1 -14    4.44    1.45
   2  -1  14    3.53    1.71
   2  -1  14    2.89    1.31
  -3   1 -14    2.11    1.37
  -3   1 -14    1.73    1.47
   3  -1  14    2.14    1.35
   3  -1  14    0.93    1.39
  -4   1 -14   -1.34    1.42
  -4   1 -14    0.36    1.44
   4  -1  14    0.29    1.41
   4  -1  14   -1.85    1.56
  -5   1 -14    2.51    1.58
  -5   1 -14    0.49    1.45
  -5   1 -14    0.36    1.59
   5  -1  14    1.95    1.15
   5  -1  14    2.57    1.73
   5  -1  14    0.10    1.30
  -6   1 -14   -1.05    1.57
  -6   1 -14   -0.51    1.66
  -6   1 -14    0.64    1.85
   6  -1  14   -0.54    1.33
   6  -1  14    0.48    1.69
   6  -1  14   -0.75    0.99
   3   0 -14   23.99    2.46
  -3   0  14   24.62    3.39
  -3   0  14   27.84    2.86
   2   0 -14    5.92    1.92
   2   0 -14    4.91    1.55
  -2   0  14    3.59    1.86
  -2   0  14    3.73    1.74
  -2   0  14    2.92    1.12
   1   0 -14    0.96    1.55
   1   0 -14    1.38    1.36
  -1   0  14   -1.40    1.56
  -1   0  14    0.37    1.12
  -1   0  14    1.78    1.69
   0   0 -14    1.24    1.35
   0   0 -14    3.82    1.62
   0   0  14    4.53    1.60
   0   0  14    1.21    1.14
   0   0  14    3.52    1.66
  -1   0 -14    5.98    1.70
  -1   0 -14    4.70    1.46
   1   0  14    6.84    1.43
   1   0  14    7.42    1.84
   1   0  14    6.32    1.77
  -2   0 -14    7.44    1.68
  -2   0 -14   10.04    1.74
   2   0  14    7.09    1.60
   2   0  14    5.06    1.51
  -3   0 -14   -0.29    1.36
  -3   0 -14    1.67    1.33
   3   0  14   -0.02    1.41
   3   0  14    0.96    1.32
  -4   0 -14   18.74    2.18
  -4   0 -14   19.93    2.37
   4   0  14   15.00    2.40
   4   0  14   17.44    2.25
  -5   0 -14    6.64    1.73
  -5   0 -14    8.77    1.94
  -5   0 -14   10.30    2.17
   5   0  14    7.30    0.93
   5   0  14    8.63    1.92
   5   0  14    6.27    1.97
  -6   0 -14    2.58    1.50
  -6   0 -14    1.60    1.50
  -6   0 -14    1.35    1.80
   6   0  14    1.36    0.93
   6   0  14   -0.24    1.64
   6   0  14   -0.22    1.74
  -7   0 -14    2.93    2.01
  -7   0 -14    0.72    1.73
   7   0  14    1.37    1.10
   7   0  14    0.86    1.88
   3  -1 -14    0.83    1.36
   3  -1 -14    2.17    1.98
  -3   1  14    2.83    1.93
   2  -1 -14    6.55    1.67
   2  -1 -14    2.59    1.86
  -2   1  14    3.63    1.83
  -2   1  14    3.40    1.90
   1  -1 -14    0.85    1.40
   1  -1 -14    1.34    1.47
  -1   1  14   -0.06    1.70
  -1   1  14   -0.76    1.15
  -1   1  14    0.29    1.11
   0  -1 -14    1.34    1.32
   0  -1 -14    1.41    1.20
   0   1  14    1.79    1.55
   0   1  14    0.86    1.19
   0   1  14   -1.96    1.39
  -1  -1 -14    5.57    1.74
  -1  -1 -14    3.25    1.43
   1   1  14    4.08    1.64
   1   1  14    3.71    1.76
   1   1  14    3.65    1.26
  -2  -1 -14   11.99    1.96
  -2  -1 -14   12.25    1.88
   2   1  14    8.84    1.89
   2   1  14    9.86    2.06
   2   1  14   11.00    1.71
  -3  -1 -14   22.74    2.16
  -3  -1 -14   20.72    2.17
   3   1  14   22.06    2.51
   3   1  14   18.80    2.11
  -4  -1 -14    1.57    1.39
  -4  -1 -14    0.57    1.39
   4   1  14   -0.54    1.29
   4   1  14   -0.41    1.46
  -5  -1 -14   14.19    2.16
  -5  -1 -14   13.15    2.06
   5   1  14   13.16    2.09
   5   1  14    9.69    2.08
  -6  -1 -14   -1.26    1.39
  -6  -1 -14    0.29    1.21
  -6  -1 -14   -1.47    1.56
   6   1  14    0.55    0.88
   6   1  14    1.23    1.68
   6   1  14   -1.46    1.54
  -7  -1 -14    7.93    2.03
  -7  -1 -14    8.78    2.24
  -7  -1 -14   10.69    2.05
   7   1  14    8.03    2.19
   7   1  14    8.58    1.29
   7   1  14    7.10    2.15
   2  -2 -14    5.81    1.58
  -2   2  14    6.76    2.11
  -2   2  14    5.97    1.95
   1  -2 -14   16.97    2.01
   1  -2 -14   19.91    2.48
  -1   2  14   21.39    2.67
  -1   2  14   16.35    2.53
  -1   2  14   14.53    1.67
   0  -2 -14    2.03    1.73
   0  -2 -14    1.86    1.27
   0   2  14    1.27    1.41
   0   2  14    1.60    1.24
   0   2  14    1.57    1.68
  -1  -2 -14    1.26    1.50
  -1  -2 -14    4.01    1.31
   1   2  14    0.91    1.50
   1   2  14    0.92    1.53
   1   2  14    1.19    1.30
  -2  -2 -14   24.48    2.37
  -2  -2 -14   21.98    2.08
   2   2  14   21.73    2.60
   2   2  14   21.85    2.07
   2   2  14   23.15    2.39
  -3  -2 -14    4.45    1.49
  -3  -2 -14    2.27    1.46
   3   2  14    4.53    1.61
   3   2  14    4.78    1.48
  -4  -2 -14   19.57    2.19
  -4  -2 -14   18.99    2.10
   4   2  14   22.51    2.18
   4   2  14   20.91    2.45
  -5  -2 -14    1.01    1.47
  -5  -2 -14    0.41    1.45
   5   2  14   -2.36    1.39
   5   2  14   -0.25    1.48
  -6  -2 -14   20.25    2.61
  -6  -2 -14   16.37    2.34
  -6  -2 -14   16.38    2.23
   6   2  14   16.16    2.46
   6   2  14   12.14    2.22
  -7  -2 -14    0.55    1.60
  -7  -2 -14   -1.01    1.79
  -7  -2 -14   -2.02    1.56
   7   2  14   -1.31    1.68
   7   2  14   -2.32    1.63
   7   2  14    0.96    1.06
  -8  -2 -14   12.13    2.40
  -8  -2 -14   11.46    2.14
  -8  -2 -14    6.52    2.11
   8   2  14   12.64    2.92
   8   2  14   10.52    1.55
   8   2  14    8.62    2.32
   1  -3 -14   15.75    2.54
   1  -3 -14   13.95    1.97
  -1   3  14   14.48    2.33
  -1   3  14   11.45    1.60
  -1   3  14   14.47    2.24
   0  -3 -14    0.58    1.23
   0  -3 -14    0.12    1.59
   0   3  14    2.74    1.55
   0   3  14    1.11    1.25
   0   3  14    1.84    1.62
  -1  -3 -14    2.89    1.37
  -1  -3 -14    0.25    1.53
   1   3  14    0.96    1.51
   1   3  14   -1.58    1.14
   1   3  14   -1.49    1.28
  -2  -3 -14    3.92    1.37
  -2  -3 -14    2.54    1.56
   2   3  14    2.65    1.69
   2   3  14    5.80    1.79
   2   3  14    1.06    1.33
  -3  -3 -14   20.99    2.30
  -3  -3 -14   19.55    2.05
   3   3  14   21.62    2.35
   3   3  14   20.26    2.19
   3   3  14   24.20    2.64
  -4  -3 -14    4.50    1.68
  -4  -3 -14    3.52    1.42
   4   3  14    3.35    1.48
   4   3  14   -0.03    1.63
  -5  -3 -14    7.51    1.87
  -5  -3 -14    9.44    1.79
   5   3  14    9.13    2.08
   5   3  14    8.78    1.80
  -6  -3 -14   -1.81    1.47
  -6  -3 -14   -1.18    1.43
  -6  -3 -14   -1.08    1.51
   6   3  14    4.26    1.68
   6   3  14    2.66    1.60
  -7  -3 -14    6.01    1.91
  -7  -3 -14    7.35    1.56
  -7  -3 -14    6.91    2.01
   7   3  14    3.51    1.88
   7   3  14    6.82    1.90
   7   3  14    4.01    1.16
  -8  -3 -14    0.80    1.64
  -8  -3 -14    0.23    1.66
   8   3  14    1.35    1.32
   8   3  14    0.24    1.90
   1  -4 -14   13.18    2.97
   1  -4 -14   18.76    2.25
  -1   4  14   18.27    2.60
  -1   4  14   12.50    1.74
   0  -4 -14   11.14    1.86
   0  -4 -14   11.78    2.36
   0   4  14   14.92    2.49
   0   4  14   13.55    1.85
   0   4  14   11.21    2.09
  -1  -4 -14    0.70    1.58
  -1  -4 -14    1.52    1.33
   1   4  14   -1.90    1.52
   1   4  14   -0.43    1.55
   1   4  14    3.52    1.49
  -2  -4 -14    2.71    1.56
  -2  -4 -14    2.61    1.39
   2   4  14    0.50    1.66
   2   4  14    2.61    1.43
   2   4  14   -0.59    1.47
  -3  -4 -14   -0.06    1.26
  -3  -4 -14   -2.01    1.49
   3   4  14   -0.46    1.59
   3   4  14   -1.69    1.37
   3   4  14    2.18    1.52
  -4  -4 -14    2.26    1.37
  -4  -4 -14    2.01    1.68
   4   4  14    1.10    1.41
   4   4  14   -2.68    1.44
  -5  -4 -14    1.28    1.35
  -5  -4 -14    2.40    1.63
   5   4  14    2.06    1.65
   5   4  14   -1.45    1.52
  -6  -4 -14    0.08    1.39
  -6  -4 -14    2.38    1.64
   6   4  14    0.93    1.66
   6   4  14   -0.20    1.61
  -7  -4 -14   -0.36    1.76
  -7  -4 -14    2.60    1.56
  -7  -4 -14    1.94    1.67
   7   4  14   -0.96    1.70
   7   4  14    1.58    1.75
   7   4  14    1.43    1.16
  -8  -4 -14    0.39    1.29
  -8  -4 -14    0.69    1.86
  -8  -4 -14    1.50    1.77
   8   4  14    1.46    1.94
   8   4  14    1.72    1.32
   0  -5 -14    6.32    1.56
   0  -5 -14    2.31    2.30
   0   5  14    4.87    1.72
   0   5  14    3.43    2.12
   0   5  14    3.59    1.90
  -1  -5 -14    1.58    1.37
  -1  -5 -14    2.02    1.48
   1   5  14    0.35    1.92
   1   5  14    0.08    1.53
   1   5  14    1.69    1.71
  -2  -5 -14    2.58    1.66
  -2  -5 -14    3.81    1.40
   2   5  14    1.15    1.43
   2   5  14    0.16    1.51
   2   5  14    2.08    1.65
  -3  -5 -14   -0.15    1.28
  -3  -5 -14   -0.88    1.56
   3   5  14   -1.39    1.41
   3   5  14    2.75    1.56
   3   5  14   -1.51    1.61
  -4  -5 -14    5.43    1.56
  -4  -5 -14    4.13    1.85
   4   5  14    2.49    1.70
   4   5  14    5.37    2.00
  -5  -5 -14    2.29    1.74
  -5  -5 -14    2.06    1.40
   5   5  14    3.35    1.85
   5   5  14    1.27    1.68
  -6  -5 -14    1.77    1.81
  -6  -5 -14    4.67    1.60
   6   5  14    1.08    1.84
   6   5  14    4.59    1.18
   6   5  14    3.95    1.88
  -7  -5 -14    1.69    1.64
  -7  -5 -14    2.08    1.76
  -7  -5 -14    3.11    1.57
   7   5  14    5.34    1.99
   7   5  14    4.68    2.01
   7   5  14    2.17    1.19
  -8  -5 -14    6.41    2.14
  -8  -5 -14    3.29    1.64
  -8  -5 -14    8.12    1.82
   8   5  14    2.96    1.39
   8   5  14    9.25    2.32
  -2  -6 -14    1.78    1.35
   2   6  14    1.18    1.71
   2   6  14   -1.16    1.68
  -3  -6 -14    4.10    1.47
  -3  -6 -14    6.55    2.05
   3   6  14    5.05    1.79
   3   6  14    7.96    1.84
   3   6  14    5.77    1.89
  -4  -6 -14    1.55    1.74
  -4  -6 -14    0.75    1.38
   4   6  14   -1.10    1.54
   4   6  14    1.05    1.75
   4   6  14   -0.29    1.59
  -5  -6 -14    5.87    1.67
  -5  -6 -14    5.99    2.07
   5   6  14   10.66    2.15
   5   6  14    4.59    1.98
  -6  -6 -14    0.57    1.48
  -6  -6 -14    1.37    1.88
   6   6  14   -0.31    1.24
   6   6  14    1.27    1.79
   6   6  14    0.46    1.80
  -7  -6 -14   -0.25    1.53
  -7  -6 -14    2.62    2.37
  -7  -6 -14    3.46    1.70
   7   6  14    1.67    1.90
   7   6  14    4.11    2.04
   7   6  14    1.54    1.32
  -4  -7 -14   12.38    1.86
  -4  -7 -14   13.57    2.55
   4   7  14    8.73    2.14
   4   7  14   11.66    2.08
  -5  -7 -14    1.16    1.60
  -5  -7 -14    1.36    1.91
   5   7  14    2.01    1.78
   5   7  14    2.05    2.03
   0   3 -15    3.19    1.96
   0   3 -15   -2.97    1.69
   0  -3  15   -0.58    1.38
  -1   3 -15   43.11    3.45
  -1   3 -15   42.13    3.12
   1  -3  15   41.93    2.95
   1  -3  15   35.61    3.66
  -2   3 -15    4.82    1.65
  -2   3 -15    3.40    2.01
   2  -3  15    5.53    2.16
   2  -3  15    8.35    1.92
   1   2 -15   -1.32    1.75
   1   2 -15    0.55    1.81
  -1  -2  15    2.63    1.36
  -1  -2  15    0.88    1.99
   0   2 -15    4.72    1.68
   0   2 -15    7.94    2.00
   0  -2  15    6.67    1.68
   0  -2  15    4.98    1.77
  -1   2 -15    2.94    1.65
  -1   2 -15    2.39    1.32
   1  -2  15    0.12    1.90
   1  -2  15    0.90    1.45
  -2   2 -15   16.27    2.29
  -2   2 -15   20.35    3.00
   2  -2  15   17.37    3.23
   2  -2  15   16.12    2.18
  -3   2 -15    1.37    1.62
   3  -2  15    0.61    1.62
   1   1 -15    4.40    1.67
   1   1 -15    5.87    1.99
  -1  -1  15    2.09    1.97
  -1  -1  15    3.28    2.30
  -1  -1  15    1.51    1.27
   0   1 -15   -0.70    1.58
   0   1 -15   -1.33    1.48
   0  -1  15   -0.37    1.84
   0  -1  15    0.65    1.84
   0  -1  15    3.22    1.41
  -1   1 -15   19.47    2.42
  -1   1 -15   19.09    2.38
   1  -1  15   18.51    2.73
   1  -1  15   16.37    2.15
  -2   1 -15    0.39    1.50
  -2   1 -15    1.92    1.69
   2  -1  15    3.82    1.99
   2  -1  15    3.11    1.48
  -3   1 -15    6.81    1.68
  -3   1 -15    9.32    1.97
   3  -1  15   10.29    2.38
   3  -1  15    9.27    1.89
  -4   1 -15    4.24    1.71
   4  -1  15    4.93    2.13
   4  -1  15    5.49    1.88
  -5   1 -15    8.03    2.18
  -5   1 -15    6.41    2.00
  -5   1 -15    6.22    1.77
   5  -1  15    3.63    1.93
   1   0 -15    0.84    1.14
   1   0 -15   -0.22    2.33
  -1   0  15    0.62    1.81
  -1   0  15   -0.16    1.24
  -1   0  15    1.13    1.89
   0   0 -15    0.17    1.50
   0   0 -15    1.21    1.56
   0   0  15   -1.48    1.38
   0   0  15    1.46    1.28
   0   0  15    1.99    1.84
  -1   0 -15    4.76    1.62
  -1   0 -15    1.84    2.88
   1   0  15    2.43    1.36
   1   0  15    4.02    1.96
   1   0  15    4.38    2.22
  -2   0 -15    0.44    1.59
  -2   0 -15   -0.19    1.59
   2   0  15    2.12    1.49
   2   0  15    1.52    1.53
  -3   0 -15    0.83    1.57
  -3   0 -15   -0.45    1.55
   3   0  15   -3.57    1.26
   3   0  15   -0.64    1.45
  -4   0 -15   10.24    2.07
  -4   0 -15   11.40    2.13
   4   0  15   10.49    2.34
   4   0  15    6.62    1.84
  -5   0 -15    4.12    1.73
  -5   0 -15   -0.71    2.04
   5   0  15   -0.42    1.95
   5   0  15   -0.27    1.61
   1  -1 -15   -0.23    1.58
   1  -1 -15    1.20    2.09
  -1   1  15   -0.78    1.77
  -1   1  15   -0.86    1.24
   0  -1 -15    4.71    1.87
   0  -1 -15    1.94    1.47
   0   1  15    3.09    1.91
   0   1  15    1.19    1.95
   0   1  15    4.00    1.44
  -1  -1 -15   -0.98    1.66
  -1  -1 -15   -2.98    1.36
   1   1  15   -1.68    1.60
   1   1  15    1.23    1.28
   1   1  15   -0.63    1.23
  -2  -1 -15   11.97    2.09
  -2  -1 -15   11.59    2.07
   2   1  15   13.71    2.42
   2   1  15    9.08    1.78
  -3  -1 -15   12.23    2.04
  -3  -1 -15   10.77    2.08
   3   1  15   10.52    1.97
   3   1  15   14.74    2.41
  -4  -1 -15   11.30    2.11
  -4  -1 -15    9.42    1.99
   4   1  15   13.06    2.52
   4   1  15   13.10    2.06
  -5  -1 -15   22.03    2.77
  -5  -1 -15   24.99    2.57
   5   1  15   28.32    2.76
   5   1  15   22.09    2.93
  -6  -1 -15    0.93    3.01
  -6  -1 -15    2.71    1.76
  -6  -1 -15    2.78    2.01
   6   1  15    0.09    1.93
   6   1  15    3.18    1.88
   0  -2 -15   -1.35    1.47
   0   2  15   -2.48    2.11
   0   2  15    0.95    1.78
   0   2  15    4.35    1.45
  -1  -2 -15   -0.74    1.45
  -1  -2 -15   -2.24    1.58
   1   2  15    2.06    1.86
   1   2  15    2.37    1.45
   1   2  15    1.39    1.56
  -2  -2 -15    3.10    1.60
  -2  -2 -15    4.43    1.83
   2   2  15    4.32    2.04
   2   2  15    2.14    1.48
   2   2  15    3.33    1.85
  -3  -2 -15   25.58    2.39
  -3  -2 -15   20.47    2.46
   3   2  15   25.29    2.62
   3   2  15   20.70    2.78
  -4  -2 -15    2.70    1.74
  -4  -2 -15    3.13    1.83
   4   2  15    1.18    1.77
   4   2  15    3.55    1.74
  -5  -2 -15    3.57    1.82
  -5  -2 -15    3.37    1.86
   5   2  15    2.24    1.93
   5   2  15    0.42    1.72
  -6  -2 -15   18.75    2.60
  -6  -2 -15   20.97    2.48
   6   2  15   10.52    2.33
   6   2  15   12.71    2.46
  -1  -3 -15    2.17    1.41
   1   3  15    2.51    1.59
   1   3  15    5.58    2.38
   1   3  15    0.79    1.86
  -2  -3 -15    2.41    1.76
  -2  -3 -15    0.97    1.38
   2   3  15    1.97    1.91
   2   3  15    2.49    1.80
   2   3  15    0.81    1.60
  -3  -3 -15    0.96    1.40
  -3  -3 -15    1.01    1.62
   3   3  15    1.71    1.54
   3   3  15   -1.35    1.26
  -4  -3 -15    1.31    1.53
  -4  -3 -15    2.46    1.80
   4   3  15    1.46    1.64
   4   3  15    2.07    1.51
  -5  -3 -15    3.83    1.74
  -5  -3 -15    4.22    1.89
   5   3  15    3.91    1.91
   5   3  15    1.10    1.63
  -6  -3 -15   18.61    2.53
  -6  -3 -15   14.58    2.38
  -6  -3 -15   16.94    2.42
   6   3  15   15.38    2.36
   6   3  15   18.29    2.65
  -2  -4 -15   -0.15    1.42
   2   4  15    0.38    1.74
   2   4  15    0.85    1.55
  -3  -4 -15    4.59    1.61
  -3  -4 -15    4.63    2.13
   3   4  15    5.07    1.81
   3   4  15    7.44    1.92
   3   4  15    5.48    1.81
  -4  -4 -15   20.72    2.47
  -4  -4 -15   21.23    2.79
   4   4  15   17.11    2.59
   4   4  15   20.17    2.57
  -5  -4 -15   12.33    2.34
  -5  -4 -15    7.88    1.98
   5   4  15   11.73    2.36
   5   4  15   10.92    2.27
  -6  -4 -15    2.80    1.88
  -6  -4 -15    4.37    1.81
   6   4  15    3.51    1.96
   6   4  15    0.86    2.00
  -3  -5 -15    3.66    2.03
  -3  -5 -15    0.91    1.53
   3   5  15   -0.09    1.84
   3   5  15    1.86    2.11
   3   5  15   -1.00    1.81
  -4  -5 -15    7.16    1.80
   4   5  15    3.91    1.89
  -5  -5 -15    1.42    1.65
   5   5  15    2.24    1.79
   5   5  15   -2.18    2.07
   0   0   0    0.00    0.00
;
_shelx_hkl_checksum              50821
_olex2_submission_special_instructions 'No special instructions were received'
loop_
_space_group_symop_operation_xyz
'x, y, z'
'-x, -y, -z'
loop_
_atom_site_label
_atom_site_type_symbol
_atom_site_fract_x
_atom_site_fract_y
_atom_site_fract_z
_atom_site_U_iso_or_equiv
_atom_site_adp_type
_atom_site_occupancy
_atom_site_site_symmetry_order
_atom_site_calc_flag
_atom_site_refinement_flags_posn
_atom_site_refinement_flags_adp
_atom_site_refinement_flags_occupancy
_atom_site_disorder_assembly
_atom_site_disorder_group
Cl1 Cl 0.27583(8) 0.78967(7) 1.09485(6) 0.02718(16) Uani 1 1 d . . . . .
Si1 Si 0.12699(8) 0.82946(9) 0.98843(6) 0.02248(18) Uani 1 1 d . . . . .
Cl2 Cl 0.0312(3) 0.6678(3) 1.0292(3) 0.0279(5) Uani 0.53 1 d . . . A 1
F11 F 0.61002(15) 0.46103(15) 0.67874(12) 0.0202(3) Uani 1 1 d . . . . .
F35 F 0.37874(16) 0.49889(15) 0.91729(12) 0.0188(3) Uani 1 1 d . . . . .
F31 F 0.22870(18) 0.64704(16) 0.55598(12) 0.0235(3) Uani 1 1 d . . . . .
F25 F -0.00484(16) 0.93632(18) 0.75134(12) 0.0254(3) Uani 1 1 d . . . . .
F24 F -0.09611(17) 1.15987(17) 0.60683(13) 0.0279(4) Uani 1 1 d . . . . .
F15 F 0.38354(18) 0.94713(16) 0.85037(13) 0.0274(4) Uani 1 1 d . . . . .
F12 F 0.88692(16) 0.42739(17) 0.70454(14) 0.0264(3) Uani 1 1 d . . . . .
F32 F 0.18513(17) 0.40266(17) 0.54899(13) 0.0254(3) Uani 1 1 d . . . . .
F34 F 0.34289(19) 0.24804(17) 0.90410(14) 0.0284(4) Uani 1 1 d . . . . .
F33 F 0.24286(19) 0.19769(17) 0.71944(15) 0.0310(4) Uani 1 1 d . . . . .
F14 F 0.6637(2) 0.90804(19) 0.87489(15) 0.0353(4) Uani 1 1 d . . . . .
F23 F 0.1115(2) 1.19137(19) 0.42679(15) 0.0341(4) Uani 1 1 d . . . . .
F13 F 0.91899(19) 0.6474(2) 0.80261(15) 0.0334(4) Uani 1 1 d . . . . .
O1 O 0.21346(19) 0.80022(18) 0.86059(14) 0.0202(4) Uani 1 1 d . . . . .
F21 F 0.51217(18) 0.7683(2) 0.54606(14) 0.0496(6) Uani 1 1 d . . . . .
F22 F 0.4155(2) 0.9881(3) 0.39789(16) 0.0534(6) Uani 1 1 d . . . . .
O2 O 0.000000 1.000000 1.000000 0.0653(13) Uani 1 2 d S T P A .
C25 C 0.1062(3) 0.9518(3) 0.67136(19) 0.0137(4) Uani 1 1 d . . . . .
C24 C 0.0559(3) 1.0667(3) 0.5940(2) 0.0169(5) Uani 1 1 d . . . . .
C12 C 0.7614(3) 0.5530(3) 0.7439(2) 0.0183(5) Uani 1 1 d . . . . .
C20 C 0.2615(3) 0.8507(3) 0.66424(19) 0.0144(5) Uani 1 1 d . . . . .
C30 C 0.2999(2) 0.5876(3) 0.73997(19) 0.0131(4) Uani 1 1 d . . . . .
C10 C 0.4812(3) 0.7020(3) 0.77058(19) 0.0135(4) Uani 1 1 d . . . . .
C23 C 0.1592(3) 1.0823(3) 0.5033(2) 0.0225(5) Uani 1 1 d . . . . .
C11 C 0.6151(3) 0.5722(3) 0.73285(19) 0.0147(5) Uani 1 1 d . . . . .
C33 C 0.2628(3) 0.3222(3) 0.7259(2) 0.0207(5) Uani 1 1 d . . . . .
C31 C 0.2546(3) 0.5550(3) 0.6461(2) 0.0161(5) Uani 1 1 d . . . . .
C32 C 0.2342(3) 0.4259(3) 0.6396(2) 0.0187(5) Uani 1 1 d . . . . .
C35 C 0.3286(3) 0.4788(3) 0.8252(2) 0.0160(5) Uani 1 1 d . . . . .
C15 C 0.5043(3) 0.8141(3) 0.8178(2) 0.0189(5) Uani 1 1 d . . . . .
C21 C 0.3614(3) 0.8670(3) 0.5680(2) 0.0261(6) Uani 1 1 d . . . . .
C13 C 0.7773(3) 0.6649(3) 0.7936(2) 0.0212(5) Uani 1 1 d . . . . .
C1 C 0.3159(3) 0.7321(2) 0.75760(19) 0.0132(4) Uani 1 1 d . . . . .
C14 C 0.6487(3) 0.7962(3) 0.8301(2) 0.0221(5) Uani 1 1 d . . . . .
C34 C 0.3118(3) 0.3483(3) 0.8197(2) 0.0197(5) Uani 1 1 d . . . . .
C22 C 0.3126(3) 0.9800(4) 0.4893(2) 0.0293(6) Uani 1 1 d . . . . .
Cl3 Cl 0.0022(5) 0.7298(4) 1.0397(4) 0.0525(10) Uani 0.47 1 d . . . A -1
loop_
_atom_site_aniso_label
_atom_site_aniso_U_11
_atom_site_aniso_U_22
_atom_site_aniso_U_33
_atom_site_aniso_U_23
_atom_site_aniso_U_13
_atom_site_aniso_U_12
Cl1 0.0281(3) 0.0218(3) 0.0251(3) -0.0025(2) -0.0165(3) 0.0005(3)
Si1 0.0102(3) 0.0328(4) 0.0084(3) -0.0020(3) -0.0004(2) 0.0050(3)
Cl2 0.0207(9) 0.0478(13) 0.0215(7) 0.0061(10) -0.0034(6) -0.0217(11)
F11 0.0128(7) 0.0178(7) 0.0263(8) -0.0120(6) -0.0004(6) -0.0026(6)
F35 0.0248(7) 0.0164(7) 0.0166(7) 0.0047(5) -0.0103(6) -0.0083(6)
F31 0.0334(8) 0.0197(7) 0.0137(7) 0.0017(6) -0.0091(6) -0.0064(6)
F25 0.0150(7) 0.0395(9) 0.0176(7) 0.0028(6) 0.0000(6) -0.0099(6)
F24 0.0225(8) 0.0225(8) 0.0277(8) -0.0029(6) -0.0132(6) 0.0044(6)
F15 0.0372(9) 0.0109(7) 0.0293(8) -0.0032(6) -0.0030(7) -0.0070(6)
F12 0.0115(7) 0.0282(8) 0.0335(9) -0.0019(7) -0.0033(6) -0.0032(6)
F32 0.0245(8) 0.0285(8) 0.0236(8) -0.0066(6) -0.0089(6) -0.0087(7)
F34 0.0400(9) 0.0208(8) 0.0316(9) 0.0124(7) -0.0169(7) -0.0174(7)
F33 0.0392(9) 0.0212(8) 0.0416(10) 0.0013(7) -0.0164(8) -0.0176(7)
F14 0.0548(11) 0.0295(9) 0.0381(10) -0.0010(7) -0.0131(8) -0.0310(9)
F23 0.0465(10) 0.0339(9) 0.0355(9) 0.0234(7) -0.0274(8) -0.0252(8)
F13 0.0294(9) 0.0469(10) 0.0379(10) 0.0067(8) -0.0144(7) -0.0269(8)
O1 0.0207(9) 0.0147(8) 0.0105(8) -0.0018(6) 0.0045(7) 0.0027(7)
F21 0.0167(8) 0.0777(14) 0.0195(8) 0.0143(9) 0.0045(7) 0.0055(8)
F22 0.0315(10) 0.0985(17) 0.0290(10) 0.0380(10) -0.0079(8) -0.0323(11)
O2 0.049(2) 0.059(2) 0.0224(16) -0.0243(15) -0.0199(14) 0.0448(17)
C25 0.0157(11) 0.0126(11) 0.0127(11) -0.0035(8) -0.0021(9) -0.0057(9)
C24 0.0198(12) 0.0120(11) 0.0197(12) -0.0030(9) -0.0105(9) -0.0041(9)
C12 0.0151(11) 0.0197(12) 0.0176(12) 0.0038(10) -0.0032(9) -0.0058(10)
C20 0.0159(11) 0.0126(11) 0.0125(11) 0.0005(9) -0.0019(9) -0.0045(9)
C30 0.0069(9) 0.0133(11) 0.0128(11) -0.0014(8) 0.0018(8) 0.0002(8)
C10 0.0169(11) 0.0132(11) 0.0096(10) 0.0017(8) -0.0016(8) -0.0064(9)
C23 0.0330(14) 0.0224(13) 0.0233(13) 0.0126(10) -0.0183(11) -0.0187(11)
C11 0.0161(11) 0.0150(11) 0.0121(11) -0.0007(9) -0.0024(9) -0.0060(9)
C33 0.0181(12) 0.0164(12) 0.0278(14) -0.0025(10) -0.0039(10) -0.0073(10)
C31 0.0100(10) 0.0169(12) 0.0130(11) -0.0003(9) 0.0008(8) 0.0004(9)
C32 0.0121(11) 0.0225(13) 0.0190(12) -0.0082(10) -0.0021(9) -0.0041(10)
C35 0.0139(11) 0.0166(11) 0.0145(11) -0.0008(9) -0.0021(9) -0.0040(9)
C15 0.0281(13) 0.0109(11) 0.0145(11) 0.0020(9) -0.0027(10) -0.0064(10)
C21 0.0144(12) 0.0358(15) 0.0187(13) 0.0082(11) -0.0021(10) -0.0041(11)
C13 0.0237(13) 0.0312(14) 0.0190(12) 0.0089(10) -0.0087(10) -0.0205(11)
C1 0.0130(10) 0.0116(10) 0.0096(10) -0.0007(8) 0.0014(8) -0.0017(9)
C14 0.0365(15) 0.0222(13) 0.0181(12) 0.0046(10) -0.0088(11) -0.0213(12)
C34 0.0183(12) 0.0167(12) 0.0219(13) 0.0043(10) -0.0048(10) -0.0059(10)
C22 0.0261(14) 0.0490(18) 0.0197(13) 0.0160(12) -0.0067(11) -0.0241(13)
Cl3 0.0381(19) 0.082(3) 0.0543(19) 0.035(2) -0.0161(15) -0.044(2)
loop_
_atom_type_symbol
_atom_type_description
_atom_type_scat_dispersion_real
_atom_type_scat_dispersion_imag
_atom_type_scat_source
C C 0.0033 0.0016 'International Tables Vol C Tables 4.2.6.8 and 6.1.1.4'
Cl Cl 0.1484 0.1585 'International Tables Vol C Tables 4.2.6.8 and 6.1.1.4'
F F 0.0171 0.0103 'International Tables Vol C Tables 4.2.6.8 and 6.1.1.4'
O O 0.0106 0.0060 'International Tables Vol C Tables 4.2.6.8 and 6.1.1.4'
Si Si 0.0817 0.0704 'International Tables Vol C Tables 4.2.6.8 and 6.1.1.4'
loop_
_geom_angle_atom_site_label_1
_geom_angle_atom_site_label_2
_geom_angle_atom_site_label_3
_geom_angle
_geom_angle_site_symmetry_1
_geom_angle_site_symmetry_3
_geom_angle_publ_flag
Cl1 Si1 Cl2 106.69(9) . . ?
O1 Si1 Cl1 111.24(8) . . ?
O1 Si1 Cl2 106.87(11) . . ?
O1 Si1 O2 107.82(7) . . ?
O1 Si1 Cl3 116.29(16) . . ?
O2 Si1 Cl1 110.34(4) . . ?
O2 Si1 Cl2 113.88(8) . . ?
O2 Si1 Cl3 100.66(12) . . ?
Cl3 Si1 Cl1 109.92(14) . . ?
Cl3 Si1 Cl2 13.72(14) . . ?
Cl3 Cl2 Si1 51.9(7) . . ?
C1 O1 Si1 163.39(16) . . ?
Si1 O2 Si1 180.00(6) . 2_577 ?
F25 C25 C24 116.2(2) . . ?
F25 C25 C20 120.9(2) . . ?
C24 C25 C20 122.8(2) . . ?
F24 C24 C25 119.2(2) . . ?
F24 C24 C23 120.4(2) . . ?
C23 C24 C25 120.3(2) . . ?
F12 C12 C11 120.2(2) . . ?
F12 C12 C13 119.9(2) . . ?
C13 C12 C11 119.8(2) . . ?
C25 C20 C21 114.8(2) . . ?
C25 C20 C1 121.5(2) . . ?
C21 C20 C1 123.7(2) . . ?
C31 C30 C35 115.4(2) . . ?
C31 C30 C1 125.8(2) . . ?
C35 C30 C1 118.8(2) . . ?
C11 C10 C15 115.5(2) . . ?
C11 C10 C1 124.8(2) . . ?
C15 C10 C1 119.6(2) . . ?
F23 C23 C24 120.9(2) . . ?
F23 C23 C22 120.2(2) . . ?
C24 C23 C22 118.9(2) . . ?
F11 C11 C12 116.2(2) . . ?
F11 C11 C10 121.4(2) . . ?
C12 C11 C10 122.4(2) . . ?
F33 C33 C32 120.1(2) . . ?
F33 C33 C34 120.5(2) . . ?
C32 C33 C34 119.3(2) . . ?
F31 C31 C30 121.8(2) . . ?
F31 C31 C32 115.9(2) . . ?
C32 C31 C30 122.3(2) . . ?
F32 C32 C33 119.9(2) . . ?
F32 C32 C31 119.8(2) . . ?
C33 C32 C31 120.3(2) . . ?
F35 C35 C30 119.2(2) . . ?
F35 C35 C34 117.4(2) . . ?
C34 C35 C30 123.4(2) . . ?
F15 C15 C10 120.1(2) . . ?
F15 C15 C14 117.1(2) . . ?
C14 C15 C10 122.8(2) . . ?
F21 C21 C20 120.6(2) . . ?
F21 C21 C22 116.4(2) . . ?
C22 C21 C20 123.0(2) . . ?
F13 C13 C12 119.8(2) . . ?
F13 C13 C14 120.3(2) . . ?
C14 C13 C12 119.8(2) . . ?
O1 C1 C20 105.12(17) . . ?
O1 C1 C30 106.88(18) . . ?
O1 C1 C10 107.66(18) . . ?
C20 C1 C10 110.15(18) . . ?
C30 C1 C20 113.26(18) . . ?
C30 C1 C10 113.23(18) . . ?
F14 C14 C15 120.1(2) . . ?
F14 C14 C13 120.2(2) . . ?
C13 C14 C15 119.7(2) . . ?
F34 C34 C33 120.5(2) . . ?
F34 C34 C35 120.2(2) . . ?
C35 C34 C33 119.3(2) . . ?
F22 C22 C23 120.2(2) . . ?
F22 C22 C21 119.7(3) . . ?
C23 C22 C21 120.1(2) . . ?
Cl2 Cl3 Si1 114.4(8) . . ?
loop_
_geom_bond_atom_site_label_1
_geom_bond_atom_site_label_2
_geom_bond_distance
_geom_bond_site_symmetry_2
_geom_bond_publ_flag
Cl1 Si1 2.0081(9) . ?
Si1 Cl2 2.155(3) . ?
Si1 O1 1.5627(17) . ?
Si1 O2 1.5872(7) . ?
Si1 Cl3 1.862(4) . ?
Cl2 Cl3 0.561(4) . ?
F11 C11 1.339(3) . ?
F35 C35 1.349(3) . ?
F31 C31 1.338(3) . ?
F25 C25 1.342(3) . ?
F24 C24 1.340(3) . ?
F15 C15 1.340(3) . ?
F12 C12 1.333(3) . ?
F32 C32 1.338(3) . ?
F34 C34 1.334(3) . ?
F33 C33 1.335(3) . ?
F14 C14 1.338(3) . ?
F23 C23 1.334(3) . ?
F13 C13 1.339(3) . ?
O1 C1 1.412(3) . ?
F21 C21 1.343(3) . ?
F22 C22 1.344(3) . ?
C25 C24 1.379(3) . ?
C25 C20 1.388(3) . ?
C24 C23 1.367(4) . ?
C12 C11 1.386(3) . ?
C12 C13 1.373(4) . ?
C20 C21 1.391(3) . ?
C20 C1 1.540(3) . ?
C30 C31 1.390(3) . ?
C30 C35 1.391(3) . ?
C30 C1 1.535(3) . ?
C10 C11 1.389(3) . ?
C10 C15 1.399(3) . ?
C10 C1 1.542(3) . ?
C23 C22 1.372(4) . ?
C33 C32 1.370(4) . ?
C33 C34 1.383(4) . ?
C31 C32 1.383(4) . ?
C35 C34 1.375(3) . ?
C15 C14 1.376(4) . ?
C21 C22 1.376(4) . ?
C13 C14 1.371(4) . ?
loop_
_geom_torsion_atom_site_label_1
_geom_torsion_atom_site_label_2
_geom_torsion_atom_site_label_3
_geom_torsion_atom_site_label_4
_geom_torsion
_geom_torsion_site_symmetry_1
_geom_torsion_site_symmetry_2
_geom_torsion_site_symmetry_3
_geom_torsion_site_symmetry_4
_geom_torsion_publ_flag
Cl1 Si1 O1 C1 57.4(6) . . . . ?
Cl1 Si1 Cl3 Cl2 -78.7(9) . . . . ?
Si1 O1 C1 C20 174.9(5) . . . . ?
Si1 O1 C1 C30 54.3(7) . . . . ?
Si1 O1 C1 C10 -67.7(7) . . . . ?
Cl2 Si1 O1 C1 -58.7(6) . . . . ?
F35 C35 C34 F34 0.8(3) . . . . ?
F35 C35 C34 C33 -179.1(2) . . . . ?
F31 C31 C32 F32 -2.6(3) . . . . ?
F31 C31 C32 C33 177.9(2) . . . . ?
F25 C25 C24 F24 3.9(3) . . . . ?
F25 C25 C24 C23 -173.9(2) . . . . ?
F25 C25 C20 C21 171.3(2) . . . . ?
F25 C25 C20 C1 -9.3(3) . . . . ?
F24 C24 C23 F23 0.9(4) . . . . ?
F24 C24 C23 C22 -176.5(2) . . . . ?
F15 C15 C14 F14 1.2(4) . . . . ?
F15 C15 C14 C13 -177.2(2) . . . . ?
F12 C12 C11 F11 -1.8(3) . . . . ?
F12 C12 C11 C10 -178.8(2) . . . . ?
F12 C12 C13 F13 -0.1(4) . . . . ?
F12 C12 C13 C14 177.6(2) . . . . ?
F33 C33 C32 F32 0.5(3) . . . . ?
F33 C33 C32 C31 179.9(2) . . . . ?
F33 C33 C34 F34 1.3(4) . . . . ?
F33 C33 C34 C35 -178.8(2) . . . . ?
F23 C23 C22 F22 -0.7(4) . . . . ?
F23 C23 C22 C21 -179.6(3) . . . . ?
F13 C13 C14 F14 0.1(4) . . . . ?
F13 C13 C14 C15 178.5(2) . . . . ?
O1 Si1 Cl3 Cl2 48.8(9) . . . . ?
F21 C21 C22 F22 -1.3(4) . . . . ?
F21 C21 C22 C23 177.7(3) . . . . ?
O2 Si1 O1 C1 178.5(6) . . . . ?
O2 Si1 Cl3 Cl2 164.9(9) . . . . ?
C25 C24 C23 F23 178.8(2) . . . . ?
C25 C24 C23 C22 1.4(4) . . . . ?
C25 C20 C21 F21 -174.3(2) . . . . ?
C25 C20 C21 C22 3.8(4) . . . . ?
C25 C20 C1 O1 -31.5(3) . . . . ?
C25 C20 C1 C30 84.8(3) . . . . ?
C25 C20 C1 C10 -147.2(2) . . . . ?
C24 C25 C20 C21 -4.7(3) . . . . ?
C24 C25 C20 C1 174.7(2) . . . . ?
C24 C23 C22 F22 176.8(3) . . . . ?
C24 C23 C22 C21 -2.2(4) . . . . ?
C12 C13 C14 F14 -177.6(2) . . . . ?
C12 C13 C14 C15 0.8(4) . . . . ?
C20 C25 C24 F24 -179.9(2) . . . . ?
C20 C25 C24 C23 2.2(4) . . . . ?
C20 C21 C22 F22 -179.5(3) . . . . ?
C20 C21 C22 C23 -0.6(5) . . . . ?
C30 C31 C32 F32 177.7(2) . . . . ?
C30 C31 C32 C33 -1.8(4) . . . . ?
C30 C35 C34 F34 179.3(2) . . . . ?
C30 C35 C34 C33 -0.6(4) . . . . ?
C10 C15 C14 F14 179.4(2) . . . . ?
C10 C15 C14 C13 1.0(4) . . . . ?
C11 C12 C13 F13 -179.0(2) . . . . ?
C11 C12 C13 C14 -1.2(4) . . . . ?
C11 C10 C15 F15 176.0(2) . . . . ?
C11 C10 C15 C14 -2.1(3) . . . . ?
C11 C10 C1 O1 139.1(2) . . . . ?
C11 C10 C1 C20 -106.8(2) . . . . ?
C11 C10 C1 C30 21.1(3) . . . . ?
C31 C30 C35 F35 177.55(19) . . . . ?
C31 C30 C35 C34 -0.9(3) . . . . ?
C31 C30 C1 O1 120.6(2) . . . . ?
C31 C30 C1 C20 5.3(3) . . . . ?
C31 C30 C1 C10 -121.0(2) . . . . ?
C32 C33 C34 F34 -178.9(2) . . . . ?
C32 C33 C34 C35 0.9(4) . . . . ?
C35 C30 C31 F31 -177.5(2) . . . . ?
C35 C30 C31 C32 2.1(3) . . . . ?
C35 C30 C1 O1 -57.6(3) . . . . ?
C35 C30 C1 C20 -172.86(19) . . . . ?
C35 C30 C1 C10 60.8(3) . . . . ?
C15 C10 C11 F11 -175.3(2) . . . . ?
C15 C10 C11 C12 1.6(3) . . . . ?
C15 C10 C1 O1 -44.6(3) . . . . ?
C15 C10 C1 C20 69.5(3) . . . . ?
C15 C10 C1 C30 -162.5(2) . . . . ?
C21 C20 C1 O1 147.7(2) . . . . ?
C21 C20 C1 C30 -95.9(3) . . . . ?
C21 C20 C1 C10 32.0(3) . . . . ?
C13 C12 C11 F11 177.0(2) . . . . ?
C13 C12 C11 C10 0.0(4) . . . . ?
C1 C20 C21 F21 6.4(4) . . . . ?
C1 C20 C21 C22 -175.5(3) . . . . ?
C1 C30 C31 F31 4.2(3) . . . . ?
C1 C30 C31 C32 -176.1(2) . . . . ?
C1 C30 C35 F35 -4.1(3) . . . . ?
C1 C30 C35 C34 177.4(2) . . . . ?
C1 C10 C11 F11 1.2(3) . . . . ?
C1 C10 C11 C12 178.1(2) . . . . ?
C1 C10 C15 F15 -0.7(3) . . . . ?
C1 C10 C15 C14 -178.8(2) . . . . ?
C34 C33 C32 F32 -179.3(2) . . . . ?
C34 C33 C32 C31 0.2(4) . . . . ?
Cl3 Si1 O1 C1 -69.5(6) . . . . ?
