#------------------------------------------------------------------------------
#$Date: 2022-01-20 01:52:26 +0200 (Thu, 20 Jan 2022) $
#$Revision: 272142 $
#$URL: file:///home/coder/svn-repositories/cod/cif/7/70/93/7709326.cif $
#------------------------------------------------------------------------------
#
# This file is available in the Crystallography Open Database (COD),
# http://www.crystallography.net/
#
# All data on this site have been placed in the public domain by the
# contributors.
#
data_7709326
loop_
_publ_author_name
'Greenacre, Victoria K.'
'Hector, Andrew L.'
'Huang, Ruomeng'
'Levason, William'
'Sethi, Vikesh'
'Reid, Gillian'
_publ_section_title
;
 Tungsten(vi) selenide tetrachloride, WSeCl4 -- synthesis, properties,
 coordination complexes and application of [WSeCl4(SenBu2)] for CVD growth
 of WSe2 thin films
;
_journal_name_full               'Dalton Transactions'
_journal_paper_doi               10.1039/D1DT03980F
_journal_year                    2022
_chemical_formula_moiety         'C2 H6 Cl8 Se3 W2'
_chemical_formula_sum            'C2 H6 Cl8 Se3 W2'
_chemical_formula_weight         918.25
_chemical_properties_physical
Air-sensitive,Moisture-sensitive,Oxygen-sensitive
_space_group_crystal_system      triclinic
_space_group_IT_number           2
_space_group_name_Hall           '-P 1'
_space_group_name_H-M_alt        'P -1'
_atom_sites_solution_hydrogens   geom
_atom_sites_solution_primary     dual
_audit_creation_date             2021-08-18
_audit_creation_method
;
Olex2 1.5
(compiled 2021.07.19 svn.r715e62df for OlexSys, GUI svn.r6383)
;
_audit_update_record
;
2021-11-15 deposited with the CCDC.	2022-01-07 downloaded from the CCDC.
;
_cell_angle_alpha                89.211(4)
_cell_angle_beta                 85.388(3)
_cell_angle_gamma                81.076(3)
_cell_formula_units_Z            2
_cell_length_a                   6.6025(2)
_cell_length_b                   10.2899(5)
_cell_length_c                   12.2583(6)
_cell_measurement_reflns_used    4096
_cell_measurement_temperature    120.00(10)
_cell_measurement_theta_max      30.5380
_cell_measurement_theta_min      3.7060
_cell_volume                     820.07(6)
_computing_cell_refinement       'CrysAlisPro 1.171.40.84a (Rigaku OD, 2020)'
_computing_data_collection       'CrysAlisPro 1.171.40.84a (Rigaku OD, 2020)'
_computing_data_reduction        'CrysAlisPro 1.171.40.84a (Rigaku OD, 2020)'
_computing_molecular_graphics    'Olex2 1.5 (Dolomanov et al., 2009)'
_computing_publication_material  'Olex2 1.5 (Dolomanov et al., 2009)'
_computing_structure_refinement  'SHELXL 2018/3 (Sheldrick, 2015)'
_computing_structure_solution    'SHELXT 2014/5 (Sheldrick, 2014)'
_diffrn_ambient_environment      N~2~
_diffrn_ambient_temperature      120.00(10)
_diffrn_detector                 'CCD plate'
_diffrn_detector_area_resol_mean 10
_diffrn_detector_dtime           0.000
_diffrn_detector_type            'Rigaku, HyPix 6000'
_diffrn_measured_fraction_theta_full 0.998
_diffrn_measured_fraction_theta_max 0.996
_diffrn_measurement_details
;
List of Runs (angles in degrees, time in seconds):

  # Type    Start    End  Width  t~exp~   \w     \q     \k     \f   Frames
#--------------------------------------------------------------------------
  1  \w   -104.00 -72.00   1.00    1.45    --  -16.00 -57.00 150.00   32
  2  \w    -71.00  -4.00   1.00    1.45    --  -16.00 -57.00 150.00   67
  3  \w    -63.00  10.00   1.00    1.45    --  -16.00 -60.00 -60.00   73
  4  \w    -81.00   2.00   1.00    1.45    --  -16.00 -60.00  90.00   83
  5  \w    -76.00  12.00   1.00    1.45    --  -16.00 -60.00-120.00   88
  6  \w    -53.00  17.00   1.00    1.45    --  -16.00  19.00 120.00   70
;
_diffrn_measurement_device       'four-circle diffractometer'
_diffrn_measurement_device_details 'Rigaku, AFC12 \k goniometer'
_diffrn_measurement_device_type  'XtaLAB AFC12 (RCD3): Kappa single'
_diffrn_measurement_method       '\w scans'
_diffrn_measurement_specimen_support 'MiTeGen MicroLoop'
_diffrn_orient_matrix_type
'CrysAlisPro convention (1999,Acta A55,543-557)'
_diffrn_orient_matrix_UB_11      -0.0067807000
_diffrn_orient_matrix_UB_12      -0.0429831000
_diffrn_orient_matrix_UB_13      -0.0438487000
_diffrn_orient_matrix_UB_21      -0.0231145000
_diffrn_orient_matrix_UB_22      -0.0492105000
_diffrn_orient_matrix_UB_23      0.0380343000
_diffrn_orient_matrix_UB_31      -0.1063962000
_diffrn_orient_matrix_UB_32      0.0244857000
_diffrn_orient_matrix_UB_33      -0.0007528000
_diffrn_radiation_collimation    0.2
_diffrn_radiation_monochromator  mirror
_diffrn_radiation_probe          x-ray
_diffrn_radiation_type           'Mo K\a'
_diffrn_radiation_wavelength     0.71073
_diffrn_radiation_xray_symbol    K-L~3~
_diffrn_reflns_av_R_equivalents  0.0354
_diffrn_reflns_av_unetI/netI     0.0549
_diffrn_reflns_Laue_measured_fraction_full 0.998
_diffrn_reflns_Laue_measured_fraction_max 0.996
_diffrn_reflns_limit_h_max       8
_diffrn_reflns_limit_h_min       -8
_diffrn_reflns_limit_k_max       12
_diffrn_reflns_limit_k_min       -13
_diffrn_reflns_limit_l_max       16
_diffrn_reflns_limit_l_min       -16
_diffrn_reflns_number            9411
_diffrn_reflns_point_group_measured_fraction_full 0.998
_diffrn_reflns_point_group_measured_fraction_max 0.996
_diffrn_reflns_theta_full        25.242
_diffrn_reflns_theta_max         28.698
_diffrn_reflns_theta_min         3.133
_diffrn_source                   'Rotating-anode X-ray tube'
_diffrn_source_current           55.0
_diffrn_source_power             2.475
_diffrn_source_target            Mo
_diffrn_source_type              'Rigaku (Mo) X-ray Source'
_diffrn_source_voltage           45.0
_exptl_absorpt_coefficient_mu    21.945
_exptl_absorpt_correction_T_max  0.03162
_exptl_absorpt_correction_T_min  0.01249
_exptl_absorpt_correction_type   sphere
_exptl_absorpt_process_details
;
CrysAlisPro 1.171.40.84a (Rigaku Oxford Diffraction, 2020)
Spherical absorption correction
using equivalent radius and absorption coefficient.
Empirical absorption correction using spherical harmonics,
implemented in SCALE3 ABSPACK scaling algorithm.
;
_exptl_crystal_colour            black
_exptl_crystal_colour_primary    black
_exptl_crystal_density_diffrn    3.719
_exptl_crystal_description       sphere
_exptl_crystal_F_000             808
_exptl_crystal_size_max          0.1
_exptl_crystal_size_mid          0.03
_exptl_crystal_size_min          0.03
_exptl_crystal_size_rad          0.400
_refine_diff_density_max         2.420
_refine_diff_density_min         -1.270
_refine_diff_density_rms         0.259
_refine_ls_extinction_method     none
_refine_ls_goodness_of_fit_ref   1.011
_refine_ls_hydrogen_treatment    constr
_refine_ls_matrix_type           full
_refine_ls_number_parameters     138
_refine_ls_number_reflns         4223
_refine_ls_number_restraints     0
_refine_ls_restrained_S_all      1.011
_refine_ls_R_factor_all          0.0459
_refine_ls_R_factor_gt           0.0363
_refine_ls_shift/su_max          0.001
_refine_ls_shift/su_mean         0.000
_refine_ls_structure_factor_coef Fsqd
_refine_ls_weighting_details
'w=1/[\s^2^(Fo^2^)+(0.0275P)^2^] where P=(Fo^2^+2Fc^2^)/3'
_refine_ls_weighting_scheme      calc
_refine_ls_wR_factor_gt          0.0720
_refine_ls_wR_factor_ref         0.0786
_reflns_Friedel_coverage         0.000
_reflns_number_gt                3487
_reflns_number_total             4223
_reflns_threshold_expression     'I > 2\s(I)'
_cod_data_source_file            d1dt03980f3.cif
_cod_data_source_block           vg9247-12_1
_cod_database_code               7709326
_shelx_shelxl_version_number     2018/3
_chemical_oxdiff_formula         'W2 Se2 Cl8 C2 H6 '
_chemical_oxdiff_usercomment     'Dark block'
_shelx_space_group_comment
;
The symmetry employed for this shelxl refinement is uniquely defined
by the following loop, which should always be used as a source of
symmetry information in preference to the above space-group names.
They are only intended as comments.
;
_shelx_estimated_absorpt_t_max   0.559
_shelx_estimated_absorpt_t_min   0.218
_olex2_refinement_description
;
1. Fixed Uiso
 At 1.5 times of:
  All C(H,H,H) groups
2.a Idealised Me refined as rotating group:
 C1(H1A,H1B,H1C), C2(H2A,H2B,H2C)
;
_shelx_res_file
;
TITL vg9247-12_1_a.res in P-1
    vg9247-12_1.res
    created by SHELXL-2018/3 at 13:16:24 on 18-Aug-2021
REM Old TITL VG9247-12_1 in P-1
REM SHELXT solution in P-1
REM R1 0.062, Rweak 0.005, Alpha 0.027, Orientation as input
REM Formula found by SHELXT: C2 Cl8 Se1 W2
CELL 0.71073 6.6025 10.2899 12.2583 89.211 85.388 81.076
ZERR 2 0.0002 0.0005 0.0006 0.004 0.003 0.003
LATT 1
SFAC C H Cl Se W
UNIT 4 12 16 6 4

L.S. 20
PLAN  11
SIZE 0.03 0.03 0.1
CONF
BIND W2 Se2
BOND $H
list 4
MORE -1
fmap 2 53
acta
OMIT -4 6 6
OMIT -8 0 3
REM <olex2.extras>
REM <HklSrc "%.\\VG9247-12_1.hkl">
REM </olex2.extras>

WGHT    0.027500
FVAR       0.27226
W1    5    0.173870    0.522364    0.799206    11.00000    0.03102    0.02748 =
         0.02804    0.00113   -0.00267   -0.00826
W2    5    0.467162   -0.004577    0.774195    11.00000    0.03093    0.02707 =
         0.03040    0.00004   -0.00429   -0.00864
SE1   4    0.094998    0.711873    0.891522    11.00000    0.03985    0.02933 =
         0.03650   -0.00195   -0.00035   -0.00725
SE2   4    0.283619    0.263584    0.680715    11.00000    0.03192    0.02882 =
         0.02832    0.00068   -0.00363   -0.00931
SE3   4    0.587212   -0.194806    0.851785    11.00000    0.04190    0.02954 =
         0.04342    0.00488   -0.01258   -0.00934
CL1   3    0.352676    0.400736    0.927764    11.00000    0.03907    0.03190 =
         0.02958    0.00135   -0.00827   -0.00628
CL2   3    0.483241    0.553291    0.708361    11.00000    0.03533    0.03475 =
         0.03452   -0.00232    0.00034   -0.01188
CL3   3   -0.107894    0.423761    0.850421    11.00000    0.03273    0.03695 =
         0.03420   -0.00026    0.00009   -0.01144
CL4   3    0.022775    0.585045    0.637288    11.00000    0.04055    0.03827 =
         0.03342    0.00523   -0.00696   -0.00795
CL5   3    0.225375   -0.076072    0.672621    11.00000    0.03761    0.03214 =
         0.03654   -0.00008   -0.00864   -0.01162
CL6   3    0.679424   -0.008968    0.614449    11.00000    0.03709    0.03741 =
         0.03469   -0.00304    0.00039   -0.00946
CL7   3    0.671169    0.127759    0.848273    11.00000    0.03497    0.03206 =
         0.03848   -0.00364   -0.00511   -0.01073
CL8   3    0.204160    0.072352    0.903177    11.00000    0.03533    0.03779 =
         0.03259    0.00056   -0.00086   -0.01115
C1    1    0.434325    0.301796    0.544683    11.00000    0.04170    0.04188 =
         0.03529   -0.00681   -0.00198   -0.01440
AFIX 137
H1A   2    0.369663    0.383204    0.515043    11.00000   -1.50000
H1B   2    0.434583    0.232118    0.493368    11.00000   -1.50000
H1C   2    0.573321    0.308978    0.558306    11.00000   -1.50000
AFIX   0
C2    1    0.030479    0.237399    0.619940    11.00000    0.03627    0.04550 =
         0.03514    0.00052   -0.00640   -0.01623
AFIX 137
H2A   2   -0.055205    0.199528    0.674632    11.00000   -1.50000
H2B   2    0.062013    0.179221    0.558275    11.00000   -1.50000
H2C   2   -0.040586    0.320495    0.596850    11.00000   -1.50000
AFIX   0
HKLF 4




REM  vg9247-12_1_a.res in P-1
REM wR2 = 0.0786, GooF = S = 1.011, Restrained GooF = 1.011 for all data
REM R1 = 0.0363 for 3487 Fo > 4sig(Fo) and 0.0459 for all 4223 data
REM 138 parameters refined using 0 restraints

END

WGHT      0.0273      0.0000

REM Highest difference peak  2.420,  deepest hole -1.270,  1-sigma level  0.259
Q1    1   0.2194  0.4411  0.7794  11.00000  0.05    2.42
Q2    1   0.1220  0.6059  0.8235  11.00000  0.05    2.39
Q3    1   0.4123  0.0820  0.7855  11.00000  0.05    2.21
Q4    1   0.5218 -0.0861  0.7549  11.00000  0.05    2.02
Q5    1   0.5104 -0.0952  0.8345  11.00000  0.05    1.56
Q6    1   0.1618  0.5839  0.7352  11.00000  0.05    1.44
Q7    1   0.4480 -0.0596  0.8410  11.00000  0.05    1.43
Q8    1   0.0475  0.7957  0.9103  11.00000  0.05    1.36
Q9    1   0.1706  0.4726  0.8656  11.00000  0.05    1.32
Q10   1   0.5699  0.0397  0.7879  11.00000  0.05    1.31
Q11   1   0.0606  0.4819  0.8166  11.00000  0.05    1.26
;
_shelx_res_checksum              24982
_shelx_hkl_file
;
   0   0  -2 7696.51   65.34
   0   0   2 8048.46   65.66
   0   0  -2 7989.25   71.47
   0   0   2 7547.44  124.79
   0   0  -2 7676.68  137.92
   0   0   2 8128.77   67.84
   0   0   3 1895.60   38.81
   0   0  -3 1898.11   38.89
   0   0  -3 1988.70   43.63
   0   0   3 1947.04   39.89
   0   0   3 1938.22   71.40
   0   0  -4  421.48   20.78
   0   0   4  409.19   35.89
   0   0   4  424.20   20.78
   0   0  -4  404.46   22.93
   0   0  -5  301.26   19.15
   0   0   5  264.27   31.08
   0   0   5  295.51   19.00
   0   0  -5  286.44   21.89
   0   0  -6   56.68    8.84
   0   0   6   37.07   12.92
   0   0   6   49.94    8.09
   0   0  -6   41.01    9.05
   0   0  -7 1217.37   92.54
   0   0   7 1046.98   40.82
   0   0  -7 1035.27   40.83
   0   0   7 1058.19   63.50
   0   0  -7 1048.45   49.46
   0   0   8   70.40   10.94
   0   0  -8   72.28   11.28
   0   0  -8   76.80   23.48
   0   0  -8   86.48   15.11
   0   0  -9  927.62   53.16
   0   0   9  914.83   40.62
   0   0 -10  316.46   32.86
   0   0  10  345.57   30.77
   0   0  10  301.98   24.01
   0   0  11  330.72   30.35
   0   0 -11  309.59   48.74
   0   0 -11  274.08   31.33
   0   0  11  269.96   23.67
   0   0 -12  240.39   42.68
   0   0  12  217.49   24.80
   0   0 -12  155.90   24.37
   0   0 -13  166.60   35.99
   0   0 -13  116.28   20.87
   0   0  13  141.60   19.84
   0   0  14   32.33    9.51
   0   0 -14   36.17   10.95
   0   0 -14   53.72   19.80
   0   0 -15    6.97    7.39
   0   0 -15    1.77    4.28
   0   0  15   -1.99    2.32
   0   0 -16   24.38   14.51
   0   1 -16  178.65   35.51
   0  -1  15  114.35   18.23
   0   1 -15  137.80   22.66
   0  -1  14   48.90   12.42
   0   1 -14   68.03   18.04
   0   1 -14   40.66   17.54
   0   1 -13  275.47   34.21
   0   1 -13  327.12   49.96
   0  -1  13  280.84   29.03
   0   1 -12  546.39   48.57
   0  -1  12  468.28   36.63
   0   1 -12  551.83   66.61
   0   1 -11  293.42   35.79
   0   1 -11  296.96   50.51
   0  -1  11  260.97   27.05
   0  -1  10  328.14   30.43
   0  -1  10  313.52   25.12
   0   1 -10  387.69   41.06
   0   1 -10  340.96   52.88
   0   1  -9  628.09   73.76
   0  -1   9  534.38   38.19
   0  -1   9  514.73   31.56
   0   1  -9  568.16   49.78
   0   1  -8  891.00   87.61
   0  -1   8  811.51   47.17
   0  -1   8  837.28   38.17
   0   1  -8  855.54   61.54
   0  -1   8  789.30   37.79
   0   1  -8  753.88   37.68
   0   1  -7  221.52   19.59
   0  -1   7  233.00   19.81
   0  -1   7  256.26   25.74
   0  -1   7  275.43   34.63
   0  -1   7  200.04   18.85
   0   1  -7  250.21   32.05
   0   1  -6  580.03   67.36
   0  -1   6  470.27   33.06
   0  -1   6  535.56   29.20
   0  -1   6  539.41   29.76
   0  -1   6  553.17   48.09
   0   1  -6  500.57   28.14
   0   1  -6  487.34   43.52
   0   1  -5  108.56   19.88
   0  -1   5  123.19   16.20
   0   1  -5  112.32   12.31
   0  -1   5  122.80   13.73
   0   1  -5  126.78   29.77
   0  -1   5   79.49   18.07
   0  -1   5  118.22   12.76
   0   1  -4   54.50    8.13
   0   1  -4   58.65   13.81
   0   1  -4   66.52   18.44
   0  -1   4   55.20    9.43
   0  -1   4   57.46   10.15
   0  -1   4   72.76   16.60
   0  -1   4   54.48    8.29
   0   1  -3  123.63   16.53
   0   1  -3  149.43   24.44
   0  -1   3  141.04   11.88
   0   1  -3  143.08   11.86
   0  -1   3  175.48   22.39
   0  -1   3  152.04   15.17
   0  -1   3  138.55   14.16
   0  -1   2  552.28   25.51
   0   1  -2  525.17   19.90
   0   1  -2  543.09   25.56
   0   1  -2  539.58   26.27
   0  -1   2  548.93   24.26
   0   1  -2  509.85   31.77
   0  -1   2  544.79   20.31
   0   1   2 1063.52   32.45
   0   1   2 1091.06   21.08
   0  -1  -2 1099.12   21.47
   0  -1  -2 1068.48   31.73
   0  -1  -3   19.41    5.49
   0   1   3   11.74    2.74
   0  -1  -3   11.40    2.67
   0   1   3   17.46    5.16
   0  -1  -4  424.78   19.04
   0   1   4  467.42   31.46
   0  -1  -4  447.47   31.46
   0   1   4  419.21   19.26
   0  -1  -5   39.19    6.40
   0   1   5   40.89   11.01
   0   1   5   35.35    6.57
   0  -1  -5   49.41   12.83
   0  -1  -5   48.47    7.38
   0  -1  -6  370.37   21.41
   0   1   6  378.42   21.91
   0  -1  -6  401.99   39.64
   0   1   6  392.94   34.91
   0  -1  -6  381.84   22.73
   0  -1  -7  226.46   17.92
   0  -1  -7  231.56   19.03
   0   1   7  215.04   27.64
   0   1   7  223.88   17.80
   0  -1  -7  190.51   30.34
   0  -1  -8  862.97   39.29
   0   1   8  855.55   36.60
   0  -1  -8  812.75   35.67
   0  -1  -9   46.58   10.34
   0   1   9   48.76    9.19
   0  -1  -9   50.32   16.68
   0   1  10  305.89   23.35
   0  -1 -10  301.81   26.42
   0  -1 -11  895.48   48.24
   0  -1 -11  957.75   79.43
   0   1  11  920.95   41.04
   0  -1 -12    4.26    2.18
   0   1  12    9.39    4.17
   0  -1 -12    7.92   10.18
   0  -1 -13  735.78   71.58
   0  -1 -13  601.85   44.09
   0   1  13  734.54   45.78
   0  -1 -14   -6.03    6.19
   0  -1 -14    8.36    6.78
   0   1  14    8.46    5.11
   0  -1 -15  273.94   30.40
   0   1  15  275.93   27.90
   0  -1 -15  304.39   45.69
   0  -1 -16   28.00   15.06
   0   2 -16    1.95    8.51
   0   2 -15    5.84    6.56
   0   2 -15    0.74    2.87
   0  -2  15    5.33    3.06
   0  -2  14  250.59   26.99
   0   2 -14  267.43   35.03
   0   2 -13   12.87    7.17
   0   2 -13    6.46    7.14
   0  -2  13   17.21    7.20
   0  -2  12  988.41   54.07
   0   2 -12 1147.03   98.62
   0   2 -12 1107.91   74.22
   0   2 -11  339.94   41.53
   0  -2  11  321.39   31.00
   0   2 -11  264.84   47.66
   0   2 -10  538.47   69.63
   0   2 -10  434.03   47.60
   0  -2  10  411.80   34.45
   0  -2   9  354.59   25.40
   0   2  -9  343.92   42.20
   0   2  -9  366.33   57.39
   0  -2   9  329.86   31.00
   0   2  -8    2.09    5.76
   0  -2   8    0.33    3.36
   0   2  -8    1.41    5.91
   0  -2   8    1.30    2.07
   0  -2   7 1663.59   67.33
   0  -2   7 1744.95   56.32
   0   2  -7 1636.49   55.46
   0  -2   7 1768.73   56.68
   0   2  -7 1701.61  114.87
   0   2  -7 1642.61   86.41
   0   2  -6  575.51   31.75
   0  -2   6  594.12   31.86
   0  -2   6  610.41   33.68
   0   2  -6  599.76   62.72
   0   2  -6  550.82   47.45
   0  -2   6  580.50   38.32
   0  -2   6  724.47   55.04
   0  -2   5 4089.21   89.18
   0   2  -5 3855.35  110.89
   0   2  -5 4075.11  145.84
   0  -2   5 4074.08  124.07
   0  -2   5 3916.32   76.99
   0  -2   5 3689.14   93.51
   0   2  -5 3956.64   78.09
   0   2  -4 2471.24   78.09
   0  -2   4 2486.74   87.94
   0   2  -4 2457.08   76.75
   0  -2   4 2533.97   72.56
   0  -2   4 2357.64   66.78
   0   2  -4 2190.57   94.04
   0   2  -4 2422.29   57.56
   0   2  -3  647.30   33.43
   0  -2   3  703.89   40.27
   0   2  -3  733.10   38.99
   0   2  -3  689.18   28.49
   0  -2   3  679.39   32.33
   0  -2   3  690.22   35.48
   0  -2   2 4146.27   71.09
   0   2  -2 3918.73   82.15
   0   2  -2 4081.47   74.06
   0  -2   2 3925.81   79.10
   0   2  -2 4005.83   61.87
   0  -2   1    3.36    2.56
   0  -2   1    3.09    2.02
   0   2  -1    3.63    2.80
   0  -2   0 3628.76   89.58
   0   2   0 3696.31   66.38
   0   2   0 3726.44   88.84
   0  -2   0 3648.31   63.83
   0  -2  -1  162.87   13.29
   0  -2  -1  169.17   16.22
   0   2   1  169.68   13.85
   0   2   1  163.47   18.16
   0  -2  -2 3235.79   59.06
   0  -2  -2 3179.46   59.25
   0   2   2 3159.57   61.19
   0   2   2 3186.48   70.26
   0   2   2 3130.23   36.43
   0   2   3  976.03   38.13
   0   2   3  981.03   38.87
   0   2   3  954.39   23.23
   0  -2  -3  959.62   36.21
   0  -2  -3  953.70   23.77
   0  -2  -4 1709.86   37.05
   0   2   4 1817.04   55.66
   0   2   4 1717.17   36.05
   0  -2  -4 1693.27   53.80
   0   2   4 1716.59   56.61
   0  -2  -5 4210.54   94.30
   0  -2  -5 4139.86   63.12
   0   2   5 4186.88   63.59
   0   2   5 4139.48   97.67
   0  -2  -6  203.27   23.21
   0  -2  -6  206.22   15.28
   0   2   6  192.50   14.72
   0   2   6  194.91   23.06
   0  -2  -7 3498.20   70.16
   0  -2  -7 3327.09  104.33
   0   2   7 3274.40  101.98
   0   2   7 3341.36   65.39
   0  -2  -7 3465.15   66.95
   0  -2  -8  225.30   17.99
   0  -2  -8  219.34   18.51
   0   2   8  220.66   17.47
   0  -2  -8  214.66   29.21
   0  -2  -9   35.23   12.83
   0  -2  -9   34.59    7.69
   0  -2  -9   38.56    8.17
   0   2   9   34.92    7.35
   0   2  10  160.15   16.24
   0  -2 -10  143.27   16.23
   0  -2 -11  118.97   26.70
   0   2  11  113.97   14.35
   0  -2 -11  111.02   14.91
   0  -2 -12   26.45   14.15
   0   2  12   12.52    5.17
   0  -2 -12   18.51    6.71
   0  -2 -13   -4.32    4.96
   0  -2 -13   -0.51    2.29
   0   2  13    1.08    2.41
   0  -2 -14  171.08   33.67
   0  -2 -14  139.47   19.44
   0   2  15    4.32    5.09
   0  -2 -15   14.28    9.77
   0  -2 -15    7.74    6.15
   0  -2 -16  111.55   27.05
   0   3 -15  414.56   43.99
   0  -3  15  372.74   32.41
   0  -3  14   90.32   16.89
   0   3 -14  106.69   23.03
   0  -3  13  158.06   21.39
   0   3 -13  156.00   27.57
   0  -3  12   37.78    9.49
   0   3 -12   28.69   12.46
   0   3 -11   36.04   14.19
   0  -3  11   18.19    7.24
   0   3 -11   16.21   17.05
   0   3 -10    5.83    7.99
   0  -3  10    2.07    2.28
   0   3 -10    5.32    7.06
   0  -3   9   82.44   15.52
   0   3  -9   79.30   26.40
   0   3  -9   65.19   19.07
   0  -3   8  138.02   19.76
   0   3  -8  125.35   25.62
   0  -3   8  136.65   16.84
   0  -3   7   50.90   12.09
   0   3  -7   69.22   16.58
   0  -3   7   54.78   11.28
   0  -3   6  261.51   32.88
   0  -3   6  262.72   26.41
   0   3  -6  234.08   28.56
   0   3  -6  199.76   19.03
   0   3  -6  217.96   28.33
   0  -3   6  258.13   24.53
   0  -3   5  135.73   17.31
   0   3  -5  125.42   20.28
   0   3  -5  156.79   20.99
   0  -3   5  124.88   17.65
   0   3  -5  148.11   15.87
   0  -3   5  128.92   21.19
   0  -3   4  302.49   29.60
   0  -3   4  337.36   25.93
   0   3  -4  282.57   25.54
   0   3  -4  337.07   22.62
   0  -3   4  326.77   27.78
   0   3  -4  343.17   31.45
   0   3  -3  145.09   13.97
   0  -3   3  204.45   19.43
   0   3  -3  177.42   18.64
   0  -3   3  185.94   20.50
   0   3  -3  174.29   20.63
   0  -3   2 3089.76   69.31
   0   3  -2 3254.72   83.39
   0  -3   2 3138.47   77.97
   0   3  -1   70.58   11.81
   0  -3   1   61.71   10.47
   0  -3   0   43.92    8.44
   0   3   0   51.62   12.30
   0   3   0   53.84    9.66
   0  -3   0   51.15   12.49
   0   3   1 1258.67   62.42
   0  -3  -1 1107.82   41.47
   0   3   1 1176.69   44.32
   0  -3  -1 1165.16   54.05
   0  -3  -2 4409.23   78.62
   0   3   2 4463.42  110.01
   0  -3  -2 4311.21   87.90
   0   3   2 4384.65   87.36
   0   3   3 3833.45   81.72
   0  -3  -3 4008.72   75.44
   0   3   3 4106.33   48.61
   0   3   3 4051.28   82.56
   0   3   3 4188.10   99.91
   0  -3  -3 4041.50   78.42
   0  -3  -4   44.52    9.09
   0   3   4   47.31   11.23
   0   3   4   44.84    5.54
   0   3   4   51.47   10.18
   0   3   5  123.09   17.49
   0   3   5  133.21   10.61
   0   3   5  135.56   17.66
   0  -3  -5  132.90   16.28
   0   3   6 3337.23   58.16
   0   3   6 3236.88   92.27
   0  -3  -6 3326.00   60.94
   0  -3  -6 3271.85   86.63
   0   3   6 3283.74   92.00
   0   3   7 1659.83   43.68
   0   3   7 1643.63   65.33
   0   3   7 1572.85   68.74
   0  -3  -7 1606.94   44.44
   0  -3  -7 1656.82   66.76
   0  -3  -8 1138.23   59.81
   0  -3  -8 1048.77   38.34
   0   3   8 1052.97   36.71
   0  -3  -9 1202.86   66.83
   0   3   9 1172.98   40.55
   0  -3  -9 1081.06   41.21
   0  -3  -9 1112.83   41.29
   0  -3 -10  126.82   14.72
   0  -3 -10  161.90   26.40
   0   3  10  126.20   14.12
   0   3  11  534.10   30.55
   0  -3 -11  490.25   49.25
   0  -3 -11  464.69   29.06
   0  -3 -12   25.09    6.97
   0   3  12   29.76    7.09
   0  -3 -13  349.70   45.77
   0  -3 -13  231.04   22.22
   0   3  13  323.78   24.56
   0   3  14    3.72    3.27
   0  -3 -14   10.71    9.29
   0  -3 -14   -3.40    1.84
   0  -3 -15   54.27   11.97
   0  -3 -15   96.13   24.28
   0  -3 -16   49.67   18.66
   0  -4  15   -2.69    2.90
   0   4 -15   -2.53    5.04
   0   4 -14   16.29   10.63
   0  -4  14    1.11    3.19
   0   4 -13   92.99   22.73
   0  -4  13   78.29   16.76
   0  -4  12  265.73   28.52
   0   4 -12  384.00   46.15
   0   4 -11  504.16   52.95
   0  -4  11  494.04   38.60
   0  -4  10  748.72   47.27
   0   4 -10  716.97   61.07
   0   4  -9 1236.46   78.16
   0  -4   9 1270.35   61.49
   0   4  -8  118.71   23.07
   0  -4   8   96.92   17.21
   0  -4   7 2071.21   79.57
   0   4  -7 1976.13   87.35
   0   4  -7 1817.61   85.21
   0  -4   7 1923.49   71.20
   0   4  -6  142.23   21.58
   0   4  -6  142.92   16.86
   0  -4   6  140.85   23.08
   0  -4   6  193.40   23.61
   0  -4   6  157.03   19.61
   0   4  -6  158.58   24.90
   0   4  -5 1421.64   62.76
   0  -4   5 1447.88   58.71
   0  -4   5 1375.70   68.73
   0   4  -5 1432.32   51.14
   0   4  -5 1372.54   69.70
   0  -4   5 1424.26   62.73
   0  -4   4 1742.97   74.17
   0   4  -4 1666.61   64.90
   0   4  -4 1654.89   72.36
   0   4  -4 1597.04   52.18
   0  -4   4 1669.13   66.49
   0  -4   4 1716.24   60.94
   0   4  -3   50.25   12.66
   0  -4   3   67.57   11.82
   0   4  -3   52.50    8.29
   0  -4   3   70.35   13.69
   0   4  -2 3448.85   94.46
   0  -4   2 3291.79   77.65
   0  -4   2 3254.51   86.35
   0  -4   1  372.96   28.19
   0  -4   1  400.68   42.98
   0   4  -1  364.33   30.32
   0  -4   0 5008.97   99.62
   0  -4   0 4822.87  142.29
   0   4   0 5243.61  109.28
   0  -4  -1  457.13   29.58
   0  -4  -1  527.89   42.63
   0   4   1  551.83   46.66
   0   4   1  526.48   34.20
   0   4   2 3024.70  109.09
   0  -4  -2 2939.83   84.91
   0  -4  -2 2909.12   69.98
   0   4   2 3040.97   80.15
   0  -4  -3 1078.66   43.64
   0   4   3 1059.78   47.27
   0  -4  -3  976.17   43.00
   0   4   3 1137.13   64.31
   0   4   4  111.80    8.87
   0   4   4   99.46   18.04
   0  -4  -4  125.94   15.41
   0   4   4  106.99   16.12
   0  -4  -4  114.53   14.20
   0   4   5  680.50   23.21
   0   4   5  670.45   47.02
   0   4   5  677.31   41.87
   0  -4  -5  667.39   36.85
   0   4   5  675.83   39.92
   0   4   6    2.99    1.32
   0  -4  -6    4.15    3.37
   0   4   6   -2.04    5.15
   0   4   6    5.63    3.99
   0  -4  -7  320.10   28.41
   0   4   7  288.95   17.43
   0  -4  -8   17.34    7.30
   0   4   8    9.50    3.57
   0  -4  -9  494.71   39.59
   0   4   9  533.65   26.11
   0   4  10  342.36   22.09
   0  -4 -10  298.18   33.22
   0  -4 -11   68.96   11.02
   0  -4 -11   62.41   16.52
   0   4  11   66.30    9.99
   0  -4 -12  122.85   14.98
   0   4  12  120.76   14.59
   0  -4 -12  115.72   23.35
   0   4  13   14.63    5.11
   0  -4 -13   22.72    6.70
   0   4  14    4.23    2.81
   0  -4 -14    2.52    2.45
   0  -4 -15   -3.34    5.02
   0  -4 -15   19.46   11.49
   0   5 -15   16.74   10.73
   0  -5  15   26.77    9.10
   0  -5  14   27.12    9.32
   0   5 -14   30.52   14.45
   0   5 -13  158.35   30.73
   0  -5  13  145.68   21.75
   0  -5  12  100.30   17.94
   0   5 -12   97.88   24.69
   0   5 -11   21.86   13.55
   0  -5  11   15.46    6.73
   0   5 -10  598.81   55.27
   0  -5  10  676.51   46.23
   0   5  -9  175.90   28.33
   0  -5   9  176.63   23.59
   0  -5   8  231.35   26.86
   0   5  -8  202.81   28.97
   0  -5   7    4.47    4.19
   0   5  -7   18.44    9.15
   0   5  -6   13.77    5.14
   0  -5   6   26.65    9.02
   0  -5   6   22.18    8.79
   0  -5   5  396.74   31.28
   0   5  -5  397.04   39.07
   0  -5   5  373.00   36.41
   0   5  -5  372.12   26.69
   0  -5   5  388.98   34.05
   0   5  -4  130.88   15.43
   0  -5   4  134.89   19.49
   0  -5   4  130.56   17.64
   0   5  -4  137.03   22.38
   0   5  -3  170.38   16.91
   0  -5   3  198.11   23.41
   0   5  -3  171.87   24.05
   0  -5   3  178.15   20.05
   0  -5   2    6.62    4.20
   0  -5   2    4.75    3.97
   0   5  -2    2.78    3.25
   0  -5   1  263.06   25.78
   0   5  -1  224.31   25.68
   0  -5   1  271.65   37.99
   0  -5   0   84.64   14.02
   0  -5   0   74.57   18.39
   0   5   0  103.87   16.54
   0  -5  -1  559.83   48.16
   0  -5  -1  572.89   36.75
   0   5   1  589.10   40.05
   0   5   1  611.16   53.00
   0  -5  -2  395.26   29.67
   0   5   2  431.48   45.85
   0   5   2  386.99   31.92
   0  -5  -2  391.53   35.26
   0   5   3  178.45   28.09
   0  -5  -3  189.64   21.68
   0  -5  -3  190.55   19.44
   0   5   3  177.60   21.78
   0   5   4  864.29   47.98
   0  -5  -4  913.62   42.89
   0   5   4  871.08   25.33
   0   5   4  841.38   62.47
   0  -5  -4  831.93   40.59
   0   5   5  106.68    8.88
   0   5   5   91.72   19.82
   0   5   5   90.41   16.09
   0  -5  -5   94.88   14.24
   0   5   6  862.84   49.80
   0   5   6  899.53   27.44
   0  -5  -6  935.83   46.15
   0   5   7   18.61    9.33
   0  -5  -7   18.41    6.45
   0   5   7   15.31    3.98
   0  -5  -8  825.78   47.06
   0   5   8  801.23   29.39
   0   5   9    7.88    3.39
   0  -5  -9    6.31    5.64
   0   5  10  408.86   23.27
   0  -5 -10  413.41   37.29
   0  -5 -11  701.91   51.74
   0   5  11  680.33   31.76
   0   5  12    7.94    3.73
   0  -5 -12   15.59    9.28
   0  -5 -12   15.13    5.53
   0  -5 -13  934.20   67.28
   0   5  13  933.41   37.55
   0   5  14  279.04   21.50
   0  -5 -14  203.19   19.94
   0  -5 -15   87.11   13.08
   0  -5 -15  147.59   28.29
   0   6 -14  306.68   44.29
   0  -6  14  283.83   29.70
   0  -6  13   37.01   11.13
   0   6 -13   38.07   15.49
   0   6 -12  865.43   73.32
   0  -6  12  852.84   52.62
   0   6 -11  693.41   62.92
   0  -6  11  700.27   47.45
   0   6 -10  114.92   24.28
   0  -6  10   88.48   17.11
   0  -6   9  919.30   54.83
   0   6  -9  840.37   63.37
   0  -6   8  412.05   36.47
   0  -6   7  190.70   24.74
   0  -6   6  613.79   43.91
   0  -6   5 1022.62   56.42
   0   6  -4  913.49   42.13
   0  -6   4  928.80   53.10
   0  -6   3 1379.67   63.39
   0   6  -3 1287.85   48.08
   0  -6   3 1322.33   56.48
   0  -6   2 1780.45  105.37
   0   6  -2 1702.04   78.59
   0  -6   2 1722.04   64.75
   0  -6   2 1631.38   67.57
   0  -6   1    5.59    7.46
   0   6  -1    5.67    6.76
   0  -6   1   -1.31    3.69
   0  -6   0  351.76   30.00
   0  -6   0  304.30   41.00
   0   6   0  352.15   33.67
   0   6   1  214.43   34.20
   0   6   1  230.28   26.38
   0  -6  -1  205.19   30.62
   0  -6  -1  245.17   25.22
   0  -6  -2  242.14   29.12
   0  -6  -2  282.31   25.72
   0   6   2  236.58   27.08
   0   6   2  262.41   37.46
   0   6   3 1490.80   90.16
   0  -6  -3 1526.19   57.76
   0  -6  -3 1542.32   66.02
   0   6   3 1611.32   69.56
   0   6   4  730.61   22.87
   0  -6  -4  730.95   40.67
   0   6   4  710.94   46.89
   0   6   4  789.59   63.95
   0  -6  -4  777.81   41.61
   0  -6  -5 3062.35   80.66
   0   6   5 3123.47   98.14
   0  -6  -5 3261.38   85.95
   0   6   5 3152.36   48.46
   0   6   6   13.44    3.34
   0  -6  -6   16.09    6.40
   0  -6  -7  708.79   41.84
   0   6   7  647.17   23.49
   0  -6  -8  101.19   16.61
   0   6   8  102.08    9.90
   0  -6  -9   86.52   15.52
   0   6   9   85.92    9.71
   0   6  10    1.31    0.61
   0  -6 -10    4.29    3.50
   0   6  11   84.06   10.55
   0  -6 -11   98.03   17.90
   0  -6 -12    9.46    8.15
   0   6  12    6.12    3.44
   0  -6 -13    1.17    5.56
   0  -6 -13    2.07    3.06
   0  -6 -14    5.64    5.52
   0  -6 -14    3.83    3.70
   0  -7  14    6.54    5.12
   0  -7  13   35.00   10.18
   0  -7  12   39.75   11.82
   0  -7  11   15.99    8.23
   0  -7  10   -1.04    3.99
   0  -7   9    6.79    4.84
   0  -7   8   85.51   16.94
   0  -7   7   51.42   13.18
   0  -7   6   54.39   13.04
   0  -7   5   62.57   13.98
   0  -7   4   51.55   12.71
   0   7  -3   44.15    8.99
   0  -7   3   48.39   12.11
   0  -7   3   52.99   19.86
   0  -7   2   19.67   12.58
   0  -7   2   41.51   11.04
   0  -7   1 1450.39   65.11
   0  -7   1 1462.19   95.53
   0  -7   0  663.96   43.17
   0  -7   0  648.03   59.91
   0  -7  -1 1614.42   66.57
   0  -7  -1 1517.38   85.36
   0  -7  -2  953.43   49.82
   0   7   2  929.85   73.86
   0  -7  -2  878.89   58.36
   0  -7  -3  163.99   22.90
   0  -7  -3  196.41   21.54
   0   7   3  148.65   29.96
   0  -7  -4  221.59   23.72
   0  -7  -4  214.41   22.61
   0   7   5    3.51    2.05
   0  -7  -5    7.86    4.66
   0  -7  -5   10.31    6.01
   0   7   6  507.44   19.48
   0  -7  -6  512.72   35.54
   0   7   7  239.15   13.78
   0  -7  -7  226.37   23.89
   0   7   8  398.13   18.79
   0  -7  -8  390.89   32.63
   0   7   9  537.14   23.12
   0  -7  -9  544.77   39.61
   0   7  10   56.86    7.65
   0  -7 -10   67.36   14.43
   0  -7 -11  372.44   35.58
   0   7  11  345.16   20.21
   0  -7 -12   10.31    6.72
   0  -7 -13  208.40   19.37
   0  -7 -13  294.52   35.80
   0  -7 -14   10.46    7.49
   0  -7 -14    4.84    2.86
   0  -8  13   59.50   13.67
   0  -8  12   12.21    5.64
   0  -8  11  169.14   23.70
   0  -8  10   42.12   12.52
   0  -8   9  773.58   51.38
   0  -8   8   21.45    7.98
   0  -8   7 2254.50   87.79
   0  -8   6  266.12   30.04
   0  -8   5  717.86   49.03
   0  -8   4  985.96   56.94
   0  -8   4  884.39   84.61
   0  -8   3   87.44   17.07
   0  -8   3  101.17   28.67
   0  -8   2  824.94   50.48
   0   8  -2  790.29   38.20
   0  -8   2  727.26   73.17
   0  -8   1  406.34   34.86
   0  -8   1  403.97   52.44
   0  -8   0  385.02   46.46
   0  -8   0  340.72   32.14
   0  -8  -1  118.81   23.92
   0  -8  -1  184.74   22.53
   0  -8  -2  330.06   37.06
   0  -8  -2  306.57   28.50
   0  -8  -3  327.50   28.81
   0  -8  -3  307.40   32.50
   0  -8  -4  149.01   19.18
   0  -8  -4  155.84   20.95
   0  -8  -5  432.53   32.71
   0   8   5  357.40   16.53
   0  -8  -5  404.50   31.55
   0   8   6    0.66    1.18
   0  -8  -6   -0.34    1.61
   0   8   7    2.05    1.93
   0  -8  -7    4.22    2.84
   0   8   8   12.09    3.25
   0  -8  -8   22.97    8.23
   0   8   9    4.28    2.19
   0  -8  -9    2.48    1.98
   0  -8 -10   31.70   10.10
   0  -8 -11   98.72   18.07
   0  -8 -12   36.01   11.07
   0  -8 -13   -4.29    5.74
   0  -9  12    4.76    3.98
   0  -9  11    9.17    5.30
   0  -9  10   84.03   16.93
   0  -9   9  159.40   23.69
   0  -9   8   -4.32    3.86
   0  -9   7    8.44    6.31
   0  -9   6  192.34   25.71
   0  -9   5  857.84   87.34
   0  -9   5 1053.51   60.18
   0  -9   4    7.77    8.34
   0  -9   4   15.15    7.98
   0  -9   3  341.88   51.53
   0  -9   3  361.09   34.42
   0  -9   2    6.55    6.62
   0  -9   2   10.80    5.62
   0  -9   1   11.48    7.34
   0  -9   1   11.48   11.01
   0  -9   0   13.47    7.65
   0  -9   0    3.28    4.85
   0  -9  -1  122.12   19.11
   0  -9  -1  105.37   22.07
   0  -9  -2  540.57   47.81
   0  -9  -3   75.98   16.12
   0  -9  -3   72.62   13.50
   0  -9  -4 1087.49   53.86
   0  -9  -4 1081.01   56.70
   0  -9  -5   -1.83    3.51
   0  -9  -5    4.41    4.44
   0   9   5    1.91    1.61
   0  -9  -6  779.23   45.44
   0  -9  -6  750.51   43.62
   0   9   6  759.64   22.61
   0   9   7   11.58    2.65
   0  -9  -7    9.79    5.25
   0  -9  -8  358.54   31.51
   0  -9  -9   92.87   16.79
   0  -9 -10    9.80    5.27
   0  -9 -11  380.07   34.96
   0  -9 -12   34.99   10.56
   0 -10  11   89.13   17.22
   0 -10  10    7.36    5.39
   0 -10   9  199.13   27.30
   0 -10   8   57.54   15.05
   0 -10   7  284.05   53.12
   0 -10   7  357.10   35.50
   0 -10   6  181.91   42.47
   0 -10   6  198.25   26.59
   0 -10   5  246.31   48.60
   0 -10   5  299.87   32.49
   0 -10   4  272.91   49.84
   0 -10   4  283.40   31.46
   0 -10   3  237.03   28.04
   0 -10   3  201.40   41.48
   0 -10   2  768.74   78.33
   0 -10   2  824.97   52.07
   0 -10   1    5.74    5.11
   0 -10   1    2.62    7.07
   0 -10   0  544.49   41.79
   0 -10   0  652.77   62.86
   0 -10  -1  484.51   49.47
   0 -10  -1  453.06   38.51
   0 -10  -2   96.09   16.01
   0 -10  -2   63.80   16.63
   0 -10  -3  316.17   34.14
   0 -10  -3  296.81   28.85
   0 -10  -4  220.06   24.78
   0 -10  -4  179.34   23.51
   0 -10  -5   26.44    8.13
   0  10   5   25.78    4.43
   0 -10  -5   16.57    7.77
   0 -10  -6   32.95    9.88
   0 -10  -6   24.59    8.15
   0 -10  -7   21.04    7.76
   0 -10  -8   84.78   15.54
   0 -10  -9   10.15    6.52
   0 -10 -10   -1.16    3.54
   0 -10 -11    3.58    5.47
   0 -11   9   15.01    7.90
   0 -11   9   12.37   14.20
   0 -11   8    8.23   13.75
   0 -11   8   38.08   11.77
   0 -11   7    4.66    7.12
   0 -11   7   14.06    8.01
   0 -11   6   12.78   12.00
   0 -11   6   15.08    7.50
   0 -11   5    1.97    9.03
   0 -11   5    6.18    6.41
   0 -11   4   44.57   19.73
   0 -11   4   51.82   13.82
   0 -11   3   25.94    8.53
   0 -11   3   44.20   20.96
   0 -11   2    7.57    5.60
   0 -11   2   -1.17    6.21
   0 -11   1  479.55   40.60
   0 -11   1  516.38   59.81
   0 -11   0  343.55   46.06
   0 -11   0  330.54   32.57
   0 -11  -1  465.79   48.85
   0 -11  -2 1013.05   66.42
   0 -11  -2  880.35   51.06
   0 -11  -3   20.92    8.60
   0 -11  -3   15.68    7.74
   0 -11  -4  367.35   32.42
   0 -11  -4  337.73   32.92
   0 -11  -5   13.35    5.68
   0 -11  -5    7.00    4.68
   0 -11  -6  111.91   17.79
   0 -11  -6  124.62   19.26
   0 -11  -7   17.66    6.83
   0 -11  -8  100.76   16.91
   0 -11  -9  329.59   31.34
   0 -12   8   21.37    9.47
   0 -12   8   26.46   17.13
   0 -12   7  324.96   58.94
   0 -12   7  427.62   39.76
   0 -12   6   54.90   24.16
   0 -12   6   89.58   17.94
   0 -12   5   81.53   29.32
   0 -12   5   77.25   17.21
   0 -12   4  140.96   22.17
   0 -12   4  124.90   35.31
   0 -12   3  143.76   33.96
   0 -12   3  166.70   24.12
   0 -12   2   40.69   17.89
   0 -12   2   26.84    8.22
   0 -12   1   77.84   22.98
   0 -12   1   80.74   16.41
   0 -12   0   79.19   21.30
   0 -12   0   74.19   15.81
   0 -12  -1    2.14    6.51
   0 -12  -2  129.00   23.51
   0 -12  -2  144.27   21.49
   0 -12  -3    7.27    5.03
   0 -12  -3   20.04    9.66
   0 -12  -4    9.40    5.62
   0 -12  -4    3.68    3.67
   0 -12  -5   14.13    7.25
   0 -12  -5   13.57    6.80
   0 -12  -6    2.90    3.51
   0 -12  -6   11.13    6.17
   0 -12  -7    0.71    2.29
   0 -12  -8    5.93    5.06
   0 -13   5   38.42   18.90
   0 -13   5   71.14   16.09
   0 -13   4   10.94    7.19
   0 -13   4   16.04   14.57
   0 -13   3  104.92   30.25
   0 -13   3  125.35   21.10
   0 -13   2   16.45   11.75
   0 -13   2    2.11    3.36
   0 -13   1   68.26   21.46
   0 -13   1   44.79   11.25
   0 -13   0   25.66   14.33
   0 -13  -1   51.29   12.73
   0 -13  -1   41.19   14.31
   0 -13  -2   86.38   16.13
   0 -13  -2   72.57   17.58
   0 -13  -3   38.90   10.64
   0 -13  -3   48.87   13.14
   0 -13  -4  551.36   41.49
   0 -13  -4  601.09   44.83
   0 -13  -5   36.23   10.11
   0 -13  -5   31.53   10.12
   1 -13  -3   95.69   18.22
   1 -13  -2   46.73   13.21
   1 -13  -1   12.88    6.46
   1 -13   0   56.42   14.51
   1 -13   1   21.69    9.90
   1 -13   2  259.25   31.00
   1 -13   3    2.57    3.82
   1 -13   4  240.98   30.35
   1 -12  -7   10.79    7.24
   1 -12  -6  451.66   37.49
   1 -12  -5   13.54    6.75
   1 -12  -4  203.04   22.80
   1 -12  -4  211.18   25.85
   1 -12  -3    7.43    4.51
   1 -12  -3    2.84    4.39
   1 -12  -2    4.98    3.23
   1 -12  -2    8.00    4.14
   1 -12  -1    5.54    5.37
   1 -12  -1   10.49    6.51
   1 -12   0   12.69    7.08
   1 -12   0    0.91    1.93
   1 -12   1   86.96   20.83
   1 -12   1   95.94   19.76
   1 -12   2   97.40   18.50
   1 -12   2  104.42   26.36
   1 -12   3   -1.87    1.96
   1 -12   3  -12.06   11.46
   1 -12   4   -2.53    3.47
   1 -12   4    1.50    1.92
   1 -12   5    4.27    5.09
   1 -12   5   -4.13    6.83
   1 -12   6   99.57   19.90
   1 -12   6   63.19   24.35
   1 -12   7   36.70   21.81
   1 -12   7   32.95   10.48
   1 -11  -9   25.16    8.38
   1 -11  -8   47.06   11.69
   1 -11  -7  100.12   17.32
   1 -11  -6   28.39    9.77
   1 -11  -5  112.78   18.21
   1 -11  -4  161.51   22.12
   1 -11  -4  128.06   17.85
   1 -11  -3  118.41   19.05
   1 -11  -3  103.15   17.18
   1 -11  -2  318.84   32.31
   1 -11  -2  286.18   30.11
   1 -11  -1  165.52   25.56
   1 -11  -1  120.63   21.31
   1 -11   0  760.94   50.46
   1 -11   0  672.34   57.30
   1 -11   1   27.19    9.81
   1 -11   1   41.42   14.46
   1 -11   2  663.74   66.40
   1 -11   2  783.12   52.95
   1 -11   3   86.56   17.97
   1 -11   3   61.64   21.26
   1 -11   4   53.95   22.92
   1 -11   4   51.07   14.51
   1 -11   5  209.25   28.00
   1 -11   5  173.74   40.68
   1 -11   6   10.77   14.81
   1 -11   6    5.20    5.92
   1 -11   7  216.49   46.46
   1 -11   7  266.55   32.57
   1 -11   8   12.79    7.01
   1 -11   8   10.34   15.62
   1 -11   9  352.73   36.78
   1 -11   9  272.14   51.96
   1 -10 -10  308.12   31.12
   1 -10  -9   22.21    8.53
   1 -10  -8   63.25   13.84
   1 -10  -7   -0.43    1.73
   1 -10  -6   27.57    8.96
   1 -10  -5   14.29    6.84
   1 -10  -4   35.66    9.64
   1 -10  -4   39.49   10.54
   1 -10  -3    5.54    3.86
   1 -10  -3    5.90    4.21
   1 -10  -2    4.09    4.12
   1 -10  -2   10.71    5.71
   1 -10  -2    1.12    1.28
   1 -10  -1   68.11   14.83
   1 -10  -1   73.67   16.97
   1 -10   0   11.75    6.35
   1 -10   0   18.35    8.47
   1 -10   1  136.00   20.87
   1 -10   1  139.09   28.50
   1 -10   2   21.48    9.41
   1 -10   2   16.29   13.02
   1 -10   3   31.00   16.34
   1 -10   3   23.59    9.92
   1 -10   4   -5.26    4.80
   1 -10   4   -3.69    2.40
   1 -10   5   21.11    9.27
   1 -10   5   13.08   11.42
   1 -10   6   12.86    6.96
   1 -10   6    8.94    9.36
   1 -10   7   32.60   15.98
   1 -10   7   48.18   13.21
   1 -10   8   67.96   16.12
   1 -10   9    0.73    3.58
   1 -10  10   62.85   15.84
   1  -9 -11   17.39    7.97
   1  -9 -10   69.77   14.42
   1  -9  -9  172.93   22.76
   1  -9  -8   72.59   14.53
   1  -9  -7  107.24   17.74
   1  -9  -6   76.52   14.85
   1  -9  -5  403.26   33.48
   1  -9  -4   -0.39    2.28
  -1   9   4    1.15    0.52
   1  -9  -3 1347.40   61.93
  -1   9   3 1414.78   29.62
   1  -9  -3 1393.63   59.86
   1  -9  -2  303.21   31.12
   1  -9  -2  296.48   30.22
  -1   9   2  274.11   15.35
   1  -9  -1   90.19   19.00
   1  -9  -1  103.90   17.42
  -1   9   1   92.80   10.04
  -1   9   0  981.40   35.55
   1  -9   0 1018.59   57.36
   1  -9   0 1136.91   72.59
   1  -9   1  480.91   51.73
  -1   9  -1  420.42   24.20
   1  -9   1  432.58   37.73
   1  -9   2 1056.47   83.18
   1  -9   2  990.86   58.27
   1  -9   3  404.01   37.91
   1  -9   3  415.03   54.75
   1  -9   4  693.86   50.37
   1  -9   4  670.18   71.80
   1  -9   5  598.48   47.16
   1  -9   5  448.95   59.72
   1  -9   6   88.94   17.89
   1  -9   7  502.59   43.31
   1  -9   8   79.76   17.42
   1  -9   9   40.57   12.52
   1  -9  10   64.63   15.47
   1  -9  11    3.32    4.44
   1  -9  12   61.91   14.65
   1  -8 -12   12.51    7.46
   1  -8 -11   86.49   16.86
   1  -8 -10   44.59   12.21
   1  -8  -9   75.60   15.20
   1  -8  -8  422.07   34.48
   1  -8  -7   -2.55    4.43
   1  -8  -6  546.51   38.63
   1  -8  -5   66.08   12.93
  -1   8   4   56.55    3.84
   1  -8  -4   66.31   11.83
   1  -8  -4   58.54   12.10
  -1   8   4   73.37    5.08
   1  -8  -3   -0.47    2.35
  -1   8   3    2.61    1.30
   1  -8  -2   36.79    9.71
  -1   8   2   38.20    5.34
   1  -8  -2   36.79    9.73
   1  -8  -1  196.62   27.09
   1  -8  -1  156.92   22.51
  -1   8   1  168.24   12.76
   1  -8   0   -3.38    6.38
  -1   8   0    2.63    2.18
   1  -8   1   16.91    7.83
  -1   8  -1   26.61    5.76
   1  -8   1   32.28   12.98
   1  -8   2    0.49    3.71
  -1   8  -2   -0.10    1.07
   1  -8   2    4.37    4.67
   1  -8   3   13.23    6.87
   1  -8   3   16.12   12.75
   1  -8   4   31.11   16.26
   1  -8   4   30.33   10.60
   1  -8   5   13.27    7.32
   1  -8   6  109.74   19.72
   1  -8   7   29.46   10.22
   1  -8   8  569.34   45.93
   1  -8   9   86.66   18.21
   1  -8  10  105.59   20.18
   1  -8  11   21.78    9.00
   1  -8  12   25.85    9.80
   1  -8  13  100.07   19.08
   1  -7 -13   30.25   11.81
   1  -7 -13   17.30    6.10
   1  -7 -12   14.81    7.89
   1  -7 -11   36.04   11.28
   1  -7 -10  494.58   39.29
   1  -7  -9  286.56   28.89
   1  -7  -8  611.33   41.38
   1  -7  -7 1136.03   55.29
  -1   7   6   99.80    5.12
   1  -7  -6  115.58   17.31
   1  -7  -5  927.60   48.65
  -1   7   4 1325.83   17.96
   1  -7  -4 1370.13   51.48
  -1   7   4 1291.29   85.14
   1  -7  -4 1464.32   61.39
   1  -7  -3   26.14    8.57
   1  -7  -3   33.67    9.03
  -1   7   3   37.02   15.18
   1  -7  -3   32.91    9.07
  -1   7   3   37.29    4.35
   1  -7  -2 1469.86   60.92
  -1   7   2 1463.72   32.17
   1  -7  -2 1466.19   63.78
  -1   7   2 1403.62   84.39
  -1   7   1  160.90   12.02
   1  -7  -1  158.54   23.73
   1  -7  -1  154.37   20.61
  -1   7   0 1262.78   37.07
   1  -7   0 1191.93   58.84
   1  -7   0 1244.69   73.70
   1  -7   1  115.44   24.81
   1  -7   1   99.77   17.40
  -1   7  -1   88.41   10.60
   1  -7   2 1217.86   63.30
   1  -7   2 1257.30   84.88
  -1   7  -2 1170.65   41.44
  -1   7  -3    2.89    3.08
   1  -7   3    5.32    7.60
   1  -7   3    3.15    3.04
   1  -7   4 1052.51   60.37
   1  -7   5  375.12   36.27
   1  -7   6   20.10    8.06
   1  -7   7  931.37   58.47
   1  -7   8  292.21   32.99
   1  -7   9  399.36   38.83
   1  -7  10  209.31   28.73
   1  -7  11  131.54   22.56
   1  -7  12  139.61   22.92
   1  -7  13    3.37    2.87
   1  -7  14   17.96    8.75
   1  -6 -14    9.95    4.78
   1  -6 -14   10.25    8.52
   1  -6 -13   55.26   15.85
   1  -6 -13   15.82    4.46
   1  -6 -12   68.63   10.95
   1  -6 -12   70.16   16.95
   1  -6 -11  175.24   24.41
   1  -6 -10  477.18   38.70
   1  -6  -9   70.14   14.15
   1  -6  -8  490.77   36.96
  -1   6   8  409.39   18.05
   1  -6  -7    1.09    1.76
  -1   6   7    0.50    0.94
  -1   6   6   31.55    3.73
   1  -6  -6   26.66    7.76
  -1   6   6   29.31    9.04
  -1   6   5  288.64    9.04
   1  -6  -5  292.62   26.88
  -1   6   5  250.81   35.60
  -1   6   5  294.55   28.98
   1  -6  -4   20.96    6.91
   1  -6  -4   17.43    6.39
  -1   6   4    1.58    4.54
  -1   6   4   16.05    1.76
  -1   6   4   15.68    7.31
  -1   6   3   31.87   12.05
   1  -6  -3   42.17    9.09
   1  -6  -3   37.14    9.74
  -1   6   3   38.05   11.60
   1  -6  -3   29.07    7.99
  -1   6   3   36.32    3.27
   1  -6  -2  115.67   17.14
  -1   6   2  132.18    8.47
   1  -6  -2  126.72   17.56
  -1   6   2  138.70   25.84
  -1   6   2  116.71   19.11
   1  -6  -1 1326.06   63.72
  -1   6   1 1282.72   63.82
   1  -6  -1 1263.32   56.52
  -1   6   1 1323.53   31.76
   1  -6   0   -0.21    4.39
  -1   6   0    4.27    4.87
  -1   6   0    0.85    1.63
   1  -6   0    6.87    3.89
   1  -6   1   16.66    7.30
  -1   6  -1   12.81    3.87
  -1   6  -1   15.36    8.44
   1  -6   1    9.51    6.63
  -1   6  -2   14.76    5.05
   1  -6   2   10.80    5.09
   1  -6   2   13.77    7.94
  -1   6  -3 1358.28   45.23
   1  -6   3 1303.32   55.76
   1  -6   3 1337.04   65.36
   1  -6   4  524.89   42.05
  -1   6  -4  591.60   31.92
   1  -6   5  284.63   31.71
   1  -6   6  537.79   43.71
   1  -6   7   43.23   12.29
   1  -6   8  234.14   29.25
   1  -6   9  186.99   26.13
   1  -6  10  106.17   20.03
   1  -6  11  369.91   37.50
   1  -6  12   -4.24    2.89
   1  -6  13  544.47   45.26
   1  -6  14   10.27    5.73
   1  -5 -15    3.69    2.15
   1  -5 -14   57.21   10.80
   1  -5 -14   68.37   18.87
   1  -5 -13    0.39    2.21
   1  -5 -13    4.75    6.08
   1  -5 -12  129.15   15.73
   1  -5 -12  159.99   25.43
   1  -5 -11  208.43   19.52
   1  -5 -11  231.55   28.58
   1  -5 -10  129.20   20.76
  -1   5   9  564.03   41.82
   1  -5  -9  719.92   45.67
  -1   5   8    0.40    1.82
   1  -5  -8    3.91    3.84
  -1   5   8   -0.42    1.27
   1  -5  -7  941.77   48.91
  -1   5   7  979.82   50.85
  -1   5   7  901.18   26.18
  -1   5   6  145.50   19.52
  -1   5   6  109.88   20.50
  -1   5   6  147.50    9.33
   1  -5  -6  159.47   19.56
   1  -5  -5 1681.16   62.23
  -1   5   5 1694.16   25.64
  -1   5   5 1670.81   77.79
  -1   5   5 1666.84   64.52
  -1   5   4  563.67   37.22
  -1   5   4  558.39   45.56
   1  -5  -4  532.04   34.57
  -1   5   4  570.48   11.54
  -1   5   3 1778.48   18.92
   1  -5  -3 1886.89   64.57
  -1   5   3 1965.22   70.16
   1  -5  -3 1881.29   53.94
   1  -5  -3 1779.36   58.76
  -1   5   3 1878.36   85.35
  -1   5   2 1939.21   88.44
  -1   5   2 1829.16   68.49
   1  -5  -2 1860.12   59.45
   1  -5  -2 1858.30   62.89
  -1   5   2 1883.49   27.58
  -1   5   1    9.07    4.59
   1  -5  -1    9.88    5.71
  -1   5   1    9.31    5.61
   1  -5  -1   12.58    5.96
  -1   5   1    9.31    2.67
  -1   5   0 3056.33   93.94
  -1   5   0 3026.55   49.91
   1  -5   0 3020.22   86.26
   1  -5   0 3105.85  103.73
  -1   5  -1 2984.26   95.39
  -1   5  -1 3029.02   55.95
   1  -5   1 3011.93   90.16
  -1   5  -2  910.82   55.09
  -1   5  -2  954.42   34.18
   1  -5   2  982.06   52.86
   1  -5   3 2124.99   81.43
  -1   5  -3 1996.54   53.37
   1  -5   3 2012.09   65.33
  -1   5  -3 2040.05   86.51
   1  -5   4  157.48   22.90
  -1   5  -4  140.39   24.17
  -1   5  -4  157.84   16.01
   1  -5   4  151.18   17.63
  -1   5  -5  379.28   26.17
   1  -5   5  373.90   27.90
   1  -5   5  430.26   38.34
   1  -5   6  346.37   34.61
   1  -5   6  366.61   29.07
   1  -5   7  483.18   34.04
   1  -5   7  535.25   43.81
   1  -5   8    3.14    5.15
   1  -5   9  210.45   27.59
   1  -5  10  231.13   29.10
   1  -5  11    8.90    6.83
   1  -5  12  131.98   21.69
   1  -5  13   -5.10    4.80
   1  -5  14   59.30   14.97
   1  -5  15    7.26    5.41
   1  -4 -15  142.76   28.60
   1  -4 -15   59.80   12.10
   1  -4 -14   -0.61    1.92
   1  -4 -13  154.49   18.43
   1  -4 -13  221.88   32.95
   1  -4 -12    9.00    7.81
   1  -4 -12    7.58    4.63
   1  -4 -11   91.68   18.30
   1  -4 -11   83.09   12.61
   1  -4 -10   12.35    6.19
   1  -4 -10   16.63    8.61
  -1   4  10    6.41    4.75
   1  -4 -10   14.13    5.08
   1  -4  -9    3.15    4.20
   1  -4  -9    5.79    2.13
  -1   4   9   10.67    5.91
  -1   4   8  295.38   27.86
   1  -4  -8  342.39   31.20
   1  -4  -8  278.15   17.06
  -1   4   8  304.32   18.70
  -1   4   7  161.12   12.02
   1  -4  -7  189.44   22.18
  -1   4   7  161.60   19.58
  -1   4   6  878.72   25.36
   1  -4  -6  881.69   45.38
  -1   4   6  791.60   47.01
  -1   4   6  815.95   42.65
  -1   4   5  350.28   30.39
  -1   4   5  351.02   27.31
   1  -4  -5  357.45   28.14
  -1   4   5  342.62   13.34
  -1   4   5  307.62   28.45
  -1   4   4    2.30    0.95
  -1   4   4   -0.01    1.87
  -1   4   4    1.74    1.63
   1  -4  -4    2.20    0.93
  -1   4   3    4.72    3.79
  -1   4   3    1.75    2.16
   1  -4  -3    7.24    3.63
   1  -4  -2  283.15   22.22
  -1   4   2  273.04   29.67
  -1   4   2  259.09   23.44
   1  -4  -2  248.44   21.87
   1  -4  -2  258.19   18.97
  -1   4   1 1351.04   56.08
   1  -4  -1 1322.88   51.00
  -1   4   1 1334.73   23.84
   1  -4  -1 1324.11   50.99
  -1   4   1 1394.75   64.85
   1  -4   0   86.67   15.65
  -1   4   0   95.37    7.90
   1  -4   0   74.14   12.98
  -1   4   0   72.41   14.64
   1  -4   1 2663.40   80.48
  -1   4  -1 2780.88   49.51
  -1   4  -1 2671.63   84.25
   1  -4   1 2903.89   98.04
  -1   4  -2 1617.70   68.75
   1  -4   2 1620.22   66.73
  -1   4  -2 1628.32   43.55
   1  -4   3  522.94   30.73
   1  -4   3  522.17   39.77
  -1   4  -3  514.64   26.31
  -1   4  -3  499.15   40.82
  -1   4  -4  525.33   42.96
   1  -4   4  513.98   40.63
  -1   4  -4  519.16   28.18
   1  -4   4  511.35   30.71
  -1   4  -5  202.64   28.46
   1  -4   5  185.33   24.59
  -1   4  -5  215.53   18.91
   1  -4   5  178.78   18.37
   1  -4   5  222.33   28.84
   1  -4   5  210.05   20.82
  -1   4  -6   33.37    7.98
   1  -4   6   40.95   12.18
   1  -4   6   62.73   10.79
   1  -4   6   51.42   10.28
   1  -4   7  271.95   24.70
   1  -4   7  229.15   28.18
   1  -4   7  242.03   22.38
   1  -4   8  399.15   37.88
   1  -4   8  405.95   31.06
  -1   4  -9  300.09   30.07
   1  -4   9  308.77   26.03
   1  -4   9  288.65   32.20
   1  -4  10 1146.23   64.22
  -1   4 -10 1139.87   62.87
   1  -4  11  779.69   53.05
  -1   4 -11  786.66   54.05
   1  -4  12   95.56   18.61
  -1   4 -12   84.87   18.36
  -1   4 -13  282.34   34.63
   1  -4  13  332.99   35.10
   1  -4  14   34.72   11.91
  -1   4 -14   33.44   12.72
   1  -4  15  124.13   20.45
   1  -3 -15   51.56   12.02
   1  -3 -15   68.67   18.84
   1  -3 -14  143.26   29.42
   1  -3 -14  104.06   15.60
   1  -3 -13   91.12   14.81
   1  -3 -12  259.94   36.55
   1  -3 -12  225.60   22.06
   1  -3 -11 1590.09   83.03
   1  -3 -11 1352.74   52.64
   1  -3 -10   36.87    8.70
   1  -3 -10   30.98    6.48
   1  -3 -10   25.68   10.90
   1  -3  -9 1491.88   70.87
   1  -3  -9 1458.28   51.12
   1  -3  -9 1450.27   43.31
  -1   3   8  125.70   12.59
   1  -3  -8  133.96   12.28
   1  -3  -8  153.20   21.82
   1  -3  -7 1113.61   33.41
   1  -3  -7 1190.67   55.13
  -1   3   7 1110.76   34.80
  -1   3   7 1131.20   52.25
   1  -3  -6   29.79    7.94
  -1   3   6   19.05    6.43
  -1   3   6   23.02    4.58
   1  -3  -6   13.22    3.46
  -1   3   6   28.22    9.36
  -1   3   6   20.83    6.86
  -1   3   5 1400.97   52.11
  -1   3   5 1332.03   47.78
  -1   3   5 1329.28   58.78
  -1   3   5 1267.32   29.06
   1  -3  -5 1226.87   28.31
  -1   3   4 2463.98   63.46
  -1   3   4 2664.30   70.44
  -1   3   4 2429.75   33.28
   1  -3  -4 2458.79   68.25
  -1   3   4 2602.36   77.19
  -1   3   3   42.45    8.11
   1  -3  -3   44.49    9.50
  -1   3   3   59.32   10.67
  -1   3   2 3725.06   79.52
  -1   3   2 3820.41   87.49
   1  -3  -2 3885.52   73.37
   1  -3  -2 3789.78   79.89
   1  -3  -2 3848.73   61.03
   1  -3  -1  589.03   30.37
  -1   3   1  602.03   33.00
   1  -3  -1  606.40   27.34
  -1   3   1  618.52   37.93
  -1   3   0 3087.24   78.27
   1  -3   0 3132.23   75.65
  -1   3   0 3125.34   39.05
   1  -3   0 3096.38   81.01
  -1   3  -1  202.70   12.20
   1  -3   1  233.11   22.31
  -1   3  -1  210.39   21.95
  -1   3  -2 4538.71  108.16
  -1   3  -2 4355.51   65.69
   1  -3   2 4432.07   68.95
  -1   3  -3  551.95   39.92
   1  -3   3  571.00   39.06
   1  -3   3  588.14   27.63
   1  -3   3  582.21   28.72
  -1   3  -3  576.37   26.59
   1  -3   4  783.19   47.47
  -1   3  -4  746.87   32.51
   1  -3   4  744.99   33.96
  -1   3  -4  796.42   51.02
   1  -3   4  784.58   34.48
  -1   3  -5 3291.93  108.80
   1  -3   5 3394.02   75.39
   1  -3   5 3399.65  102.46
   1  -3   5 3435.05   77.17
   1  -3   5 3379.54  106.51
  -1   3  -5 3220.69   73.12
   1  -3   6  635.82   46.46
  -1   3  -6  584.90   32.24
   1  -3   6  581.05   33.42
  -1   3  -6  580.26   35.29
   1  -3   6  566.87   31.97
   1  -3   6  582.59   48.05
   1  -3   7  924.46   42.21
   1  -3   7  967.24   44.73
  -1   3  -7  908.42   46.43
   1  -3   7 1030.33   59.34
   1  -3   8  646.72   36.12
   1  -3   8  685.07   35.90
   1  -3   8  641.88   47.76
  -1   3  -8  623.69   41.22
   1  -3   9   17.67    5.50
   1  -3   9   11.26    5.14
  -1   3  -9   20.69    7.18
   1  -3   9   34.75   11.03
   1  -3  10   36.58   11.55
   1  -3  10   40.22    8.94
   1  -3  10   37.11    8.10
  -1   3 -10   43.57   13.10
   1  -3  11    2.53    4.35
  -1   3 -11    8.43    6.98
   1  -3  11   10.58    4.30
   1  -3  12    4.91    5.96
  -1   3 -12    9.87    8.20
   1  -3  13   40.92   12.02
  -1   3 -13   45.62   13.98
   1  -3  14    7.96    4.91
  -1   3 -14    6.65    4.53
   1  -3  15    3.19    4.76
   1  -3  16    3.81    3.58
   1  -2 -16    0.98    6.66
   1  -2 -16    4.67    5.20
   1  -2 -15   10.39    8.90
   1  -2 -15    4.34    5.07
   1  -2 -14   34.71   14.65
   1  -2 -14   44.44   11.81
  -1   2  13   12.35    5.78
   1  -2 -13   16.82   10.07
   1  -2 -13   20.64    7.74
   1  -2 -12   42.03   10.10
   1  -2 -11   97.49   14.48
   1  -2 -11   93.17   22.34
   1  -2 -10    9.49    6.52
   1  -2 -10   31.02    8.29
   1  -2  -9   11.91    7.98
   1  -2  -9   14.05    4.21
   1  -2  -9   25.44    7.10
   1  -2  -8   91.03   10.87
   1  -2  -8   79.60   16.30
   1  -2  -8   99.88   13.42
   1  -2  -7    1.25    2.66
   1  -2  -7    4.19    1.58
   1  -2  -7    2.15    1.44
   1  -2  -6   66.39    7.93
  -1   2   6   68.05    8.69
  -1   2   6   60.09   13.60
   1  -2  -6   85.91   14.92
   1  -2  -5   30.62    4.99
  -1   2   5   24.86    7.27
   1  -2  -5   37.10    9.47
  -1   2   4   67.80    9.02
  -1   2   4   69.11   11.85
   1  -2  -4   64.70    6.10
   1  -2  -4   78.89   12.19
  -1   2   3  175.92   13.64
  -1   2   3  202.65   19.08
   1  -2  -3  175.90   16.61
   1  -2  -3  173.89    7.68
   1  -2  -2  154.63   12.32
  -1   2   2  168.08   13.40
   1  -2  -2  152.16   14.89
  -1   2   2  171.30   12.93
   1  -2  -1    3.81    1.26
   1  -2  -1    4.87    2.35
  -1   2   1    2.31    2.15
  -1   2   1    2.57    1.91
   1  -2   0  113.80   11.35
   1  -2   0  121.84    6.82
  -1   2   0  122.20   13.59
  -1   2   0  121.01    6.49
   1  -2   0  123.46   13.49
  -1   2  -1  293.83   13.32
   1  -2   1  261.84   22.06
   1  -2   1  273.99   13.58
  -1   2  -1  315.46   24.48
  -1   2  -2 1457.41   56.54
  -1   2  -2 1394.61   34.68
   1  -2   2 1371.36   35.48
   1  -2   2 1454.54   56.03
   1  -2   3 3987.75   65.75
   1  -2   3 3953.41   66.75
  -1   2  -3 3896.12   65.77
  -1   2  -3 3926.51  101.85
   1  -2   4 3748.28  101.67
   1  -2   4 3724.21   70.25
  -1   2  -4 3689.23   69.93
   1  -2   4 3824.06  101.27
   1  -2   4 3792.53   69.98
   1  -2   5  433.10   38.42
   1  -2   5  436.00   25.77
   1  -2   5  402.19   24.65
   1  -2   5  439.83   35.81
  -1   2  -5  399.48   24.91
  -1   2  -5  412.51   24.80
   1  -2   6 2849.40   69.29
   1  -2   6 2788.83   69.18
   1  -2   6 2694.01   91.24
  -1   2  -6 2787.24   73.38
  -1   2  -6 2740.27   68.01
   1  -2   6 2805.51  106.32
  -1   2  -7  637.49   38.80
   1  -2   7  808.52   51.09
   1  -2   7  797.98   35.12
   1  -2   7  757.33   37.42
   1  -2   7  771.87   57.70
  -1   2  -7  759.80   37.72
  -1   2  -8  184.54   23.57
   1  -2   8  253.93   29.25
   1  -2   8  213.08   20.47
   1  -2   8  218.40   17.92
   1  -2   9  792.29   52.05
  -1   2  -9  625.03   45.62
  -1   2  -9  885.83   90.40
   1  -2   9  699.01   38.27
   1  -2   9  724.82   33.19
   1  -2  10    1.78    1.70
   1  -2  10    7.04    4.10
   1  -2  10    5.46    4.11
  -1   2 -10    5.35    5.61
  -1   2 -10    7.92   10.44
   1  -2  11  492.16   33.09
   1  -2  11  475.65   40.84
  -1   2 -11  455.05   42.37
  -1   2 -12    6.08    5.60
   1  -2  12   -3.68    3.01
   1  -2  12    4.23    4.89
  -1   2 -12   10.22   15.71
  -1   2 -13  640.95   50.66
   1  -2  13  558.71   36.65
   1  -2  13  634.22   48.42
   1  -2  14   37.01   10.13
  -1   2 -14   34.54   12.62
   1  -2  15  319.66   33.55
   1  -2  16   63.67   14.99
   1  -1 -16  287.44   43.54
   1  -1 -16  222.58   27.83
   1  -1 -15   25.05    9.30
   1  -1 -15   41.80   16.18
   1  -1 -14  222.61   28.03
   1  -1 -14  229.84   38.87
   1  -1 -13  133.52   20.61
   1  -1 -13  137.72   28.44
  -1   1  13  121.27   15.88
  -1   1  12  138.88   17.78
   1  -1 -12  131.51   28.55
   1  -1 -12  118.94   18.57
   1  -1 -11  255.18   38.58
   1  -1 -11  259.90   26.07
  -1   1  11  263.27   24.13
   1  -1 -10  153.09   19.46
   1  -1  -9  716.17   34.00
   1  -1  -9  771.24   61.19
   1  -1  -9  784.87   41.31
   1  -1  -8   29.67   11.31
   1  -1  -8   38.29    7.58
   1  -1  -8   26.43    7.35
   1  -1  -7 1958.94   51.47
   1  -1  -7 1956.08   60.30
  -1   1   7 1805.52   81.13
   1  -1  -7 1971.64   85.56
   1  -1  -6 1105.07   36.47
   1  -1  -6 1119.30   57.33
   1  -1  -6 1185.82   44.50
  -1   1   6 1088.81   59.80
   1  -1  -5 3861.80   62.47
   1  -1  -5 3875.31   75.65
  -1   1   5 3888.22  102.73
   1  -1  -5 3901.68   95.39
  -1   1   4 2463.65   72.49
   1  -1  -4 2410.72   66.76
   1  -1  -4 2366.48   44.32
  -1   1   3 1555.71   50.83
   1  -1  -3 1584.84   30.99
   1  -1  -3 1580.64   48.38
  -1   1   2 3907.11   70.65
  -1   1   2 3711.17   45.25
   1  -1  -2 3832.87   66.09
   1  -1  -1   18.48    4.26
   1  -1  -1   23.19    3.87
  -1   1   1   29.16    4.43
   1  -1   0 3210.78   32.57
   1  -1   0 3344.29   58.65
  -1   1   0 3387.64   58.51
  -1   1  -1 2216.07   34.64
   1  -1   1 2181.03   34.05
  -1   1  -1 2244.40   56.69
   1  -1   1 2238.15   57.13
  -1   1  -2  845.50   25.56
   1  -1   2  877.04   26.46
   1  -1   3 4771.87   60.57
   1  -1   3 4861.84   70.31
   1  -1   3 4672.76   98.77
   1  -1   3 4991.75  106.20
  -1   1  -3 4750.58   68.81
   1  -1   4  895.90   31.32
   1  -1   4  944.60   49.24
   1  -1   4  942.61   34.40
   1  -1   4  944.92   52.57
  -1   1  -4  929.20   33.36
  -1   1  -4  909.50   30.78
   1  -1   5 2045.61   74.85
   1  -1   5 1989.07   53.66
  -1   1  -5 1976.43   55.55
   1  -1   5 1982.19   47.56
  -1   1  -5 2012.54   53.25
  -1   1  -5 2210.07  101.61
   1  -1   5 2000.90   84.53
  -1   1  -6  138.85   14.55
   1  -1   6  170.50   14.05
  -1   1  -6  198.68   35.39
  -1   1  -6  162.67   19.26
   1  -1   6  178.22   26.83
   1  -1   6  156.14   22.12
   1  -1   6  155.58   15.55
  -1   1  -7  246.37   43.22
   1  -1   7  256.73   28.72
  -1   1  -7  218.53   19.32
   1  -1   7  236.02   20.09
   1  -1   7  248.35   17.58
  -1   1  -7  205.98   24.45
   1  -1   8 1127.19   45.72
  -1   1  -8 1137.57   63.64
  -1   1  -8 1230.88  102.42
   1  -1   8 1191.25   39.86
   1  -1   8 1173.10   62.82
  -1   1  -9  186.67   26.95
   1  -1   9  176.94   18.62
  -1   1  -9  186.09   40.79
   1  -1   9  194.91   25.87
  -1   1 -10   58.49   23.96
   1  -1  10   70.27   12.38
   1  -1  10   55.67   14.72
  -1   1 -10   49.72   14.75
   1  -1  11    1.97    2.16
  -1   1 -11   -0.89    4.42
   1  -1  11    6.30    3.91
  -1   1 -11   -2.47    3.21
  -1   1 -12  340.73   55.44
   1  -1  12  270.43   24.74
  -1   1 -12  226.84   30.37
   1  -1  12  257.15   29.80
  -1   1 -13  190.24   41.08
   1  -1  13  137.34   17.84
   1  -1  13  171.98   24.81
  -1   1 -13  144.98   23.78
   1  -1  14    5.33    6.61
  -1   1 -14   16.27   13.08
   1  -1  14    7.88    5.04
  -1   1 -14   22.86    9.63
   1  -1  15    2.51    5.19
  -1   1 -15   -8.76    9.08
   1  -1  16    8.17    7.07
  -1   1 -16   -3.51    9.85
   1   0 -16   15.72   11.77
   1   0 -16   -0.75    1.79
   1   0 -15   92.56   19.42
   1   0 -15  143.61   30.66
   1   0 -14    5.84    5.48
   1   0 -14    5.19    5.03
  -1   0  14    1.65    1.33
   1   0 -13  547.43   45.60
   1   0 -13  601.58   64.88
  -1   0  13  540.41   35.58
  -1   0  12   94.47   14.61
   1   0 -12  122.53   21.56
   1   0 -12  140.80   30.82
  -1   0  11   35.46    8.45
   1   0 -11   32.22   10.18
   1   0 -11   34.38   14.11
   1   0 -10    3.75    5.73
   1   0 -10   -4.60    6.68
  -1   0  10    5.03    3.78
  -1   0   9  951.69   43.38
   1   0  -9 1036.22   78.85
   1   0  -9  870.46   49.51
   1   0  -8 1248.06   46.25
   1   0  -8 1242.45   56.56
  -1   0   8 1267.83   48.38
  -1   0   7  233.89   29.82
   1   0  -7  236.80   19.07
  -1   0   7  231.70   19.95
   1   0  -7  225.29   22.99
  -1   0   6   37.18   11.91
   1   0  -6   60.46   16.08
  -1   0   6   49.89    8.79
   1   0  -6   55.09    8.54
   1   0  -6   48.32    9.82
   1   0  -5  332.78   20.21
   1   0  -5  339.39   24.71
  -1   0   5  322.67   31.44
   1   0  -5  355.86   34.97
  -1   0   4 2027.01   72.62
   1   0  -4 2186.43   75.29
   1   0  -4 2012.33   55.68
   1   0  -4 2053.84   47.05
  -1   0   4 2026.27   42.95
  -1   0   3  627.92   34.33
  -1   0   3  661.20   18.67
   1   0  -3  649.97   29.07
   1   0  -3  650.88   34.07
  -1   0   2  380.54   21.62
   1   0  -2  404.88   21.44
   1   0  -2  397.41   20.28
   1   0  -1 2975.60   48.50
   1   0  -1 3023.87   45.05
  -1   0   1 3051.43   45.99
   1   0   0  749.41   18.70
  -1   0  -1 3615.58   40.97
   1   0   1 3636.17   48.37
   1   0   1 3625.83   43.68
  -1   0  -2 1431.11   32.04
  -1   0  -2 1464.22   46.47
   1   0   2 1545.23   33.49
   1   0   2 1433.19   45.95
   1   0   3  203.12   22.77
   1   0   3  176.59   12.69
  -1   0  -3  190.94   13.53
  -1   0  -3  204.25   24.93
  -1   0  -4  438.26   45.38
   1   0   4  481.69   23.36
  -1   0  -4  477.28   23.38
  -1   0  -4  448.60   26.10
  -1   0  -5   48.53    7.90
  -1   0  -5   53.23   10.97
   1   0   5   53.90   14.63
   1   0   5   49.13    8.14
  -1   0  -5   43.44   18.05
  -1   0  -6  891.23   82.91
  -1   0  -6  947.02   51.30
   1   0   6  912.93   59.09
  -1   0  -6  880.23   36.30
   1   0   6  894.25   36.80
   1   0   7  180.64   27.02
  -1   0  -7  171.72   16.80
  -1   0  -7  220.14   26.26
  -1   0  -7  226.58   44.52
   1   0   7  212.02   19.03
   1   0   8 2283.55   93.33
  -1   0  -8 2241.41  142.45
   1   0   8 2326.08   63.95
  -1   0  -8 2363.52   90.96
   1   0   9 1565.41   54.13
  -1   0  -9 1690.93  123.96
  -1   0  -9 1720.06   79.37
  -1   0 -10  870.02   56.99
   1   0  10  897.38   41.80
  -1   0 -10  901.99   89.83
   1   0  11 1840.36   61.89
  -1   0 -11 1956.00   85.65
   1   0  11 1831.48   77.91
   1   0  12   14.31    7.42
  -1   0 -12   15.55    7.02
  -1   0 -12   11.60    5.53
   1   0  12   21.76    6.96
   1   0  13  488.96   32.97
  -1   0 -13  549.37   44.69
  -1   0 -13  657.49   73.41
   1   0  13  595.49   45.17
  -1   0 -14  309.08   49.63
   1   0  14  294.14   25.95
  -1   0 -14  296.08   31.98
   1   0  14  279.89   30.96
   1   0  15    7.23    5.61
   1   0  15   13.06    6.48
  -1   0 -16  190.01   37.21
   1   0  16  143.69   22.22
   1   1 -16   41.25   12.31
   1   1 -16  102.21   26.28
   1   1 -15    9.13   10.56
   1   1 -15   13.01    9.43
  -1  -1  14  273.56   24.92
   1   1 -14  242.02   31.74
  -1  -1  13  381.68   28.80
   1   1 -13  459.82   57.28
   1   1 -13  387.98   39.92
   1   1 -12  279.23   34.34
  -1  -1  12  290.00   25.38
   1   1 -12  297.81   46.49
  -1  -1  11 1454.57   57.74
   1   1 -11 1699.91  111.63
   1   1 -11 1585.78   81.28
   1   1 -10   18.92    8.76
  -1  -1  10   13.19    5.69
   1   1 -10   17.18   14.93
  -1  -1   9 1679.92   58.94
   1   1  -9 1685.90  110.16
   1   1  -9 1842.34   85.10
   1   1  -8  379.35   52.12
  -1  -1   8  297.14   25.04
   1   1  -8  311.66   35.34
   1   1  -8  315.11   24.24
  -1  -1   8  318.46   25.12
   1   1  -7 1057.10   84.51
   1   1  -7 1107.35   62.77
  -1  -1   7 1085.92   47.20
  -1  -1   7 1127.91   66.29
  -1  -1   7 1132.73   45.28
   1   1  -7 1057.48   42.82
  -1  -1   6  458.69   27.47
  -1  -1   6  476.69   42.57
   1   1  -6  452.99   38.37
  -1  -1   6  439.50   29.70
   1   1  -6  493.26   56.45
   1   1  -6  417.21   25.87
  -1  -1   5 1000.91   44.26
   1   1  -5 1026.03   76.77
  -1  -1   5 1028.05   61.21
   1   1  -5  959.49   37.90
  -1  -1   5  968.12   36.65
   1   1  -5  962.94   54.26
  -1  -1   4  842.95   53.07
   1   1  -4  784.47   31.59
  -1  -1   4  759.12   29.26
  -1  -1   4  741.26   37.30
   1   1  -4  795.37   47.70
   1   1  -4  837.30   64.81
  -1  -1   3  754.48   36.05
   1   1  -3  680.79   26.72
  -1  -1   3  701.26   24.25
  -1  -1   3  745.90   47.65
   1   1  -3  793.99   57.55
   1   1  -3  701.71   42.30
  -1  -1   2 4147.90   50.70
  -1  -1   2 4128.21   99.86
   1   1  -2 4192.57   98.59
  -1  -1   2 4307.05   84.55
   1   1  -2 4126.24   54.34
   1   1  -1  701.93   20.50
  -1  -1   1  629.90   30.83
   1   1  -1  700.42   35.54
  -1  -1   1  731.35   33.62
   1   1  -1  663.53   33.97
   1   1   0 6081.88  106.54
  -1  -1   0 5987.07   82.42
   1   1   0 5911.35   76.97
  -1  -1  -1 1253.82   42.71
  -1  -1  -1 1257.57   27.33
   1   1   1 1241.78   24.77
   1   1   1 1266.22   47.99
  -1  -1  -2 1262.78   35.75
   1   1   2 1309.16   30.51
   1   1   2 1232.72   34.77
  -1  -1  -2 1298.02   51.16
   1   1   2 1335.52   42.85
   1   1   3  308.01   16.41
   1   1   3  326.91   21.58
   1   1   3  280.05   22.27
  -1  -1  -3  323.71   17.19
   1   1   4   28.57    8.19
   1   1   4   37.19    7.76
   1   1   4   27.27    5.44
  -1  -1  -4   29.84    5.91
   1   1   5 1296.60   58.91
  -1  -1  -5 1351.49   32.37
  -1  -1  -5 1222.04   84.96
  -1  -1  -5 1426.64   42.37
   1   1   5 1337.89   40.69
   1   1   6  746.05   32.15
   1   1   6  773.31   48.63
  -1  -1  -6  734.17   27.71
  -1  -1  -6  778.96   33.13
  -1  -1  -6  862.71   75.31
  -1  -1  -7  396.34   25.08
   1   1   7  393.62   36.27
  -1  -1  -7  405.27   23.01
   1   1   7  430.07   25.72
  -1  -1  -7  408.28   54.60
   1   1   8  253.24   20.56
  -1  -1  -8  254.70   20.73
  -1  -1  -8  232.29   19.69
  -1  -1  -8  269.09   45.17
   1   1   8  254.30   29.89
  -1  -1  -9    8.78    9.44
   1   1   9    4.69    2.75
  -1  -1  -9    1.03    1.98
  -1  -1 -10   52.46   11.39
  -1  -1 -10   62.10   24.87
   1   1  10   63.97   10.81
  -1  -1 -11    7.36    9.23
  -1  -1 -11    6.43    4.77
   1   1  11    1.38    2.27
   1   1  12   93.22   13.97
  -1  -1 -12   70.76   23.72
  -1  -1 -12   80.49   15.53
  -1  -1 -13   67.04   22.53
   1   1  13   59.66   11.09
  -1  -1 -13   55.83   13.21
   1   1  14   40.63    9.58
  -1  -1 -14   15.77    9.82
  -1  -1 -14   28.17    9.50
   1   1  14   27.95    9.24
   1   1  15   44.18   10.16
   1   1  15   44.40   11.98
  -1  -1 -15   62.41   21.99
  -1  -1 -16   18.40    9.92
   1   1  16    5.56    4.80
   1   1  16    9.69    4.89
   1   2 -16    2.18    4.18
   1   2 -16   11.16   11.76
   1   2 -15   34.64   15.14
   1   2 -15   29.69   11.44
   1   2 -14   69.81   18.11
   1   2 -14   84.99   24.24
  -1  -2  14   37.57    9.53
   1   2 -13   41.73   13.95
   1   2 -13   32.12   15.96
  -1  -2  13   26.61    7.76
   1   2 -12    5.01    4.67
  -1  -2  12    1.97    1.53
   1   2 -12    9.56   13.15
  -1  -2  11    8.53    5.33
   1   2 -11   12.72    7.93
   1   2 -11   -4.93    7.57
  -1  -2  10   54.51   10.79
   1   2 -10   79.86   20.92
   1   2 -10   66.62   22.92
  -1  -2   9   93.33   14.04
   1   2  -9  104.46   28.36
   1   2  -9  103.87   22.85
   1   2  -8   -3.99    4.50
   1   2  -8    1.63    4.69
  -1  -2   8    1.01    1.31
  -1  -2   8    7.10    3.82
  -1  -2   7  159.94   17.27
  -1  -2   7  171.18   27.53
   1   2  -7  166.40   17.95
  -1  -2   7  139.46   17.48
   1   2  -7  158.35   34.99
   1   2  -7  169.95   29.46
   1   2  -6    7.99    3.39
   1   2  -6   21.88    9.52
  -1  -2   6    4.30    2.59
  -1  -2   6    6.09    3.29
   1   2  -6    6.47    9.88
  -1  -2   6    6.06    4.28
  -1  -2   5  244.98   23.02
   1   2  -5  260.13   39.77
   1   2  -5  232.65   22.95
   1   2  -5  220.90   18.73
  -1  -2   5  246.42   20.64
  -1  -2   5  266.08   32.28
   1   2  -5  221.70   31.33
  -1  -2   4  468.05   26.27
   1   2  -4  449.20   29.06
   1   2  -4  436.68   41.25
  -1  -2   4  476.16   33.10
   1   2  -4  408.64   44.96
   1   2  -3  504.69   27.51
  -1  -2   3  492.55   25.19
  -1  -2   3  544.43   40.91
   1   2  -3  548.47   42.96
  -1  -2   3  560.55   36.15
   1   2  -3  542.89   41.44
   1   2  -2  587.53   37.22
   1   2  -2  564.18   26.78
  -1  -2   2  594.98   34.37
  -1  -2   2  610.27   26.16
  -1  -2   2  548.69   34.55
   1   2  -2  603.86   35.57
  -1  -2   1 2614.93   55.63
  -1  -2   1 2655.24   64.22
   1   2  -1 2778.72   56.52
  -1  -2   1 2836.81   55.91
   1   2  -1 2647.99   65.87
   1   2   0  852.72   30.39
   1   2   0  927.44   51.76
  -1  -2   0  829.24   31.44
   1   2   0  804.40   30.80
   1   2   1  775.48   48.20
  -1  -2  -1  766.10   26.64
  -1  -2  -1  756.02   19.94
  -1  -2  -2 4390.23   58.57
   1   2   2 4225.95   58.58
  -1  -2  -2 4271.84   88.96
  -1  -2  -3    0.51    1.44
   1   2   3    0.41    1.15
   1   2   3    2.02    1.13
  -1  -2  -3    1.04    1.00
   1   2   3    1.41    2.29
   1   2   4 3122.98   70.72
  -1  -2  -4 3205.96   79.56
   1   2   4 3218.32   56.95
   1   2   4 3342.49   84.58
  -1  -2  -5    8.25    3.71
   1   2   5   11.17    5.16
  -1  -2  -5    5.27    5.03
   1   2   5   14.61    6.14
   1   2   5    7.58    3.68
  -1  -2  -6 5912.49  149.51
  -1  -2  -6 6019.45   91.46
   1   2   6 5689.21   87.01
   1   2   6 5650.96  118.34
   1   2   6 5902.90  118.03
   1   2   7  387.91   33.62
  -1  -2  -7  415.79   44.51
   1   2   7  391.83   23.64
   1   2   7  417.23   32.81
  -1  -2  -7  418.34   21.18
  -1  -2  -7  402.32   24.63
   1   2   8 2187.07   58.40
  -1  -2  -8 2127.56   51.72
  -1  -2  -8 2187.27   59.99
   1   2   8 2079.08   80.87
  -1  -2  -9  860.11   35.11
   1   2   9  970.41   40.36
   1   2  10  178.15   18.06
  -1  -2 -10  170.96   34.33
  -1  -2 -10  137.74   14.85
  -1  -2 -11  204.80   19.79
  -1  -2 -11  255.30   41.56
   1   2  11  249.99   21.48
  -1  -2 -12  255.72   23.91
  -1  -2 -12  315.62   47.21
   1   2  12  304.83   24.07
  -1  -2 -13  393.94   53.05
   1   2  13  358.26   26.70
  -1  -2 -13  289.68   26.82
   1   2  14   71.06   12.22
  -1  -2 -14   86.29   24.28
  -1  -2 -14   47.43   11.04
  -1  -2 -15  508.26   58.64
   1   2  15  453.52   30.85
  -1  -2 -16  126.24   29.10
   1   2  16  122.16   20.38
   1   2  16  134.65   17.31
   1   3 -15   46.36   15.35
   1   3 -15   55.89   22.73
  -1  -3  14  280.58   26.27
   1   3 -14  334.31   41.09
   1   3 -13  248.67   44.88
  -1  -3  13  199.49   21.58
   1   3 -13  240.28   34.57
  -1  -3  12  260.65   24.93
   1   3 -12  297.09   40.29
   1   3 -12  316.90   49.43
   1   3 -11  135.87   27.57
  -1  -3  11   91.40   15.23
   1   3 -11  130.08   33.02
  -1  -3  10  429.17   32.36
   1   3 -10  506.29   53.52
   1   3 -10  513.36   63.47
  -1  -3   9  764.20   42.57
   1   3  -9  988.73   74.48
   1   3  -9  897.00   82.96
  -1  -3   8  230.31   23.03
   1   3  -8  286.21   46.28
   1   3  -8  206.40   34.67
  -1  -3   7 2957.21   81.62
   1   3  -7 3157.67  129.08
   1   3  -7 3031.83  144.13
  -1  -3   7 3029.57   83.13
  -1  -3   6 8456.58  133.19
   1   3  -6 8282.36  155.80
   1   3  -6 8622.39  227.70
   1   3  -6 8279.08  200.98
   1   3  -6 8528.36  129.48
  -1  -3   6 8622.16  144.42
   1   3  -5 1039.83   51.78
   1   3  -5 1007.44   71.63
  -1  -3   5  971.56   61.60
   1   3  -5 1008.15   65.54
  -1  -3   5  915.14   42.13
   1   3  -5 1019.83   43.27
  -1  -3   5  998.99   50.96
   1   3  -4 4627.59  101.93
  -1  -3   4 4719.07   92.17
   1   3  -4 4697.04  129.43
  -1  -3   4 4606.71  125.14
  -1  -3   4 4645.64  108.05
   1   3  -3    4.92    4.59
   1   3  -3   -0.32    2.48
  -1  -3   3   -2.51    3.30
  -1  -3   3    3.48    3.65
  -1  -3   3    2.13    1.93
   1   3  -2  130.98   15.24
  -1  -3   2  137.44   14.39
  -1  -3   2  151.24   17.11
  -1  -3   2  135.68   16.28
   1   3  -2  121.55   16.26
   1   3  -1   11.22    4.46
  -1  -3   1   10.14    4.35
   1   3  -1   10.03    4.33
  -1  -3   1   12.20    4.86
   1   3   0   -0.78    2.74
  -1  -3   0    3.55    1.81
   1   3   0    4.15    2.54
  -1  -3   0    0.83    1.84
  -1  -3   0    3.64    5.50
   1   3   1  118.54   13.60
   1   3   1  130.35   22.91
  -1  -3  -1  123.29   20.71
  -1  -3  -2  197.79   14.24
   1   3   2  208.79   27.27
  -1  -3  -2  205.15   23.44
   1   3   3  698.55   30.53
  -1  -3  -3  659.85   36.23
  -1  -3  -3  664.60   28.92
   1   3   3  720.43   47.94
   1   3   4   51.03    7.12
   1   3   4   55.37    9.97
  -1  -3  -4   52.22    9.92
  -1  -3  -4   40.69    8.35
   1   3   4   69.98   15.06
   1   3   5  855.72   40.90
   1   3   5  900.65   31.46
   1   3   5  985.24   54.31
  -1  -3  -5  897.62   42.05
  -1  -3  -6    2.44    1.71
   1   3   6    4.24    2.07
   1   3   6    6.05    5.55
   1   3   6    1.85    1.98
  -1  -3  -7  685.52   31.04
  -1  -3  -7  696.47   46.86
   1   3   7  741.23   31.53
   1   3   7  683.70   42.06
  -1  -3  -8   39.28   12.53
  -1  -3  -8   18.45    5.25
   1   3   8   31.18    6.56
   1   3   9    7.95    3.31
  -1  -3  -9    6.94    3.33
  -1  -3  -9    3.88    6.45
  -1  -3 -10   27.26    6.06
   1   3  10   33.81    7.54
  -1  -3 -11  101.26   12.55
   1   3  11  145.72   15.79
  -1  -3 -11  128.05   27.10
  -1  -3 -12    4.90    3.57
  -1  -3 -12    1.35    4.66
   1   3  12   13.63    5.09
  -1  -3 -13   29.23    7.70
  -1  -3 -13   20.61   11.78
   1   3  13   40.74    8.74
   1   3  14   62.54   11.11
  -1  -3 -14   30.88   16.22
  -1  -3 -14   32.74    8.58
   1   3  15   37.42    9.21
  -1  -3 -15   28.41   14.13
  -1  -3 -16   57.60   20.10
   1   3  16   25.30    7.19
   1   4 -15   49.26   16.65
  -1  -4  14    1.41    2.09
   1   4 -14   26.55   12.91
  -1  -4  13   32.36    9.53
   1   4 -13   27.66   14.47
  -1  -4  12    8.86    5.53
   1   4 -12    4.69    6.11
  -1  -4  11    2.41    3.23
   1   4 -11   -3.53    8.07
  -1  -4  10  112.76   16.97
   1   4 -10  140.26   31.21
  -1  -4   9   41.25    9.61
   1   4  -9   41.18   16.56
   1   4  -8  576.24   58.24
  -1  -4   8  525.40   36.07
   1   4  -7    2.66    5.67
  -1  -4   7    3.02    3.63
   1   4  -7    1.79    6.20
   1   4  -6  817.35   50.36
  -1  -4   6  824.24   43.96
  -1  -4   6  792.20   47.15
   1   4  -6  750.16   58.21
  -1  -4   6  790.12   56.84
  -1  -4   5 1029.18   47.61
   1   4  -5 1039.58   45.34
   1   4  -5  958.79   60.58
  -1  -4   5 1016.03   61.60
  -1  -4   5  980.22   51.61
   1   4  -5 1017.98   54.96
   1   4  -4   23.79    7.40
  -1  -4   4   31.18    7.60
   1   4  -4   41.38   11.71
  -1  -4   4   30.11    8.47
  -1  -4   4   24.38    9.35
  -1  -4   3 1473.55   61.75
   1   4  -3 1490.21   64.24
  -1  -4   3 1538.89   60.71
  -1  -4   3 1527.55   55.49
   1   4  -3 1456.02   60.11
   1   4  -2 1077.17   50.42
  -1  -4   2 1085.12   49.11
  -1  -4   2 1072.91   45.70
   1   4  -2 1038.42   48.92
   1   4  -1  323.34   26.38
  -1  -4   1  357.90   43.34
  -1  -4   1  301.52   24.40
  -1  -4   1  333.21   25.19
  -1  -4   0  893.60   41.31
  -1  -4   0  802.08   62.85
   1   4   0  837.61   41.86
  -1  -4   0  782.50   37.44
   1   4   1 1884.43   92.65
   1   4   1 1798.44   60.54
  -1  -4  -1 1793.10   87.18
  -1  -4  -2 1524.52   72.39
   1   4   2 1490.83   83.58
  -1  -4  -2 1474.62   44.52
   1   4   2 1532.62   57.33
  -1  -4  -3 1093.43   39.57
  -1  -4  -3 1051.75   53.59
   1   4   3 1044.90   67.67
   1   4   4 2493.53   49.90
  -1  -4  -4 2501.02   64.02
   1   4   4 2647.35  102.42
  -1  -4  -4 2515.99   73.67
   1   4   4 2581.78   67.05
  -1  -4  -5  380.21   26.45
  -1  -4  -5  347.66   26.40
   1   4   5  378.61   20.10
   1   4   5  394.18   28.16
   1   4   5  366.10   37.40
  -1  -4  -6 1926.23   64.36
   1   4   6 1840.96   83.77
   1   4   6 2007.36   48.29
   1   4   6 1983.25   67.24
  -1  -4  -7 1375.78   59.19
   1   4   7 1389.54   41.60
   1   4   7 1312.48   58.03
  -1  -4  -8  841.35   50.80
   1   4   8  901.20   34.90
   1   4   9 1158.83   41.58
  -1  -4  -9 1085.73   63.46
   1   4  10   92.72   12.24
  -1  -4 -10   83.28   19.13
   1   4  11  605.86   31.73
  -1  -4 -11  604.67   54.73
  -1  -4 -11  514.72   28.11
  -1  -4 -12   52.39    8.83
   1   4  12   82.96   12.01
   1   4  13  282.40   22.63
  -1  -4 -13  290.00   41.19
  -1  -4 -13  203.02   18.65
   1   4  14  144.89   16.07
  -1  -4 -14  139.01   28.67
  -1  -4 -14   90.69   13.05
   1   4  15   31.53    8.03
  -1  -4 -15   45.76   16.31
   1   5 -15   -1.38    4.73
  -1  -5  14   62.50   12.79
   1   5 -14  121.86   27.46
  -1  -5  13  131.22   18.61
   1   5 -13  171.43   31.47
   1   5 -12   61.86   19.05
  -1  -5  12   46.66   11.98
  -1  -5  11  981.11   51.30
   1   5 -11 1095.02   82.99
   1   5 -10   -3.57    2.73
  -1  -5  10    5.03    3.15
  -1  -5   9 1051.03   52.83
   1   5  -9  962.48   76.85
  -1  -5   8  374.11   31.28
   1   5  -8  363.04   45.66
   1   5  -7  390.55   43.86
  -1  -5   7  437.44   33.98
   1   5  -6  547.16   44.85
  -1  -5   6  521.46   36.10
   1   5  -6  560.85   49.47
  -1  -5   5  214.45   22.83
  -1  -5   5  195.40   23.39
   1   5  -5  233.80   29.38
   1   5  -5  214.24   26.03
  -1  -5   5  244.66   29.74
   1   5  -4  295.38   30.04
  -1  -5   4  298.18   29.85
  -1  -5   4  295.50   26.69
  -1  -5   4  283.06   27.24
   1   5  -4  267.71   29.79
  -1  -5   3  190.42   20.78
   1   5  -3  221.42   25.58
   1   5  -3  182.28   23.09
  -1  -5   3  178.80   21.23
   1   5  -2 1137.86   56.10
  -1  -5   2 1093.56   49.81
  -1  -5   2 1138.63   51.20
  -1  -5   1  267.17   24.17
   1   5  -1  284.80   27.63
  -1  -5   1  192.84   34.44
  -1  -5   1  238.37   22.95
  -1  -5   0 1995.02   66.70
   1   5   0 1971.36   71.08
  -1  -5   0 2028.20   65.28
  -1  -5   0 2006.69  106.29
   1   5   1 2491.24   78.56
  -1  -5  -1 2443.00  108.65
   1   5   1 2483.77  114.68
   1   5   2   62.94   11.84
   1   5   2   51.86   16.35
  -1  -5  -2   53.09    8.85
  -1  -5  -2   66.37   15.54
  -1  -5  -3   42.88   11.47
   1   5   3   35.16    9.32
  -1  -5  -3   43.95    8.63
   1   5   3   27.17   12.52
  -1  -5  -4   63.39   12.69
   1   5   4   58.41   12.25
  -1  -5  -4   68.09   10.87
   1   5   4   60.62   18.04
  -1  -5  -5  628.86   34.83
   1   5   5  625.42   26.16
   1   5   5  568.17   52.50
  -1  -5  -5  560.16   35.45
   1   5   6   84.55   10.00
   1   5   6   54.53   11.21
  -1  -5  -6   74.61   12.81
  -1  -5  -7    6.14    4.83
   1   5   7    7.20    3.60
  -1  -5  -8   43.02   11.21
   1   5   8   40.63    6.81
   1   5   9    3.51    3.07
  -1  -5  -9   -2.35    2.76
   1   5  10   76.75   10.44
  -1  -5 -10   88.96   18.32
  -1  -5 -11   13.16    8.43
   1   5  11    2.84    2.25
   1   5  12  169.35   16.76
  -1  -5 -12  140.79   14.69
  -1  -5 -12  188.15   31.08
   1   5  13  234.73   19.76
  -1  -5 -13  159.64   16.18
  -1  -5 -14  132.19   28.63
  -1  -5 -14  101.77   12.98
   1   5  14  142.65   15.37
   1   5  15  199.15   18.83
  -1  -5 -15  179.74   33.46
  -1  -6  14    5.61    4.68
   1   6 -14    9.41    8.49
   1   6 -13    5.91    9.48
  -1  -6  13    4.56    3.28
  -1  -6  12   -1.02    3.79
   1   6 -12    8.69    8.79
  -1  -6  11   19.93    7.42
   1   6 -11   45.76   16.88
   1   6 -10   21.59   11.68
  -1  -6  10   20.12    7.47
  -1  -6   9   84.83   15.42
   1   6  -9   80.93   23.16
   1   6  -8   23.82   13.37
  -1  -6   8   31.99    9.11
   1   6  -7  278.60   37.22
  -1  -6   7  259.51   26.83
  -1  -6   6   89.42   15.59
   1   6  -6   96.71   20.63
  -1  -6   5  698.09   43.66
   1   6  -5  687.51   51.27
  -1  -6   4 2529.60   81.28
  -1  -6   4 2422.24   88.45
   1   6  -4 2455.23   92.22
   1   6  -3 2638.38   93.92
  -1  -6   3 2764.43   84.31
  -1  -6   2  146.97   31.85
   1   6  -2  164.71   22.99
  -1  -6   2  165.24   20.68
  -1  -6   2  182.42   21.06
  -1  -6   1 2027.81   71.12
   1   6  -1 1921.10   77.51
  -1  -6   1 1896.94   68.08
  -1  -6   1 2061.48  116.78
  -1  -6   0 3351.45   91.40
  -1  -6   0 3464.04  145.63
   1   6   0 3409.74  102.12
  -1  -6   0 3257.46   88.09
   1   6   1    9.33    5.35
   1   6   1    5.22    4.31
  -1  -6  -1    6.62    7.18
   1   6   2 4167.75  110.84
  -1  -6  -2 4147.70  135.54
   1   6   2 4355.57  157.97
  -1  -6  -3  465.00   41.32
   1   6   3  485.67   53.82
   1   6   3  512.40   37.96
  -1  -6  -3  465.34   29.70
  -1  -6  -4 1605.50   55.63
  -1  -6  -4 1539.90   67.88
  -1  -6  -5  441.86   29.82
   1   6   5  438.64   22.20
  -1  -6  -5  431.76   33.22
   1   6   6  768.75   29.16
  -1  -6  -6  759.57   42.33
  -1  -6  -6  733.85   39.93
   1   6   7  167.26   13.83
  -1  -6  -7  149.59   19.00
  -1  -6  -8  743.22   43.75
   1   6   8  787.37   30.59
  -1  -6  -9  123.31   18.83
   1   6   9  125.30   12.88
  -1  -6 -10   72.25   16.12
   1   6  10   56.81    8.87
   1   6  11  372.64   23.38
  -1  -6 -11  291.91   34.20
   1   6  12  189.53   17.09
  -1  -6 -12  233.38   32.23
   1   6  13  281.65   21.04
  -1  -6 -13  209.49   18.03
  -1  -6 -13  256.41   36.65
   1   6  14  185.65   17.47
  -1  -6 -14  133.38   14.72
  -1  -6 -15   62.80   19.37
   1   7 -14  221.60   39.18
  -1  -7  14  116.39   17.93
   1   7 -13  168.97   34.58
  -1  -7  13  150.82   20.30
   1   7 -12   97.17   26.78
  -1  -7  12   92.44   16.06
  -1  -7  11  407.82   34.57
   1   7 -11  353.10   49.90
  -1  -7  10    7.48    4.58
   1   7 -10    0.80    5.41
  -1  -7   9  223.38   25.35
   1   7  -9  173.41   33.19
  -1  -7   8  218.57   25.47
   1   7  -8  227.57   36.38
  -1  -7   7  117.17   18.30
  -1  -7   6  952.29   53.00
  -1  -7   5  184.78   22.89
  -1  -7   4 1459.56   63.99
  -1  -7   3   13.72    6.86
  -1  -7   3   11.71    6.23
  -1  -7   2  191.57   22.72
  -1  -7   2  160.68   35.76
  -1  -7   1   43.10   10.62
  -1  -7   1   32.08   15.71
  -1  -7   0    0.11    1.32
  -1  -7   0   -1.58    1.79
  -1  -7  -1   97.32   22.93
  -1  -7  -2   49.74   16.82
  -1  -7  -3   29.41   10.14
  -1  -7  -3   20.16    6.70
  -1  -7  -4    3.57    4.47
  -1  -7  -4    8.74    5.50
  -1  -7  -5  150.96   20.08
  -1  -7  -5  158.38   18.31
   1   7   5  149.95   12.56
   1   7   6   15.75    4.27
  -1  -7  -6    6.57    5.19
  -1  -7  -6    7.24    3.72
   1   7   7   13.14    3.63
  -1  -7  -7   12.41    5.20
  -1  -7  -8   56.12   12.20
   1   7   8   52.76    7.85
   1   7   9   82.25    9.88
  -1  -7  -9   86.58   15.81
   1   7  10  229.36   16.80
  -1  -7 -10  228.93   27.20
   1   7  11    2.86    1.49
  -1  -7 -11    8.10    6.72
   1   7  12  111.06   12.55
  -1  -7 -12  101.82   20.00
  -1  -7 -13  116.63   23.10
  -1  -7 -13   87.36   11.81
  -1  -7 -14   15.74    5.63
  -1  -7 -14   15.58    9.36
  -1  -8  13   -1.15    3.81
  -1  -8  12   83.44   15.94
  -1  -8  11   32.64   10.34
  -1  -8  10  288.51   29.88
  -1  -8   9   63.58   13.97
  -1  -8   8  223.54   26.28
  -1  -8   7  184.47   23.58
  -1  -8   6  166.96   22.56
  -1  -8   5  667.40   44.74
  -1  -8   4   19.76    8.06
  -1  -8   4   24.96   14.17
  -1  -8   3  879.01   86.28
  -1  -8   3  863.56   49.95
  -1  -8   2  453.33   35.95
  -1  -8   2  432.46   60.33
  -1  -8   1  188.15   22.65
  -1  -8   1  162.31   34.60
  -1  -8   0 1037.22   83.22
  -1  -8   0 1069.08   54.90
  -1  -8  -1  249.66   38.12
  -1  -8  -2  973.61   69.55
  -1  -8  -3  723.02   55.03
  -1  -8  -3  704.43   40.03
  -1  -8  -4 1607.69   60.60
  -1  -8  -4 1536.63   74.23
  -1  -8  -5  195.77   21.53
  -1  -8  -5  165.73   22.40
   1   8   6  543.10   24.45
  -1  -8  -6  529.78   37.63
  -1  -8  -6  516.80   34.98
   1   8   7 1804.23   44.21
  -1  -8  -7 1899.15   68.89
  -1  -8  -8    9.61    5.71
   1   8   8    9.06    3.13
   1   8   9  593.77   26.02
  -1  -8  -9  577.08   40.31
  -1  -8 -10    2.29    3.63
   1   8  10    1.23    1.85
  -1  -8 -11  200.94   26.45
   1   8  11  161.74   13.85
  -1  -8 -12   18.29    8.95
  -1  -8 -13  101.10   20.91
  -1  -9  12    1.36    3.02
  -1  -9  11  154.35   21.87
  -1  -9  10   -3.60    5.67
  -1  -9   9  474.88   38.71
  -1  -9   8   24.47    8.77
  -1  -9   7  197.45   24.97
  -1  -9   6   11.85    6.36
  -1  -9   5   38.04   10.94
  -1  -9   5   24.86   12.18
  -1  -9   4  106.71   17.86
  -1  -9   4  112.67   32.31
  -1  -9   3   91.05   16.45
  -1  -9   3   77.60   26.62
  -1  -9   2  511.57   65.60
  -1  -9   2  576.71   41.87
  -1  -9   1  490.80   61.99
  -1  -9   1  605.57   42.74
  -1  -9   0  164.22   22.28
  -1  -9   0  152.27   32.96
  -1  -9  -1  127.02   27.84
  -1  -9  -2    1.13    2.50
  -1  -9  -3  266.33   33.85
  -1  -9  -3  263.96   25.27
  -1  -9  -4    2.03    4.55
  -1  -9  -4    7.04    4.64
  -1  -9  -5  568.43   37.09
  -1  -9  -5  592.26   43.47
   1   9   6  140.23   12.50
  -1  -9  -6  148.81   19.23
  -1  -9  -6  154.96   21.20
  -1  -9  -7  152.94   20.23
   1   9   7  122.69   11.15
  -1  -9  -7  163.84   21.36
  -1  -9  -8  259.61   26.64
   1   9   8  211.13   14.62
  -1  -9  -9   21.00    7.46
   1   9   9   17.05    4.27
  -1  -9 -10    1.44    2.88
  -1  -9 -11   92.41   18.08
  -1  -9 -12   -0.01    3.15
  -1 -10  11    4.00    4.09
  -1 -10  10   49.46   11.73
  -1 -10   9    3.79    4.92
  -1 -10   8  193.27   25.06
  -1 -10   7  500.46   40.73
  -1 -10   7  507.93   70.09
  -1 -10   6   10.91    6.11
  -1 -10   6    6.17    9.28
  -1 -10   5 1224.86  110.04
  -1 -10   5 1372.20   66.77
  -1 -10   4   30.27    9.37
  -1 -10   4   12.47   11.57
  -1 -10   3  662.77   45.90
  -1 -10   3  655.40   76.40
  -1 -10   2   10.77    6.43
  -1 -10   2   21.41   13.98
  -1 -10   1  289.85   47.31
  -1 -10   1  280.56   30.10
  -1 -10   0  397.30   52.21
  -1 -10   0  386.90   34.49
  -1 -10  -1   66.74   19.79
  -1 -10  -2  874.56   67.53
  -1 -10  -2  870.73   47.47
  -1 -10  -3  116.65   17.39
  -1 -10  -3   83.92   19.13
  -1 -10  -4  548.57   45.63
  -1 -10  -4  554.43   37.52
  -1 -10  -5  228.64   23.91
  -1 -10  -5  210.89   26.06
   1  10   6  253.89   16.63
  -1 -10  -6  275.14   28.41
  -1 -10  -6  264.54   25.67
   1  10   7  246.43   15.52
  -1 -10  -7  252.85   25.49
  -1 -10  -7  249.87   26.78
  -1 -10  -8  106.43   16.84
  -1 -10  -9  231.55   25.81
  -1 -10 -10   -3.03    1.44
  -1 -10 -11  141.15   22.10
  -1 -11   9   10.04    6.51
  -1 -11   9    1.00    3.35
  -1 -11   8   74.28   28.53
  -1 -11   8   84.75   16.83
  -1 -11   7   19.74    8.38
  -1 -11   7    9.35   10.09
  -1 -11   6   31.95   10.30
  -1 -11   6   22.24   11.81
  -1 -11   5    0.05    3.14
  -1 -11   5   -8.88   10.70
  -1 -11   4   56.12   23.78
  -1 -11   4   48.75   13.33
  -1 -11   3    3.83    3.47
  -1 -11   3    4.05    5.55
  -1 -11   2  143.70   21.40
  -1 -11   2  130.14   32.76
  -1 -11   1    3.81    3.34
  -1 -11   1   20.20   14.49
  -1 -11   0    9.03    9.31
  -1 -11  -1  104.38   25.34
  -1 -11  -2    2.34    2.43
  -1 -11  -2    5.45    6.00
  -1 -11  -3  133.32   24.15
  -1 -11  -3  157.75   20.25
  -1 -11  -4    4.59    5.51
  -1 -11  -4    6.08    4.70
  -1 -11  -5   28.42    8.95
  -1 -11  -5   24.23    9.07
  -1 -11  -6   -0.66    1.57
  -1 -11  -6    3.80    4.73
  -1 -11  -7    3.88    4.36
  -1 -11  -7    0.02    2.20
  -1 -11  -8  102.13   16.97
  -1 -11  -9   38.27   10.63
  -1 -11 -10  451.43   37.74
  -1 -12   8   43.25   26.11
  -1 -12   8   54.19   13.99
  -1 -12   7   68.42   15.37
  -1 -12   7   51.92   23.31
  -1 -12   6   14.03    7.25
  -1 -12   6    5.00    7.93
  -1 -12   5  140.52   22.00
  -1 -12   5   91.86   33.38
  -1 -12   4   15.38    7.31
  -1 -12   4   16.35   12.79
  -1 -12   3  261.55   30.23
  -1 -12   3  160.51   38.51
  -1 -12   2  160.02   23.14
  -1 -12   2  173.35   39.43
  -1 -12   1  337.57   51.27
  -1 -12   0  385.42   51.64
  -1 -12  -1  196.12   33.47
  -1 -12  -2  553.22   53.57
  -1 -12  -2  579.90   41.28
  -1 -12  -3   -5.51    8.32
  -1 -12  -3    4.19    2.15
  -1 -12  -4  201.51   23.43
  -1 -12  -4  204.40   28.25
  -1 -12  -5  138.99   21.77
  -1 -12  -5  153.89   20.81
  -1 -12  -6   27.68    8.31
  -1 -12  -6   18.07    7.37
  -1 -12  -7  398.95   33.49
  -1 -12  -7  391.99   34.02
  -1 -12  -8    1.25    4.28
  -1 -13   5   18.01   10.30
  -1 -13   5   13.07    6.00
  -1 -13   4    1.33    2.62
  -1 -13   4   19.46   15.34
  -1 -13   3   51.77   20.06
  -1 -13   3   71.60   15.88
  -1 -13   2   95.42   18.17
  -1 -13   2   51.78   19.83
  -1 -13   1    2.89    6.43
  -1 -13   0    4.76    7.89
  -1 -13  -1   39.01   11.35
  -1 -13  -1   29.30   15.22
  -1 -13  -2   70.48   18.39
  -1 -13  -2   82.09   16.33
  -1 -13  -3   29.87   10.43
  -1 -13  -3   36.55   12.20
  -1 -13  -4   38.87   11.80
  -1 -13  -4   46.54   11.70
  -1 -13  -5   32.11   10.79
  -1 -13  -5   33.15    9.90
  -1 -13  -6   50.22   12.18
  -1 -13  -6   43.01   11.02
   2 -12  -5  244.80   28.33
   2 -12  -4  205.23   26.44
   2 -12  -3    9.66    6.17
   2 -12  -2   28.30    9.72
   2 -12  -1    4.54    4.77
   2 -12  -1    1.26    4.70
   2 -12   0   46.90   13.28
   2 -12   1   15.73    7.24
   2 -12   2  301.79   34.25
   2 -12   3  173.29   25.99
   2 -12   4  190.89   27.73
   2 -12   5  247.70   32.59
   2 -12   6   -3.36    5.57
   2 -11  -7   58.90   13.93
   2 -11  -6    2.35    3.46
   2 -11  -5    9.49    5.17
   2 -11  -4   52.20   13.33
   2 -11  -3  107.75   18.91
   2 -11  -2  100.26   14.85
   2 -11  -2   68.05   15.52
   2 -11  -2   88.29   17.85
   2 -11  -1    7.23    5.40
   2 -11  -1   17.53    8.76
   2 -11   0   25.75    8.74
   2 -11   0   27.95   10.84
   2 -11   1   31.77   11.94
   2 -11   1   11.48    6.42
   2 -11   2    4.87    5.57
   2 -11   2    7.03    6.36
   2 -11   3   71.63   21.39
   2 -11   3  103.68   20.21
   2 -11   4  162.13   25.14
   2 -11   4  127.60   31.13
   2 -11   5   -5.18    6.29
   2 -11   5   -4.36    5.55
   2 -11   6  111.43   32.45
   2 -11   6  185.04   27.30
   2 -11   7   17.50    8.77
   2 -11   8  121.59   22.37
   2 -10  -9  319.45   31.68
   2 -10  -8    2.69    3.88
   2 -10  -7  192.81   23.94
   2 -10  -6   23.61    8.73
   2 -10  -5  231.91   26.15
   2 -10  -4  247.53   27.42
   2 -10  -3   88.05   15.62
   2 -10  -3   78.40   15.30
   2 -10  -3  101.89   14.64
   2 -10  -2  675.51   38.62
   2 -10  -2  638.07   45.06
   2 -10  -2  589.21   42.63
   2 -10  -1   20.27    8.19
   2 -10  -1    0.92    1.85
   2 -10   0  883.37   54.25
   2 -10   0  919.61   53.80
   2 -10   1  298.75   33.67
   2 -10   1  356.12   37.23
   2 -10   2  241.87   30.08
   2 -10   2  249.26   35.35
   2 -10   3  264.18   32.51
   2 -10   3  262.14   40.15
   2 -10   4   18.41    8.54
   2 -10   4   10.96    6.05
   2 -10   5    3.26    3.51
   2 -10   5    0.89    3.01
   2 -10   6   29.77   10.77
   2 -10   6   17.95   13.77
   2 -10   7   55.74   15.24
   2 -10   7   29.74   15.66
   2 -10   8    3.73    5.15
   2 -10   8    5.51   11.73
   2 -10   9  201.95   29.11
   2 -10  10   13.45    8.60
   2  -9 -11   -3.69    3.59
   2  -9 -10   55.73   13.41
   2  -9  -9    2.31    2.02
   2  -9  -8    5.02    5.14
   2  -9  -7   25.66    8.19
   2  -9  -6   17.32    6.98
   2  -9  -5   27.76    9.11
   2  -9  -4  136.24   19.78
   2  -9  -3    9.95    5.62
   2  -9  -3    8.61    4.09
   2  -9  -3    8.19    3.57
   2  -9  -2   46.54   11.97
   2  -9  -2   42.08   10.44
   2  -9  -2   47.33    9.58
   2  -9  -1  291.01   29.63
   2  -9  -1  313.03   27.69
   2  -9   0  370.27   34.76
   2  -9   0  435.36   36.93
   2  -9   1   40.21   11.29
   2  -9   1   60.70   15.68
   2  -9   2  851.45   64.25
   2  -9   2  714.77   51.01
   2  -9   3   10.92    6.92
   2  -9   3    0.62    4.05
   2  -9   4  243.96   30.39
   2  -9   4  228.78   38.51
   2  -9   5   41.66   13.15
   2  -9   5   16.41   11.72
   2  -9   6  121.45   21.98
   2  -9   6  109.28   30.07
   2  -9   7   45.26   13.55
   2  -9   8  208.98   29.17
   2  -9   9   69.81   16.87
   2  -9  10   61.98   16.11
   2  -9  11  470.73   43.83
   2  -8 -12   47.97   12.93
   2  -8 -11  148.46   22.22
   2  -8 -10    8.66    5.37
   2  -8  -9  404.71   34.99
   2  -8  -8   11.99    5.37
   2  -8  -7  700.57   44.65
   2  -8  -6  384.20   32.98
   2  -8  -5  905.43   50.37
  -2   8   4  809.73   65.52
   2  -8  -4 1090.40   55.74
   2  -8  -3   75.89   14.93
   2  -8  -3   71.86   13.20
   2  -8  -3   65.45   11.06
  -2   8   3   45.02   14.80
   2  -8  -2  274.30   22.60
   2  -8  -2  258.02   27.23
   2  -8  -2  265.47   27.31
   2  -8  -1   87.40   16.24
   2  -8  -1   99.57   15.03
  -2   8   1   83.69    6.33
   2  -8   0   11.34    5.60
  -2   8   0   10.12    3.14
   2  -8   0    4.91    4.39
   2  -8   1  138.20   21.91
  -2   8  -1  142.73   12.23
   2  -8   1  178.55   25.88
   2  -8   2  402.20   38.48
   2  -8   2  453.53   47.53
  -2   8  -2  385.45   22.11
   2  -8   3  450.76   40.66
   2  -8   3  421.83   49.27
   2  -8   4  239.75   30.19
   2  -8   4  196.59   35.27
   2  -8   5  438.18   55.24
   2  -8   5  527.28   44.87
   2  -8   6   49.11   13.60
   2  -8   7   77.53   17.59
   2  -8   8   63.34   16.14
   2  -8   9   10.72    4.70
   2  -8  10    5.64    3.55
   2  -8  11   11.01    9.32
   2  -8  12    8.70    7.77
   2  -7 -13    6.00    2.93
   2  -7 -13   -7.68    6.14
   2  -7 -12    8.21    7.12
   2  -7 -12    5.52    3.39
   2  -7 -11    5.39    4.60
   2  -7 -10   16.42    7.70
   2  -7  -9   18.60    7.50
   2  -7  -8   33.27    9.70
   2  -7  -7    3.01    2.78
   2  -7  -6    3.55    4.35
  -2   7   5   16.48   10.20
   2  -7  -5   28.38    7.74
   2  -7  -4   -1.09    2.77
  -2   7   4    9.22    7.30
   2  -7  -3   66.18   13.59
  -2   7   3   47.50   14.87
   2  -7  -3   75.60   13.31
   2  -7  -2   20.96    5.98
   2  -7  -2   24.62    8.18
   2  -7  -2   23.32    7.64
  -2   7   1  547.07   15.33
   2  -7  -1  635.06   42.17
   2  -7  -1  660.50   36.32
   2  -7   0  191.49   23.68
  -2   7   0  155.84   10.53
   2  -7   0  158.25   20.72
   2  -7   1  645.43   49.20
  -2   7  -1  624.08   24.72
   2  -7   1  671.20   46.59
  -2   7  -2  220.78   16.21
   2  -7   2  224.18   27.96
   2  -7   2  230.87   33.20
   2  -7   3  590.91   46.24
   2  -7   3  538.44   54.78
  -2   7  -3  548.21   28.17
   2  -7   4  688.81   50.72
   2  -7   5    3.14    3.38
   2  -7   6 1181.96   68.69
   2  -7   7 1150.94   68.28
   2  -7   8  183.10   27.69
   2  -7   9  754.05   56.05
   2  -7  10   21.08    9.19
   2  -7  11   52.05   14.55
   2  -7  12   20.23    9.57
   2  -7  13   86.56   19.04
   2  -6 -13   53.70   14.32
   2  -6 -13   36.35    8.62
   2  -6 -12    3.58    3.98
   2  -6 -12    4.78    1.17
   2  -6 -11  215.40   27.39
   2  -6 -10  249.66   27.99
   2  -6  -9 1520.28   66.98
   2  -6  -8   31.22    9.72
  -2   6   7  814.34   44.66
   2  -6  -7  773.73   45.91
   2  -6  -6  549.62   37.83
  -2   6   6  606.06   38.34
  -2   6   6  534.70   47.62
  -2   6   5    8.07    6.99
  -2   6   5   10.52    5.15
   2  -6  -5   10.14    4.04
  -2   6   4 1336.95   74.39
  -2   6   4 1314.67   59.57
   2  -6  -4 1398.75   59.87
   2  -6  -3   12.81    6.07
   2  -6  -3    8.20    5.39
  -2   6   3    9.23    5.06
  -2   6   3   10.14    5.67
   2  -6  -2 1665.66   64.49
  -2   6   2 1520.08   67.96
  -2   6   2 1648.28   77.19
   2  -6  -2 1684.92   62.88
   2  -6  -2 1548.08   45.21
  -2   6   1   53.19    4.30
   2  -6  -1   68.87   10.52
   2  -6  -1   56.11   12.23
  -2   6   1   54.85   13.12
   2  -6   0  941.31   46.59
   2  -6   0  931.81   52.36
  -2   6   0  905.14   24.33
   2  -6   1  489.30   39.98
   2  -6   1  522.23   41.18
  -2   6  -1  488.51   21.18
  -2   6  -2   10.79    3.21
   2  -6   2   11.75    6.57
   2  -6   3   59.61   15.05
   2  -6   3   41.69   13.29
  -2   6  -3   54.10    8.78
   2  -6   4   52.32   13.83
  -2   6  -4   33.54    7.34
   2  -6   5   39.52   12.34
   2  -6   6   15.82    7.25
   2  -6   7   43.73   13.44
   2  -6   8   11.40    6.74
   2  -6   9  508.50   46.45
   2  -6  10   45.82   14.20
   2  -6  11   54.95   15.53
   2  -6  12   -3.20    4.82
   2  -6  13   45.46   14.60
   2  -6  14  141.07   23.65
   2  -5 -14    7.02    6.37
   2  -5 -14    3.83    3.64
   2  -5 -13    5.99    6.40
   2  -5 -13    5.55    3.84
   2  -5 -12   22.37   10.62
   2  -5 -12   31.69    8.25
   2  -5 -11    7.96    6.27
   2  -5 -11    4.10    3.39
   2  -5 -10   -1.72    3.16
  -2   5   9    4.77    4.32
   2  -5  -9    1.02    3.45
   2  -5  -8  164.32   21.47
  -2   5   8  174.62   18.80
  -2   5   7  197.27   19.99
   2  -5  -7  181.21   21.94
  -2   5   6  208.83   25.39
   2  -5  -6  264.63   25.41
  -2   5   6  253.19   23.02
  -2   5   5  339.53   26.69
   2  -5  -5  339.14   28.72
  -2   5   5  303.90   31.43
  -2   5   4   65.29   12.43
  -2   5   4   76.56   15.98
   2  -5  -4   80.49   13.79
  -2   5   3  174.31   20.16
  -2   5   3  150.15   22.15
   2  -5  -3  150.24   19.15
   2  -5  -3  139.21   16.13
  -2   5   2   90.96   15.41
   2  -5  -2   94.63   14.33
   2  -5  -2   89.68   14.48
  -2   5   2   85.80   16.26
  -2   5   1  395.05   11.82
   2  -5  -1  456.11   32.93
  -2   5   1  411.67   33.51
   2  -5  -1  431.72   22.41
  -2   5   0  452.97   16.53
  -2   5   0  472.14   37.59
   2  -5   0  458.77   35.54
   2  -5   0  436.92   28.13
  -2   5  -1  421.31   37.14
   2  -5   1  401.89   34.30
  -2   5  -1  388.88   18.01
   2  -5   1  415.31   34.39
   2  -5   2 3372.78  106.76
   2  -5   2 3292.17  102.97
  -2   5  -2 3277.34  107.41
  -2   5  -2 3274.45   59.25
   2  -5   3   26.35    8.35
  -2   5  -3   19.88    4.60
   2  -5   3   29.01    6.40
  -2   5  -4 1735.26   50.98
   2  -5   4 1824.15   80.76
   2  -5   4 1740.73   54.21
   2  -5   4 1682.74   59.42
   2  -5   5    1.47    3.09
   2  -5   5   -0.65    1.28
   2  -5   5    7.03    3.86
   2  -5   6  821.17   40.60
   2  -5   6  788.38   54.99
   2  -5   6  817.36   40.43
   2  -5   7  171.22   25.79
   2  -5   7  158.84   18.67
   2  -5   7  143.21   17.96
   2  -5   8  563.60   34.92
   2  -5   8  547.27   35.71
   2  -5   8  559.74   46.93
   2  -5   9  594.84   49.21
   2  -5   9  654.51   38.38
   2  -5  10   57.99   16.30
   2  -5  11  496.58   44.99
   2  -5  12   46.41   13.74
   2  -5  13  265.38   32.33
   2  -5  14  235.77   30.40
   2  -4 -14  397.47   44.54
   2  -4 -14  374.38   29.76
   2  -4 -13  125.24   24.21
   2  -4 -13  109.99   15.63
   2  -4 -12  111.36   21.81
   2  -4 -12  103.74   14.99
   2  -4 -11  631.26   48.02
   2  -4 -11  548.80   33.91
   2  -4 -10   55.49   10.54
   2  -4 -10   43.74   12.19
   2  -4  -9  504.14   38.72
  -2   4   9  491.99   28.74
  -2   4   8  474.45   28.30
   2  -4  -8  510.50   37.94
  -2   4   7   29.34    8.25
  -2   4   7   54.09    9.58
   2  -4  -7   34.06    4.27
   2  -4  -7   49.32   11.56
  -2   4   6  692.47   33.82
   2  -4  -6  644.96   39.85
  -2   4   6  584.95   37.29
  -2   4   5  230.88   19.71
  -2   4   5  256.03   24.55
   2  -4  -5  248.46   23.83
   2  -4  -4  805.42   42.30
  -2   4   4  855.48   39.06
  -2   4   4  863.44   44.09
   2  -4  -3 1366.57   54.62
   2  -4  -3 1302.00   45.22
  -2   4   3 1374.65   56.48
  -2   4   3 1412.61   52.09
  -2   4   2 2246.93   68.59
  -2   4   2 2089.12   71.12
   2  -4  -2 2155.74   68.30
   2  -4  -2 2176.84   62.55
  -2   4   1   87.67   13.96
  -2   4   1  106.11   15.73
   2  -4  -1   97.00    8.55
   2  -4  -1   85.20   13.51
   2  -4   0  652.96   27.76
  -2   4   0  645.25   19.12
   2  -4   0  666.33   40.37
  -2   4   0  680.57   42.73
   2  -4   1 1183.39   57.05
  -2   4  -1 1121.91   29.94
   2  -4   1 1064.08   32.58
   2  -4   1 1169.08   50.11
  -2   4  -1 1115.55   58.00
   2  -4   2  114.16   18.60
  -2   4  -2  110.66   10.64
  -2   4  -2  109.17   19.16
   2  -4   2  113.85   12.13
   2  -4   3  709.05   48.18
   2  -4   3  701.25   31.54
  -2   4  -3  729.34   50.81
  -2   4  -3  704.96   29.39
   2  -4   4   16.63    5.82
  -2   4  -4   17.33    8.99
   2  -4   4   37.69   11.65
  -2   4  -4   24.75    5.69
   2  -4   4   13.75    5.47
   2  -4   5  490.23   42.64
  -2   4  -5  438.23   26.50
   2  -4   5  448.46   28.17
   2  -4   5  479.24   28.79
   2  -4   6   19.81    8.85
   2  -4   6   13.86    4.19
   2  -4   6   18.45    5.97
   2  -4   7   55.44   14.95
   2  -4   7   89.51   13.20
   2  -4   7   80.78   12.78
   2  -4   8    3.88    1.09
   2  -4   8    3.04    2.68
   2  -4   8    5.10    3.11
   2  -4   9  336.98   37.30
   2  -4   9  313.00   26.14
   2  -4   9  328.29   26.09
   2  -4  10  287.44   22.51
   2  -4  10  281.32   25.59
   2  -4  10  265.84   32.83
   2  -4  11   32.84   12.41
   2  -4  11   27.98    7.92
   2  -4  12  162.36   25.82
   2  -4  12  190.08   21.63
   2  -4  13  131.70   23.19
   2  -4  14    5.72    5.96
   2  -4  15   73.26   17.03
   2  -3 -15   11.62    6.19
   2  -3 -15   28.52   14.32
   2  -3 -14   25.15    7.36
   2  -3 -13    8.16    6.16
   2  -3 -13    2.83    2.99
   2  -3 -12  156.24   26.68
   2  -3 -12  149.46   18.47
   2  -3 -11   54.11   14.76
   2  -3 -11   28.16    7.37
   2  -3 -10  414.78   22.49
   2  -3 -10  407.45   29.56
  -2   3  10  482.58   26.73
   2  -3 -10  460.98   40.34
   2  -3  -9  190.51   24.66
   2  -3  -9  143.94   12.69
   2  -3  -9  150.10   17.22
  -2   3   9  159.48   14.94
   2  -3  -8   17.27    7.06
  -2   3   8   25.34    5.59
   2  -3  -8   13.65    3.74
   2  -3  -8   23.34    7.47
  -2   3   7  189.73   15.48
   2  -3  -7  162.74   11.48
   2  -3  -7  185.87   21.90
  -2   3   6    9.07    4.15
   2  -3  -6    9.92    2.63
  -2   3   6   11.15    3.53
   2  -3  -6    7.78    4.30
  -2   3   5    8.91    4.13
  -2   3   5   10.62    3.81
  -2   3   5    6.22    4.05
   2  -3  -5    6.78    1.83
   2  -3  -5    9.59    4.44
  -2   3   4  143.47   13.71
   2  -3  -4  136.75   16.59
   2  -3  -4  116.22    5.41
  -2   3   4  132.00   14.26
   2  -3  -3 3328.79   80.65
  -2   3   3 3395.80   68.24
  -2   3   3 3391.21   69.99
   2  -3  -3 3246.52   62.05
  -2   3   2   34.90    7.74
   2  -3  -2   45.20    9.31
   2  -3  -2   31.78    7.02
  -2   3   2   42.66    7.84
  -2   3   1 3500.56   83.24
   2  -3  -1 3483.15   79.06
   2  -3  -1 3568.79   35.29
  -2   3   1 3497.57   70.11
   2  -3   0 1132.80   26.32
  -2   3   0 1118.11   25.15
   2  -3   0 1178.75   22.01
   2  -3   0 1232.62   52.16
  -2   3   0 1201.55   52.64
   2  -3   1  869.66   35.40
   2  -3   1  882.77   47.60
   2  -3   1  872.34   27.21
  -2   3  -1  898.53   26.58
  -2   3  -1  882.41   48.55
  -2   3  -2 2498.45   49.30
  -2   3  -2 2557.27   87.44
   2  -3   2 2474.48   51.96
   2  -3   2 2452.80   84.36
   2  -3   3   42.96   11.91
  -2   3  -3   26.90    5.46
   2  -3   3   35.00    6.70
  -2   3  -3   23.51    8.85
   2  -3   4 2146.64   56.44
   2  -3   4 2078.63   53.50
   2  -3   4 2066.15   85.17
  -2   3  -4 2094.07   53.36
   2  -3   5  372.12   37.18
   2  -3   5  417.30   39.85
   2  -3   5  365.73   24.89
   2  -3   5  369.22   22.84
  -2   3  -5  345.26   23.16
   2  -3   6  845.11   57.34
   2  -3   6  866.00   58.28
   2  -3   6  851.48   38.97
   2  -3   6  952.21   38.88
  -2   3  -6  838.51   38.14
   2  -3   7 2141.25   91.62
   2  -3   7 2053.73   63.23
   2  -3   7 2175.56   60.84
   2  -3   8  350.35   26.91
   2  -3   8  390.85   25.79
   2  -3   8  370.75   38.46
   2  -3   9 1890.56   87.68
   2  -3   9 1748.51   61.72
   2  -3   9 1783.54   51.13
   2  -3  10  125.84   23.20
   2  -3  10  140.31   17.79
   2  -3  10  123.00   13.03
   2  -3  11  188.58   21.10
   2  -3  11  202.63   28.82
   2  -3  12   12.74    8.58
   2  -3  12   13.44    5.72
   2  -3  13   54.17   15.79
   2  -3  13   43.94   10.14
   2  -3  14   59.50   15.90
   2  -3  14   45.72   10.36
   2  -3  15   65.70   15.96
   2  -2 -15   27.97    9.39
   2  -2 -15   35.15   15.31
   2  -2 -14  129.58   20.23
   2  -2 -14  183.00   31.83
   2  -2 -13  205.76   23.90
   2  -2 -12    8.27    4.30
   2  -2 -11  662.33   55.24
   2  -2 -11  578.11   37.22
  -2   2  11  579.42   29.50
   2  -2 -10    4.85    6.61
   2  -2 -10    4.50    3.25
   2  -2 -10    5.94    4.59
   2  -2  -9 1133.77   63.25
  -2   2   9 1035.58   36.70
   2  -2  -9 1083.85   48.73
   2  -2  -9 1044.03   37.36
  -2   2   8   24.57    5.58
   2  -2  -8   18.08    4.69
   2  -2  -8   20.26    6.81
  -2   2   7  901.90   29.54
   2  -2  -7  877.91   41.31
   2  -2  -7  963.96   51.67
   2  -2  -7  872.38   30.43
   2  -2  -6 1047.04   31.20
  -2   2   6 1069.08   30.05
   2  -2  -6 1106.89   51.62
   2  -2  -6 1095.63   44.70
   2  -2  -5   49.69   10.62
   2  -2  -5   46.81    6.06
  -2   2   5   49.41   11.13
  -2   2   5   45.13    5.98
  -2   2   4 2088.63   70.15
  -2   2   4 2076.67   41.00
   2  -2  -4 2079.43   63.48
   2  -2  -4 2065.71   35.57
  -2   2   3  387.53   27.76
  -2   2   3  367.95   18.75
   2  -2  -3  371.02   16.64
   2  -2  -3  368.43   25.12
  -2   2   2  761.95   30.98
   2  -2  -2  738.09   28.05
   2  -2  -2  700.29   33.61
   2  -2  -1    2.72    1.32
   2  -2  -1    4.17    1.43
  -2   2   1    3.42    2.74
  -2   2   1    5.71    1.54
  -2   2   0 1154.70   47.24
   2  -2   0 1081.40   45.39
   2  -2   0 1102.53   25.88
  -2   2  -1   29.66    8.86
  -2   2  -1   32.04    5.13
   2  -2   1   28.37    4.70
   2  -2   1   24.44    7.19
   2  -2   2  545.63   23.41
  -2   2  -2  559.05   23.27
   2  -2   2  591.74   39.89
   2  -2   3   23.95    8.32
  -2   2  -3   37.51    6.37
   2  -2   3   34.38    6.63
   2  -2   4   46.26   12.95
  -2   2  -4   43.98    7.82
   2  -2   4   50.93    8.60
   2  -2   4   45.75    6.57
   2  -2   5   21.62    4.74
   2  -2   5   15.09    7.90
   2  -2   5   22.82    9.47
  -2   2  -5   16.73    4.92
   2  -2   5   11.98    3.89
   2  -2   6  105.84   19.52
  -2   2  -6  104.02   13.15
   2  -2   6  100.05   13.04
   2  -2   6  115.43   12.04
   2  -2   6  111.19   19.99
   2  -2   7   20.90   10.46
   2  -2   7   27.57   11.12
   2  -2   7   19.59    5.22
   2  -2   7   18.57    5.70
   2  -2   8    6.96    3.70
   2  -2   8   11.06    3.62
   2  -2   8   14.71    5.39
   2  -2   9    9.18    5.94
   2  -2   9   15.62    5.73
   2  -2   9    9.71    3.90
   2  -2  10   92.64   19.09
   2  -2  10   77.95    9.69
   2  -2  10   74.03   12.62
   2  -2  11   10.78    7.36
  -2   2 -11   10.36    5.56
   2  -2  11    8.10    5.30
   2  -2  12  127.59   22.85
   2  -2  12  102.25   15.39
  -2   2 -12  102.80   15.12
   2  -2  13  151.36   25.60
   2  -2  13  137.38   18.21
  -2   2 -13  144.27   18.35
   2  -2  14   36.19   12.23
   2  -2  14   38.37    9.20
   2  -2  15  134.46   22.85
   2  -2  15  178.61   21.73
   2  -2  16   61.41   16.35
   2  -1 -15   -1.49    5.00
   2  -1 -15   15.78    9.16
   2  -1 -14    5.91    8.11
   2  -1 -14   -1.20    3.43
   2  -1 -13   41.41   11.42
   2  -1 -13   34.98   15.82
  -2   1  12   16.99    5.61
   2  -1 -12   16.96   10.36
   2  -1 -12   16.35    6.93
   2  -1 -11   19.12    7.60
  -2   1  11   22.94    5.85
  -2   1  10   66.98    9.12
   2  -1 -10   64.24   17.84
   2  -1 -10   64.52   12.48
   2  -1  -9    2.83    1.91
  -2   1   9    3.55    2.73
   2  -1  -9    6.34    7.93
   2  -1  -9    6.47    2.99
   2  -1  -8  746.44   41.09
   2  -1  -8  712.95   31.94
  -2   1   8  782.84   27.60
   2  -1  -8  720.91   51.50
  -2   1   7  778.23   25.27
   2  -1  -7  755.56   32.55
   2  -1  -7  763.99   49.13
   2  -1  -7  755.52   40.00
  -2   1   6  613.92   44.78
  -2   1   6  527.36   17.52
   2  -1  -6  647.18   41.28
   2  -1  -6  620.65   27.14
   2  -1  -6  640.57   35.44
  -2   1   5 5673.14  125.94
   2  -1  -5 5734.16  112.50
   2  -1  -5 5553.04   77.93
   2  -1  -5 5821.55  102.75
   2  -1  -4  152.15   16.99
  -2   1   4  174.98   19.22
   2  -1  -4  184.13   17.52
   2  -1  -3 4296.42   83.20
  -2   1   3 4229.56   89.43
   2  -1  -2  806.52   22.59
  -2   1   2  794.96   35.04
   2  -1  -2  803.59   33.21
   2  -1  -1   20.58    4.96
   2  -1  -1    6.19    2.48
   2  -1   0  296.06   22.19
   2  -1   1   21.27    3.93
   2  -1   1   16.84    6.36
   2  -1   1   26.30    4.61
  -2   1  -2 1282.40   35.54
   2  -1   2 1192.43   34.17
   2  -1   2 1199.77   29.04
   2  -1   2 1171.33   53.91
  -2   1  -3  258.18   17.24
   2  -1   3  247.52   16.72
  -2   1  -4 9812.80  115.05
   2  -1   4 9999.00  160.75
   2  -1   4 9845.51   78.43
   2  -1   4 9701.08  113.89
   2  -1   5  480.83   26.77
  -2   1  -5  487.20   27.01
   2  -1   5  504.30   19.79
   2  -1   5  475.23   39.01
  -2   1  -6 3588.48   76.94
   2  -1   6 3660.70   78.13
   2  -1   6 3755.24   51.41
   2  -1   6 3474.43  115.22
   2  -1   7 1113.19   44.42
   2  -1   7 1203.43   30.54
   2  -1   7 1055.15   66.04
   2  -1   8  348.38   35.74
   2  -1   8  332.81   25.54
  -2   1  -8  339.42   20.61
   2  -1   9  774.84   54.20
   2  -1   9  774.21   39.51
  -2   1  -9  704.67   32.88
  -2   1 -10    3.54    3.52
   2  -1  10   11.49    8.14
   2  -1  10    1.82    1.54
   2  -1  11  932.63   45.29
  -2   1 -11  847.01   41.16
   2  -1  11  936.25   60.38
   2  -1  12  392.05   39.41
   2  -1  12  362.44   28.81
  -2   1 -12  385.31   29.33
   2  -1  13  205.38   22.14
   2  -1  13  152.81   24.47
  -2   1 -13  132.13   17.09
   2  -1  14  363.05   37.93
   2  -1  14  366.68   30.01
   2  -1  15    3.01    4.05
   2  -1  15    6.62    3.16
   2  -1  16   18.29    6.41
   2  -1  16   17.77    9.04
   2   0 -15  101.29   25.84
   2   0 -15   97.11   19.30
   2   0 -14  362.57   38.52
   2   0 -14  426.58   52.87
   2   0 -13  144.65   24.26
   2   0 -13  184.62   34.50
   2   0 -12  363.56   37.48
  -2   0  12  326.79   20.98
   2   0 -12  404.18   50.07
   2   0 -11  514.86   41.60
   2   0 -11  536.60   55.99
  -2   0  11  510.90   26.08
   2   0 -10   82.51   16.42
  -2   0  10   89.90   10.74
   2   0 -10  100.12   23.89
   2   0  -9  150.13   20.94
  -2   0   9  159.75   13.27
  -2   0   8  833.99   28.28
   2   0  -8  778.13   59.27
   2   0  -8  811.74   46.49
   2   0  -8  817.65   37.01
  -2   0   7    3.28    2.42
   2   0  -7    4.89    8.01
   2   0  -7    5.69    4.52
   2   0  -7    8.32    7.67
  -2   0   6  742.91   20.03
   2   0  -6  779.20   34.03
   2   0  -6  719.60   49.48
   2   0  -6  704.94   39.18
  -2   0   6  735.00   49.90
   2   0  -5 1003.82   51.57
  -2   0   5  988.60   53.60
   2   0  -5  990.44   44.84
   2   0  -5 1033.21   37.28
  -2   0   4 1704.00   62.82
   2   0  -4 1623.48   57.92
   2   0  -4 1619.64   54.72
  -2   0   3  772.93   37.14
   2   0  -3  758.63   35.21
   2   0  -3  794.76   36.32
  -2   0   2 1608.72   46.42
   2   0  -2 1592.21   44.46
   2   0  -2 1585.04   47.51
   2   0  -1  836.48   27.78
   2   0  -1  865.52   32.23
   2   0   0   51.79    7.30
  -2   0   0   41.38    8.55
   2   0   1 1083.76   27.51
   2   0   1 1048.10   43.10
  -2   0  -1 1064.30   31.96
   2   0   2  486.62   14.53
   2   0   2  465.53   21.59
   2   0   2  446.70   25.01
   2   0   3    2.51    1.52
  -2   0  -3    1.75    1.83
   2   0   3    1.46    1.83
   2   0   3   -0.19    1.12
  -2   0  -4   86.46   10.76
   2   0   4   75.50    9.50
   2   0   4   79.86   10.90
   2   0   4   74.68   14.35
  -2   0  -5  277.50   19.89
   2   0   5  249.52   28.75
   2   0   5  278.52   19.88
  -2   0  -6  415.83   25.82
   2   0   6  349.35   23.14
  -2   0  -6  371.93   13.79
  -2   0  -6  415.80   43.89
  -2   0  -7    0.15    2.45
   2   0   7    2.56    5.10
   2   0   7   -1.63    2.86
  -2   0  -7    3.25    3.15
  -2   0  -7    1.95    2.98
  -2   0  -8  813.39   76.09
   2   0   8  823.22   38.75
   2   0   8  801.78   55.59
  -2   0  -8  751.31   31.98
  -2   0  -9    0.45    4.62
  -2   0  -9    3.93    3.32
   2   0   9    5.21    3.99
  -2   0 -10  431.37   60.65
   2   0  10  427.45   30.10
  -2   0 -10  378.84   28.97
  -2   0 -11   75.37   28.82
   2   0  11   93.74   13.95
  -2   0 -11   76.42   14.29
   2   0  12   96.14   19.52
  -2   0 -12  114.03   32.32
   2   0  12   71.75   12.37
  -2   0 -12   79.09   13.90
  -2   0 -13   72.55   25.47
   2   0  13   67.81   12.70
   2   0  13   77.85   17.33
  -2   0 -13   55.03   11.94
  -2   0 -14   12.26   13.58
   2   0  14    7.02    7.06
   2   0  14    3.14    2.86
   2   0  15  299.26   27.64
   2   0  15  263.98   31.37
   2   0  16    4.51    5.03
   2   0  16    5.06    1.72
   2   1 -15    6.06    9.30
   2   1 -15   13.84    9.01
   2   1 -14    6.94    4.22
   2   1 -14   -5.79    3.93
   2   1 -13    8.21   11.03
   2   1 -13   15.22    9.25
  -2  -1  12    6.58    3.36
   2   1 -12    6.65    5.85
  -2  -1  11    0.21    1.08
   2   1 -11    5.19    4.72
   2   1 -11    4.71    8.52
   2   1 -10  541.23   47.02
  -2  -1  10  482.14   25.76
   2   1 -10  497.66   55.76
  -2  -1   9   92.91   10.82
   2   1  -9   79.34   17.11
   2   1  -9  103.58   25.96
   2   1  -8  857.60   70.18
  -2  -1   8  855.17   31.19
   2   1  -8  847.05   54.58
  -2  -1   7  314.73   17.41
   2   1  -7  280.38   22.52
   2   1  -7  322.21   32.54
   2   1  -7  305.72   40.13
  -2  -1   6  110.21    9.27
  -2  -1   6  101.00   19.49
   2   1  -6  116.58   13.93
  -2  -1   6  128.53   17.78
   2   1  -6  116.15   18.83
  -2  -1   5  746.22   48.34
  -2  -1   5  844.12   45.59
   2   1  -5  796.14   47.61
  -2  -1   5  811.62   22.56
  -2  -1   4   49.91    5.06
  -2  -1   4   54.10   12.62
   2   1  -4   55.79   13.53
  -2  -1   4   55.53   11.37
   2   1  -4   64.46   13.20
   2   1  -3 6452.27   61.61
   2   1  -3 6408.96  123.91
  -2  -1   3 6506.29  118.62
   2   1  -3 6380.19  123.31
  -2  -1   3 6282.38  112.58
  -2  -1   2  695.69   30.28
   2   1  -2  643.96   19.88
   2   1  -2  645.05   32.85
  -2  -1   2  697.24   37.05
   2   1  -2  670.32   38.46
  -2  -1   1 5532.65   64.54
  -2  -1   1 5583.80   99.65
   2   1  -1 5532.90   70.97
   2   1  -1 5361.26  103.93
   2   1   0 4080.61   39.84
  -2  -1   0 3994.86   76.96
  -2  -1   0 4060.45  107.32
   2   1   0 3933.66   83.46
  -2  -1  -1   98.94   10.56
   2   1   1   95.44   10.87
  -2  -1  -1   96.67   14.60
   2   1   1   85.93   15.89
  -2  -1  -2 3168.72   67.84
  -2  -1  -2 3338.26   49.36
   2   1   2 3201.70   65.69
   2   1   2 3259.89   45.77
   2   1   2 3252.28   88.32
   2   1   3  221.99   16.03
   2   1   3  276.64   24.12
  -2  -1  -3  287.80   22.45
  -2  -1  -3  300.80   19.91
  -2  -1  -4 1177.79   59.99
   2   1   4 1120.82   36.99
   2   1   4 1152.68   54.49
   2   1   4 1211.70   49.78
  -2  -1  -5  481.69   47.24
  -2  -1  -5  532.06   27.90
   2   1   5  521.07   26.77
   2   1   5  500.43   38.42
   2   1   5  539.76   33.87
  -2  -1  -6  670.31   32.68
   2   1   6  620.64   30.52
   2   1   6  620.89   37.07
   2   1   6  634.59   43.48
  -2  -1  -6  549.22   26.26
  -2  -1  -6  618.99   61.78
   2   1   7 1146.35   53.06
   2   1   7 1136.79   42.94
   2   1   7 1044.59   57.45
  -2  -1  -7  984.67   42.06
  -2  -1  -7 1055.92   43.37
  -2  -1  -7 1095.34   88.13
   2   1   8  418.01   36.95
  -2  -1  -8  454.25   59.74
  -2  -1  -8  400.63   29.49
   2   1   8  407.17   26.61
   2   1   9 1774.81   57.47
  -2  -1  -9 1723.70   65.60
  -2  -1 -10   75.30   14.45
   2   1  10   71.08   11.89
  -2  -1 -10   77.44   27.03
   2   1  11 1139.69   49.11
  -2  -1 -11 1099.61   54.54
  -2  -1 -12  174.07   38.11
   2   1  12  127.27   16.18
  -2  -1 -12  129.11   18.86
  -2  -1 -13  103.30   29.12
   2   1  13   65.59   12.21
  -2  -1 -13   75.20   14.26
   2   1  14  109.35   20.31
   2   1  14   97.48   14.96
  -2  -1 -14  135.59   32.96
  -2  -1 -15   22.11   12.95
   2   1  15    8.01    6.41
   2   1  15   14.91    6.09
  -2  -1 -16    8.96    8.89
   2   1  16    7.32    6.93
   2   1  16    0.72    3.19
   2   2 -15   18.78    9.65
   2   2 -15   27.13   12.84
   2   2 -14  174.64   33.75
   2   2 -14  136.49   24.38
   2   2 -13  272.99   42.57
   2   2 -13  275.77   35.24
   2   2 -12   29.79   14.38
  -2  -2  12   12.61    5.04
   2   2 -12   41.50   14.85
  -2  -2  11 1031.71   40.11
   2   2 -11 1169.67   72.53
   2   2 -11 1170.67   89.18
   2   2 -10   32.48   13.69
   2   2 -10   39.48   14.61
  -2  -2  10   34.49    7.20
  -2  -2   9  839.74   35.41
   2   2  -9  934.46   65.02
   2   2  -9  980.76   80.45
   2   2  -8  225.33   39.04
   2   2  -8  221.57   31.03
  -2  -2   8  207.56   16.77
   2   2  -7  277.16   23.50
   2   2  -7  343.63   39.51
  -2  -2   7  323.35   19.92
   2   2  -7  329.03   46.07
  -2  -2   6  655.97   47.95
   2   2  -6  557.35   32.26
  -2  -2   6  581.56   37.75
   2   2  -6  591.27   50.12
  -2  -2   6  547.10   25.11
   2   2  -6  584.09   58.67
   2   2  -5    9.09    5.54
   2   2  -5    3.00    2.79
  -2  -2   5    2.36    3.80
   2   2  -5    5.57    7.61
  -2  -2   5    7.52    3.86
  -2  -2   5    2.77    2.35
   2   2  -4  565.97   52.35
   2   2  -4  587.46   28.11
  -2  -2   4  574.94   23.66
  -2  -2   4  599.57   42.87
  -2  -2   4  609.10   38.64
   2   2  -4  565.35   47.49
   2   2  -3 1817.30   45.32
  -2  -2   3 1852.90   43.37
  -2  -2   3 1767.36   69.04
  -2  -2   3 1910.87   69.26
   2   2  -3 1821.85   81.19
   2   2  -3 1729.98   82.71
   2   2  -2  416.36   21.10
  -2  -2   2  363.99   27.95
  -2  -2   2  437.10   33.19
   2   2  -2  373.97   33.71
   2   2  -2  378.82   32.57
   2   2  -1  922.65   31.49
  -2  -2   1  881.69   33.91
  -2  -2   1  976.66   49.08
   2   2  -1  892.07   47.38
   2   2  -1  913.39   34.53
  -2  -2   0  376.46   28.47
   2   2   0  365.62   25.62
  -2  -2   0  370.74   37.75
   2   2   1  549.26   44.99
  -2  -2  -1  559.53   43.29
  -2  -2  -1  584.01   30.87
   2   2   1  555.47   25.85
   2   2   2 5983.08   51.30
  -2  -2  -2 6133.17   90.90
  -2  -2  -2 6057.77   84.06
   2   2   2 6074.71  144.18
  -2  -2  -2 6020.22  119.13
   2   2   3  295.07   29.77
   2   2   3  291.53   16.11
  -2  -2  -3  309.95   30.04
  -2  -2  -3  277.85   15.40
  -2  -2  -3  255.20   21.30
   2   2   4 2340.65   56.23
   2   2   4 2270.11   52.93
   2   2   4 2318.18   81.57
  -2  -2  -4 2172.91   96.99
  -2  -2  -4 2235.41   62.50
   2   2   5   35.61    9.96
  -2  -2  -5   24.83   11.03
   2   2   5   18.44    4.67
   2   2   5   27.66    7.13
   2   2   6  404.87   24.38
  -2  -2  -6  441.19   52.96
   2   2   6  358.29   31.48
   2   2   6  375.69   28.59
  -2  -2  -7  671.57   33.36
   2   2   7  596.96   40.92
   2   2   7  655.15   31.64
   2   2   7  623.58   39.62
  -2  -2  -7  618.58   21.14
  -2  -2  -7  661.52   67.89
   2   2   8   -1.35    2.86
  -2  -2  -8   -4.12    5.73
   2   2   8    0.81    1.75
  -2  -2  -8    6.04    2.47
   2   2   9  108.62   13.75
  -2  -2  -9   91.87   10.86
  -2  -2  -9  133.01   32.68
  -2  -2 -10  503.74   64.64
   2   2  10  450.62   29.07
  -2  -2 -10  375.66   25.45
   2   2  11  119.56   15.10
  -2  -2 -11  108.15   15.71
   2   2  12  249.48   22.86
  -2  -2 -12  253.69   44.28
  -2  -2 -12  192.55   21.51
   2   2  13  236.95   22.64
  -2  -2 -13  176.70   20.82
  -2  -2 -13  278.74   46.50
  -2  -2 -14  112.04   29.35
   2   2  14   67.17   12.21
   2   2  15  439.26   31.52
  -2  -2 -15  441.83   55.97
   2   2  16   12.99    6.82
  -2  -2 -16   10.00    8.95
   2   2  16    8.37    2.88
   2   3 -15  270.23   41.60
   2   3 -15  202.66   30.07
   2   3 -14  195.33   36.12
   2   3 -14  218.08   32.47
   2   3 -13  204.93   31.18
   2   3 -13  198.23   36.02
  -2  -3  12  126.51   15.24
   2   3 -12  141.53   30.97
   2   3 -12  131.11   26.52
   2   3 -11   13.30   11.00
  -2  -3  11    9.81    4.51
   2   3 -11    5.67    5.82
   2   3 -10   13.51   12.44
  -2  -3  10    8.75    4.64
   2   3 -10    6.08    8.38
  -2  -3   9  254.67   20.20
   2   3  -9  326.22   46.38
   2   3  -9  288.09   38.95
   2   3  -8  206.84   36.73
   2   3  -8  225.11   33.23
  -2  -3   8  171.73   16.48
   2   3  -7 1518.01   97.50
  -2  -3   7 1539.38   49.00
   2   3  -7 1632.80   91.75
   2   3  -6  179.20   31.67
  -2  -3   6  172.87   16.17
   2   3  -6  176.28   29.99
   2   3  -6  161.57   19.54
  -2  -3   6  200.11   27.85
   2   3  -5 3950.88   90.42
  -2  -3   5 3811.60   73.76
  -2  -3   5 4210.98  122.54
  -2  -3   5 4010.61  102.24
   2   3  -5 4159.01  140.20
   2   3  -5 3836.51  137.35
   2   3  -4   17.39    8.21
   2   3  -4   29.03   11.44
   2   3  -4   11.34    5.46
  -2  -3   4   13.58    3.82
  -2  -3   4   15.21    7.14
  -2  -3   4   13.68    6.67
   2   3  -3 2615.11   64.70
  -2  -3   3 2630.28   60.31
   2   3  -3 2559.83   87.56
  -2  -3   3 2624.53   86.18
   2   3  -3 2597.13   97.01
   2   3  -2  121.53   13.65
  -2  -3   2  117.11   17.39
   2   3  -2  124.84   19.26
  -2  -3   2  131.42   17.36
  -2  -3   1 1396.61   56.78
  -2  -3   1 1495.77   87.23
  -2  -3   1 1344.27   46.73
   2   3  -1 1234.00   53.25
   2   3  -1 1425.96   45.89
  -2  -3   0  985.08   69.62
   2   3   0  982.91   38.65
  -2  -3   0  943.38   44.05
   2   3   0  921.05   40.69
  -2  -3  -1  328.41   12.34
  -2  -3  -1  333.70   23.99
   2   3   1  349.32   22.56
  -2  -3  -1  295.83   34.58
   2   3   1  339.86   38.48
  -2  -3  -2 4133.22   52.28
  -2  -3  -2 4256.64   77.52
   2   3   2 4091.44  135.87
  -2  -3  -2 4148.83  117.55
  -2  -3  -3  123.54   18.05
  -2  -3  -3  137.24   13.01
  -2  -3  -3  136.22   12.93
   2   3   3  136.32   11.15
   2   3   3  124.28   22.03
   2   3   4 5545.30  146.07
   2   3   4 5628.98   83.14
  -2  -3  -4 5502.65  106.39
  -2  -3  -4 5880.83  108.79
   2   3   4 5734.19   83.25
   2   3   5 1415.78   46.86
   2   3   5 1462.32   43.69
   2   3   5 1583.54   75.41
  -2  -3  -5 1471.94   68.28
  -2  -3  -5 1529.36   55.32
   2   3   6 1407.98   51.63
   2   3   6 1391.26   44.41
  -2  -3  -6 1514.56   78.08
   2   3   6 1542.42   74.85
   2   3   7 1878.94   64.82
   2   3   7 1965.67   54.02
   2   3   8   15.52    5.12
   2   3   8   20.73    7.49
  -2  -3  -9  226.36   37.19
  -2  -3  -9  186.95   13.59
   2   3   9  231.72   19.78
  -2  -3 -10  130.22   12.43
  -2  -3 -10  192.06   36.49
   2   3  10  172.87   17.75
  -2  -3 -11   33.05    6.68
   2   3  11   53.70    9.92
  -2  -3 -11   51.88   19.01
  -2  -3 -12   58.13   10.12
  -2  -3 -12   83.10   26.20
   2   3  12   83.18   12.70
  -2  -3 -13  256.57   42.79
   2   3  13  239.43   22.04
  -2  -3 -13  173.03   18.42
  -2  -3 -14   89.56   24.83
   2   3  14   89.22   13.76
  -2  -3 -15   49.74   19.39
   2   3  15   62.39   11.41
   2   3  16    2.42    3.52
  -2  -3 -16   14.93    8.12
   2   4 -15  217.41   32.73
   2   4 -14   21.00   10.63
  -2  -4  13  172.96   17.80
   2   4 -13  252.43   38.05
   2   4 -13  285.02   45.39
   2   4 -12    9.52    7.45
  -2  -4  12   19.00    6.41
   2   4 -12    9.33    6.88
  -2  -4  11  141.73   16.36
   2   4 -11  183.65   33.54
   2   4 -11  174.69   35.15
  -2  -4  10   41.02    9.18
   2   4 -10   31.56   15.15
   2   4 -10   52.87   17.46
  -2  -4   9  319.91   24.74
   2   4  -9  341.83   48.99
   2   4  -9  353.83   44.70
  -2  -4   8  176.85   18.24
   2   4  -8  146.29   21.90
   2   4  -8  166.81   30.90
   2   4  -8  208.46   36.15
   2   4  -7   37.77   10.35
   2   4  -7   44.08   16.29
  -2  -4   7   35.77    8.17
   2   4  -7   52.93   17.66
   2   4  -6 1078.09   54.52
  -2  -4   6 1096.30   44.24
  -2  -4   6 1115.75   65.45
   2   4  -6 1142.38   77.23
   2   4  -5    2.97    2.14
  -2  -4   5    2.39    2.81
  -2  -4   5   11.51    4.36
   2   4  -5    8.91    8.10
   2   4  -4  393.56   29.49
  -2  -4   4  385.08   34.20
   2   4  -4  334.93   36.78
  -2  -4   4  387.28   35.56
  -2  -4   4  348.43   24.97
   2   4  -3   49.23    9.59
  -2  -4   3   54.75    9.88
  -2  -4   3   41.00   11.38
  -2  -4   3   50.34   12.65
   2   4  -3   57.45   13.85
   2   4  -2   34.51    9.57
   2   4  -2   30.59    7.47
  -2  -4   2   36.09    7.65
  -2  -4   2   33.93    8.90
  -2  -4   2   34.84    8.20
   2   4  -1   74.36   11.96
  -2  -4   1   71.39   20.68
  -2  -4   1   70.81   12.69
   2   4  -1   75.83   13.14
   2   4   0  166.07   17.93
  -2  -4   0  151.80   18.11
   2   4   0  151.15   17.78
  -2  -4   0  154.29   29.26
  -2  -4  -1   32.74   12.78
   2   4   1   22.71    6.05
  -2  -4  -1   25.19    6.56
   2   4   1   17.28    9.57
  -2  -4  -2   33.26    7.51
  -2  -4  -2   40.68   11.92
  -2  -4  -2   27.70    4.86
   2   4   2   36.78   13.95
  -2  -4  -3  467.19   22.84
  -2  -4  -3  502.64   28.26
  -2  -4  -3  459.48   38.70
   2   4   3  453.73   47.03
  -2  -4  -4  213.53   17.80
   2   4   4  191.56   30.06
  -2  -4  -4  204.26   23.48
   2   4   4  201.25   16.23
   2   4   5  589.44   27.75
  -2  -4  -5  565.65   33.57
   2   4   5  574.85   30.59
   2   4   5  600.76   52.00
  -2  -4  -5  575.67   35.98
   2   4   6  861.70   40.39
   2   4   6  860.63   34.26
  -2  -4  -6  855.06   46.77
  -2  -4  -7    9.61    7.19
   2   4   7    8.38    3.26
   2   4   7    6.70    3.67
   2   4   8 1060.49   40.26
  -2  -4  -8 1061.35   65.85
   2   4   8  927.23   47.72
   2   4   9  165.60   16.29
   2   4  10  447.40   27.44
  -2  -4 -10  371.26   20.42
  -2  -4 -11   30.87   13.85
   2   4  11   20.90    6.16
  -2  -4 -11    9.20    3.57
  -2  -4 -12  111.19   26.46
   2   4  12  115.88   14.94
  -2  -4 -12   83.64   10.45
   2   4  13    8.12    3.72
  -2  -4 -13   -6.00    6.03
  -2  -4 -13    0.48    2.60
   2   4  14  119.35   15.31
  -2  -4 -14  101.68   27.50
  -2  -4 -15  273.06   41.88
   2   4  15  226.33   21.88
   2   5 -14   96.92   21.98
   2   5 -13   18.18    9.37
  -2  -5  13    8.96    4.53
  -2  -5  12   39.91    9.32
   2   5 -12   75.17   20.57
  -2  -5  11   28.62    7.49
   2   5 -11   32.94   15.50
  -2  -5  10  282.82   24.60
   2   5 -10  385.24   49.27
   2   5  -9   61.41   19.72
  -2  -5   9   25.62    7.16
   2   5  -8  949.80   56.93
   2   5  -8 1145.65   83.29
  -2  -5   8 1116.79   48.64
   2   5  -7  854.50   52.18
  -2  -5   7  882.11   42.83
   2   5  -7  919.46   72.17
  -2  -5   6  188.76   19.63
   2   5  -6  183.63   30.09
   2   5  -6  191.48   24.31
   2   5  -5 1655.10   66.99
  -2  -5   5 1655.25   58.03
   2   5  -5 1784.59   89.71
  -2  -5   5 1601.62   77.71
  -2  -5   4  420.76   37.54
  -2  -5   4  466.30   30.92
   2   5  -4  398.99   39.32
   2   5  -4  441.24   33.52
  -2  -5   3 1199.40   57.50
   2   5  -3 1216.64   55.59
  -2  -5   3 1255.67   50.84
  -2  -5   3 1212.28   59.56
   2   5  -3 1178.43   62.99
   2   5  -2 1328.23   56.85
  -2  -5   2 1274.28   53.72
  -2  -5   2 1341.05   52.78
  -2  -5   2 1349.09   60.48
   2   5  -2 1249.77   60.08
  -2  -5   2 1364.55   98.51
   2   5  -1 1878.55   67.15
  -2  -5   1 1968.61   71.70
   2   5  -1 1915.31   70.38
  -2  -5   1 1989.46  115.46
  -2  -5   0 5672.18  114.90
  -2  -5   0 5695.16  191.79
   2   5   0 5708.16  115.37
   2   5   1  469.68   33.29
  -2  -5  -1  466.49   50.74
  -2  -5  -1  477.82   32.24
   2   5   1  448.58   49.90
   2   5   2 5571.64  115.25
  -2  -5  -2 5530.63  105.23
  -2  -5  -2 5261.08  156.50
  -2  -5  -2 5320.43   81.05
  -2  -5  -3  246.48   18.19
  -2  -5  -3  255.73   31.79
   2   5   3  197.02   33.74
  -2  -5  -3  259.14   22.06
  -2  -5  -4    5.49    2.70
   2   5   4    7.50    7.01
  -2  -5  -4   15.99    4.78
  -2  -5  -5  148.59   16.11
  -2  -5  -5  155.82   20.40
   2   5   5  166.93   14.85
   2   5   6  141.72   13.87
  -2  -5  -6  128.87   16.26
   2   5   6  127.69   15.72
  -2  -5  -6  142.46   18.86
   2   5   7  361.18   22.54
  -2  -5  -7  361.66   30.24
   2   5   7  330.77   26.73
   2   5   8  177.47   16.12
  -2  -5  -8  198.50   25.31
   2   5   9 1449.95   47.20
  -2  -5  -9 1371.06   72.22
  -2  -5 -10    9.71    8.00
   2   5  10   11.94    4.16
   2   5  11  527.52   29.98
  -2  -5 -12   82.97   21.94
   2   5  12   73.22   11.58
  -2  -5 -12   49.58    7.59
  -2  -5 -13   20.09   10.76
   2   5  13   14.59    5.07
  -2  -5 -13   10.68    4.27
   2   5  14   13.29    5.06
  -2  -5 -14    7.38    2.80
   2   5  15    5.30    3.50
  -2  -5 -15    1.85    6.62
   2   6 -14   19.92   13.00
  -2  -6  13  264.48   24.58
   2   6 -13  423.90   51.45
  -2  -6  12  250.08   23.75
   2   6 -12  342.18   46.67
  -2  -6  11  443.72   32.22
   2   6 -11  440.65   54.55
  -2  -6  10  207.43   21.48
   2   6 -10  228.47   37.57
   2   6  -9  128.76   29.74
  -2  -6   9   95.39   14.64
  -2  -6   8   49.73   10.61
   2   6  -8   36.19   15.14
   2   6  -7   19.57   10.44
  -2  -6   7    8.12    4.35
   2   6  -6  104.39   24.58
  -2  -6   6   97.98   14.60
  -2  -6   5    5.00    3.70
   2   6  -5   14.61    9.93
   2   6  -4   13.44    7.88
  -2  -6   4   18.50    7.01
  -2  -6   4   15.32    8.29
   2   6  -4   12.40    7.64
   2   6  -3    2.13    2.61
  -2  -6   3    0.30    3.05
   2   6  -3    1.67    2.63
  -2  -6   3    2.54    3.19
   2   6  -2    0.67    1.41
  -2  -6   2    7.25    4.31
  -2  -6   2   11.26   12.28
   2   6  -1   81.98   14.61
  -2  -6   1   58.53   12.34
  -2  -6   1   74.11   25.54
   2   6   0   47.56   10.98
  -2  -6   0   50.34   11.51
  -2  -6   0   45.47   18.06
  -2  -6  -1   61.64   11.86
   2   6   1   58.30   12.40
  -2  -6  -1   66.44   19.98
   2   6   1   49.45   16.87
  -2  -6  -2  160.87   19.02
  -2  -6  -2  159.03   15.50
  -2  -6  -2  170.85   29.18
  -2  -6  -3  370.71   40.00
  -2  -6  -3  364.48   28.70
  -2  -6  -3  393.60   24.65
  -2  -6  -4  415.40   25.96
  -2  -6  -4  413.34   38.77
  -2  -6  -5  878.19   39.57
  -2  -6  -5  834.07   49.55
  -2  -6  -6  195.39   22.68
  -2  -6  -6  197.69   20.53
   2   6   6  199.23   16.73
   2   6   7  362.45   22.42
  -2  -6  -7  349.13   28.53
   2   6   8  364.07   22.89
  -2  -6  -8  357.56   31.33
  -2  -6  -9   -0.91    2.55
   2   6   9    6.88    4.03
   2   6  10  751.49   34.48
  -2  -6 -10  724.47   53.14
   2   6  11  492.31   28.08
  -2  -6 -11  451.86   44.37
   2   6  12  174.13   17.20
   2   6  13  597.07   31.97
  -2  -6 -13  634.05   59.17
  -2  -6 -14   -2.63    6.10
   2   6  14    4.87    3.19
   2   7 -13   85.55   24.10
  -2  -7  13   52.93   11.37
  -2  -7  12  428.40   32.19
   2   7 -12  647.12   66.06
   2   7 -11   23.02   12.79
  -2  -7  11   28.69    8.31
  -2  -7  10  281.44   26.33
   2   7 -10  299.48   44.60
  -2  -7   9  399.08   31.48
   2   7  -9  464.34   58.24
   2   7  -8    8.22    7.23
  -2  -7   8    0.60    2.06
  -2  -7   7  396.18   31.74
   2   7  -7  356.49   45.54
   2   7  -6    2.91    4.63
  -2  -7   6    2.44    2.16
  -2  -7   5 1172.35   54.02
   2   7  -5 1147.00   71.53
   2   7  -4    3.98    1.98
  -2  -7   4   -1.78    1.85
  -2  -7   3 2227.97   74.49
  -2  -7   3 2098.14   77.05
  -2  -7   3 2302.12  140.49
  -2  -7   2  503.87   35.58
  -2  -7   2  563.14   66.95
  -2  -7   1  589.45   66.93
  -2  -7   0 1964.84  119.40
  -2  -7  -1    9.24    6.02
  -2  -7  -2 1946.52  102.23
  -2  -7  -2 1878.14   57.14
  -2  -7  -3  259.19   34.49
  -2  -7  -3  253.98   21.22
  -2  -7  -4  618.12   33.66
  -2  -7  -4  695.33   52.13
  -2  -7  -5  370.91   26.85
  -2  -7  -5  384.99   35.89
  -2  -7  -6   88.03   16.03
   2   7   6   94.27   11.41
  -2  -7  -6   90.74   13.58
   2   7   7  525.95   27.26
  -2  -7  -7  541.99   38.29
  -2  -7  -7  537.58   35.06
  -2  -7  -8    3.11    4.26
   2   7   8    0.16    1.01
   2   7   9  205.09   16.95
  -2  -7  -9  199.72   23.81
  -2  -7 -10   35.78   11.15
   2   7  10   33.44    6.89
  -2  -7 -11    1.80    5.09
   2   7  11    5.78    3.23
  -2  -7 -12   11.50    8.85
   2   7  12   16.96    5.34
   2   7  13   -0.88    2.18
  -2  -7 -14   10.37    9.35
   2   7  14    4.61    1.01
   2   8 -13   71.05   23.20
   2   8 -12    4.54    5.86
  -2  -8  12    6.76    5.29
   2   8 -11   37.46   17.17
  -2  -8  11   12.59    6.54
  -2  -8  10   32.16    9.51
   2   8 -10   36.05   15.77
  -2  -8   9   33.66    9.36
   2   8  -9   44.90   17.44
   2   8  -8    3.47    2.61
  -2  -8   8    0.99    1.62
  -2  -8   7   33.30    9.23
   2   8  -7   56.51   19.31
  -2  -8   6  285.10   27.21
  -2  -8   5  127.47   18.47
  -2  -8   4   45.13   11.20
  -2  -8   4   18.13   14.20
  -2  -8   3    3.67    2.57
  -2  -8   3    7.03   10.29
  -2  -8   2  235.83   25.28
  -2  -8   2  196.23   40.98
  -2  -8   1  837.58   83.33
  -2  -8   0   11.00    7.81
  -2  -8  -1  498.01   57.41
  -2  -8  -2   17.43    5.27
  -2  -8  -2   17.39   10.42
  -2  -8  -3  220.88   32.00
  -2  -8  -3  228.21   21.29
  -2  -8  -4    3.85    3.92
  -2  -8  -4    6.95    3.30
  -2  -8  -5  170.90   18.41
  -2  -8  -5  147.50   22.75
   2   8   6  885.10   34.75
  -2  -8  -6  897.53   43.97
  -2  -8  -6  831.54   50.45
  -2  -8  -7   61.03   12.77
   2   8   7   79.26   10.36
  -2  -8  -7   83.77   15.67
   2   8   8 1272.09   41.47
  -2  -8  -8 1205.32   55.33
   2   8   9  224.88   17.69
  -2  -8  -9  260.03   27.14
   2   8  10  425.92   24.27
  -2  -8 -10  374.10   35.01
  -2  -8 -11   35.18   11.37
   2   8  11   31.49    6.36
   2   8  12  110.97   12.71
  -2  -8 -12  121.17   22.42
  -2  -8 -13   23.30   10.28
  -2  -9  12   95.83   15.82
  -2  -9  11   33.02    9.38
  -2  -9  10  830.53   47.97
  -2  -9   9  278.13   27.78
  -2  -9   8  520.92   37.91
  -2  -9   7  639.69   42.28
  -2  -9   6   58.74   12.81
  -2  -9   6   77.01   28.28
  -2  -9   5  585.51   40.71
  -2  -9   5  561.53   71.92
  -2  -9   4  822.95   47.97
  -2  -9   4  911.57   94.34
  -2  -9   3  118.25   17.78
  -2  -9   3  124.28   35.42
  -2  -9   2  907.00   51.05
  -2  -9   2  884.85   89.28
  -2  -9   1    5.48    9.56
  -2  -9   0  439.17   56.40
  -2  -9  -1  126.19   29.50
  -2  -9  -2  854.98   69.30
  -2  -9  -2  834.60   41.97
  -2  -9  -3  138.53   25.70
  -2  -9  -3  165.78   18.69
  -2  -9  -4  556.50   34.34
  -2  -9  -4  536.55   47.94
  -2  -9  -5  177.48   19.41
  -2  -9  -5  152.35   23.68
  -2  -9  -6    4.45    3.89
  -2  -9  -6    2.08    2.23
   2   9   6    5.94    2.55
   2   9   7  509.57   26.73
  -2  -9  -7  522.05   35.01
  -2  -9  -7  483.32   37.28
   2   9   8   54.43    8.34
  -2  -9  -8   57.61   12.13
   2   9   9  235.50   17.83
  -2  -9  -9  188.37   22.83
  -2  -9 -10    6.79    4.87
   2   9  10   14.12    4.43
  -2  -9 -11   20.64    8.42
   2   9  11   18.39    5.04
  -2  -9 -12    7.41    7.67
  -2 -10  11   34.92   10.00
  -2 -10  10   76.30   14.43
  -2 -10   9    3.39    1.30
  -2 -10   8    3.36    3.68
  -2 -10   7    3.46    3.88
  -2 -10   7    6.31    4.76
  -2 -10   6  149.51   20.63
  -2 -10   6  182.34   42.05
  -2 -10   5  114.55   18.15
  -2 -10   5  102.68   33.28
  -2 -10   4   85.38   16.20
  -2 -10   4   79.01   28.50
  -2 -10   3  116.07   34.79
  -2 -10   3  150.46   20.89
  -2 -10   2    1.85    3.39
  -2 -10   2   -1.13    4.37
  -2 -10   1    1.29    8.09
  -2 -10   0   -1.72    2.54
  -2 -10  -1   66.68   20.56
  -2 -10  -2   16.82   11.72
  -2 -10  -2    1.19    3.85
  -2 -10  -3  504.19   50.20
  -2 -10  -3  460.90   32.62
  -2 -10  -4  241.87   23.39
  -2 -10  -4  214.03   30.09
  -2 -10  -5  281.46   25.34
  -2 -10  -5  295.56   32.93
  -2 -10  -6  680.53   39.70
   2  10   6  716.90   31.73
  -2 -10  -6  660.96   46.65
  -2 -10  -7    9.51    6.21
   2  10   7   13.01    4.09
  -2 -10  -7   16.02    6.10
   2  10   8  412.43   23.15
  -2 -10  -8  393.72   32.36
  -2 -10  -9   52.08   12.00
   2  10   9   58.65    8.46
  -2 -10 -10  169.25   22.30
  -2 -10 -11   68.13   14.49
  -2 -11   9  171.91   23.21
  -2 -11   9  144.81   40.42
  -2 -11   8    1.28    3.12
  -2 -11   8    8.90    7.43
  -2 -11   7  204.80   25.11
  -2 -11   7  110.03   34.88
  -2 -11   6   77.38   15.12
  -2 -11   6   89.04   30.44
  -2 -11   5  274.81   29.04
  -2 -11   5  221.07   47.38
  -2 -11   4   41.18   10.67
  -2 -11   4   33.55   21.14
  -2 -11   3  879.21   52.14
  -2 -11   3  822.03   89.96
  -2 -11   2  231.99   46.47
  -2 -11   1  234.43   43.94
  -2 -11   0  517.75   62.23
  -2 -11  -1  210.06   37.88
  -2 -11  -2  130.90   17.58
  -2 -11  -2  120.57   25.04
  -2 -11  -3  231.57   23.63
  -2 -11  -3  224.57   32.82
  -2 -11  -4   76.55   17.74
  -2 -11  -4   62.60   12.11
  -2 -11  -5   48.98   13.85
  -2 -11  -5   64.91   12.59
  -2 -11  -6  121.61   20.15
  -2 -11  -6  114.69   16.50
   2  11   6  107.70   12.45
  -2 -11  -7   35.77   10.40
   2  11   7   45.25    7.82
  -2 -11  -7   33.25    9.58
  -2 -11  -8    4.23    3.15
  -2 -11  -9    1.55    2.19
  -2 -11 -10    6.04    4.81
  -2 -12   7   39.36   10.37
  -2 -12   7   38.56   17.89
  -2 -12   6    3.24    3.67
  -2 -12   6    5.19   11.86
  -2 -12   5    1.56    3.67
  -2 -12   5    8.14   10.24
  -2 -12   4   58.02   14.34
  -2 -12   4   64.63   26.92
  -2 -12   3  128.47   36.94
  -2 -12   2  116.35   31.62
  -2 -12   1  681.43   75.41
  -2 -12   0    1.50    6.70
  -2 -12  -1  616.33   63.07
  -2 -12  -1  607.28   39.73
  -2 -12  -2  197.27   22.86
  -2 -12  -2  200.34   33.09
  -2 -12  -3   27.44   11.32
  -2 -12  -3   47.59   10.92
  -2 -12  -4   68.18   16.92
  -2 -12  -4   60.07   12.23
  -2 -12  -5   13.44    5.47
  -2 -12  -5   14.45    6.92
  -2 -12  -6   26.68    9.77
  -2 -12  -6   29.31    8.85
  -2 -12  -7    4.86    4.85
  -2 -12  -7    3.79    2.57
  -2 -12  -8  334.93   29.84
  -2 -13   5  125.47   37.25
  -2 -13   5  180.62   24.27
  -2 -13   4  125.79   37.54
  -2 -13   3   14.66    6.99
  -2 -13   2  213.88   43.64
  -2 -13   1   -5.68    8.73
  -2 -13   0  140.04   30.89
  -2 -13  -1    1.37    1.61
  -2 -13  -1   -6.68    6.86
  -2 -13  -2   98.91   22.56
  -2 -13  -2  121.85   17.63
  -2 -13  -3    4.26    6.07
  -2 -13  -3    3.41    5.84
  -2 -13  -4  118.36   22.43
  -2 -13  -4  110.22   16.37
  -2 -13  -5   38.04   11.67
  -2 -13  -5   35.48   10.23
  -2 -13  -6    1.44    3.26
  -2 -13  -6   -4.32    5.21
   3 -12  -2    6.17    5.91
   3 -12  -2    9.96    4.92
   3 -12  -1   24.61    8.94
   3 -12  -1   44.58   13.41
   3 -12   0   44.97   11.98
   3 -12   1   18.81    8.46
   3 -12   2  130.10   21.86
   3 -12   3    5.49    3.66
   3 -11  -6  193.97   24.70
   3 -11  -5   19.50    8.16
   3 -11  -4  138.62   21.26
   3 -11  -3    2.28    1.66
   3 -11  -2  114.85   18.55
   3 -11  -2  151.92   23.22
   3 -11  -1   26.32   10.01
   3 -11  -1   33.50   11.81
   3 -11   0   37.75   12.04
   3 -11   1  112.11   20.49
   3 -11   2   -0.72    2.42
   3 -11   3   -1.17    3.45
   3 -11   4    0.23    3.84
   3 -11   5    2.51    5.39
   3 -11   6   16.44    9.18
   3 -10  -8  122.23   19.78
   3 -10  -7    9.22    4.73
   3 -10  -6  129.43   20.25
   3 -10  -5  183.09   23.75
   3 -10  -4   29.07    9.04
   3 -10  -3  185.09   22.20
   3 -10  -3  220.06   26.76
   3 -10  -2  153.51   23.28
   3 -10  -2  129.39   18.95
   3 -10  -1  279.13   30.68
   3 -10  -1  274.87   30.29
   3 -10   0   71.31   15.58
   3 -10   1  203.88   27.29
   3 -10   2  157.05   24.56
   3 -10   3   -1.37    3.92
   3 -10   4  175.03   26.68
   3 -10   5   86.32   18.54
   3 -10   6  106.43   21.39
   3 -10   7   58.58   16.15
   3 -10   8  226.34   31.53
   3 -10   9  272.19   34.56
   3  -9  -9   99.14   17.62
   3  -9  -8    0.67    2.81
   3  -9  -7   27.03    8.42
   3  -9  -6    6.10    4.58
   3  -9  -5   19.95    8.03
   3  -9  -4  398.92   34.94
   3  -9  -3    9.16    5.50
   3  -9  -3   15.82    6.80
   3  -9  -2  531.62   39.43
   3  -9  -2  540.19   41.61
   3  -9  -1  115.36   18.85
   3  -9   0  104.83   18.80
   3  -9   0  109.28   12.65
   3  -9   1   41.47    9.00
   3  -9   1   48.88   13.53
   3  -9   2    9.25    5.50
   3  -9   2    1.90    1.52
   3  -9   3   23.84    9.17
   3  -9   3   15.74    8.91
   3  -9   4   -0.66    4.42
   3  -9   4    1.49    5.06
   3  -9   5   64.71   17.58
   3  -9   5   61.63   19.03
   3  -9   6    1.02    4.33
   3  -9   6   16.09    9.06
   3  -9   7    1.34    2.16
   3  -9   7    6.90    9.50
   3  -9   8    4.68    5.73
   3  -9   9    3.59    6.72
   3  -9  10   62.64   17.13
   3  -8 -10    8.44    4.90
   3  -8  -9  201.28   24.93
   3  -8  -8    3.16    3.65
   3  -8  -7  126.80   19.07
   3  -8  -6  161.54   21.47
   3  -8  -5  117.15   18.86
   3  -8  -4  150.77   18.32
   3  -8  -4  127.00   19.05
   3  -8  -3  518.61   35.73
   3  -8  -3  560.87   40.49
   3  -8  -2   60.98   13.25
   3  -8  -2   86.86   16.15
   3  -8  -1  547.91   40.44
   3  -8   0  392.57   36.56
   3  -8   0  443.02   24.35
   3  -8   1  133.40   21.70
   3  -8   1  154.64   16.51
  -3   8  -2  706.48   27.22
   3  -8   2  750.20   53.09
   3  -8   2  849.02   48.39
   3  -8   3   12.93    6.46
   3  -8   3    5.25    3.34
   3  -8   4  881.30   59.23
   3  -8   4  817.20   62.75
   3  -8   5  245.74   32.14
   3  -8   5  262.07   37.70
   3  -8   6  235.02   31.35
   3  -8   7  255.92   33.65
   3  -8   8   15.11    8.15
   3  -8   9  155.00   27.66
   3  -8  10   -1.81    4.61
   3  -8  11  130.37   24.97
   3  -7 -12   13.06    5.55
   3  -7 -11  102.30   18.69
   3  -7 -11   64.33   11.97
   3  -7 -10    3.92    3.70
   3  -7  -9  151.02   21.69
   3  -7  -8   43.74   11.73
   3  -7  -7  192.52   23.20
   3  -7  -6  639.55   42.09
   3  -7  -5    4.77    4.57
   3  -7  -4  621.03   34.98
   3  -7  -4  712.40   44.75
   3  -7  -3  118.95   16.24
   3  -7  -3  132.82   19.27
   3  -7  -2   15.80    6.59
   3  -7  -2   15.58    6.09
   3  -7  -1   45.76   11.41
   3  -7   0   85.79   16.07
   3  -7   0  108.93   10.71
   3  -7   1   26.98    6.64
   3  -7   1   26.32   10.21
  -3   7  -1   15.99    3.66
   3  -7   2   28.21   10.33
  -3   7  -2   28.43    5.19
   3  -7   2   39.44   10.14
   3  -7   3  188.99   27.43
  -3   7  -3  169.79   14.82
   3  -7   3  206.84   27.83
   3  -7   4   32.64   11.31
   3  -7   4   27.32    9.87
   3  -7   5   -0.59    3.97
   3  -7   6   76.69   18.59
   3  -7   7   46.01   14.32
   3  -7   8  195.47   29.42
   3  -7   9   17.64    8.68
   3  -7  10   46.08   15.13
   3  -7  11    2.83    2.87
   3  -7  12   39.45   13.89
   3  -6 -12   69.95   15.17
   3  -6 -12   65.18   12.28
   3  -6 -11    6.07    6.18
   3  -6 -11   10.08    4.93
   3  -6 -10  163.33   23.33
   3  -6  -9   -0.07    2.34
   3  -6  -8  346.58   31.81
   3  -6  -7  359.94   31.74
   3  -6  -6    2.23    3.32
  -3   6   6    5.59    5.10
  -3   6   6   10.32    5.67
  -3   6   5  555.94   35.40
  -3   6   5  443.69   40.17
   3  -6  -4  411.77   33.03
  -3   6   4  383.17   30.73
   3  -6  -4  386.71   25.91
  -3   6   4  374.71   35.78
  -3   6   3  427.38   33.65
   3  -6  -3  445.68   30.33
  -3   6   3  425.47   35.87
   3  -6  -3  487.19   36.17
   3  -6  -2  341.31   28.59
   3  -6  -2  349.97   30.54
  -3   6   2  305.62   30.20
   3  -6  -1  782.09   45.85
   3  -6   0  158.85   21.79
   3  -6   0  200.17   11.97
   3  -6   1 1122.67   60.75
   3  -6   1 1228.59   38.20
  -3   6  -1 1068.41   30.17
  -3   6  -2  666.20   26.18
   3  -6   2  682.99   49.86
   3  -6   2  743.52   41.29
   3  -6   3   57.31   14.38
  -3   6  -3   53.14    8.22
   3  -6   3   57.82   14.27
   3  -6   4 1265.88   70.61
   3  -6   4 1119.68   44.44
   3  -6   5  935.96   62.12
   3  -6   5  933.46   41.43
   3  -6   6  189.57   28.50
   3  -6   6  178.75   18.85
   3  -6   7 1462.78   81.37
   3  -6   7 1395.24   54.30
   3  -6   8    6.51    6.90
   3  -6   8    3.79    3.10
   3  -6   9  612.23   52.27
   3  -6   9  549.92   35.79
   3  -6  10   30.13   11.46
   3  -6  11  130.38   24.09
   3  -6  12   13.53    7.99
   3  -6  13   -0.80    3.52
   3  -5 -13  131.25   17.34
   3  -5 -13  247.18   32.07
   3  -5 -12    6.51    5.90
   3  -5 -12    1.76    3.28
   3  -5 -11  597.24   45.12
   3  -5 -11  455.38   31.94
   3  -5 -10  122.66   19.57
   3  -5 -10   71.28   12.16
   3  -5  -9  247.69   26.72
   3  -5  -8   29.22    9.95
  -3   5   7    4.58    5.34
  -3   5   7    7.56    2.99
   3  -5  -7    5.83    5.29
  -3   5   6   28.49    8.77
  -3   5   6   48.22    8.91
   3  -5  -6   43.21   10.31
   3  -5  -5    5.55    3.87
  -3   5   5    6.45    4.40
  -3   5   5    3.18    3.99
  -3   5   4  138.73   16.89
   3  -5  -4  156.27   19.53
   3  -5  -4  147.08   14.70
  -3   5   4  109.96   17.29
  -3   5   3    2.82    3.60
   3  -5  -3   -1.75    2.05
   3  -5  -3   -0.52    3.24
  -3   5   3   -4.68    4.60
  -3   5   2  575.25   39.00
   3  -5  -2  674.59   38.06
   3  -5  -2  657.56   40.46
   3  -5  -1   88.09   14.92
  -3   5   1   62.66   13.56
  -3   5   0   22.73    8.69
   3  -5   0   31.39    9.96
  -3   5  -1   98.76    9.42
   3  -5   1  125.25    9.11
   3  -5   1  114.45   19.86
   3  -5   1  100.27   10.43
   3  -5   2   24.28    8.57
  -3   5  -2   22.00    4.80
   3  -5   2   15.95    6.73
   3  -5   2   15.02    4.36
   3  -5   3   17.11    5.16
   3  -5   3   17.02    8.52
  -3   5  -3   20.43    5.68
   3  -5   4   -0.84    3.37
  -3   5  -4    2.05    0.69
   3  -5   5  547.17   46.61
   3  -5   5  509.65   30.65
   3  -5   5  468.92   30.09
   3  -5   6  216.21   30.27
   3  -5   6  211.44   20.24
   3  -5   6  195.67   19.25
   3  -5   7  355.36   38.98
   3  -5   7  359.24   27.53
   3  -5   7  319.95   25.35
   3  -5   8  293.43   35.59
   3  -5   8  299.67   25.71
   3  -5   8  278.82   24.21
   3  -5   9   23.85    6.88
   3  -5   9   19.29    8.91
   3  -5  10  118.49   22.97
   3  -5  10  128.88   17.64
   3  -5  11  117.52   22.54
   3  -5  11  109.55   16.71
   3  -5  12  107.29   21.78
   3  -5  12  112.10   16.85
   3  -5  13  112.35   16.41
   3  -5  13  153.27   26.31
   3  -5  14   43.41   13.97
   3  -4 -14   61.17   18.48
   3  -4 -14   46.92   10.95
   3  -4 -13   19.37    9.70
   3  -4 -13   28.91    8.32
   3  -4 -12   33.00   11.39
   3  -4 -12   22.48    7.03
   3  -4 -11   48.22   13.55
   3  -4 -11   32.72    8.93
   3  -4 -10   85.37   13.37
   3  -4 -10  126.28   20.38
   3  -4  -9   99.14   16.85
   3  -4  -9   94.59   14.18
   3  -4  -8   78.25    5.90
  -3   4   8  125.17   11.00
   3  -4  -8  125.68   19.01
  -3   4   7 1022.99   33.29
   3  -4  -7 1055.02   52.31
  -3   4   6    2.72    2.57
  -3   4   6    0.77    1.57
  -3   4   5 1149.76   41.33
   3  -4  -5 1163.79   52.31
  -3   4   5 1073.12   46.56
  -3   4   4   24.03    6.76
  -3   4   4   20.67    6.18
   3  -4  -4   23.65    5.58
   3  -4  -4   18.19    6.69
  -3   4   3 2220.27   66.00
   3  -4  -3 2150.37   57.58
   3  -4  -3 2237.98   71.50
  -3   4   2   94.92   14.29
   3  -4  -2   96.36   13.56
  -3   4   2   82.85   10.87
   3  -4  -2  104.75   15.30
  -3   4   1 1965.00   70.06
   3  -4  -1 2065.47   68.68
   3  -4  -1 2074.29   32.58
   3  -4   0 2532.67   83.20
   3  -4   0 2608.74   45.93
  -3   4   0 2723.21   87.89
  -3   4  -1  225.44   26.56
   3  -4   1  233.97   26.98
   3  -4   1  251.09   16.05
  -3   4  -2 2404.54   90.78
  -3   4  -2 2401.59   50.73
   3  -4   2 2258.01   86.64
   3  -4   2 2163.11   57.75
   3  -4   2 2283.68   54.52
   3  -4   3 1063.05   62.53
  -3   4  -3 1179.98   38.55
   3  -4   3 1074.53   39.08
   3  -4   4  616.16   49.25
  -3   4  -4  632.89   30.12
   3  -4   4  604.53   31.18
   3  -4   5   10.06    3.89
   3  -4   5   18.69    8.57
   3  -4   5   13.69    4.35
   3  -4   6  512.91   30.84
   3  -4   6  529.38   47.49
   3  -4   6  494.56   28.42
   3  -4   7   79.85   13.06
   3  -4   7  105.39   21.39
   3  -4   7   98.87   13.16
   3  -4   8   92.11   19.91
   3  -4   8   87.24   13.81
   3  -4   8  104.67   13.49
   3  -4   9  566.89   50.98
   3  -4   9  585.73   35.95
   3  -4   9  515.15   30.37
   3  -4  10   60.11   11.76
   3  -4  10   58.27   17.05
   3  -4  11  284.70   36.13
   3  -4  11  217.08   22.88
   3  -4  12  143.75   25.37
   3  -4  12  166.15   20.41
   3  -4  13   30.24   11.60
   3  -4  13   31.79    9.58
   3  -4  14  100.26   21.49
   3  -4  14  133.55   18.86
   3  -3 -14  119.84   18.88
   3  -3 -13  249.52   34.51
   3  -3 -13  176.57   21.70
   3  -3 -12    0.53    4.56
   3  -3 -12   -3.09    4.56
   3  -3 -11   53.44   11.02
   3  -3 -11   69.79   16.14
   3  -3 -10  170.02   24.50
   3  -3 -10  123.12   16.98
   3  -3  -9  102.03   18.02
   3  -3  -9   84.12   14.20
  -3   3   8  207.17    9.56
   3  -3  -8  168.51   11.78
   3  -3  -8  186.94   20.23
   3  -3  -7   32.87    9.23
   3  -3  -7   34.37    4.88
   3  -3  -7   37.46    8.26
  -3   3   7   43.30    5.08
  -3   3   6  225.12   13.44
   3  -3  -6  224.15   23.19
   3  -3  -6  207.41   11.04
  -3   3   5   11.68    4.06
  -3   3   5    9.66    3.19
   3  -3  -5   12.51    2.27
   3  -3  -5   10.24    3.20
   3  -3  -4   15.79    2.55
  -3   3   4   15.59    4.28
  -3   3   4   18.77    4.81
   3  -3  -4   17.96    6.86
  -3   3   3   25.07    5.10
   3  -3  -3   19.57    3.33
  -3   3   3   24.69    6.59
   3  -3  -3   30.46    6.42
   3  -3  -3   33.13    8.89
  -3   3   2  140.80   16.40
   3  -3  -2  119.96    7.51
   3  -3  -2  127.15   14.46
   3  -3  -2  126.72   16.09
  -3   3   2   91.38    9.19
  -3   3   1  573.00   36.03
   3  -3  -1  514.18   33.02
   3  -3  -1  512.84   17.99
  -3   3   0  112.35   16.64
   3  -3   0  119.09   17.83
   3  -3   0  108.08    9.17
   3  -3   1  161.43   22.14
   3  -3   1  187.74   13.71
   3  -3   2   48.13   12.57
  -3   3  -2   37.82    6.35
   3  -3   2   40.53    6.80
   3  -3   2   35.78    3.82
   3  -3   3  396.67   38.09
  -3   3  -3  474.53   25.07
   3  -3   3  463.53   25.31
  -3   3  -4  107.78   12.47
   3  -3   4  105.02   20.65
   3  -3   4  115.00   13.54
  -3   3  -5  102.41   12.57
   3  -3   5  104.13   20.49
   3  -3   5  122.39   14.24
   3  -3   5  108.13   11.89
   3  -3   6   98.93   20.61
   3  -3   6  116.95   14.63
   3  -3   6  130.71   13.01
   3  -3   7  552.70   33.61
   3  -3   7  545.47   48.41
   3  -3   7  552.88   28.28
   3  -3   8 1214.85   71.94
   3  -3   8 1228.05   50.38
   3  -3   8 1272.40   42.60
   3  -3   9  199.95   30.01
   3  -3   9  191.58   19.87
   3  -3   9  184.45   14.45
   3  -3  10 1238.08   73.32
   3  -3  10 1212.60   52.12
   3  -3  11  102.80   21.36
   3  -3  11  100.19   15.51
   3  -3  12  133.01   24.40
   3  -3  12  123.90   17.21
   3  -3  13  233.48   32.50
   3  -3  13  243.59   24.64
   3  -3  14    6.96    4.87
   3  -3  14   -0.56    2.37
   3  -3  15  253.74   33.45
   3  -3  15  246.28   25.03
   3  -2 -14   37.10   10.98
   3  -2 -14   69.68   20.10
   3  -2 -13    5.31    4.22
   3  -2 -12  379.25   43.75
   3  -2 -12  313.31   29.92
   3  -2 -11   17.13    8.29
   3  -2 -11   17.43    7.25
   3  -2 -10  542.58   46.08
   3  -2 -10  459.87   33.98
   3  -2  -9   92.99   10.96
   3  -2  -9  110.89   19.77
   3  -2  -9  112.43   16.29
   3  -2  -8  542.97   24.91
   3  -2  -8  576.77   41.42
   3  -2  -8  536.82   35.31
   3  -2  -7  590.90   39.56
   3  -2  -7  596.82   25.41
   3  -2  -7  596.56   35.85
   3  -2  -6   11.78    6.00
   3  -2  -6   18.74    6.48
   3  -2  -6   16.26    3.72
   3  -2  -5 1631.31   59.34
   3  -2  -5 1530.93   37.12
   3  -2  -5 1528.01   54.87
   3  -2  -4 1462.98   53.97
   3  -2  -3 1466.01   52.13
   3  -2  -3 1457.30   34.80
   3  -2  -2 1887.95   50.43
   3  -2  -2 1751.46   55.02
   3  -2  -1  812.90   24.51
   3  -2  -1  891.69   40.83
   3  -2  -1  842.19   37.57
   3  -2   0 1265.39   54.70
   3  -2   0 1277.76   32.72
   3  -2   1  218.27   25.32
   3  -2   1  218.67   14.92
   3  -2   2 1734.24   74.11
   3  -2   2 1581.89   36.11
   3  -2   2 1758.98   45.32
   3  -2   3    2.27    1.41
   3  -2   3    5.17    5.93
  -3   2  -3    1.30    2.96
   3  -2   3    3.06    3.24
   3  -2   4 1626.99   77.45
  -3   2  -4 1769.65   51.97
   3  -2   4 1670.93   49.97
   3  -2   5  277.43   32.83
  -3   2  -5  308.84   22.46
   3  -2   5  298.06   22.13
   3  -2   5  336.33   34.88
   3  -2   5  288.70   16.46
   3  -2   6  363.75   38.76
   3  -2   6  365.77   25.62
   3  -2   6  381.44   19.39
   3  -2   6  417.67   39.71
   3  -2   7 1528.24   78.85
   3  -2   7 1484.23   53.26
   3  -2   7 1476.13   37.66
   3  -2   8  209.92   29.00
   3  -2   8  200.63   20.12
   3  -2   8  239.19   12.78
   3  -2   9 1016.19   64.66
   3  -2   9  970.36   45.61
   3  -2   9 1124.54   27.56
   3  -2  10  154.38   25.36
   3  -2  10  173.28   19.67
   3  -2  11   38.20   12.81
   3  -2  11   55.16   11.10
   3  -2  12   16.81    6.35
   3  -2  12   10.15    5.92
   3  -2  13   10.54    8.74
   3  -2  13    5.18    3.03
   3  -2  14    3.49    3.70
   3  -2  14   11.40    5.36
   3  -2  15    6.70    6.86
   3  -2  15    1.90    3.23
   3  -1 -14   -0.61    1.56
   3  -1 -14    0.11    4.62
   3  -1 -13   24.18    9.56
   3  -1 -13   15.27    6.99
   3  -1 -12   37.56   10.75
   3  -1 -11   83.47   15.64
   3  -1 -10    5.18    6.26
   3  -1 -10    0.68    2.68
   3  -1  -9  936.44   38.04
   3  -1  -9  958.21   61.64
   3  -1  -9  885.18   48.15
   3  -1  -8  105.25   18.58
   3  -1  -8  118.40   12.58
   3  -1  -8  111.68   17.08
   3  -1  -7  394.70   33.71
   3  -1  -7  399.47   23.21
   3  -1  -7  373.92   29.75
   3  -1  -6   36.11    9.84
   3  -1  -6   33.60    6.64
   3  -1  -6   36.21    9.52
   3  -1  -5  242.42   23.00
  -3   1   5  239.39   25.68
   3  -1  -5  233.06   22.04
   3  -1  -4  406.98   28.17
   3  -1  -4  418.88   28.60
  -3   1   4  413.24   31.08
   3  -1  -3   84.65   11.70
   3  -1  -3   67.09    5.86
   3  -1  -3   80.58   12.40
   3  -1  -2   66.23    9.94
   3  -1  -2   68.01    8.65
   3  -1  -2   60.20   10.53
   3  -1  -1   17.28    6.24
   3  -1  -1   25.17    6.03
  -3   1   1   14.82    4.89
   3  -1   0    8.64    4.18
  -3   1   0   11.42    2.69
   3  -1   1   28.31    9.35
   3  -1   1   33.64    5.94
   3  -1   2    1.37    2.36
   3  -1   2    3.86    2.37
   3  -1   2    4.21    1.97
   3  -1   3 2172.03   53.08
   3  -1   3 2302.46   58.83
  -3   1  -4  902.95   36.43
   3  -1   4  839.90   35.12
   3  -1   4  918.61   37.13
   3  -1   5 1959.56   77.84
  -3   1  -5 2024.67   57.63
   3  -1   5 1897.15   54.87
   3  -1   5 1866.23   54.33
   3  -1   6 1941.28   57.24
   3  -1   6 2039.27   60.71
   3  -1   6 1913.22   83.75
   3  -1   7   19.41    5.69
   3  -1   7   17.10   10.84
   3  -1   8  347.26   35.97
   3  -1   8  373.60   27.12
   3  -1   9  293.89   33.43
   3  -1   9  303.31   24.84
   3  -1  10   98.67   19.75
   3  -1  10   83.95   13.01
   3  -1  11  172.65   26.48
   3  -1  11  152.04   18.31
   3  -1  12  226.08   22.90
   3  -1  12  204.79   29.03
   3  -1  13  263.60   25.21
   3  -1  13  250.29   33.12
   3  -1  14  103.57   20.52
   3  -1  14  111.81   16.70
   3  -1  15  382.09   40.34
   3  -1  15  427.42   33.58
   3   0 -15   -4.18    5.11
   3   0 -15   -3.14    4.85
   3   0 -14  119.84   27.99
   3   0 -14   81.76   18.24
   3   0 -13   93.46   20.31
   3   0 -13   90.22   23.07
   3   0 -12   58.36   14.94
   3   0 -12   98.45   24.34
   3   0 -11   30.57   14.47
   3   0 -11   32.10   11.65
   3   0 -10  347.07   33.89
   3   0  -9  642.08   54.08
   3   0  -9  617.94   43.73
   3   0  -8  560.94   30.42
   3   0  -8  532.14   46.17
   3   0  -8  518.27   38.42
   3   0  -7 2229.06   60.36
   3   0  -7 2289.36   90.05
   3   0  -7 2153.04   76.24
   3   0  -6   17.93    7.27
  -3   0   6    7.45    4.42
   3   0  -6    8.96    4.11
  -3   0   5 2742.82   87.52
   3   0  -5 2788.86   81.82
   3   0  -5 2739.85   79.64
  -3   0   4  801.20   42.24
   3   0  -4  809.06   40.09
   3   0  -4  802.73   41.83
   3   0  -3 1738.32   53.32
   3   0  -3 1679.24   57.36
  -3   0   3 1690.41   56.38
   3   0  -2 1624.84   42.81
   3   0  -2 1688.82   47.73
   3   0  -2 1591.69   53.73
   3   0  -1  274.51   17.71
   3   0  -1  311.42   22.17
  -3   0   1  284.36   28.00
   3   0   0 1508.14   46.12
  -3   0   0 1561.95   56.87
   3   0   0 1418.29   37.55
   3   0   1  495.27   23.89
  -3   0  -1  506.46   25.46
   3   0   1  504.71   34.90
   3   0   2 2267.18   52.73
   3   0   2 2391.34   47.07
   3   0   2 2349.90   75.85
  -3   0  -2 2436.56   49.26
   3   0   3 1298.55   41.32
   3   0   3 1294.02   29.58
   3   0   3 1331.30   53.94
   3   0   4 1729.58   50.20
   3   0   4 1859.00   67.11
   3   0   4 1846.83   62.64
   3   0   5    9.87    4.56
   3   0   5    9.14    3.91
   3   0   5    3.16    3.06
   3   0   6  712.72   34.16
   3   0   6  735.31   50.48
   3   0   6  769.45   41.23
   3   0   7    6.09    4.02
   3   0   7    3.79    2.94
   3   0   8   61.70   15.21
   3   0   8   61.42   11.02
   3   0   9  507.55   31.88
   3   0  10  352.18   27.36
   3   0  11  203.86   21.00
   3   0  12  351.34   36.85
   3   0  12  398.60   30.63
   3   0  13    2.94    2.41
   3   0  13    3.21    3.21
   3   0  14    1.64    4.08
   3   0  14    7.59    4.83
   3   0  15    8.16    6.06
   3   0  15   -1.96    1.75
   3   1 -15   43.15   14.77
   3   1 -15   33.41   12.10
   3   1 -14   58.66   20.21
   3   1 -14   56.02   15.60
   3   1 -13  125.14   28.00
   3   1 -13  103.82   21.82
   3   1 -12   -0.82    3.45
   3   1 -12   -6.46    8.13
   3   1 -11   39.18   16.20
   3   1 -11   42.23   13.47
   3   1 -10  212.73   28.89
   3   1 -10  189.11   32.95
   3   1  -9   27.01   13.05
   3   1  -9    8.03    4.91
   3   1  -8   95.09   18.49
   3   1  -7    8.70    5.16
   3   1  -7    1.88    2.94
   3   1  -6    1.77    2.63
   3   1  -6    3.17    3.84
  -3  -1   6    3.26    2.10
   3   1  -5   68.59   14.97
  -3  -1   5   84.34   15.73
   3   1  -5   58.08   13.12
   3   1  -4   -0.39    1.33
   3   1  -4   -0.69    3.59
  -3  -1   4    3.56    3.64
  -3  -1   4    3.97    2.62
  -3  -1   3  349.15   25.10
   3   1  -3  321.19   13.22
   3   1  -3  367.30   26.29
  -3  -1   3  322.71   29.11
   3   1  -3  294.86   27.12
   3   1  -2  261.01   19.23
  -3  -1   2  270.58   24.75
   3   1  -2  223.46   23.12
  -3  -1   2  231.03   17.61
   3   1  -1  576.58   23.78
  -3  -1   1  590.84   34.44
   3   1  -1  602.12   36.60
  -3  -1   1  602.90   47.00
   3   1   0  301.83   14.04
  -3  -1   0  330.87   23.14
   3   1   0  287.71   24.43
  -3  -1   0  312.26   32.17
   3   1   1  956.87   56.54
   3   1   1  942.27   41.97
  -3  -1  -1  951.41   48.56
   3   1   2   11.42    4.10
   3   1   2   12.88    4.48
   3   1   2    4.43    3.33
  -3  -1  -2    7.38    4.05
   3   1   3  932.97   53.36
   3   1   3  916.22   34.97
   3   1   3  945.95   26.07
   3   1   3  878.24   39.87
  -3  -1  -3  925.25   36.63
   3   1   4  792.21   33.45
   3   1   4  806.00   48.46
   3   1   4  842.42   45.29
   3   1   5   97.35   16.96
   3   1   5   81.33   11.12
   3   1   6  985.35   39.59
   3   1   6  965.84   53.69
   3   1   6  982.34   52.20
   3   1   7   73.17   13.82
   3   1   7   83.96   11.58
   3   1   7   64.30   15.60
   3   1   8  748.47   36.76
  -3  -1  -8  778.56   63.01
   3   1   8  710.88   47.25
  -3  -1  -9   57.05   17.66
   3   1   9   60.33   10.54
  -3  -1 -10 1841.70  113.32
   3   1  10 1584.61   56.60
   3   1  11  246.12   22.57
  -3  -1 -11  267.84   44.80
  -3  -1 -12  738.71   77.26
   3   1  12  586.44   35.95
  -3  -1 -13  563.96   68.30
   3   1  13  504.79   34.30
  -3  -1 -14   19.18   15.27
   3   1  14   24.27    7.15
   3   1  15  115.48   21.40
   3   1  15  153.06   19.24
   3   2 -15   47.22   19.33
   3   2 -15   21.46   10.46
   3   2 -14  189.98   28.99
   3   2 -14  233.99   38.57
   3   2 -13   -3.33    5.37
   3   2 -13    4.66    6.76
   3   2 -12  739.17   57.84
   3   2 -12  749.61   68.33
   3   2 -11  691.73   56.37
   3   2 -11  751.66   67.91
  -3  -2  10  357.21   16.21
   3   2 -10  409.04   43.16
   3   2 -10  451.03   51.68
   3   2  -9 1433.91   79.43
   3   2  -9 1412.26   90.56
  -3  -2   8   50.55    5.86
   3   2  -8   64.40   17.72
   3   2  -8   60.03   16.40
   3   2  -7   59.65   17.22
   3   2  -7   83.29   19.48
  -3  -2   6  302.58   31.05
   3   2  -6  310.04   35.68
   3   2  -6  324.28   39.41
   3   2  -5  134.64   12.19
   3   2  -5  130.04   23.71
  -3  -2   5  122.60   18.42
   3   2  -5  128.42   22.82
   3   2  -4   45.63    6.57
   3   2  -4   51.54   14.03
  -3  -2   4   44.25   11.18
   3   2  -4   47.41   14.34
  -3  -2   4   36.97    9.21
   3   2  -3 2350.06   47.84
  -3  -2   3 2248.00   64.57
  -3  -2   3 2418.47   82.48
   3   2  -3 2252.22   90.90
   3   2  -3 2422.56   87.77
  -3  -2   2 5895.00   85.42
   3   2  -2 5903.02   78.74
  -3  -2   2 6102.08  128.92
  -3  -2   1  849.72   46.76
   3   2  -1  834.17   49.92
  -3  -2   1  831.62   62.94
  -3  -2   1  865.20   25.15
  -3  -2   0 6180.27  165.87
  -3  -2   0 6040.35  121.18
   3   2   0 5981.07  120.03
  -3  -2  -1    5.68    5.64
   3   2   1    4.46    5.21
   3   2   1   17.07    7.70
  -3  -2  -1    0.95    1.94
  -3  -2  -2 1966.53   61.09
   3   2   2 2021.32   49.98
   3   2   2 2137.61   95.32
  -3  -2  -2 2056.82   75.28
  -3  -2  -3   61.02   11.29
   3   2   3   59.83    7.06
  -3  -2  -3   68.48   10.55
   3   2   3   59.92   15.77
   3   2   4  508.90   43.78
   3   2   4  587.61   29.12
   3   2   4  556.91   25.66
  -3  -2  -4  561.56   23.06
  -3  -2  -4  535.21   31.13
   3   2   5  806.58   53.91
   3   2   5  798.35   34.50
  -3  -2  -5  807.20   44.84
   3   2   5  737.40   34.53
   3   2   6   70.23   11.85
   3   2   6   65.45   15.33
  -3  -2  -6   80.45   16.85
   3   2   6   67.11    9.88
  -3  -2  -7  468.89   46.69
   3   2   7  463.29   27.47
   3   2   7  423.85   30.97
  -3  -2  -8  386.77   47.15
   3   2   8  347.02   29.17
   3   2   8  389.99   25.57
  -3  -2  -9   43.22   17.69
   3   2   9   19.28    5.99
  -3  -2 -10   -7.52   12.10
   3   2  10    2.72    3.39
  -3  -2 -10   -0.69    1.00
  -3  -2 -11   21.56   11.65
   3   2  11   15.93    5.84
  -3  -2 -11    9.20    2.61
   3   2  12  115.62   15.48
  -3  -2 -12  136.83   31.87
  -3  -2 -13   26.60   14.96
   3   2  13   42.00    9.95
  -3  -2 -14   25.23   13.39
   3   2  14   18.55    6.78
  -3  -2 -15    9.78    9.11
   3   2  15    8.78    5.06
   3   3 -14   37.61   12.51
   3   3 -14   58.00   19.21
   3   3 -13   -1.86    6.05
   3   3 -13    2.31    5.67
   3   3 -12   35.84   14.32
   3   3 -12   36.53   12.35
  -3  -3  11   79.47    9.27
   3   3 -11  106.44   25.17
   3   3 -11   84.92   20.20
  -3  -3  10    6.45    2.13
   3   3 -10    9.34    9.72
   3   3 -10    4.97    2.53
  -3  -3   9  306.63   18.23
   3   3  -9  256.31   35.47
   3   3  -9  319.14   43.42
  -3  -3   8    2.51    1.56
   3   3  -8    1.69    3.63
   3   3  -7   17.29    8.59
   3   3  -7   12.35    5.15
  -3  -3   7   17.64    4.55
  -3  -3   6    4.24    3.59
   3   3  -6    0.21    1.66
   3   3  -6   -4.16    7.85
  -3  -3   6    5.73    3.18
   3   3  -6   -1.45    3.96
   3   3  -5   94.61   12.21
  -3  -3   5  104.77   17.28
   3   3  -5   76.52   18.84
   3   3  -5   86.46   19.11
   3   3  -4  439.33   41.16
   3   3  -4  442.02   25.18
  -3  -3   4  428.78   33.27
  -3  -3   4  428.80   35.05
   3   3  -4  457.04   44.56
  -3  -3   3    5.00    4.42
   3   3  -3    6.45    2.72
  -3  -3   3   13.57    6.96
   3   3  -3    4.29    5.22
   3   3  -3   14.66   10.25
   3   3  -2 1112.70   46.43
   3   3  -2 1184.07   40.25
  -3  -3   2 1134.97   42.65
  -3  -3   2 1277.20   60.90
   3   3  -2 1208.14   64.99
  -3  -3   1 1324.53   33.95
   3   3  -1 1324.97   44.10
  -3  -3   1 1285.16   86.05
  -3  -3   1 1430.65   64.79
   3   3  -1 1262.64   60.96
  -3  -3   0    5.72    4.21
  -3  -3   0    7.66    8.35
   3   3   0    4.25    5.69
  -3  -3  -1 1455.45   61.69
   3   3   1 1312.12   80.43
   3   3   1 1398.57   49.90
  -3  -3  -1 1424.57   80.59
  -3  -3  -2 1847.95   63.56
   3   3   2 1779.75   49.96
   3   3   2 1808.16   95.71
  -3  -3  -2 1804.59   82.15
   3   3   3 1054.61   72.09
  -3  -3  -3 1031.05   42.21
  -3  -3  -3 1060.31   55.33
  -3  -3  -3  978.69   29.62
   3   3   4 1469.39   35.40
   3   3   4 1476.25   45.58
  -3  -3  -4 1473.67   44.87
   3   3   4 1513.67   85.29
  -3  -3  -4 1439.80   55.29
  -3  -3  -4 1413.97   57.11
   3   3   5 1130.57   41.43
   3   3   5 1153.56   37.02
  -3  -3  -5 1130.91   34.80
  -3  -3  -5 1197.14   49.44
  -3  -3  -5 1166.65   62.81
   3   3   5 1123.29   70.80
  -3  -3  -6  678.08   54.98
   3   3   6  702.33   32.87
   3   3   6  684.51   32.20
  -3  -3  -6  624.72   23.05
  -3  -3  -7    1.92    1.92
  -3  -3  -7    2.12    4.94
   3   3   7    2.66    2.41
   3   3   7    2.64    2.56
   3   3   8  305.85   25.52
   3   3   8  335.90   23.71
  -3  -3  -8  255.37   11.43
   3   3   9  639.38   33.17
  -3  -3  -9  689.16   66.50
   3   3  10  256.49   22.08
  -3  -3 -10  231.11   40.11
  -3  -3 -10  164.63   13.36
   3   3  11  501.07   31.07
  -3  -3 -11  572.49   64.13
  -3  -3 -12  395.46   53.92
   3   3  12  327.43   25.58
  -3  -3 -13  563.16   63.21
   3   3  13  475.22   31.80
  -3  -3 -14   35.34   16.77
   3   3  14   39.27    9.58
  -3  -3 -15  395.10   52.09
   3   3  15  363.49   28.50
   3   4 -14  487.16   55.33
   3   4 -14  507.33   49.64
   3   4 -13   13.52   10.23
   3   4 -13    6.06    3.26
   3   4 -12  337.51   44.21
   3   4 -12  242.99   35.97
  -3  -4  11   55.93    8.69
   3   4 -11   73.32   21.32
   3   4 -11   49.26   16.50
  -3  -4  10  131.10   13.65
   3   4 -10  171.49   31.45
   3   4 -10  170.12   29.50
   3   4  -9  756.64   65.15
  -3  -4   9  707.94   31.23
   3   4  -9  780.96   63.94
   3   4  -8  199.78   22.39
  -3  -4   8  212.80   17.11
   3   4  -8  211.10   34.09
   3   4  -8  233.60   34.60
   3   4  -7 1959.28   66.62
   3   4  -7 1936.62   99.20
  -3  -4   7 2021.41   53.73
   3   4  -7 2206.89  106.22
   3   4  -6    6.80    8.75
  -3  -4   6   12.70    7.12
   3   4  -6   10.75    4.37
  -3  -4   6   19.29    5.36
   3   4  -6   16.89   11.62
   3   4  -5 1426.84   53.87
   3   4  -5 1395.51   75.88
  -3  -4   5 1547.54   67.80
   3   4  -5 1516.31   85.06
   3   4  -4  882.22   40.30
  -3  -4   4  998.75   53.05
   3   4  -4  971.10   65.32
   3   4  -3  392.28   26.70
  -3  -4   3  443.84   33.79
  -3  -4   3  375.20   34.56
   3   4  -3  397.74   39.56
   3   4  -2 1045.79   43.15
  -3  -4   2 1138.11   49.91
  -3  -4   2 1097.53   59.05
   3   4  -2 1042.20   59.25
  -3  -4   2 1066.22   83.42
   3   4  -1   16.08    4.66
  -3  -4   1   11.85    7.23
  -3  -4   1    9.39    2.32
   3   4  -1   10.02    4.72
  -3  -4   0  594.37   60.03
   3   4   0  573.49   32.76
  -3  -4   0  616.64   40.19
   3   4   0  562.17   36.17
   3   4   1   17.11    5.66
  -3  -4  -1   16.43   10.40
   3   4   1   11.37    6.53
  -3  -4  -1    9.97    4.38
  -3  -4  -2 1156.67   26.19
  -3  -4  -2 1150.67   49.25
   3   4   2 1269.92   83.75
  -3  -4  -2 1225.30   73.00
  -3  -4  -3  527.28   44.07
  -3  -4  -3  505.19   27.19
  -3  -4  -3  511.71   30.47
   3   4   3  481.00   51.93
  -3  -4  -4 1444.91   48.40
   3   4   4 1427.00   89.22
  -3  -4  -4 1468.86   67.11
   3   4   5 1099.70   40.54
   3   4   5 1013.10   34.79
  -3  -4  -5 1131.63   40.20
  -3  -4  -5 1076.53   52.49
  -3  -4  -6   14.67    5.35
  -3  -4  -6   14.07    5.54
   3   4   6   19.20    5.80
   3   4   6   13.84    5.33
  -3  -4  -7   68.56    9.19
  -3  -4  -7   71.45   17.82
   3   4   7   59.40    9.53
   3   4   7   68.02   10.98
  -3  -4  -8   15.68   10.15
   3   4   8   11.18    4.42
   3   4   8    5.84    2.78
   3   4   9   79.97   11.67
  -3  -4  -9   79.54   22.28
   3   4  10  113.96   14.08
  -3  -4 -10   57.79    6.78
  -3  -4 -10   97.99   25.80
  -3  -4 -11    6.86    3.22
   3   4  11    7.81    2.48
  -3  -4 -12    8.24   10.63
   3   4  12   11.46    4.51
  -3  -4 -13    8.86    9.10
   3   4  13    3.98    3.28
  -3  -4 -14   13.72   10.97
   3   4  14    8.45    3.66
   3   4  15    0.49    1.71
  -3  -4 -15    5.86    9.87
   3   5 -14    1.48    8.73
   3   5 -13   20.47   12.41
   3   5 -12    0.96    7.29
  -3  -5  11    0.35    2.36
   3   5 -11   12.23    8.46
  -3  -5  10    5.73    2.73
   3   5 -10   18.12   10.73
  -3  -5   9  281.10   21.38
   3   5  -9  317.77   42.74
  -3  -5   8  155.85   15.89
   3   5  -8  110.71   18.05
   3   5  -8  195.85   33.62
   3   5  -7  213.00   24.24
  -3  -5   7  279.45   21.93
   3   5  -7  300.43   40.56
   3   5  -6  426.01   32.63
  -3  -5   6  493.31   28.96
   3   5  -6  425.11   47.26
   3   5  -5  596.82   36.76
  -3  -5   5  599.74   32.47
  -3  -5   5  580.63   43.46
   3   5  -5  603.63   54.17
   3   5  -4  344.26   27.51
   3   5  -4  388.06   40.28
   3   5  -3 1600.12   59.57
   3   5  -3 1581.12   76.35
   3   5  -2  547.33   33.81
  -3  -5   2  524.47   40.63
  -3  -5   2  537.80   36.03
   3   5  -2  519.37   41.11
  -3  -5   2  567.93   64.68
   3   5  -1  595.92   35.57
  -3  -5   1  668.19   69.36
  -3  -5   1  582.09   41.50
   3   5  -1  582.77   40.48
  -3  -5   1  593.26   33.13
  -3  -5   0  606.43   27.65
   3   5   0  682.58   38.55
  -3  -5   0  674.65   43.47
   3   5   0  651.92   39.54
  -3  -5   0  657.43   66.95
   3   5   1 1535.20   94.89
   3   5   1 1495.95   58.42
  -3  -5  -1 1425.15   59.28
  -3  -5  -1 1414.99   90.71
  -3  -5  -1 1374.60   31.63
   3   5   2  243.56   38.20
  -3  -5  -2  216.69   12.52
  -3  -5  -2  238.31   23.72
  -3  -5  -2  223.64   32.98
  -3  -5  -3 1713.31   60.56
  -3  -5  -3 1767.58   86.90
  -3  -5  -3 1612.60   39.75
  -3  -5  -4  676.13   31.13
  -3  -5  -4  695.35   49.54
  -3  -5  -4  730.35   37.39
  -3  -5  -5  208.58   24.78
  -3  -5  -5  211.70   21.13
  -3  -5  -5  236.94   20.59
   3   5   6 1625.54   50.29
  -3  -5  -6 1634.75   69.77
  -3  -5  -6 1684.08   53.74
  -3  -5  -6 1653.97   65.85
   3   5   6 1484.31   47.94
  -3  -5  -7   91.78   12.32
   3   5   7   88.11   11.51
  -3  -5  -7   84.86   18.98
   3   5   7   74.30   11.17
   3   5   8 1384.33   47.61
   3   5   8 1168.38   48.71
   3   5   9  771.75   36.02
  -3  -5  -9  863.77   66.21
   3   5  10  761.22   36.34
  -3  -5 -10  806.32   66.89
   3   5  11  679.40   34.86
  -3  -5 -11  743.87   66.28
   3   5  12   99.77   13.54
  -3  -5 -12  131.54   28.97
   3   5  13  179.84   18.85
  -3  -5 -13  140.96   29.10
  -3  -5 -14   15.40   11.23
   3   5  14   28.98    7.24
  -3  -5 -15   40.85   14.77
   3   5  15   32.58    8.69
   3   6 -13   97.24   23.28
   3   6 -12  389.50   46.37
  -3  -6  11  372.57   26.00
   3   6 -11  533.33   55.00
  -3  -6  10  256.75   21.89
   3   6 -10  317.20   43.36
  -3  -6   9  627.65   34.13
   3   6  -9  691.21   63.94
  -3  -6   8  162.22   17.52
   3   6  -8  152.31   28.61
  -3  -6   7  577.61   33.29
   3   6  -7  539.21   55.23
   3   6  -6    2.38    3.71
  -3  -6   6    4.06    3.34
   3   6  -5  300.38   28.51
  -3  -6   5  364.61   26.80
   3   6  -5  345.78   40.21
   3   6  -4  236.53   25.14
  -3  -6   4  248.95   28.40
   3   6  -4  289.87   34.94
   3   6  -3  378.25   30.58
   3   6  -3  368.26   37.41
  -3  -6   3  309.50   29.98
  -3  -6   3  351.00   54.12
   3   6  -2 1710.29   66.40
   3   6  -2 1759.29   75.67
  -3  -6   2 1781.19  120.79
  -3  -6   2 1723.37   65.09
   3   6  -1   85.71   15.24
  -3  -6   1   68.18   11.63
   3   6  -1   65.59   12.73
  -3  -6   1   64.15   22.87
  -3  -6   0 2574.03  137.32
  -3  -6   0 2359.13   81.70
  -3  -6  -1  347.24   30.43
  -3  -6  -1  369.21   48.87
  -3  -6  -2  239.18   15.92
  -3  -6  -2  273.53   39.13
  -3  -6  -2  246.70   24.62
  -3  -6  -3   95.77   10.28
  -3  -6  -3  121.73   23.75
  -3  -6  -3  110.61   16.64
  -3  -6  -4   95.67   18.82
  -3  -6  -4   91.60   14.38
  -3  -6  -4   78.98   10.41
  -3  -6  -5   25.70    8.86
  -3  -6  -5   23.41    7.72
  -3  -6  -5   19.10    5.93
  -3  -6  -6   17.88    6.15
  -3  -6  -6   12.80    5.32
  -3  -6  -6   11.10    5.49
   3   6   6    9.96    3.76
  -3  -6  -7   73.37   14.20
  -3  -6  -7   73.27   12.32
   3   6   7   87.52   11.52
  -3  -6  -7   95.38   16.12
  -3  -6  -8   18.15    9.26
   3   6   8   23.11    6.06
   3   6   9  104.91   13.05
  -3  -6  -9   73.96   17.72
   3   6  10   56.08    9.70
  -3  -6 -11   -3.07    5.34
   3   6  11    0.58    2.25
  -3  -6 -12   78.49   20.40
   3   6  12   73.62   11.31
   3   6  13    8.13    4.85
  -3  -6 -13   16.07    9.31
   3   6  14   14.80    5.77
  -3  -6 -14   13.99    9.57
   3   7 -13   -1.60    7.42
   3   7 -12   61.43   21.28
   3   7 -11   32.90   13.79
  -3  -7  11   14.64    6.17
   3   7 -10    5.13    6.50
  -3  -7  10    1.08    2.05
   3   7  -9   -1.68    2.71
  -3  -7   9   -0.36    1.04
  -3  -7   8  195.81   20.20
   3   7  -8  164.96   31.87
   3   7  -7   -2.80    3.13
  -3  -7   7   -1.60    3.00
   3   7  -6  205.65   32.45
  -3  -7   6  241.30   22.45
   3   7  -5   33.91   12.66
  -3  -7   5   22.63    7.10
   3   7  -4  172.89   26.49
  -3  -7   4  135.20   21.37
  -3  -7   4  146.85   38.96
   3   7  -3  422.49   39.61
  -3  -7   3  372.16   32.72
  -3  -7   2  142.16   18.47
   3   7  -2  167.30   23.54
  -3  -7   2  156.53   36.76
  -3  -7   1 1379.80  106.18
  -3  -7   0   36.29   17.22
  -3  -7  -1  941.73   79.38
  -3  -7  -2 1076.06   78.95
  -3  -7  -2 1177.77   39.73
  -3  -7  -3   96.72   11.37
  -3  -7  -3   87.80   20.45
  -3  -7  -4 1105.46   40.00
  -3  -7  -4 1084.93   67.34
  -3  -7  -5  100.65   12.94
  -3  -7  -5   96.34   18.25
   3   7   6  393.54   24.83
  -3  -7  -6  417.42   28.39
  -3  -7  -6  430.05   36.83
   3   7   7  205.01   18.05
  -3  -7  -7  188.21   21.07
  -3  -7  -7  191.31   23.36
   3   7   8  895.34   37.80
  -3  -7  -8  758.09   46.05
   3   7   9  189.32   17.65
  -3  -7  -9  173.28   25.12
   3   7  10  300.83   22.20
  -3  -7 -10  264.34   33.36
   3   7  11  827.03   37.74
  -3  -7 -12   35.96   12.62
   3   7  12   22.36    6.04
   3   7  13  324.75   24.14
  -3  -7 -13  271.34   38.70
  -3  -7 -14   24.10   13.86
   3   7  14   12.74    4.68
   3   8 -12  379.08   49.65
   3   8 -11  208.18   37.36
  -3  -8  11  155.59   18.46
   3   8 -10   57.18   20.03
  -3  -8  10   52.21   11.08
  -3  -8   9  287.79   25.21
   3   8  -9  305.09   45.57
   3   8  -8    0.75    2.28
  -3  -8   8    1.59    1.87
  -3  -8   7  832.52   43.70
   3   8  -7  880.52   71.95
  -3  -8   6  385.36   29.80
   3   8  -6  348.43   42.66
  -3  -8   5  798.36   43.72
   3   8  -5  814.79   62.80
  -3  -8   5  786.59   87.07
   3   8  -4  863.97   61.61
  -3  -8   4  817.60   87.68
  -3  -8   3   28.83    9.83
  -3  -8   3   55.76   24.35
  -3  -8   2   15.20    8.22
  -3  -8   2   20.17   14.67
  -3  -8   1    7.62   12.62
  -3  -8   0  129.88   31.07
  -3  -8  -1    4.63    7.88
  -3  -8  -2  349.64   45.21
  -3  -8  -2  341.79   23.06
  -3  -8  -3  254.94   19.96
  -3  -8  -3  241.43   35.25
  -3  -8  -4  488.52   28.02
  -3  -8  -4  507.47   48.09
  -3  -8  -5  389.11   25.87
  -3  -8  -5  338.94   36.17
  -3  -8  -6   22.07    8.31
  -3  -8  -6   21.09    6.71
   3   8   6   26.26    6.50
  -3  -8  -7   32.35    9.75
  -3  -8  -7   28.48    7.97
   3   8   7   27.16    6.89
  -3  -8  -8   -1.06    2.58
   3   8   8   -2.35    1.51
  -3  -8  -9   58.43   13.18
   3   8   9   75.08   10.91
  -3  -8 -10   52.64   14.27
   3   8  10   60.65    9.74
   3   8  11  182.69   17.22
  -3  -8 -11  176.08   27.38
   3   8  12   73.78   10.91
  -3  -8 -13   20.51   11.09
   3   8  13    3.36    2.47
   3   9 -11   38.52   14.23
  -3  -9  11   11.21    4.55
   3   9 -10  130.27   31.04
  -3  -9  10   86.44   14.18
   3   9  -9    3.19    2.64
  -3  -9   9    9.38    5.37
   3   9  -8  109.57   26.88
  -3  -9   8   90.88   15.32
   3   9  -7    8.44    7.12
  -3  -9   7    7.05    4.46
  -3  -9   6   46.64   10.62
  -3  -9   6   41.43   21.50
  -3  -9   5    5.57    3.43
  -3  -9   5   15.36   14.47
  -3  -9   4   12.11    9.83
  -3  -9   3  556.47   73.71
  -3  -9   2    6.35    9.76
  -3  -9   1 1386.08  110.88
  -3  -9   0   21.44   14.11
  -3  -9  -1 1018.08   85.70
  -3  -9  -2   80.86   11.78
  -3  -9  -2   92.72   24.37
  -3  -9  -3  561.32   55.22
  -3  -9  -3  578.49   32.00
  -3  -9  -4  791.60   37.53
  -3  -9  -4  817.21   60.74
  -3  -9  -5    6.46    7.73
  -3  -9  -5    4.33    3.22
  -3  -9  -6 1071.90   46.05
  -3  -9  -6  956.25   57.61
   3   9   7  404.66   25.48
  -3  -9  -7  328.74   26.77
  -3  -9  -7  353.45   33.43
   3   9   8  326.35   22.89
  -3  -9  -8  302.05   27.31
  -3  -9  -8  295.54   29.94
   3   9   9  236.01   19.46
  -3  -9  -9  202.28   24.05
  -3  -9 -10   48.78   12.54
   3   9  10   60.93    9.74
  -3  -9 -11   70.10   16.59
   3   9  11   72.19   10.39
  -3  -9 -12   15.86    9.42
   3   9  12   11.04    4.24
  -3 -10  10   80.41   14.02
  -3 -10   9  374.06   30.82
  -3 -10   8   22.36    7.23
  -3 -10   8   16.03   14.16
  -3 -10   7  410.82   32.71
  -3 -10   7  400.72   65.93
  -3 -10   6  109.50   17.26
  -3 -10   6  127.08   36.90
  -3 -10   5  137.81   37.85
  -3 -10   4  263.22   51.53
  -3 -10   3    2.88    3.80
  -3 -10   2   93.55   30.39
  -3 -10   1   -5.82    7.84
  -3 -10   0   74.40   22.72
  -3 -10  -1   43.97   17.35
  -3 -10  -2   37.05    8.78
  -3 -10  -2   38.94   14.54
  -3 -10  -3   30.09   12.71
  -3 -10  -3   40.88    9.02
  -3 -10  -4   11.89    6.67
  -3 -10  -4   12.17    5.60
  -3 -10  -5  163.56   26.08
  -3 -10  -5  161.63   17.77
  -3 -10  -6    6.91    5.14
  -3 -10  -6    4.10    3.93
  -3 -10  -7   39.88   11.36
  -3 -10  -7   55.28   10.63
   3  10   7   53.25    9.59
  -3 -10  -8   45.97   12.14
  -3 -10  -8   54.61   11.38
   3  10   8   63.44   10.03
  -3 -10  -9   48.19   11.84
   3  10   9   53.43    8.83
  -3 -10 -10   -3.54    3.89
   3  10  10    1.80    1.85
  -3 -10 -11    0.67    2.05
  -3 -11   8  161.71   21.06
  -3 -11   8  166.38   41.05
  -3 -11   7   62.28   12.88
  -3 -11   7   78.90   28.23
  -3 -11   6  238.84   25.56
  -3 -11   6  220.81   49.10
  -3 -11   5  212.89   47.52
  -3 -11   4  270.26   53.60
  -3 -11   3  274.88   53.76
  -3 -11   2   76.43   26.22
  -3 -11   1  467.69   64.54
  -3 -11   0  286.58   48.75
  -3 -11  -1  126.98   16.33
  -3 -11  -1  112.84   28.14
  -3 -11  -2  972.99   77.92
  -3 -11  -2  858.63   42.62
  -3 -11  -3   13.27    8.36
  -3 -11  -3   14.64    6.21
  -3 -11  -4  597.05   35.03
  -3 -11  -4  586.39   53.23
  -3 -11  -5   42.85   13.72
  -3 -11  -5   28.22    7.66
  -3 -11  -6  264.83   23.93
  -3 -11  -6  282.31   31.62
  -3 -11  -7    7.96    4.47
  -3 -11  -7   10.08    6.19
   3  11   7   13.21    4.85
   3  11   8  199.22   17.87
  -3 -11  -8  161.43   19.82
  -3 -11  -8  154.70   22.65
  -3 -11  -9   31.81   10.03
   3  11   9   31.99    6.90
  -3 -12   7   19.50   15.57
  -3 -12   6    3.96   10.12
  -3 -12   5   98.53   32.97
  -3 -12   4   15.16   13.45
  -3 -12   3  230.81   48.63
  -3 -12   2   69.88   27.27
  -3 -12   1    8.26    9.25
  -3 -12   0    1.92    3.70
  -3 -12  -1   85.97   14.27
  -3 -12  -1  111.51   27.10
  -3 -12  -2   24.93   12.30
  -3 -12  -2   13.80    6.87
  -3 -12  -3   26.25   12.18
  -3 -12  -3   16.19    5.72
  -3 -12  -4    1.88    5.14
  -3 -12  -4    2.96    3.13
  -3 -12  -5   -3.97    3.43
  -3 -12  -5    3.63    2.32
  -3 -12  -6    2.34    1.46
   3  12   6    6.04    3.46
  -3 -12  -6    1.86    3.54
  -3 -12  -7   40.22   11.37
  -3 -12  -8   19.53    7.91
  -3 -13   4   64.40   27.75
  -3 -13   3  222.92   48.15
  -3 -13   2    8.47   11.53
  -3 -13   1  508.58   66.66
  -3 -13   0  179.39   36.73
  -3 -13  -1  155.29   19.29
  -3 -13  -1  123.82   28.94
  -3 -13  -2  354.26   45.50
  -3 -13  -3   50.06   16.95
  -3 -13  -4  208.11   31.59
  -3 -13  -5   14.37    8.63
   4 -11  -2   82.39   15.63
   4 -11  -2   81.18   17.09
   4 -11  -1   52.51   13.46
   4 -11  -1   59.58   14.84
   4 -11   0  116.83   20.77
   4 -11   0  138.42   23.32
   4 -11   1   14.21    8.36
   4 -11   2  143.05   23.72
   4 -11   3    5.20    5.47
   4 -10  -5   36.91   10.45
   4 -10  -4   11.57    6.83
   4 -10  -3   27.22    8.69
   4 -10  -3   28.18    9.74
   4 -10  -2   16.63    6.87
   4 -10  -2   38.59   11.68
   4 -10  -1   15.84    7.73
   4 -10  -1   16.42    7.14
   4 -10   0   58.25   15.42
   4 -10   1   -0.69    2.62
   4 -10   2  153.01   25.35
   4 -10   3   52.16   14.74
   4 -10   4   30.53   12.27
   4 -10   5   27.68   11.57
   4 -10   6  250.11   33.84
   4 -10   7    4.60    4.24
   4  -9  -8   26.43    9.82
   4  -9  -7   95.74   16.38
   4  -9  -6    2.24    3.26
   4  -9  -5  106.65   18.04
   4  -9  -4   55.77   13.56
   4  -9  -3  294.70   30.92
   4  -9  -3  260.60   25.58
   4  -9  -2  293.88   28.09
   4  -9  -2  358.54   34.03
   4  -9  -1  360.96   33.30
   4  -9  -1  448.12   39.02
   4  -9   0  692.47   48.15
   4  -9   1   12.33    6.72
   4  -9   2  132.51   23.18
   4  -9   3   85.27   19.66
   4  -9   4   -0.33    4.86
   4  -9   5   93.81   20.22
   4  -9   6  108.06   21.97
   4  -9   7  137.58   24.27
   4  -9   8   14.21    7.57
   4  -9   9   97.37   22.34
   4  -8  -9   24.96    9.63
   4  -8  -8   10.31    5.08
   4  -8  -7    8.61    6.27
   4  -8  -6   -1.01    2.64
   4  -8  -5   11.99    4.81
   4  -8  -4   11.97    4.61
   4  -8  -4   32.68   10.13
   4  -8  -3    3.01    3.50
   4  -8  -3    3.72    3.69
   4  -8  -2   18.82    7.38
   4  -8  -2   20.06    6.67
   4  -8  -1  103.44   17.57
   4  -8  -1   75.48   15.16
   4  -8   0   -1.91    4.22
   4  -8   1   84.66   17.16
   4  -8   2   59.05   14.81
   4  -8   3   55.93   15.18
   4  -8   4  110.31   22.16
   4  -8   5   45.33   14.32
   4  -8   6   42.36   13.90
   4  -8   7   57.52   15.47
   4  -8   8   70.87   18.73
   4  -8   9    1.43    5.34
   4  -8  10  262.09   35.09
   4  -7 -10   37.54   11.64
   4  -7 -10   14.42    5.78
   4  -7  -9  230.05   26.56
   4  -7  -8    0.32    4.64
   4  -7  -7  373.05   32.75
   4  -7  -6   26.83    8.44
   4  -7  -5  636.52   42.43
   4  -7  -4   26.15    7.09
   4  -7  -4   24.71    8.63
   4  -7  -3  179.50   22.90
   4  -7  -3  121.10   15.98
   4  -7  -2  206.65   22.88
   4  -7  -2  242.70   26.50
   4  -7  -1   15.25    5.50
   4  -7  -1   12.71    6.00
   4  -7   0  249.55   28.09
   4  -7   1   30.35   10.74
   4  -7   2  885.24   57.19
   4  -7   3   73.64   17.92
   4  -7   4  953.42   63.37
   4  -7   5  521.62   47.73
   4  -7   5  366.69   36.61
   4  -7   6   37.81   13.01
   4  -7   7  128.56   24.37
   4  -7   8   65.25   16.70
   4  -7   9   12.86    9.24
   4  -7  10   53.80   16.35
   4  -7  11   11.09    7.96
   4  -6 -11    3.72    4.73
   4  -6 -11   -0.35    1.17
   4  -6 -10   28.90    9.31
   4  -6 -10   24.76    7.49
   4  -6  -9    7.05    4.76
   4  -6  -9    0.66    2.25
   4  -6  -8  132.36   19.44
   4  -6  -7   -0.31    2.91
   4  -6  -6   -1.30    1.64
   4  -6  -5    6.34    5.09
   4  -6  -4   50.29    8.99
   4  -6  -4   35.51    9.79
   4  -6  -3  311.43   29.11
   4  -6  -3  279.92   23.02
   4  -6  -2   30.78    8.49
   4  -6  -2   27.25    8.95
   4  -6  -1  437.57   34.30
   4  -6  -1  463.04   35.57
   4  -6   0   59.86   13.53
   4  -6   1  125.40   20.89
   4  -6   1   91.32   10.55
   4  -6   2  101.63   19.85
   4  -6   2   91.65   11.32
  -4   6  -3   87.39   10.26
   4  -6   3  109.31   21.04
   4  -6   3   91.90   12.65
   4  -6   3   54.88    6.27
   4  -6   4  297.09   35.40
   4  -6   4  294.96   22.15
   4  -6   4  220.94   22.78
   4  -6   5   44.20   13.24
   4  -6   5   35.11    8.00
   4  -6   6 1130.71   72.37
   4  -6   6 1166.45   47.74
   4  -6   7   20.13    7.05
   4  -6   7   11.75    6.65
   4  -6   8  320.66   39.02
   4  -6   8  280.93   25.37
   4  -6   9   15.46    8.38
   4  -6   9   -6.51    4.74
   4  -6  10  130.65   24.50
   4  -6  10  112.89   17.27
   4  -6  11   85.67   19.86
   4  -6  11   83.00   14.48
   4  -6  12   98.96   15.90
   4  -6  12   92.85   19.92
   4  -5 -12  201.18   27.47
   4  -5 -12  148.61   19.29
   4  -5 -11    4.44    5.14
   4  -5 -11    2.86    3.15
   4  -5 -10  378.26   34.39
   4  -5 -10  314.50   27.27
   4  -5  -9  209.21   24.81
   4  -5  -9  167.15   19.31
   4  -5  -8  145.67   20.41
   4  -5  -8  102.49   15.01
   4  -5  -7  730.60   43.76
   4  -5  -6   -2.25    3.34
  -4   5   5  547.69   30.85
   4  -5  -5  634.50   40.01
  -4   5   4  351.88   26.14
   4  -5  -4  404.62   31.74
   4  -5  -4  333.82   21.10
   4  -5  -3  165.00   20.32
  -4   5   3  146.00   18.11
   4  -5  -3  153.84   16.34
  -4   5   2  946.20   49.89
   4  -5  -2  998.67   46.10
   4  -5  -2 1097.83   52.72
  -4   5   1    1.88    3.91
   4  -5  -1    1.42    2.27
   4  -5  -1    3.20    2.73
   4  -5  -1    2.34    1.03
   4  -5   0  726.01   46.54
   4  -5   0  684.59   24.93
   4  -5   1    2.02    1.71
   4  -5   1    3.61    2.21
   4  -5   2  415.76   39.37
   4  -5   2  403.99   23.09
   4  -5   3   73.24   17.35
   4  -5   3   62.36    9.35
   4  -5   4   71.36   17.23
   4  -5   4   59.41    9.62
   4  -5   5   97.23   20.39
   4  -5   5  135.47   15.55
   4  -5   6    7.79    4.84
   4  -5   6    4.66    5.97
   4  -5   6   -0.01    2.89
   4  -5   7   33.15   12.27
   4  -5   7   49.88   10.21
   4  -5   8   18.94    9.78
   4  -5   8   31.45    8.43
   4  -5   9  153.33   27.28
   4  -5   9  204.97   22.22
   4  -5  10   -4.92    7.32
   4  -5  10    4.13    4.51
   4  -5  11   48.91   15.43
   4  -5  11   74.84   13.50
   4  -5  12   28.44   12.31
   4  -5  12   16.90    6.66
   4  -5  13   58.28   15.96
   4  -5  13   32.80    9.35
   4  -4 -12   56.94   15.02
   4  -4 -12   37.69    9.26
   4  -4 -11   19.29    8.82
   4  -4 -11   25.93    7.10
   4  -4 -10  245.60   28.18
   4  -4 -10  195.84   21.90
   4  -4  -9   26.62    7.99
   4  -4  -9   17.10    6.65
   4  -4  -8   50.60   11.65
   4  -4  -8   42.82   10.04
   4  -4  -7    4.89    2.54
   4  -4  -7   10.58    5.42
  -4   4   6  369.47   26.21
   4  -4  -6  576.90   37.63
   4  -4  -5  148.98   18.67
  -4   4   5  101.01   13.11
   4  -4  -4   39.08    6.67
   4  -4  -4   50.69   11.07
  -4   4   4   30.93    7.14
   4  -4  -3    3.32    2.38
   4  -4  -3    5.98    1.29
   4  -4  -2   12.70    5.21
   4  -4  -2    7.83    3.25
   4  -4  -2    7.74    2.07
   4  -4  -1  178.73   20.94
   4  -4  -1  181.68   11.39
   4  -4  -1  186.54   20.70
   4  -4   0   28.60    9.41
   4  -4   0   28.11    5.45
   4  -4   1  804.52   51.48
   4  -4   1  744.98   29.25
   4  -4   2  265.86   30.80
   4  -4   2  302.40   20.23
   4  -4   3  407.40   40.01
   4  -4   3  403.12   24.62
   4  -4   4  332.47   37.53
   4  -4   4  364.18   24.65
   4  -4   4  322.58   18.16
   4  -4   5  264.28   33.81
   4  -4   5  340.71   24.97
   4  -4   6  333.73   39.00
   4  -4   6  382.44   27.50
   4  -4   6  332.34   22.56
   4  -4   7  225.59   32.63
   4  -4   7  211.57   20.78
   4  -4   7  184.43   16.91
   4  -4   8  494.29   48.11
   4  -4   8  472.24   31.75
   4  -4   9   49.89   10.66
   4  -4   9   61.10   17.67
   4  -4  10  299.37   37.19
   4  -4  10  263.41   24.65
   4  -4  11  885.04   64.38
   4  -4  11  960.72   48.67
   4  -4  12   22.76   10.43
   4  -4  12   21.86    7.33
   4  -4  13  788.07   59.85
   4  -4  13  776.13   45.34
   4  -4  14   -2.58    5.19
   4  -4  14    3.98    3.56
   4  -3 -13    5.92    6.70
   4  -3 -13    1.67    3.29
   4  -3 -12  188.42   28.16
   4  -3 -12  126.65   18.15
   4  -3 -11  127.91   22.07
   4  -3 -11   79.63   14.59
   4  -3 -10   29.77   10.21
   4  -3 -10   22.96    7.41
   4  -3  -9  497.10   39.12
   4  -3  -9  417.42   32.00
   4  -3  -8   -0.39    3.18
   4  -3  -8    5.54    3.23
   4  -3  -7  827.02   45.94
   4  -3  -7  773.41   42.49
   4  -3  -6   20.95    7.01
   4  -3  -6   19.64    7.13
   4  -3  -6   17.78    3.50
   4  -3  -5 1360.09   30.17
   4  -3  -5 1302.59   52.63
  -4   3   4   17.52    4.10
   4  -3  -4   29.73    4.62
   4  -3  -4   26.28    7.46
   4  -3  -3  835.32   41.58
   4  -3  -3  767.01   21.74
   4  -3  -3  816.13   31.65
   4  -3  -2  922.76   43.60
   4  -3  -2  904.02   25.03
   4  -3  -2  990.91   41.66
   4  -3  -1   83.47    8.13
   4  -3  -1  102.80   15.31
   4  -3  -1   87.54   13.30
   4  -3   0  690.13   43.94
   4  -3   0  738.26   26.58
   4  -3   1  853.02   52.48
   4  -3   1  907.82   32.07
   4  -3   2  305.00   33.34
   4  -3   2  311.78   20.19
   4  -3   3  362.13   38.03
   4  -3   3  393.45   23.74
   4  -3   4  577.63   49.81
   4  -3   4  607.31   30.86
   4  -3   4  582.65   27.84
   4  -3   5   44.79    8.11
   4  -3   5   51.56   15.12
   4  -3   5   46.06    9.26
   4  -3   6   63.76    8.83
   4  -3   6   52.43    9.21
   4  -3   6   79.71   19.38
   4  -3   6   62.74   11.06
   4  -3   7    5.54    3.23
   4  -3   7   15.18    8.79
   4  -3   7    9.00    4.68
   4  -3   7    5.64    2.46
   4  -3   8   29.86   11.63
   4  -3   8   27.49    7.39
   4  -3   8   22.40    4.44
   4  -3   9   22.17   10.25
   4  -3   9   21.97    6.69
   4  -3  10   -2.96    3.70
   4  -3  10    2.16    1.21
   4  -3  11    1.60    3.95
   4  -3  11    8.76    4.95
   4  -3  12    9.23    3.90
   4  -3  12   -0.11    2.46
   4  -3  13    2.98    3.47
   4  -3  13    6.32    3.82
   4  -3  14   -1.80    3.79
   4  -3  14    2.52    3.74
   4  -2 -13   18.73    8.33
   4  -2 -12   32.67    8.57
   4  -2 -12   37.29   12.83
   4  -2 -11   41.60   12.85
   4  -2 -11   22.38    8.43
   4  -2 -10   10.61    7.10
   4  -2 -10    2.96    4.58
   4  -2  -9    6.47    6.00
   4  -2  -9    2.92    3.09
   4  -2  -8   15.25    7.12
   4  -2  -8   11.19    5.79
   4  -2  -7   10.10    5.34
   4  -2  -7    8.76    6.13
   4  -2  -7    6.63    2.68
   4  -2  -6    4.63    4.68
   4  -2  -6    0.99    1.86
   4  -2  -6    2.96    1.81
   4  -2  -5   24.91    7.72
   4  -2  -5   24.16    8.19
   4  -2  -4  119.98   15.52
   4  -2  -4  119.55   16.18
   4  -2  -3   95.98   13.42
   4  -2  -3   78.73    8.66
   4  -2  -3   96.25   14.00
   4  -2  -2  299.88   23.07
   4  -2  -2  301.61   21.89
  -4   2   2  229.93   17.42
   4  -2  -1 2526.74   74.24
   4  -2  -1 2540.74   66.85
   4  -2   0   13.96    7.53
   4  -2   0   17.90    4.31
   4  -2   1 3303.90  104.71
   4  -2   1 3192.52   60.78
   4  -2   2  503.31   42.35
   4  -2   2  573.57   27.25
   4  -2   3  231.85   29.54
   4  -2   3  224.93   18.21
   4  -2   3  188.20   17.34
   4  -2   4  491.45   44.51
   4  -2   4  528.97   29.03
   4  -2   4  498.73   29.56
   4  -2   5   -0.75    1.94
   4  -2   5   -0.14    5.62
   4  -2   5   -1.13    1.81
   4  -2   6  952.65   62.92
   4  -2   6 1022.58   43.33
   4  -2   6  997.86   43.92
   4  -2   6  928.13   28.40
   4  -2   7   19.46    6.33
   4  -2   7   27.70   10.29
   4  -2   7   29.28    8.05
   4  -2   7   20.25    3.63
   4  -2   8  995.03   64.38
   4  -2   8 1053.40   46.39
   4  -2   9  362.35   38.78
   4  -2   9  418.08   29.60
   4  -2  10  149.45   25.15
   4  -2  10  184.47   20.44
   4  -2  11  175.97   26.91
   4  -2  11  195.01   21.03
   4  -2  12   49.84   10.01
   4  -2  12   41.45   13.62
   4  -2  13  133.44   23.97
   4  -2  13  126.04   17.84
   4  -2  14    5.57    6.60
   4  -2  14    5.59    4.64
   4  -1 -13   99.79   19.54
   4  -1 -13  155.50   29.56
   4  -1 -12   79.97   17.10
   4  -1 -11  218.67   32.56
   4  -1 -11  174.09   23.25
   4  -1 -10  346.78   37.97
   4  -1 -10  324.66   31.10
   4  -1  -9  559.98   45.89
   4  -1  -9  525.29   39.26
   4  -1  -8  420.14   25.05
   4  -1  -8  465.35   38.57
   4  -1  -8  368.62   31.37
   4  -1  -7 1829.81   71.35
   4  -1  -7 1776.73   50.79
   4  -1  -7 1661.82   65.97
   4  -1  -6  190.71   21.82
   4  -1  -6  168.57   20.29
   4  -1  -5  278.55   24.68
   4  -1  -5  241.18   23.97
   4  -1  -4 1614.45   55.94
   4  -1  -4 1470.32   57.74
   4  -1  -3  129.81    9.87
   4  -1  -3  139.49   15.42
   4  -1  -3  137.60   17.11
   4  -1  -2  650.08   31.98
   4  -1  -2  669.33   32.09
   4  -1  -2  653.56   36.02
  -4   1   2  644.94   40.21
   4  -1  -1   95.05   11.68
   4  -1  -1  100.67   15.12
   4  -1  -1  112.29   14.01
  -4   1   1  110.44   12.94
   4  -1   0  311.47   29.20
   4  -1   0  369.24   24.65
  -4   1   0  372.95   15.16
   4  -1   0  322.52   21.28
   4  -1   1  179.62   23.59
   4  -1   1  162.68   14.29
   4  -1   1  183.73   15.94
   4  -1   2  364.60   35.01
   4  -1   2  371.82   22.55
   4  -1   2  405.58   22.48
   4  -1   2  351.17   27.44
   4  -1   3   70.07   10.32
   4  -1   3   55.94   14.53
   4  -1   3   69.05    8.44
   4  -1   3   63.84   11.98
   4  -1   4   71.80   10.88
   4  -1   4   61.18    6.75
   4  -1   4   62.94   11.84
   4  -1   5  194.61   24.69
   4  -1   5  201.06   18.37
   4  -1   5  167.69    9.23
   4  -1   5  190.20   21.81
   4  -1   6    5.58    4.51
   4  -1   6    9.36    4.18
   4  -1   6   14.37    5.32
   4  -1   7   61.10   11.95
   4  -1   7   53.55   14.68
   4  -1   7   52.39    9.73
   4  -1   8   19.65   10.58
   4  -1   8   50.03   10.36
   4  -1   9   47.33   13.85
   4  -1   9   36.47    8.14
   4  -1  10    4.91    4.41
   4  -1  10   14.89    5.19
   4  -1  11   31.97   10.84
   4  -1  11   26.66    8.20
   4  -1  12  116.61   22.86
   4  -1  12  165.68   19.82
   4  -1  13   15.09    5.75
   4  -1  13   23.74    7.62
   4  -1  14  183.61   27.63
   4  -1  14  226.22   23.27
   4  -1  15   22.59    9.36
   4  -1  15   19.36    7.17
   4   0 -14   11.42   10.42
   4   0 -14    9.75    5.97
   4   0 -13   -0.92    6.00
   4   0 -13   -0.19    5.09
   4   0 -12   -0.12    2.12
   4   0 -12    4.07    4.68
   4   0 -11    9.61    7.77
   4   0 -11    5.55    2.90
   4   0 -10    5.96    4.63
   4   0  -9   -3.97    6.69
   4   0  -9    9.56    7.02
   4   0  -8  253.11   31.07
   4   0  -8  172.24   23.29
   4   0  -7   96.98   17.75
   4   0  -7   71.42   14.57
   4   0  -6  729.62   44.60
   4   0  -6  721.67   44.97
   4   0  -5  244.70   24.01
   4   0  -5  224.94   24.49
  -4   0   5  223.69   24.01
   4   0  -4  214.26   21.08
   4   0  -4  208.34   22.81
  -4   0   4  196.89   20.93
   4   0  -3   31.45    7.84
   4   0  -3   34.10    5.42
   4   0  -3   35.59    9.50
   4   0  -2   20.88    5.77
   4   0  -2   24.64    8.34
  -4   0   2   16.49    8.10
   4   0  -2   28.10    6.60
   4   0  -1  129.60   12.66
   4   0  -1  131.91   16.08
  -4   0   1  130.96   19.83
   4   0   0   31.92    6.29
   4   0   0   36.68    8.86
  -4   0   0   28.93    8.16
   4   0   1 2664.50   65.80
  -4   0  -1 2808.48   61.10
   4   0   2  948.21   36.86
   4   0   2 1004.89   37.07
  -4   0  -2 1027.54   33.17
   4   0   2  995.12   54.46
   4   0   3 3064.68   67.91
   4   0   3 3173.60   60.41
   4   0   3 3072.05   98.72
   4   0   4 3083.71   85.32
   4   0   4 2973.29   68.08
   4   0   4 3154.96   99.39
   4   0   5  283.82   21.60
   4   0   5  297.13   30.20
   4   0   5  268.13   27.84
   4   0   6 1435.63   49.99
   4   0   6 1350.73   67.75
   4   0   6 1487.60   67.47
   4   0   7  126.15   19.20
   4   0   7  138.51   16.01
   4   0   7  101.04   18.98
   4   0   8  339.68   25.54
   4   0   9  597.37   34.24
   4   0  10   45.95    9.63
   4   0  11  555.80   34.86
   4   0  12   -2.18    2.33
   4   0  12    6.78    4.23
   4   0  13  165.46   25.29
   4   0  13  274.95   25.74
   4   0  14    2.65    3.45
   4   0  14    1.38    1.19
   4   0  15  148.82   25.44
   4   0  15  165.52   20.19
   4   1 -14  195.91   34.49
   4   1 -14  202.64   30.21
   4   1 -13   20.30   12.31
   4   1 -13   12.15    8.18
   4   1 -12  168.10   31.37
   4   1 -12  145.72   24.90
   4   1 -11  228.54   31.62
   4   1 -11  269.97   38.78
   4   1 -10    3.10    8.53
   4   1 -10   -0.19    1.40
   4   1  -9  692.55   51.62
   4   1  -9  729.51   60.45
   4   1  -8   30.04   10.99
   4   1  -7  728.28   51.02
   4   1  -6   22.28    9.49
   4   1  -6   27.53    9.90
  -4  -1   5  443.06   34.18
   4   1  -5  481.22   37.13
   4   1  -5  438.48   37.48
   4   1  -4   96.36   14.75
   4   1  -4  103.29   17.69
  -4  -1   4  124.79   16.31
   4   1  -3  824.64   23.13
   4   1  -3  888.30   40.05
   4   1  -3  872.23   50.73
  -4  -1   3  874.62   39.41
   4   1  -2  624.46   29.73
   4   1  -2  581.31   40.28
  -4  -1   2  627.33   52.21
   4   1  -1  373.78   20.13
   4   1  -1  373.59   31.09
  -4  -1   1  340.06   37.57
   4   1   0 1018.41   29.16
   4   1   0 1000.67   50.22
  -4  -1   0 1080.50   59.77
   4   1   1  953.69   46.67
   4   1   1  921.81   25.34
  -4  -1  -2   40.74    8.60
   4   1   2   47.14    9.31
   4   1   2   29.34   10.43
   4   1   3 1512.78   48.46
   4   1   3 1570.16   44.35
   4   1   3 1495.33   77.40
  -4  -1  -3 1584.10   49.35
   4   1   3 1584.96   50.98
   4   1   4  231.26   30.34
   4   1   4  208.49   18.23
   4   1   4  215.79   11.27
   4   1   4  207.81   21.47
   4   1   5   29.83    6.90
   4   1   5   38.81   12.76
   4   1   6  294.07   22.46
   4   1   6  295.02   33.46
   4   1   7   98.65   13.17
   4   1   7  110.24   18.14
   4   1   8  251.09   21.53
   4   1   8  200.19   24.90
   4   1   9    7.36    3.55
   4   1  10    9.61    3.79
   4   1  11   45.45   10.06
   4   1  12  133.38   17.13
   4   1  13    4.50    3.47
   4   1  14   81.23   13.97
   4   1  15   39.62   12.34
   4   1  15   56.40   11.54
   4   2 -14    4.54    6.88
   4   2 -14    9.92   10.09
   4   2 -13   14.92   11.32
   4   2 -13    8.59    6.95
   4   2 -12   12.05    5.15
   4   2 -12   10.13    5.27
   4   2 -11  206.56   35.13
   4   2 -11  150.99   26.28
   4   2 -10  360.34   44.84
   4   2 -10  399.43   42.82
   4   2  -9   80.69   20.80
   4   2  -9   61.00   17.18
   4   2  -8  243.32   32.12
   4   2  -8  263.94   36.10
   4   2  -7   -3.98    5.24
   4   2  -7    2.46    2.23
   4   2  -6   91.97   20.25
   4   2  -6   67.98   17.30
   4   2  -5    3.62    1.91
  -4  -2   5   -0.85    3.36
   4   2  -5    7.33    6.98
  -4  -2   4  282.35   24.24
   4   2  -4  304.08   15.21
   4   2  -4  306.50   34.77
  -4  -2   3 1641.68   52.18
   4   2  -3 1678.90   39.38
   4   2  -3 1678.00   79.63
  -4  -2   2   27.53   12.89
  -4  -2   2   24.44    5.09
  -4  -2   2   13.35    6.92
   4   2  -2   26.44   10.35
  -4  -2   1 5077.07  122.27
   4   2  -1 5342.25  133.08
  -4  -2   1 5489.73  166.31
  -4  -2   0  708.99   42.37
   4   2   0  703.31   44.72
  -4  -2   0  770.59   58.48
  -4  -2  -1 1734.51   59.15
   4   2   1 1628.65   61.02
  -4  -2  -1 1727.04   79.37
  -4  -2  -2 1142.37   41.54
  -4  -2  -2 1014.11   52.83
   4   2   2 1027.70   41.95
   4   2   2 1162.63   72.89
  -4  -2  -3   37.11    9.04
   4   2   3   36.19    4.90
   4   2   3   21.71   10.08
   4   2   3   37.60    7.30
   4   2   4  685.57   33.23
   4   2   4  610.42   25.46
   4   2   4  607.60   52.40
  -4  -2  -4  635.42   34.64
   4   2   5   -0.84    0.95
   4   2   5    3.31    2.34
   4   2   5    5.05    5.35
   4   2   6  903.69   38.95
   4   2   6  801.33   37.60
   4   2   7   18.75    6.59
   4   2   7   18.56    5.79
   4   2   8 1205.25   46.92
   4   2   8 1176.49   51.52
   4   2   9  470.07   29.51
   4   2  10  638.57   35.40
   4   2  11  579.08   34.12
   4   2  12   12.72    5.99
   4   2  13   58.21   11.74
   4   2  14   88.07   14.22
   4   2  15   17.30    6.00
   4   3 -13   86.67   21.33
   4   3 -13   79.61   19.15
   4   3 -12  212.54   31.82
   4   3 -12  206.77   34.72
   4   3 -11  505.06   52.90
   4   3 -11  518.14   50.24
   4   3 -10    3.15    4.42
   4   3 -10   18.92   10.12
   4   3  -9  618.93   53.29
   4   3  -9  607.25   56.38
   4   3  -8    4.86    6.79
   4   3  -8    6.60    6.57
   4   3  -7  289.82   37.45
   4   3  -7  246.06   34.36
   4   3  -6   33.54   11.80
   4   3  -6   15.34    4.95
   4   3  -6   23.77    8.86
  -4  -3   6   12.84    6.51
   4   3  -5   36.22   11.16
   4   3  -5   37.43    6.66
   4   3  -5   46.55   13.27
  -4  -3   5   30.83    8.63
  -4  -3   4  422.87   29.49
   4   3  -4  423.64   22.46
   4   3  -4  432.20   42.96
   4   3  -4  430.63   39.90
   4   3  -3    3.99    3.16
   4   3  -3   12.95    3.89
  -4  -3   3   12.94    4.97
   4   3  -3   11.09    5.69
  -4  -3   2  825.36   29.36
  -4  -3   2  832.80   71.44
   4   3  -2  833.21   33.51
  -4  -3   2  912.15   53.72
   4   3  -2  791.30   54.80
   4   3  -2  808.02   39.81
  -4  -3   1  307.20   29.98
   4   3  -1  307.50   32.40
  -4  -3   1  261.30   39.43
  -4  -3   0  232.36   35.66
  -4  -3   0  222.67   25.04
   4   3   0  234.10   24.93
  -4  -3  -1  584.61   39.29
   4   3   1  588.88   36.16
  -4  -3  -1  583.24   52.12
   4   3   2   85.71   12.01
  -4  -3  -2   71.05   13.38
   4   3   2   84.00   21.45
  -4  -3  -2   85.17   17.68
  -4  -3  -3   62.83   14.09
   4   3   3   76.24    9.97
  -4  -3  -3   61.92   11.39
   4   3   3   49.23   15.40
  -4  -3  -4   47.97   10.66
   4   3   4   57.11    9.05
  -4  -3  -4   46.32    8.28
   4   3   4   45.03   14.90
   4   3   4   49.48    4.85
   4   3   5  192.76   17.91
   4   3   5  221.05   13.66
  -4  -3  -5  238.44   14.75
  -4  -3  -5  222.76   21.89
   4   3   6  281.97   21.71
   4   3   6  255.20   17.55
   4   3   7   40.06    8.81
   4   3   7   33.39    7.11
  -4  -3  -8   -1.94    3.18
   4   3   8    5.48    2.44
   4   3   8   -0.11    2.34
  -4  -3  -9  146.38   24.84
   4   3   9  136.65   15.92
  -4  -3 -10  336.32   40.17
   4   3  10  310.24   23.94
  -4  -3 -11    5.42    4.23
   4   3  11    1.87    1.15
  -4  -3 -12  728.76   65.35
   4   3  12  640.64   36.06
  -4  -3 -13   76.75   20.66
   4   3  13   69.36   12.19
   4   3  14  189.98   20.54
   4   3  15   63.28   12.31
   4   4 -13   46.73   15.33
   4   4 -13   45.01   15.19
   4   4 -12   20.78   11.16
   4   4 -12   21.71   11.22
   4   4 -11   25.24    9.29
   4   4 -11   28.93   12.01
   4   4 -10  178.92   29.40
   4   4 -10  181.68   29.53
   4   4  -9    9.45    5.53
   4   4  -9    7.62    7.99
   4   4  -8  480.13   47.76
   4   4  -8  467.68   47.75
   4   4  -7  109.76   13.92
   4   4  -7  116.62   23.10
   4   4  -7  159.14   27.75
   4   4  -6  659.47   32.74
   4   4  -6  712.78   53.63
  -4  -4   6  658.24   41.75
   4   4  -6  695.17   57.92
   4   4  -5  388.78   24.91
   4   4  -5  408.36   38.15
  -4  -4   5  391.11   30.50
   4   4  -5  378.11   41.77
   4   4  -4  473.96   27.08
   4   4  -4  483.14   38.93
  -4  -4   4  502.29   32.07
   4   4  -4  558.68   49.75
   4   4  -3 1288.02   45.52
  -4  -4   3 1413.55   47.95
   4   4  -3 1271.16   72.17
  -4  -4   3 1337.03   96.07
   4   4  -2   12.08    4.42
  -4  -4   2   14.41    3.64
  -4  -4   2   10.26    8.58
   4   4  -2   18.68    9.44
  -4  -4   1  725.29   19.85
   4   4  -1  771.14   36.20
  -4  -4   1  778.91   49.44
   4   4  -1  786.38   50.32
  -4  -4   1  812.54   73.05
  -4  -4   0  385.71   33.70
   4   4   0  319.46   28.69
  -4  -4   0  373.97   47.97
  -4  -4  -1  203.45   24.72
   4   4   1  186.35   20.33
  -4  -4  -1  220.13   34.71
  -4  -4  -2  475.34   36.75
   4   4   2  472.35   29.30
   4   4   2  427.69   49.88
  -4  -4  -2  492.38   47.13
  -4  -4  -3  803.97   45.91
  -4  -4  -3  836.71   55.25
  -4  -4  -4 3776.55   93.90
  -4  -4  -4 3658.26  107.30
   4   4   5  282.42   21.67
  -4  -4  -5  264.69   22.85
  -4  -4  -5  268.46   26.24
   4   4   5  242.74   13.23
  -4  -4  -6 3418.00   83.02
   4   4   6 3475.61   77.48
  -4  -4  -6 3533.51   76.06
  -4  -4  -6 3595.11   92.67
   4   4   6 3424.27   60.77
   4   4   7  302.70   20.40
  -4  -4  -7  281.12   28.33
   4   4   7  317.30   23.38
  -4  -4  -7  243.70   17.37
  -4  -4  -8  128.95   21.64
   4   4   8  114.02   13.78
   4   4   8  140.25   15.79
  -4  -4  -9  319.60   36.74
   4   4   9  315.36   23.98
  -4  -4 -10   10.16    8.65
   4   4  10   10.72    3.58
   4   4  11  181.73   18.79
  -4  -4 -11  150.26   28.22
  -4  -4 -12    1.68    2.39
   4   4  12    6.09    4.35
   4   4  13  239.97   22.45
  -4  -4 -13  220.21   35.09
  -4  -4 -14   43.23   15.83
   4   4  14   35.82    8.77
   4   5 -13   15.45    8.39
   4   5 -12  165.22   29.49
   4   5 -11    7.73    8.10
   4   5 -10   57.27   17.57
   4   5  -9  564.42   54.33
   4   5  -8  380.00   43.98
   4   5  -7  578.02   35.15
   4   5  -7  750.68   62.16
   4   5  -6  472.27   30.75
   4   5  -6  617.61   55.62
   4   5  -5  218.15   20.16
  -4  -5   5  234.31   23.33
   4   5  -4  220.44   20.36
  -4  -5   4  236.56   22.22
   4   5  -4  289.16   35.99
   4   5  -3  166.55   17.95
  -4  -5   3  161.23   16.89
   4   5  -3  203.59   28.26
  -4  -5   3  166.94   35.88
  -4  -5   2   83.83   10.77
   4   5  -2   63.65   10.72
  -4  -5   2   94.05   26.76
   4   5  -2   82.22   15.84
   4   5  -1    7.30    3.70
  -4  -5   1    1.44    1.38
   4   5  -1   -0.83    1.79
  -4  -5   1    3.17    7.15
   4   5   0   97.33   15.44
   4   5   0  107.85   14.98
  -4  -5   0   83.88   15.58
  -4  -5   0   88.67   25.07
   4   5   1   71.40   12.34
  -4  -5  -1   45.64   11.68
  -4  -5  -1   64.91   19.32
  -4  -5  -2  343.47   30.06
  -4  -5  -2  427.44   46.70
  -4  -5  -3    8.61    5.38
  -4  -5  -3    8.84    6.21
  -4  -5  -4    2.60    3.62
  -4  -5  -4   -1.83    2.21
  -4  -5  -4    0.49    3.57
  -4  -5  -5  109.56   18.06
  -4  -5  -5  104.19   13.71
  -4  -5  -5  101.09   14.13
   4   5   6  455.47   27.88
  -4  -5  -6  432.67   27.24
  -4  -5  -6  437.12   33.76
  -4  -5  -6  451.23   34.43
  -4  -5  -7   73.85   15.86
  -4  -5  -7   89.03   15.43
   4   5   7   96.54   12.46
   4   5   7   77.13   10.13
  -4  -5  -7   75.11   10.43
   4   5   8  447.29   28.02
  -4  -5  -8  469.71   43.08
   4   5   8  391.25   25.19
  -4  -5  -9   12.66   10.79
   4   5   9    6.89    3.79
  -4  -5 -10   64.38   17.35
   4   5  10   75.24   11.64
  -4  -5 -11   50.01   16.78
   4   5  11   40.98    8.94
   4   5  12   31.07    8.18
  -4  -5 -12   26.48   13.60
  -4  -5 -13    6.73    6.51
   4   5  13    7.96    2.85
  -4  -5 -14   90.70   23.68
   4   5  14   93.25   14.09
   4   6 -12   27.74   12.49
   4   6 -11   60.99   18.28
   4   6 -10  228.13   35.39
   4   6  -9  113.43   25.02
   4   6  -8 1089.19   76.67
   4   6  -7   68.93   19.65
   4   6  -6  476.33   33.70
   4   6  -6  630.49   56.78
   4   6  -5  677.40   39.65
  -4  -6   5  797.10   44.60
   4   6  -5  865.28   63.80
   4   6  -4   10.72   10.40
  -4  -6   4   13.42    5.64
   4   6  -4    9.16    4.58
  -4  -6   4   18.56   10.77
  -4  -6   3 1397.46   55.03
   4   6  -3 1295.93   71.15
  -4  -6   3 1374.58  106.79
   4   6  -2  162.17   22.62
  -4  -6   2  165.70   17.28
  -4  -6   2  151.18   35.70
   4   6  -1 1809.81   75.49
  -4  -6   1 2018.76  126.05
   4   6   0   98.09   15.91
  -4  -6   0  100.90   26.43
  -4  -6  -1  551.05   13.97
  -4  -6  -1  688.45   66.55
  -4  -6  -2  303.55   11.07
  -4  -6  -2  312.86   30.02
  -4  -6  -2  240.36   11.21
  -4  -6  -2  332.95   43.32
  -4  -6  -3    2.58    3.61
  -4  -6  -3    0.06    2.15
  -4  -6  -4  945.94   47.86
  -4  -6  -4  955.53   61.93
  -4  -6  -5   21.25    9.18
  -4  -6  -5   22.99    7.70
   4   6   6 1248.92   46.39
  -4  -6  -6 1289.90   52.00
  -4  -6  -6 1179.53   60.20
  -4  -6  -7   84.63   15.86
  -4  -6  -7   92.07   16.70
   4   6   7   74.85   11.27
  -4  -6  -7   66.65   11.62
   4   6   8  674.73   34.27
  -4  -6  -8  691.22   52.00
   4   6   9  370.58   25.46
  -4  -6  -9  328.39   37.70
   4   6  10  120.89   14.62
  -4  -6 -10   91.11   21.22
   4   6  11  385.30   26.77
  -4  -6 -11  425.97   46.64
  -4  -6 -12    2.15    4.22
   4   6  12   13.30    5.52
  -4  -6 -13   26.84   11.48
   4   6  13   39.94    9.08
   4   6  14   97.99   14.11
   4   7 -12  129.71   25.95
   4   7 -11  246.89   37.26
   4   7 -10   -6.80    5.82
   4   7  -9  239.33   37.76
   4   7  -8   57.34   17.01
   4   7  -7   11.85    9.30
   4   7  -6    7.56    8.01
   4   7  -5   14.41    8.99
  -4  -7   5    8.88    8.30
   4   7  -4   28.72    9.30
  -4  -7   4   11.43    5.84
  -4  -7   4   15.60   13.09
   4   7  -3   16.91    8.63
  -4  -7   3   -5.06    7.59
   4   7  -2  298.13   32.13
  -4  -7   2  293.47   49.61
   4   7  -1   55.53   12.28
  -4  -7   1   48.33   10.05
  -4  -7   1   33.37   18.12
  -4  -7   0    1.00    1.48
  -4  -7   0   13.13   12.20
  -4  -7  -1   43.84    7.13
  -4  -7  -1   47.50    6.05
  -4  -7  -1   63.66   21.21
  -4  -7  -2   24.86    4.16
  -4  -7  -2   32.15   14.79
  -4  -7  -3  575.12   22.04
  -4  -7  -3  617.73   56.82
  -4  -7  -4  133.19   23.81
  -4  -7  -4  130.08   12.54
  -4  -7  -5  215.96   19.39
  -4  -7  -5  243.28   30.89
  -4  -7  -6    9.04    6.33
  -4  -7  -6    1.57    2.47
   4   7   6    2.99    3.58
  -4  -7  -6    5.17    4.45
   4   7   7  102.49   13.26
  -4  -7  -7  104.79   18.09
  -4  -7  -8   30.68    9.68
   4   7   8   26.77    7.21
   4   7   9  107.20   14.14
  -4  -7  -9   71.95   16.30
   4   7  10  285.52   22.57
  -4  -7 -10  243.07   32.96
   4   7  11   15.14    6.06
  -4  -7 -11   32.34   13.92
   4   7  12  408.14   27.82
  -4  -7 -12  336.31   40.85
   4   7  13  117.83   15.16
   4   8 -11   -3.34    7.62
   4   8 -10   39.12   15.11
   4   8  -9  234.05   39.15
   4   8  -8   52.05   17.28
   4   8  -7  147.39   27.98
   4   8  -6  664.00   59.35
  -4  -8   6  652.64   79.02
   4   8  -5  345.81   40.77
  -4  -8   5  342.85   57.88
   4   8  -4  683.93   54.63
  -4  -8   4  667.17   80.25
  -4  -8   3  759.30   47.16
   4   8  -3  948.38   61.82
  -4  -8   3  949.84   93.81
  -4  -8   2    4.84    4.06
  -4  -8   2    4.17    5.57
  -4  -8   1 1066.67   96.38
  -4  -8   1  851.80   42.79
  -4  -8   0  420.12   26.80
  -4  -8   0  515.02   63.24
  -4  -8  -1  245.62   41.77
  -4  -8  -1  203.35   14.87
  -4  -8  -2 1411.24   37.95
  -4  -8  -2 1482.89   95.71
  -4  -8  -3   40.61    6.51
  -4  -8  -3   47.30   15.81
  -4  -8  -4 1260.56   39.35
  -4  -8  -4 1363.33   80.36
  -4  -8  -5   70.69   18.25
  -4  -8  -5   76.90   11.20
  -4  -8  -6  559.97   32.86
  -4  -8  -6  587.33   46.03
  -4  -8  -7   20.08    8.49
  -4  -8  -7   13.82    2.70
   4   8   7   22.80    5.61
  -4  -8  -8   33.49   10.38
  -4  -8  -8   26.60    9.53
   4   8   8   44.86    8.70
   4   8   9   30.88    7.50
   4   8  10   13.76    4.83
   4   8  11   34.58    7.60
   4   8  12    0.22    2.30
   4   9 -10    4.49    7.33
   4   9  -9   19.23   11.79
   4   9  -8   29.67   11.54
  -4  -9   8   25.79   17.32
   4   9  -7  129.99   27.11
  -4  -9   7  133.86   37.66
   4   9  -6  295.84   40.15
  -4  -9   6  297.95   56.10
   4   9  -5   -0.23    4.10
  -4  -9   5    5.49   10.10
  -4  -9   4   59.81   24.66
  -4  -9   3   17.32   12.25
  -4  -9   2  178.80   40.81
  -4  -9   1   69.28   23.57
  -4  -9   0  224.39   42.14
  -4  -9  -1   95.45   11.23
  -4  -9  -1   94.40   24.62
  -4  -9  -2    5.25    2.99
  -4  -9  -2   -2.94    4.44
  -4  -9  -3   34.83   14.35
  -4  -9  -3   54.94    8.74
  -4  -9  -4   99.73   22.19
  -4  -9  -4   95.17   10.85
  -4  -9  -5  137.57   23.91
  -4  -9  -5  114.84   13.37
  -4  -9  -6  120.33   21.24
  -4  -9  -6   82.32   11.98
   4   9   7  220.23   20.05
  -4  -9  -7  169.46   18.94
  -4  -9  -7  167.14   23.83
  -4  -9  -8  103.31   18.17
   4   9   8  108.81   14.02
  -4  -9  -8   62.01   12.85
   4   9   9   70.89   11.36
   4   9  10  192.91   18.83
   4   9  11    5.70    2.99
   4  10  -9   17.18   10.74
  -4 -10   9   14.95    9.54
  -4 -10   8  337.72   58.09
  -4 -10   7  128.66   35.38
  -4 -10   6  297.85   55.20
  -4 -10   5  483.36   70.99
  -4 -10   4   11.98   11.64
  -4 -10   3  446.75   66.99
  -4 -10   2  194.30   42.53
  -4 -10   1  354.58   55.24
  -4 -10   0   44.66   20.02
  -4 -10  -1  609.74   67.78
  -4 -10  -1  555.14   29.01
  -4 -10  -2  336.71   21.96
  -4 -10  -2  398.98   50.71
  -4 -10  -3   53.59   17.70
  -4 -10  -3   29.45    6.30
  -4 -10  -4  490.60   27.12
  -4 -10  -4  479.63   48.15
  -4 -10  -5  208.57   18.47
  -4 -10  -5  195.05   29.26
  -4 -10  -6   31.69   11.24
   4  10   7  217.57   19.74
  -4 -10  -7  175.53   24.54
  -4 -10  -8   24.67    8.97
   4  10   8   19.11    5.20
   4  10   9   99.19   13.43
   4  10  10   59.08    9.97
  -4 -11   7    8.38   11.76
  -4 -11   6  136.56   37.97
  -4 -11   5    5.37   10.27
  -4 -11   4    6.19    3.33
  -4 -11   3    1.35    8.37
  -4 -11   2   84.13   29.48
  -4 -11   1    5.37    8.83
  -4 -11   0    2.71    5.54
  -4 -11  -1    0.61    6.44
  -4 -11  -2   39.28   16.56
  -4 -11  -3  296.25   41.30
  -4 -11  -4    3.38    7.19
  -4 -11  -5  807.35   60.45
  -4 -11  -6  106.54   20.44
   4  11   7  311.98   24.04
  -4 -11  -7  270.18   30.87
  -4 -11  -8   76.08   15.82
   4  11   8  102.90   13.67
   4  11   9    2.73    2.44
  -4 -12   5  256.08   52.89
  -4 -12   4   90.40   30.92
  -4 -12   3  365.75   62.98
  -4 -12   2   11.50    7.28
  -4 -12   1  328.84   54.36
  -4 -12   0  338.21   52.06
  -4 -12  -1    2.27    4.02
  -4 -12  -2  318.29   45.43
  -4 -12  -3   24.85   12.10
  -4 -12  -4   95.16   21.47
  -4 -12  -5   -1.11    2.88
  -4 -12  -6   25.35    9.00
  -4 -12  -7    0.35    4.78
   4  12   7    1.81    1.21
  -4 -13   2   48.83   21.53
  -4 -13   1  133.25   33.17
  -4 -13   0   73.64   24.87
  -4 -13  -1  210.36   38.35
  -4 -13  -2   -1.10    4.46
  -4 -13  -3    3.83    7.73
   5 -10  -1   -3.19    1.77
   5 -10  -1   11.47    8.23
   5 -10   0   35.85   11.56
   5 -10   0   75.74   16.01
   5 -10   1   12.59    6.75
   5 -10   2   26.93   10.60
   5 -10   3   27.63   10.44
   5  -9  -5  115.84   19.41
   5  -9  -4   -2.81    4.19
   5  -9  -3   92.11   17.07
   5  -9  -2   25.99    8.29
   5  -9  -2   24.31    9.07
   5  -9  -1   80.52   15.89
   5  -9  -1  113.29   19.77
   5  -9   0   -5.69    5.04
   5  -9   0    8.29    6.03
   5  -9   1  162.95   24.45
   5  -9   2   59.55   15.27
   5  -9   3   28.77   12.03
   5  -9   4   99.51   20.48
   5  -9   5    9.42    5.81
   5  -9   6  178.71   29.14
   5  -8  -7  133.00   19.80
   5  -8  -6   10.69    4.84
   5  -8  -5   68.34   14.02
   5  -8  -4   19.41    8.42
   5  -8  -3   59.66   11.27
   5  -8  -3   75.47   15.42
   5  -8  -2  172.90   20.95
   5  -8  -2  263.53   28.91
   5  -8  -1   11.82    6.23
   5  -8  -1   13.79    8.14
   5  -8   0  244.45   28.31
   5  -8   0  319.86   32.40
   5  -8   1   16.65    7.95
   5  -8   2    1.65    2.96
   5  -8   3    8.44    7.68
   5  -8   4   10.80    7.82
   5  -8   5   28.78   10.81
   5  -8   6    4.06    4.44
   5  -8   7   29.88   12.23
   5  -8   8    5.61    5.66
   5  -7  -8   -0.80    3.77
   5  -7  -7    3.49    3.68
   5  -7  -6  129.31   19.22
   5  -7  -5   -1.02    3.07
   5  -7  -4  471.47   36.65
   5  -7  -3  146.94   20.41
   5  -7  -3  135.30   16.51
   5  -7  -2   20.10    7.97
   5  -7  -2   13.15    6.68
   5  -7  -1  412.93   33.87
   5  -7  -1  483.72   38.48
   5  -7   0  295.37   30.23
   5  -7   0  362.50   33.69
   5  -7   1  200.74   27.02
   5  -7   2  544.92   45.49
   5  -7   3   55.21   15.07
   5  -7   4  245.42   32.77
   5  -7   4  244.00   20.42
   5  -7   5   55.82   15.52
   5  -7   5   36.98    8.71
   5  -7   6  183.25   29.27
   5  -7   6  165.94   18.33
   5  -7   7    2.56    3.30
   5  -7   7   10.87    4.55
   5  -7   8  107.70   22.81
   5  -7   8   86.57   14.50
   5  -7   9   56.12   16.37
   5  -7   9   55.35   11.89
   5  -7  10    1.57    2.90
   5  -7  10    7.25    4.34
   5  -6  -9  120.07   19.23
   5  -6  -9  123.23   17.55
   5  -6  -8    6.22    5.54
   5  -6  -8    1.25    3.26
   5  -6  -7  727.54   45.26
   5  -6  -6  179.20   22.28
   5  -6  -5  316.53   29.07
   5  -6  -4   54.91    8.97
   5  -6  -4   66.75   13.44
   5  -6  -3    0.79    1.43
   5  -6  -3    7.58    4.61
   5  -6  -2    3.48    2.76
   5  -6  -2   11.53    5.62
   5  -6  -1    6.30    3.80
   5  -6  -1   24.28    8.12
   5  -6   0   49.02   12.87
   5  -6   0   67.59   14.15
   5  -6   1   -0.26    2.02
   5  -6   1    8.09    2.73
   5  -6   2   90.23   18.32
   5  -6   2   66.26    9.92
   5  -6   3   17.71   10.18
   5  -6   3   14.79    4.77
   5  -6   4   16.26    8.83
   5  -6   4    2.06    0.84
   5  -6   5    4.68    2.85
   5  -6   5   -1.99    2.53
   5  -6   6   10.12    7.72
   5  -6   6    2.06    2.52
   5  -6   7    2.90    2.79
   5  -6   7    4.35    5.29
   5  -6   8   -3.79    5.03
   5  -6   8   -1.06    1.47
   5  -6   9   10.67    7.12
   5  -6   9   16.33    6.74
   5  -6  10   -0.31    5.30
   5  -6  10   -1.03    1.55
   5  -6  11   14.62    9.62
   5  -6  11   16.19    6.73
   5  -5 -10   35.14   10.39
   5  -5 -10   31.36    8.51
   5  -5  -9   13.43    7.34
   5  -5  -9   16.54    6.89
   5  -5  -8  120.23   17.92
   5  -5  -8   90.10   15.46
   5  -5  -7    5.02    4.60
   5  -5  -7   -2.30    5.14
   5  -5  -6  249.32   25.56
   5  -5  -5  188.41   21.86
   5  -5  -4   35.38    6.65
   5  -5  -4   51.61   10.73
   5  -5  -3  534.16   36.48
   5  -5  -3  459.15   27.36
   5  -5  -2   60.97   11.25
   5  -5  -2   65.54   12.71
   5  -5  -1  268.15   26.47
   5  -5  -1  270.81   13.87
   5  -5  -1  306.08   27.77
   5  -5   0    9.13    4.80
   5  -5   0    9.95    5.27
   5  -5   0    9.51    2.93
   5  -5   1  554.18   44.00
   5  -5   1  492.14   24.76
   5  -5   2   35.22   12.62
   5  -5   2   35.99    7.66
   5  -5   3  439.66   43.46
   5  -5   3  402.44   25.01
   5  -5   4  834.12   60.25
   5  -5   4  851.09   38.03
   5  -5   5   20.98    9.90
   5  -5   5   37.57    8.00
   5  -5   6  903.23   64.93
   5  -5   6  976.77   43.30
   5  -5   7  209.21   31.73
   5  -5   7  225.57   21.84
   5  -5   8  238.76   33.62
   5  -5   8  262.68   24.12
   5  -5   9   64.16   17.71
   5  -5   9   80.19   14.65
   5  -5  10   53.34   16.06
   5  -5  10   65.71   12.61
   5  -5  11  135.66   24.71
   5  -5  11  119.33   17.48
   5  -5  12   -3.34    4.37
   5  -5  12   -0.37    3.30
   5  -4 -11  139.14   21.72
   5  -4 -11   91.67   15.32
   5  -4 -10   55.83   13.09
   5  -4 -10   40.41   10.54
   5  -4  -9  133.31   19.85
   5  -4  -9  121.73   17.46
   5  -4  -8    4.91    3.41
   5  -4  -8    5.78    4.48
   5  -4  -7   64.60   12.98
   5  -4  -7   54.39   11.58
   5  -4  -6   13.09    5.34
   5  -4  -6   12.86    6.65
   5  -4  -5  136.15   18.32
   5  -4  -5  139.91   17.54
   5  -4  -4  238.37   23.28
   5  -4  -4  164.03   12.70
   5  -4  -3   59.71    5.36
   5  -4  -3   51.07    8.33
   5  -4  -3   59.41   11.23
   5  -4  -2  892.65   45.34
   5  -4  -2  834.74   40.52
   5  -4  -2  903.46   24.76
   5  -4  -1   55.93    6.93
   5  -4  -1   55.36   12.10
   5  -4  -1   39.18    9.32
   5  -4   0  179.96   23.06
   5  -4   0  210.13   14.63
   5  -4   0  222.71   22.67
   5  -4   1   26.32   10.06
   5  -4   1   35.17    6.33
   5  -4   2  161.98   24.78
   5  -4   2  160.56   15.19
   5  -4   3  186.12   16.93
   5  -4   3  140.10   24.20
   5  -4   4  248.24   33.42
   5  -4   4  304.33   22.27
   5  -4   5  329.79   38.46
   5  -4   5  350.11   25.25
   5  -4   6   17.88    9.21
   5  -4   6    8.76    3.02
   5  -4   7   -0.94    1.82
   5  -4   7    5.44    3.77
   5  -4   8   58.43   16.66
   5  -4   8   74.48   12.50
   5  -4   9   71.85   18.58
   5  -4   9   87.47   14.54
   5  -4  10   37.74   14.36
   5  -4  10   36.49    9.60
   5  -4  11   19.47   10.39
   5  -4  11    5.51    4.41
   5  -4  12  154.39   25.47
   5  -4  12  196.76   22.19
   5  -3 -11    6.25    6.05
   5  -3 -11    6.72    5.18
   5  -3 -10  111.09   19.41
   5  -3 -10  102.83   16.26
   5  -3  -9   25.72    9.09
   5  -3  -9   47.81   11.57
   5  -3  -8  274.79   27.34
   5  -3  -8  244.43   25.01
   5  -3  -7  213.78   23.26
   5  -3  -7  156.30   19.49
   5  -3  -6  378.58   30.24
   5  -3  -6  345.08   28.94
   5  -3  -5   62.70   12.40
   5  -3  -5   65.57   12.27
   5  -3  -4  532.73   19.05
   5  -3  -4  617.67   36.57
   5  -3  -4  479.93   18.29
   5  -3  -4  603.78   36.57
   5  -3  -3  217.79   21.53
   5  -3  -3  196.05   11.70
   5  -3  -3  199.35   15.77
   5  -3  -3  191.64   20.12
   5  -3  -2   -0.86    2.48
   5  -3  -2    0.91    1.36
   5  -3  -2    0.99    0.86
   5  -3  -1  851.81   45.97
   5  -3  -1  840.49   28.00
   5  -3  -1  905.63   43.16
   5  -3   0  927.46   52.31
   5  -3   0  979.17   32.23
   5  -3   0 1038.95   46.72
   5  -3   1  587.22   45.29
   5  -3   1  564.10   26.10
   5  -3   2  873.55   58.20
   5  -3   2  981.96   36.42
   5  -3   3  111.10   12.92
   5  -3   3  102.27   21.18
   5  -3   4  579.99   51.02
   5  -3   4  674.05   33.01
   5  -3   5    5.02    7.90
   5  -3   5    1.25    1.59
   5  -3   5    3.52    4.58
   5  -3   6  575.22   51.65
   5  -3   6  616.25   34.75
   5  -3   7   45.28   14.42
   5  -3   7   64.62   11.81
   5  -3   8  258.77   34.22
   5  -3   8  313.52   25.91
   5  -3   9   78.02   18.46
   5  -3   9  112.54   15.81
   5  -3  10   29.81   11.80
   5  -3  10   40.94   10.21
   5  -3  11  319.55   37.62
   5  -3  11  320.91   27.10
   5  -3  12    6.95    5.11
   5  -3  12   10.69    5.87
   5  -3  13  127.05   23.12
   5  -3  13  158.76   20.12
   5  -2 -12   83.69   19.10
   5  -2 -12   70.99   14.87
   5  -2 -11  139.64   24.02
   5  -2 -11  118.30   18.78
   5  -2 -10    4.01    3.48
   5  -2 -10    3.91    2.38
   5  -2  -9   77.48   15.39
   5  -2  -9   50.43   11.96
   5  -2  -8  110.87   17.71
   5  -2  -8  102.31   16.42
   5  -2  -7   73.59   14.20
   5  -2  -7   51.49   11.67
   5  -2  -6   95.91   15.41
   5  -2  -6   85.49   14.68
   5  -2  -5  204.70   21.13
   5  -2  -5  205.59   22.28
   5  -2  -4  162.27   17.87
   5  -2  -4  156.19   18.76
   5  -2  -3   17.01    4.04
   5  -2  -3   22.59    7.49
   5  -2  -3   26.37    6.80
  -5   2   3   22.31    6.75
   5  -2  -2    5.75    2.91
   5  -2  -2    8.72    3.04
   5  -2  -2    8.21    4.60
   5  -2  -2   11.60    4.55
   5  -2  -1    3.75    2.22
   5  -2  -1   13.74    3.70
   5  -2  -1   14.31    5.14
   5  -2  -1    5.86    2.44
   5  -2   0   77.06    9.33
   5  -2   0   72.51   14.83
   5  -2   0   96.76   13.07
   5  -2   0   80.48   12.01
   5  -2   1  126.62   12.40
   5  -2   1  118.21   20.89
   5  -2   1  104.41   13.33
   5  -2   2   12.89    7.03
   5  -2   2   23.49    5.67
   5  -2   2   20.97    5.11
   5  -2   3    8.16    7.87
   5  -2   3    2.90    2.00
   5  -2   3    0.59    0.84
   5  -2   4   99.99   12.79
   5  -2   4   78.86   18.32
   5  -2   4   74.42    9.01
   5  -2   4   56.68   11.75
   5  -2   5   39.30   12.11
   5  -2   5   53.51    9.74
   5  -2   5   42.63    6.14
   5  -2   5   37.12    9.53
   5  -2   6    5.36    2.48
   5  -2   6   10.59    7.63
   5  -2   6    8.71    4.13
   5  -2   6    6.22    1.87
   5  -2   6   10.06    5.55
   5  -2   7  276.08   34.22
   5  -2   7  317.92   25.11
   5  -2   7  235.84   27.24
   5  -2   8   31.27   10.14
   5  -2   8   45.99    9.66
   5  -2   9  285.23   34.65
   5  -2   9  339.58   27.12
   5  -2  10  252.05   32.74
   5  -2  10  353.40   28.23
   5  -2  11   -0.55    3.75
   5  -2  11    4.39    4.12
   5  -2  12  118.12   21.75
   5  -2  12  170.87   20.25
   5  -2  13   54.66   15.26
   5  -2  13   51.02   10.95
   5  -1 -12  253.25   30.43
   5  -1 -11    0.38    4.54
   5  -1 -11    8.21    6.36
   5  -1 -10  204.37   28.87
   5  -1 -10  179.84   24.20
   5  -1  -9   -3.70    3.51
   5  -1  -9    1.30    2.55
   5  -1  -8  134.12   20.03
   5  -1  -8  112.44   18.58
   5  -1  -7   78.89   14.93
   5  -1  -7   63.71   13.81
   5  -1  -6  177.53   21.32
   5  -1  -6  176.67   21.92
   5  -1  -5  545.84   34.86
   5  -1  -5  507.74   36.23
   5  -1  -4   42.19    8.86
   5  -1  -4   39.41   10.22
   5  -1  -3  830.18   28.45
   5  -1  -3  889.88   39.87
   5  -1  -3  770.41   42.92
  -5   1   3  768.26   47.14
   5  -1  -2    9.36    4.18
   5  -1  -2    9.89    3.93
  -5   1   2    5.50    4.03
   5  -1  -2    9.40    5.12
   5  -1  -1 1251.52   43.66
   5  -1  -1 1304.02   57.14
   5  -1  -1 1349.54   53.17
  -5   1   1 1288.95   36.23
   5  -1   0   65.22    9.28
   5  -1   0   54.92   12.73
   5  -1   0   68.57   10.12
   5  -1   0   64.25   11.33
   5  -1   1 1439.76   70.92
   5  -1   1 1555.65   46.28
   5  -1   1 1578.38   54.07
   5  -1   1 1503.73   47.32
   5  -1   2  367.28   37.29
   5  -1   2  405.00   24.36
   5  -1   2  431.72   25.76
   5  -1   3  290.62   33.66
   5  -1   3  297.04   21.44
   5  -1   3  304.80   20.65
   5  -1   3  278.41   27.89
   5  -1   4 1103.13   67.13
   5  -1   4 1202.05   37.22
   5  -1   4 1119.52   59.74
   5  -1   5  571.78   47.71
   5  -1   5  639.52   43.90
   5  -1   5  643.67   33.37
   5  -1   5  483.72   20.13
   5  -1   5  542.89   43.22
   5  -1   6 1043.79   60.37
   5  -1   6 1010.01   63.60
   5  -1   6 1182.58   46.38
   5  -1   6 1033.78   61.35
   5  -1   7 1292.77   71.81
   5  -1   7 1457.17   53.28
   5  -1   7 1308.35   69.95
   5  -1   8  116.36   22.46
   5  -1   8  139.24   16.65
   5  -1   9  129.97   22.92
   5  -1   9  163.96   18.53
   5  -1  10   16.82    8.59
   5  -1  10   42.45    9.65
   5  -1  11    6.72    5.35
   5  -1  11    3.92    3.42
   5  -1  12   34.75   12.68
   5  -1  12   43.04   10.25
   5  -1  13    7.48    6.84
   5  -1  13    8.96    4.83
   5  -1  14   14.27    6.75
   5  -1  14   20.78    7.15
   5   0 -12   54.03   16.24
   5   0 -12   68.12   16.56
   5   0 -11  130.55   22.31
   5   0 -11  162.95   29.05
   5   0 -10   43.11   14.10
   5   0  -9  183.29   25.82
   5   0  -9  173.36   27.23
   5   0  -8   17.63    8.37
   5   0  -8   13.75    7.58
   5   0  -7    3.05    3.42
   5   0  -7    5.16    4.21
   5   0  -6   85.89   15.21
   5   0  -6   93.80   17.33
   5   0  -5  112.51   16.01
   5   0  -5   88.93   16.41
   5   0  -4   45.01    9.64
   5   0  -4   46.26   11.36
   5   0  -3   11.91    3.32
   5   0  -3   12.38    7.09
  -5   0   3    2.75    2.62
   5   0  -2  229.25   21.01
   5   0  -2  256.73   19.66
   5   0  -2  269.32   25.69
  -5   0   2  271.06   30.34
   5   0  -1   84.24   10.82
   5   0  -1   75.58   14.40
   5   0  -1   91.13   14.99
  -5   0   1  100.24   15.53
   5   0   0   34.08    6.34
   5   0   0   32.01    8.34
  -5   0   0   44.96    8.65
   5   0   1  226.17   18.41
   5   0   1  266.86   23.56
  -5   0  -1  248.95   17.11
   5   0   1  214.96   15.94
   5   0   2   92.20   11.99
   5   0   2  105.88   14.00
   5   0   3  298.49   22.24
   5   0   3  300.07   22.65
   5   0   3  331.74   34.41
   5   0   4   11.47    4.75
   5   0   4   19.83    6.75
   5   0   4   18.93    5.40
   5   0   4   11.32    5.69
   5   0   5  247.77   20.91
   5   0   5  163.51    8.87
   5   0   5  216.27   29.84
   5   0   5  234.29   25.90
   5   0   6   39.47    8.72
   5   0   6   40.16   10.76
   5   0   6   40.69   13.24
   5   0   7  223.26   20.24
   5   0   7  207.61   27.63
   5   0   8  167.94   18.26
   5   0   9   29.68    7.61
   5   0  10  183.61   19.79
   5   0  11   26.84   10.22
   5   0  11   34.86    8.38
   5   0  12  161.30   25.36
   5   0  12  212.41   22.09
   5   0  13   23.64   10.29
   5   0  13   23.96    7.23
   5   0  14  210.78   29.50
   5   0  14  307.03   27.70
   5   1 -12   23.43   11.03
   5   1 -12   22.91   10.39
   5   1 -11   26.00   11.15
   5   1 -11   44.73   13.82
   5   1 -10   92.52   21.27
   5   1 -10   92.34   19.33
   5   1  -9    6.68    6.05
   5   1  -9    9.06    7.13
   5   1  -8  626.22   50.52
   5   1  -7  733.47   53.06
   5   1  -6  624.50   44.68
   5   1  -6  592.41   47.28
   5   1  -5 2320.02   80.22
   5   1  -5 2093.14   86.89
   5   1  -4   26.35    7.09
   5   1  -4   27.87   10.58
   5   1  -3  614.69   30.36
   5   1  -3  692.15   35.49
   5   1  -3  658.13   46.65
  -5  -1   3  588.12   53.10
   5   1  -2    3.48    3.56
   5   1  -2   12.25    6.89
  -5  -1   2    4.00    2.53
   5   1  -1  354.21   20.74
   5   1  -1  358.76   33.31
  -5  -1   1  307.45   34.87
   5   1   0  419.29   19.94
   5   1   0  404.40   34.74
  -5  -1   0  456.04   37.29
   5   1   1  481.55   19.76
  -5  -1  -1  459.41   32.07
  -5  -1  -2 1556.29   52.04
   5   1   2 1491.05   33.74
  -5  -1  -3    9.77    3.85
   5   1   3   15.47    5.69
   5   1   3   15.60    4.70
   5   1   3   11.79    5.06
   5   1   3    3.45    3.58
   5   1   4  832.10   38.10
   5   1   4  762.57   27.96
   5   1   4  819.03   41.50
   5   1   4  807.83   61.49
   5   1   5   20.08    6.06
   5   1   5   20.68    5.82
   5   1   5   18.65   10.42
   5   1   6  477.53   29.46
   5   1   7    2.00    1.45
   5   1   7    2.45    2.75
   5   1   8  477.26   30.26
   5   1   9  336.39   26.02
   5   1  10    2.48    2.62
   5   1  11  320.52   26.00
   5   1  12  129.21   17.10
   5   1  13   20.72    8.12
   5   1  14   20.42    9.98
   5   1  14   17.14    6.31
   5   2 -12   45.02   16.74
   5   2 -12   17.76    9.77
   5   2 -11   64.96   18.37
   5   2 -11   71.55   18.65
   5   2 -10  132.97   25.19
   5   2 -10  124.25   25.64
   5   2  -9   10.84    9.13
   5   2  -9   15.92    8.20
   5   2  -8   82.58   19.52
   5   2  -8   92.05   20.46
   5   2  -7    5.84    3.01
   5   2  -7    7.95    3.69
   5   2  -6    2.84    5.79
   5   2  -6    7.95    7.28
  -5  -2   5  108.85   15.95
   5   2  -5  126.99   22.86
   5   2  -4    1.78    1.34
  -5  -2   4   11.26    5.02
   5   2  -4    4.09    5.15
   5   2  -3   91.83    9.31
   5   2  -3  109.69   20.79
  -5  -2   3   94.07   23.19
   5   2  -2   -0.72    2.99
  -5  -2   2    3.31    6.87
   5   2  -1   19.50    5.53
  -5  -2   1   10.52    5.71
   5   2   0   32.32    5.32
   5   2   0   37.03   11.35
  -5  -2   0   28.36   10.08
   5   2   1   13.83    2.51
   5   2   1   22.26    7.21
  -5  -2  -1   20.63    8.02
   5   2   2  150.17   17.38
  -5  -2  -2  140.11   18.85
  -5  -2  -3   28.57    7.93
   5   2   3   34.13    6.77
   5   2   3   23.24    2.71
   5   2   3   15.91    7.51
   5   2   3   34.52    7.37
   5   2   4    4.67    2.12
  -5  -2  -4    9.28    4.33
   5   2   4   10.88    3.25
   5   2   4   13.16    4.62
   5   2   4    9.97    9.53
   5   2   5   66.59    8.78
   5   2   5   74.71   11.43
   5   2   6  350.56   25.52
   5   2   6  347.03   22.73
   5   2   7  722.23   36.99
   5   2   7  661.71   33.61
   5   2   8  641.18   34.80
   5   2   8  580.07   33.89
   5   2   9  710.56   37.11
   5   2  10  672.48   36.72
   5   2  11   10.69    5.35
   5   2  12  135.37   17.27
   5   2  13  293.31   25.82
   5   2  14   -1.61    2.77
   5   3 -12  256.06   36.53
   5   3 -12  268.21   37.15
   5   3 -11   21.68   12.09
   5   3 -11   21.33   11.13
   5   3 -10  444.42   45.38
   5   3 -10  430.13   45.91
   5   3  -9    6.15    8.60
   5   3  -9    6.50    7.80
   5   3  -8  141.06   25.43
   5   3  -8  124.56   24.60
   5   3  -7   96.43   19.93
   5   3  -7  129.46   24.09
   5   3  -6  125.81   23.18
   5   3  -6   95.81    7.43
   5   3  -6  104.80   21.78
  -5  -3   5 1041.07   48.20
   5   3  -5 1056.40   30.68
   5   3  -5 1043.38   67.88
   5   3  -5  982.17   59.54
   5   3  -4   26.10    5.05
  -5  -3   4    9.92    4.77
  -5  -3   4   35.10   14.94
   5   3  -4   15.49    7.49
   5   3  -4   38.68   11.62
   5   3  -3 2476.35   55.92
   5   3  -3 2673.89  104.98
  -5  -3   3 2646.87  130.79
  -5  -3   3 2521.52   59.06
   5   3  -2  266.62   18.47
   5   3  -2  275.88   32.81
  -5  -3   2  296.36   43.31
   5   3  -2  291.91   23.33
   5   3  -1 1978.63   83.49
  -5  -3   1 2020.99  108.53
  -5  -3   0  586.89   41.56
   5   3   0  693.96   45.90
  -5  -3   0  692.78   59.57
  -5  -3  -1  220.65   24.11
   5   3   1  201.52   22.13
  -5  -3  -1  247.36   32.44
  -5  -3  -2  507.47   32.73
   5   3   2  561.42   33.55
   5   3   2  495.44   51.21
  -5  -3  -2  506.89   42.44
   5   3   3   58.93    9.90
  -5  -3  -3   54.37   11.65
  -5  -3  -3   64.48    9.77
   5   3   3   59.03   18.39
   5   3   4  257.65   21.39
  -5  -3  -4  212.13   22.52
   5   3   5  123.74    7.46
   5   3   5  158.48   17.01
  -5  -3  -5  145.22   17.40
   5   3   6  240.92   14.14
   5   3   6  293.95   23.21
   5   3   7  176.18   18.01
   5   3   7  134.43   12.27
   5   3   8  241.36   21.63
   5   3   9  333.34   25.15
   5   3  10    7.01    2.49
   5   3  11   89.72   13.20
   5   3  12    1.87    2.08
   5   3  13    1.81    3.35
   5   3  14    4.22    3.70
   5   4 -12    5.99    7.65
   5   4 -12    7.10    4.27
   5   4 -11   19.86    8.93
   5   4 -11   25.81   12.21
   5   4 -10   28.72   12.56
   5   4 -10   22.63   11.86
   5   4  -9  123.32   23.14
   5   4  -9   96.38   21.86
   5   4  -8   10.19    5.20
   5   4  -8    3.47    3.57
   5   4  -7  208.88   28.85
   5   4  -7  199.67   30.53
   5   4  -6   46.12   13.84
   5   4  -6   49.25   15.45
  -5  -4   5  158.20   18.40
   5   4  -5  205.60   26.09
   5   4  -5  189.23   15.50
   5   4  -5  178.72   28.94
   5   4  -4   39.27   10.54
   5   4  -4   34.65    6.98
  -5  -4   4   35.01    8.01
  -5  -4   4   28.41   15.11
   5   4  -4   26.17   12.04
   5   4  -3  774.86   34.06
   5   4  -3  937.45   62.52
  -5  -4   3  836.81   77.70
  -5  -4   3  799.77   31.59
   5   4  -2  447.82   26.95
   5   4  -2  492.87   43.13
  -5  -4   2  467.05   56.30
   5   4  -1  144.42   15.74
  -5  -4   1  164.79   32.90
   5   4  -1  133.66   21.52
  -5  -4   0    1.48    1.68
   5   4   0    2.30    3.58
  -5  -4  -1 1090.70   55.64
   5   4   1 1134.05   52.13
  -5  -4  -1 1194.82   78.55
   5   4   2  137.30   17.04
  -5  -4  -2  125.33   18.42
  -5  -4  -2  140.81   24.33
  -5  -4  -3  564.78   35.88
   5   4   3  575.69   32.22
  -5  -4  -3  475.27   41.10
  -5  -4  -4   31.20    9.69
  -5  -4  -4   40.07    9.08
   5   4   5  711.41   36.66
  -5  -4  -5  724.37   30.04
  -5  -4  -5  657.85   41.40
   5   4   6  298.25   23.72
  -5  -4  -6  273.99   12.99
  -5  -4  -6  263.41   25.66
   5   4   7  256.19   21.45
   5   4   8  373.33   26.58
   5   4   9    5.31    2.89
   5   4  10  155.29   17.62
   5   4  11    9.33    3.72
   5   4  12  237.69   22.13
   5   4  13  112.42   15.15
   5   4  14  227.10   22.55
   5   5 -12   21.10    6.50
   5   5 -11   40.58   14.18
   5   5 -10  208.15   32.73
   5   5  -9   73.42   19.19
   5   5  -8  430.82   46.18
   5   5  -7 1298.25   80.25
   5   5  -6  152.13   26.79
  -5  -5   5 1234.15   49.81
   5   5  -5 1405.70   81.11
  -5  -5   5 1454.13  107.66
   5   5  -4    5.45    3.66
  -5  -5   4    4.07    3.73
  -5  -5   4   -0.30    5.52
   5   5  -4    2.99    4.58
  -5  -5   3  457.99   23.20
   5   5  -3  486.04   29.11
   5   5  -3  535.37   47.36
  -5  -5   3  559.50   64.94
   5   5  -2   80.43   11.76
  -5  -5   2   82.11   24.30
  -5  -5   2   80.05    7.05
   5   5  -2  100.56   18.30
  -5  -5   1  153.76   32.23
   5   5  -1  136.12   20.96
   5   5   0  182.99   22.00
  -5  -5   0  207.11   35.72
   5   5   1  209.95   22.28
  -5  -5  -1  200.36   33.52
  -5  -5  -2  678.60   43.86
   5   5   2  730.54   40.11
  -5  -5  -2  630.10   56.85
  -5  -5  -3   19.79    9.24
  -5  -5  -3   16.19    7.63
  -5  -5  -4 1524.08   61.77
  -5  -5  -4 1437.48   71.01
  -5  -5  -5   73.71   14.38
   5   5   5   75.75   11.41
  -5  -5  -5   84.60   13.48
   5   5   6  396.47   27.34
  -5  -5  -6  384.45   26.04
  -5  -5  -6  383.80   32.33
  -5  -5  -7    7.28    3.50
   5   5   7   17.91    5.47
   5   5   8    6.77    2.94
   5   5   9   26.10    6.62
   5   5  10   96.02   13.33
   5   5  11  129.03   15.91
   5   5  12   42.88    9.41
   5   5  13   11.53    5.00
   5   6 -11    1.34    2.98
   5   6 -10    1.98    3.08
   5   6  -9    7.06    7.36
   5   6  -8   37.31   13.81
   5   6  -7    4.01    4.02
  -5  -6   6    6.14    7.96
   5   6  -6   21.05   12.49
  -5  -6   5   96.46   29.40
   5   6  -5   88.53   19.70
  -5  -6   4  119.64   13.69
  -5  -6   4  151.07   35.81
   5   6  -4  142.40   24.67
   5   6  -3    5.44    7.11
  -5  -6   3    9.39    8.43
  -5  -6   3    3.17    1.49
  -5  -6   2  143.21    9.98
   5   6  -2  188.12   25.79
  -5  -6   2  170.70   37.19
   5   6  -1   -1.31    1.74
  -5  -6   1    7.53    8.20
   5   6   0  313.07   29.55
  -5  -6   0  282.68   43.74
   5   6   1  102.92   15.73
  -5  -6  -1  109.25   26.02
  -5  -6  -2  125.46   25.80
  -5  -6  -3  698.94   45.49
  -5  -6  -3  855.55   63.61
  -5  -6  -4  149.72   24.57
  -5  -6  -4  111.15   17.58
  -5  -6  -5  588.03   38.70
  -5  -6  -5  670.08   48.61
   5   6   6 1344.94   50.46
  -5  -6  -6 1301.32   63.11
  -5  -6  -7   43.63   11.00
   5   6   7   43.93    9.50
   5   6   8  824.31   39.21
   5   6   9    0.01    0.90
   5   6  10  174.95   18.01
   5   6  11    0.96    2.97
   5   6  12  161.74   17.89
   5   6  13   50.67   10.11
   5   7 -10  330.97   42.11
   5   7  -9  113.63   24.48
   5   7  -8  155.35   27.95
   5   7  -7  191.56   30.73
  -5  -7   7  163.96   42.22
   5   7  -6   31.42   12.97
  -5  -7   6   14.15   13.99
   5   7  -5  126.82   23.30
  -5  -7   5  101.82   31.32
   5   7  -4   17.18    9.89
  -5  -7   4   25.36   14.68
   5   7  -3  893.28   60.94
  -5  -7   3  827.01   85.48
   5   7  -2  472.59   41.67
  -5  -7   2  557.89   68.90
  -5  -7   1 1210.98   22.27
   5   7  -1 1439.19   69.63
  -5  -7   1 1358.71  105.52
   5   7   0 1724.74   72.90
  -5  -7   0 1784.91  115.42
  -5  -7  -1   48.28   17.50
  -5  -7  -2  222.50   35.49
  -5  -7  -3   66.67   16.76
  -5  -7  -4   18.69    9.89
  -5  -7  -5   10.70    6.77
  -5  -7  -6   11.46    5.77
   5   7   6   16.13    5.76
  -5  -7  -7   33.07    9.87
   5   7   7   48.85    9.22
  -5  -7  -8    1.27    1.34
   5   7   8    4.91    2.85
   5   7   9   41.13    8.04
   5   7  10    4.10    3.56
   5   7  11   21.39    6.59
   5   7  12   19.01    6.07
   5   8 -10    2.36    6.90
   5   8  -9    8.79    3.84
   5   8  -8   19.92   11.07
  -5  -8   8   23.16   15.48
   5   8  -7    4.09    7.33
  -5  -8   7   -9.10   11.53
   5   8  -6  167.81   29.46
  -5  -8   6  166.11   41.01
   5   8  -5   40.21   14.22
  -5  -8   5   20.91   16.40
   5   8  -4  382.68   40.97
  -5  -8   4  411.25   62.42
   5   8  -3    5.68    7.50
  -5  -8   3    1.09    9.60
   5   8  -2  238.37   29.05
  -5  -8   2  213.17   43.12
  -5  -8   1  137.20   34.08
  -5  -8   0    6.18    5.86
  -5  -8  -1  610.40   65.67
  -5  -8  -2  171.71   32.31
  -5  -8  -3  440.25   48.90
  -5  -8  -4  120.04   23.06
  -5  -8  -5  328.95   37.07
  -5  -8  -6   37.36   10.92
   5   8   6   54.88    9.85
   5   8   7  347.50   25.68
  -5  -8  -7  327.32   33.16
   5   8   8  222.65   20.60
  -5  -8  -8  256.16   28.16
   5   8   9    6.03    3.03
   5   8  10  445.14   29.47
   5   8  11  221.22   20.74
   5   9  -9  158.13   31.92
  -5  -9   9  109.09   33.72
   5   9  -8   39.31   14.94
  -5  -9   8   21.38   17.69
   5   9  -7  372.05   44.52
  -5  -9   7  336.39   58.34
   5   9  -6   74.48   18.39
  -5  -9   6   63.51   27.51
   5   9  -5  294.33   37.94
  -5  -9   5  316.95   56.01
   5   9  -4    8.27    3.81
  -5  -9   4    9.51    8.58
  -5  -9   3  107.83   31.94
  -5  -9   2  131.70   34.36
  -5  -9   1  134.58   33.17
  -5  -9   0  335.21   51.25
  -5  -9  -1   63.13   21.15
  -5  -9  -2  297.34   43.44
  -5  -9  -3    2.15    6.33
  -5  -9  -4  220.90   33.10
  -5  -9  -5   89.28   20.32
  -5  -9  -6   26.49    9.43
  -5  -9  -7   10.63    6.70
   5   9   7   21.73    6.24
  -5  -9  -8   83.57   16.23
   5   9   8  101.20   14.06
   5   9   9  106.35   14.21
   5   9  10   10.64    4.59
   5  10  -7   11.93    7.96
  -5 -10   7    9.86   12.02
   5  10  -6   34.46   13.65
  -5 -10   6   40.06   20.85
  -5 -10   5   -4.00    8.39
  -5 -10   4  191.50   43.30
  -5 -10   3  272.88   52.12
  -5 -10   2   15.03   14.23
  -5 -10   1  214.51   42.55
  -5 -10   0  166.70   37.48
  -5 -10  -1  161.12   33.32
  -5 -10  -2  202.99   35.61
  -5 -10  -3  390.03   47.54
  -5 -10  -4  102.49   22.72
  -5 -10  -5  190.22   28.86
  -5 -10  -6  653.89   50.26
  -5 -10  -7   -2.37    4.13
   5  10   7    0.11    2.83
   5  10   8  552.41   33.33
  -5 -10  -8  534.22   42.13
   5  10   9   18.67    5.53
  -5 -11   6   -4.34   12.36
  -5 -11   5  109.48   35.18
  -5 -11   4  161.73   41.92
  -5 -11   3   31.98   16.81
  -5 -11   2  262.96   49.38
  -5 -11   1   31.10   16.05
  -5 -11   0  158.25   35.60
  -5 -11  -1   82.41   24.86
  -5 -11  -2   21.33   10.42
  -5 -11  -3   14.95   10.15
  -5 -11  -4   24.38    8.94
  -5 -11  -5    2.85    4.92
  -5 -11  -6   -3.32    4.15
  -5 -11  -7    2.55    4.39
   5  11   7    2.67    2.29
  -5 -12   3   26.47   15.95
  -5 -12   2   15.46   12.86
  -5 -12   1  153.06   38.04
  -5 -12   0   11.90    9.93
  -5 -12  -1  252.19   41.61
  -5 -12  -2    5.52    8.49
  -5 -12  -3  257.40   38.24
  -5 -12  -4   97.76   22.35
   6  -8  -3  362.85   33.41
   6  -8  -2   -2.27    4.24
   6  -8  -1  479.71   39.82
   6  -8   0  126.15   19.93
   6  -8   0  181.80   25.08
   6  -8   1   24.24    8.64
   6  -8   1   38.22   10.95
   6  -8   2  141.94   23.82
   6  -8   3   23.81    9.01
   6  -8   4   18.58   10.50
   6  -8   5    1.70    4.26
   6  -7  -5    0.72    3.97
   6  -7  -4   29.60    8.95
   6  -7  -3   15.83    7.29
   6  -7  -2   12.80    7.57
   6  -7  -1    5.56    4.65
   6  -7  -1    3.08    5.14
   6  -7   0    0.82    3.44
   6  -7   0    8.53    5.59
   6  -7   1   72.01   16.07
   6  -7   1  112.03   18.73
   6  -7   2    9.63    7.40
   6  -7   3   98.46   20.90
   6  -7   4   15.06    9.40
   6  -7   5   15.74    9.66
   6  -7   6   30.32   13.13
   6  -7   7   48.48   15.33
   6  -6  -7   65.58   13.52
   6  -6  -7   38.92   10.62
   6  -6  -6  150.30   20.17
   6  -6  -6  103.44   16.27
   6  -6  -5  207.27   23.63
   6  -6  -5  181.05   21.74
   6  -6  -4   22.46    7.81
   6  -6  -3  218.05   24.36
   6  -6  -2   19.42    6.59
   6  -6  -1  176.18   20.75
   6  -6  -1  259.02   27.05
   6  -6   0  139.30   20.84
   6  -6   0  165.46   21.76
   6  -6   1  179.84   25.09
   6  -6   1  219.81   25.01
   6  -6   2  313.13   35.01
   6  -6   3   17.14    9.53
   6  -6   4  252.15   33.62
   6  -6   4  228.28   20.21
   6  -6   5   19.10   10.23
   6  -6   5   23.60    6.78
   6  -6   6   78.79   19.66
   6  -6   6   75.21   12.55
   6  -6   7  101.84   22.60
   6  -6   7   84.50   13.60
   6  -6   8    4.75    6.95
   6  -6   8    6.17    5.47
   6  -6   9   20.11   10.24
   6  -6   9   48.28   11.04
   6  -5  -8    8.27    3.31
   6  -5  -8    9.41    4.32
   6  -5  -7   70.24   13.46
   6  -5  -7   21.08    6.86
   6  -5  -6   71.68   13.50
   6  -5  -6   92.01   15.23
   6  -5  -5   -1.64    2.90
   6  -5  -5    0.12    1.45
   6  -5  -4    3.67    3.75
   6  -5  -4    5.64    3.28
   6  -5  -3    5.87    5.86
   6  -5  -2   63.76   10.85
   6  -5  -2   76.31   13.68
   6  -5  -1    2.97    1.22
   6  -5  -1    1.03    2.36
   6  -5   0   13.93    6.64
   6  -5   0    9.05    4.71
   6  -5   1    3.73    1.82
   6  -5   1    2.00    3.15
   6  -5   1    1.57    1.05
   6  -5   2   34.50   11.81
   6  -5   2   29.15    6.42
   6  -5   3  116.53   22.13
   6  -5   3  192.29   17.28
   6  -5   4   -2.93    5.95
   6  -5   4    4.11    2.34
   6  -5   5  270.68   35.09
   6  -5   5  263.95   22.11
   6  -5   6  286.93   37.66
   6  -5   6  312.87   24.91
   6  -5   7   23.98   11.27
   6  -5   7   19.17    6.85
   6  -5   8  268.88   36.56
   6  -5   8  283.10   25.09
   6  -5   9    3.89    4.89
   6  -5   9    2.66    3.71
   6  -5  10   71.44   17.14
   6  -5  10   72.38   13.73
   6  -4  -9    1.54    4.43
   6  -4  -9    4.36    3.89
   6  -4  -8  170.90   21.60
   6  -4  -8  146.32   19.60
   6  -4  -7  180.93   21.23
   6  -4  -7  158.15   19.95
   6  -4  -6   -0.81    2.54
   6  -4  -6   -0.90    2.00
   6  -4  -5  425.46   32.04
   6  -4  -5  336.19   28.53
   6  -4  -4   69.21   12.99
   6  -4  -4   93.53   14.64
   6  -4  -3  357.06   28.52
   6  -4  -3  328.49   26.93
   6  -4  -2   43.44    9.47
   6  -4  -2   43.43   10.42
   6  -4  -2   39.07    9.22
   6  -4  -1  509.46   34.12
   6  -4  -1  489.23   34.66
   6  -4  -1  471.90   21.23
   6  -4   0   60.39   13.61
   6  -4   0   77.46   13.53
   6  -4   0   60.03    8.40
   6  -4   1  351.35   35.05
   6  -4   1  375.98   21.70
   6  -4   1  392.24   30.49
   6  -4   2  174.95   15.71
   6  -4   2  150.51   23.97
   6  -4   3   -2.37    4.85
   6  -4   3   -1.31    1.74
   6  -4   4   46.29   14.22
   6  -4   4   57.25    9.45
   6  -4   5  118.73   23.95
   6  -4   5  164.44   17.03
   6  -4   6   99.18   22.64
   6  -4   6  145.37   16.05
   6  -4   7  138.63   25.91
   6  -4   7  192.01   19.75
   6  -4   8  219.73   33.42
   6  -4   8  230.70   22.93
   6  -4   9  128.24   25.39
   6  -4   9  116.64   16.65
   6  -4  10    1.98    2.53
   6  -4  10   -1.58    2.11
   6  -4  11   22.92   10.58
   6  -4  11    6.11    2.38
   6  -3 -10   -1.18    3.66
   6  -3 -10    4.54    5.23
   6  -3  -9   -1.05    3.48
   6  -3  -9   -2.19    2.85
   6  -3  -8   15.65    7.87
   6  -3  -8    5.97    3.40
   6  -3  -7   15.59    6.75
   6  -3  -7   19.08    6.77
   6  -3  -6    5.42    3.76
   6  -3  -6    9.26    5.72
   6  -3  -5    0.89    2.44
   6  -3  -5   -4.08    4.62
   6  -3  -4    7.11    2.97
   6  -3  -4   11.98    6.25
   6  -3  -3    5.29    2.45
   6  -3  -3    6.96    5.38
   6  -3  -3    1.66    2.83
   6  -3  -2    8.45    3.63
   6  -3  -2    9.14    2.85
   6  -3  -2   10.38    5.13
   6  -3  -2    8.77    4.38
   6  -3  -1   13.09    5.90
   6  -3  -1   23.97    4.60
   6  -3  -1   25.14    7.13
   6  -3  -1   17.69    5.92
   6  -3   0   -0.66    2.76
   6  -3   0    1.61    2.46
   6  -3   0    2.42    1.03
   6  -3   0    3.70    3.07
   6  -3   1   71.60    9.41
   6  -3   1   74.11   16.08
   6  -3   1   68.14   11.62
   6  -3   1   56.63    9.58
   6  -3   2   10.23    7.27
   6  -3   2   12.36    4.41
   6  -3   2    9.30    3.94
   6  -3   3  293.70   36.93
   6  -3   3  352.76   23.37
   6  -3   3  301.52   20.68
   6  -3   4   -6.56    7.55
   6  -3   4    0.82    1.39
   6  -3   4   -0.06    2.40
   6  -3   5  343.00   40.73
   6  -3   5  414.86   27.02
   6  -3   5  332.10   19.91
   6  -3   6   96.35   22.43
   6  -3   6  117.72   15.05
   6  -3   7   49.55   15.53
   6  -3   7   82.89   12.56
   6  -3   8  231.59   33.30
   6  -3   8  227.98   22.16
   6  -3   9    6.66    8.87
   6  -3   9   11.46    5.36
   6  -3  10  314.16   37.85
   6  -3  10  387.11   30.85
   6  -3  11   23.93   10.09
   6  -3  11   25.91    7.22
   6  -2 -10  167.82   24.89
   6  -2 -10  131.56   20.79
   6  -2  -9  134.66   20.88
   6  -2  -9  130.40   20.51
   6  -2  -8   10.60    5.13
   6  -2  -8    0.91    2.06
   6  -2  -7  172.97   21.89
   6  -2  -7  149.79   20.46
   6  -2  -6   48.03   10.39
   6  -2  -6   33.22    9.85
   6  -2  -5  297.56   25.51
   6  -2  -5  232.06   24.98
   6  -2  -4  170.28   18.72
   6  -2  -4  151.12   19.18
   6  -2  -3  650.28   25.94
   6  -2  -3  631.73   25.44
   6  -2  -3  688.39   40.38
   6  -2  -2  102.09   10.36
   6  -2  -2  107.87   13.89
   6  -2  -2  113.31   14.49
   6  -2  -2  109.19   15.44
   6  -2  -1  222.60   19.95
   6  -2  -1  248.43   24.94
   6  -2  -1  212.76   15.38
   6  -2  -1  215.85   21.17
   6  -2   0  834.55   38.33
   6  -2   0  852.83   51.86
   6  -2   0  817.20   31.72
   6  -2   0  765.57   39.35
   6  -2   1    8.68    7.05
   6  -2   1   10.29    3.54
   6  -2   1   10.57    4.90
   6  -2   1    5.91    3.87
   6  -2   2  395.92   41.12
   6  -2   2  429.93   24.60
   6  -2   2  406.29   26.47
   6  -2   3   10.01    8.72
   6  -2   3    1.41    1.69
   6  -2   3    5.24    4.02
   6  -2   4  216.16   30.97
   6  -2   4  266.46   20.85
   6  -2   4  238.17   18.40
   6  -2   5   34.65   12.93
   6  -2   5   50.31    8.90
   6  -2   5   33.58    5.80
   6  -2   6   59.33   16.92
   6  -2   6   67.45   11.28
   6  -2   7   45.29   13.78
   6  -2   7   64.10   11.35
   6  -2   8   -1.67    3.02
   6  -2   8    4.45    2.98
   6  -2   9   -2.73    4.64
   6  -2   9    5.63    3.90
   6  -2  10   10.40    7.45
   6  -2  10   24.27    7.54
   6  -2  11    4.88    5.22
   6  -2  11    1.51    1.94
   6  -2  12    8.65    6.79
   6  -2  12   11.39    5.94
   6  -1 -10    3.60    4.54
   6  -1 -10    9.37    7.68
   6  -1  -9    4.08    5.37
   6  -1  -9    3.96    4.23
   6  -1  -8   68.73   15.16
   6  -1  -8   70.56   14.89
   6  -1  -7    0.83    3.13
   6  -1  -7   -2.45    3.03
   6  -1  -6    9.68    3.76
   6  -1  -6    4.91    1.60
   6  -1  -5    7.49    4.21
   6  -1  -5    4.41    5.48
  -6   1   5   -2.32    3.13
   6  -1  -4  352.75   26.41
   6  -1  -4  294.52   27.95
  -6   1   4  264.38   28.63
   6  -1  -3   76.47   11.63
   6  -1  -3   62.34    7.71
   6  -1  -3   55.81   12.18
  -6   1   3   57.47   11.78
   6  -1  -2  884.96   40.42
   6  -1  -2  952.43   40.01
   6  -1  -2  830.01   46.05
   6  -1  -1  467.75   24.81
   6  -1  -1  489.97   36.07
   6  -1  -1  481.48   27.31
   6  -1  -1  462.63   33.36
  -6   1   1  419.14   13.00
   6  -1   0  101.14   12.18
   6  -1   0  114.25   12.36
   6  -1   0   95.53   18.11
   6  -1   0  106.12   15.97
   6  -1   1  166.93   25.81
   6  -1   1  196.58   16.63
   6  -1   1  180.17   19.93
   6  -1   1  180.20   16.17
   6  -1   2   34.05   11.79
   6  -1   2   45.87    8.18
   6  -1   2   53.80    8.69
   6  -1   2   37.19    8.14
   6  -1   3    0.45    3.30
   6  -1   3   13.71    4.54
   6  -1   3    6.85    4.52
   6  -1   4   88.00   12.20
   6  -1   4   67.89   18.01
   6  -1   4   72.12   10.96
   6  -1   5   47.50   15.00
   6  -1   5   52.53    8.06
   6  -1   6  419.81   43.31
   6  -1   6  484.46   30.24
   6  -1   7  210.24   30.09
   6  -1   7  252.65   22.36
   6  -1   8  497.23   45.66
   6  -1   8  707.29   38.44
   6  -1   9   95.05   20.93
   6  -1   9   88.54   13.98
   6  -1  10  192.25   27.79
   6  -1  10  259.92   24.22
   6  -1  11    8.94    7.13
   6  -1  11    9.84    5.54
   6  -1  12  136.32   23.77
   6  -1  12  170.71   19.94
   6   0 -11    7.76    8.09
   6   0 -11   11.22    9.13
   6   0 -10  335.67   37.37
   6   0  -9    7.02    5.82
   6   0  -8  158.92   24.30
   6   0  -8  185.35   27.47
   6   0  -7  252.40   28.50
   6   0  -7  244.85   29.71
   6   0  -6    0.82    4.08
   6   0  -6   10.35    7.39
   6   0  -5  834.42   44.52
   6   0  -5  773.90   50.60
  -6   0   5  744.60   58.64
   6   0  -4  146.14   17.68
   6   0  -4  167.45   23.42
  -6   0   4  145.80   25.55
   6   0  -3  415.73   21.94
   6   0  -3  459.53   28.79
   6   0  -3  385.80   35.02
  -6   0   3  447.78   40.17
   6   0  -2  236.08   22.98
   6   0  -2  263.40   20.02
   6   0  -2  237.03   26.61
  -6   0   2  224.94   24.78
   6   0  -1  101.16   11.80
   6   0  -1   79.74   15.30
   6   0  -1   78.82   15.28
  -6   0   1   95.31   13.54
   6   0   0  165.77   23.37
   6   0   0  187.49   15.37
   6   0   0  188.19   23.59
  -6   0   0  194.73   15.67
   6   0   1  120.07   12.23
   6   0   1  120.68   14.24
   6   0   1  102.86   20.16
   6   0   1  144.92   19.85
  -6   0  -1  143.67   12.02
   6   0   2  196.27   17.86
   6   0   2  129.82   23.01
   6   0   2  183.01   21.89
   6   0   2  168.21   14.06
   6   0   3  126.37   14.41
   6   0   3  105.70   15.27
   6   0   4  190.71   20.47
   6   0   4  224.80   19.75
   6   0   4  165.56   15.89
   6   0   4  151.60   24.53
   6   0   5  150.57   16.44
   6   0   5   93.19    8.26
   6   0   6   19.23    6.23
   6   0   7  288.71   23.84
   6   0   8    2.07    1.61
   6   0   9   -2.05    2.06
   6   0   9   -0.10    1.82
   6   0  10   14.92    7.70
   6   0  10    9.14    4.59
   6   0  11    4.82    7.00
   6   0  11    4.65    1.12
   6   0  12    1.19    2.36
   6   0  12    0.95    2.56
   6   1 -11   27.86   11.34
   6   1 -11   30.60   12.44
   6   1 -10    2.12    6.53
   6   1 -10    3.69    5.17
   6   1  -9   11.46    8.88
   6   1  -9    2.33    3.90
   6   1  -8    5.38    6.20
   6   1  -7   53.05   15.31
   6   1  -6  370.44   34.94
   6   1  -6  371.47   39.13
   6   1  -5   27.60    8.25
   6   1  -5   26.56   10.09
  -6  -1   5   13.55    8.44
   6   1  -4  251.53   24.53
   6   1  -4  238.27   30.88
  -6  -1   4  217.00   33.18
   6   1  -3   75.47   10.95
   6   1  -3   67.65   11.31
   6   1  -3   73.87   16.72
  -6  -1   3   74.49   18.81
   6   1  -2    1.97    2.83
   6   1  -2    0.77    1.79
   6   1  -2    2.54    5.09
  -6  -1   2    5.67    6.47
   6   1  -1    6.72    3.12
   6   1  -1    5.11    4.53
  -6  -1   1    2.76    2.76
   6   1   0   78.32    8.94
   6   1   0   94.03   18.33
  -6  -1   0   81.80   14.08
   6   1   1  498.32   20.73
   6   1   1  493.06   39.45
  -6  -1  -1  529.28   31.63
  -6  -1  -2   60.18   10.05
   6   1   2   58.30   10.26
   6   1   2   49.07    5.99
   6   1   2   66.33   13.67
   6   1   3 1314.40   50.60
   6   1   3 1393.69   48.06
   6   1   3 1351.75   32.95
   6   1   4  220.53   20.26
   6   1   4  165.72   14.65
   6   1   4  158.91   17.96
   6   1   4  154.59   27.74
   6   1   5  610.99   33.84
   6   1   5  424.85   15.87
   6   1   6  599.30   34.08
   6   1   7   38.24    8.64
   6   1   8  426.71   29.33
   6   1   9   21.37    6.48
   6   1  10  226.29   22.21
   6   1  11  151.05   18.11
   6   1  12  157.60   18.91
   6   1  13  158.94   24.85
   6   1  13  234.76   23.49
   6   2 -11    1.86    3.75
   6   2 -11    0.94    2.31
   6   2 -10  160.33   27.96
   6   2 -10  143.87   26.73
   6   2  -9   92.24   20.96
   6   2  -9   78.27   19.98
   6   2  -8  126.12   22.75
   6   2  -8  105.14   21.95
   6   2  -7  467.80   46.40
   6   2  -7  412.71   41.51
   6   2  -6   79.46   17.47
   6   2  -6   52.86   17.59
   6   2  -5  888.89   63.90
  -6  -2   5  790.50   69.21
   6   2  -4    9.82    3.67
   6   2  -4    5.66    4.89
  -6  -2   4   12.25    7.93
   6   2  -3  517.31   48.09
  -6  -2   3  529.38   54.94
   6   2  -2  282.67   34.75
  -6  -2   2  266.54   37.33
   6   2  -1    8.76    6.86
  -6  -2   1   -0.56    5.86
   6   2   0 1086.98   61.41
  -6  -2   0 1139.47   62.93
   6   2   1  385.19   34.18
  -6  -2  -1  408.96   33.57
   6   2   2  294.06   26.39
  -6  -2  -2  286.27   25.70
  -6  -2  -3    4.66    2.82
   6   2   3    4.57    1.55
   6   2   3    0.86    1.58
  -6  -2  -4   16.12    5.78
   6   2   4   12.97    2.39
   6   2   4   24.56    7.32
   6   2   4   15.49    2.34
   6   2   4   18.75    5.49
   6   2   5  325.10   25.26
   6   2   6  129.36   15.79
   6   2   7   98.43   13.83
   6   2   8    4.01    1.58
   6   2   9   -2.25    3.23
   6   2  10   33.68    8.43
   6   2  11    5.31    1.66
   6   2  12    8.46    3.21
   6   2  13    3.76    3.46
   6   3 -11   21.72   11.87
   6   3 -11   43.01   15.50
   6   3 -10    4.14    2.75
   6   3 -10    2.82    5.12
   6   3  -9   23.97   10.56
   6   3  -9   26.06   10.05
   6   3  -8    5.05    4.84
   6   3  -8   10.53    9.61
   6   3  -7    8.59    8.18
   6   3  -7    6.41    6.97
   6   3  -6   54.74   14.70
   6   3  -6   32.75   12.86
   6   3  -5   56.11   13.72
  -6  -3   5   50.27   18.35
   6   3  -5   88.69   20.23
   6   3  -4  404.18   42.58
  -6  -3   4  397.16   51.98
   6   3  -4  387.81   33.64
   6   3  -3   83.39   13.77
   6   3  -3  122.55   22.47
  -6  -3   3   83.04   23.35
   6   3  -2  471.87   25.31
   6   3  -2  579.96   49.67
  -6  -3   2  634.65   61.55
   6   3  -2  543.04   29.54
   6   3  -1  440.39   41.62
  -6  -3   1  520.27   52.48
   6   3   0  250.49   28.78
  -6  -3   0  256.13   34.35
   6   3   1 1208.29   57.80
  -6  -3  -1 1232.20   69.39
  -6  -3  -2   45.24   11.93
   6   3   2   43.58    9.49
   6   3   3  472.25   29.44
  -6  -3  -3  456.16   34.47
   6   3   4  289.74   24.09
   6   3   4  261.95   19.09
  -6  -3  -4  247.46   24.09
  -6  -3  -5    8.98    4.42
   6   3   5    9.58    4.94
   6   3   6  359.55   27.43
   6   3   7   92.01   13.50
   6   3   8  934.36   44.09
   6   3   9   10.54    4.89
   6   3  10  520.56   32.63
   6   3  11  141.72   17.40
   6   3  12   14.69    6.12
   6   4 -10  160.53   25.99
   6   4 -10  210.78   33.13
   6   4  -9   48.92   14.35
   6   4  -9   32.91   12.76
   6   4  -8  119.46   21.07
   6   4  -8  116.88   23.77
   6   4  -7   66.36   15.41
   6   4  -7   70.85   17.82
   6   4  -6   13.14   10.32
  -6  -4   6   -0.51    8.47
   6   4  -6   12.69    6.92
   6   4  -5  401.06   33.89
   6   4  -5  390.59   42.99
  -6  -4   5  363.92   52.72
   6   4  -4  213.80   31.09
  -6  -4   4  180.71   35.93
  -6  -4   3   54.78   21.30
   6   4  -3   93.06   19.79
   6   4  -2  265.67   32.94
  -6  -4   2  249.77   41.58
   6   4  -1   33.86   11.00
  -6  -4   1   32.70   14.88
   6   4   0  133.63   20.29
  -6  -4   0  138.07   27.52
   6   4   1  233.60   25.06
  -6  -4  -1  199.37   29.48
  -6  -4  -2  231.81   22.84
   6   4   2  265.77   23.79
  -6  -4  -2  269.38   32.00
  -6  -4  -3   10.39    6.40
   6   4   3    8.90    5.54
  -6  -4  -3    8.82    4.76
  -6  -4  -4   58.31   12.94
   6   4   4   67.90   11.59
   6   4   5  127.45   15.74
  -6  -4  -5  111.50   17.04
  -6  -4  -6   52.42   11.26
   6   4   6   67.03   11.62
   6   4   7   24.66    6.59
   6   4   8   18.00    6.03
   6   4   9   55.32   10.20
   6   4  10   24.59    7.29
   6   4  11   42.86    9.46
   6   4  12  159.63   18.22
   6   5 -10   34.77   12.05
   6   5  -9    0.14    3.06
   6   5  -8   66.58   17.52
  -6  -5   7    1.18    3.69
   6   5  -7   -1.37    4.80
  -6  -5   6  131.08   33.55
   6   5  -6  147.12   25.66
  -6  -5   5    8.65    8.55
   6   5  -5    2.88    3.46
   6   5  -4  380.97   42.16
  -6  -5   4  391.13   56.48
  -6  -5   3    6.00   10.06
   6   5  -3   11.11    9.36
   6   5  -2  228.42   29.79
  -6  -5   2  256.52   42.35
   6   5  -1  278.51   30.43
  -6  -5   1  220.20   38.09
   6   5   0    2.72    2.38
  -6  -5   0   -1.18    4.43
   6   5   1 1490.29   63.24
  -6  -5  -1 1417.46   86.97
  -6  -5  -2   73.56   17.49
   6   5   2   67.86   12.64
  -6  -5  -3 2300.98   94.51
  -6  -5  -4  429.09   38.04
   6   5   5  390.26   28.63
  -6  -5  -5  338.10   31.71
   6   5   6  435.03   30.02
  -6  -5  -6  467.17   34.92
   6   5   7   82.47   12.83
   6   5   8  134.76   16.57
   6   5   9  142.03   16.95
   6   5  10   84.88   13.13
   6   5  11   96.33   13.91
   6   5  12  101.84   14.45
   6   6  -9  235.94   34.33
  -6  -6   8   29.29   17.54
   6   6  -8   62.98   19.18
   6   6  -7  458.25   48.97
  -6  -6   7  384.59   59.08
  -6  -6   6    3.88    5.66
   6   6  -6    9.92    8.75
   6   6  -5  253.07   34.83
  -6  -6   5  211.88   43.88
  -6  -6   4    8.35   11.50
   6   6  -4    4.28    4.94
  -6  -6   3    4.14    8.51
   6   6  -3    0.81    2.76
   6   6  -2    8.52    6.17
  -6  -6   2   17.61   12.37
   6   6  -1    3.89    4.30
  -6  -6   1   -2.90    2.33
   6   6   0   66.89   13.63
  -6  -6   0  113.37   28.37
   6   6   1    3.20    1.57
  -6  -6  -1   -5.50    7.37
  -6  -6  -2  186.08   30.41
  -6  -6  -3   67.68   16.91
  -6  -6  -4    4.81    5.26
  -6  -6  -5   -0.24    3.07
  -6  -6  -6    2.68    1.02
   6   6   6    4.63    3.54
   6   6   7  275.06   23.64
  -6  -6  -7  264.71   26.95
   6   6   8   63.15   11.57
   6   6   9   72.86   11.88
   6   6  10    0.92    2.80
   6   6  11    9.03    3.78
   6   7  -9  395.66   44.22
  -6  -7   9  318.30   56.04
  -6  -7   8  107.60   32.35
   6   7  -8  189.32   31.22
  -6  -7   7   -1.17    4.80
   6   7  -7   10.85   10.67
   6   7  -6  135.55   26.06
  -6  -7   6  119.92   35.28
   6   7  -5  296.89   36.78
  -6  -7   5  296.96   52.72
   6   7  -4   99.86   19.49
  -6  -7   4   69.32   25.26
   6   7  -3  374.56   38.83
  -6  -7   3  313.38   52.96
   6   7  -2  116.14   21.26
  -6  -7   2   98.37   28.90
   6   7  -1  696.88   48.88
  -6  -7   1  782.14   77.12
   6   7   0    8.06    4.98
  -6  -7   0   26.87   15.92
  -6  -7  -1  786.80   70.26
  -6  -7  -2   24.42   12.76
  -6  -7  -3  342.80   40.09
  -6  -7  -4   76.17   17.42
  -6  -7  -5   70.20   16.19
   6   7   6  351.55   26.95
  -6  -7  -6  312.57   32.18
  -6  -7  -7    1.40    1.85
   6   7   7    2.93    1.37
   6   7   8  719.34   38.46
   6   7   9   41.36    9.58
   6   7  10  355.74   26.88
   6   7  11  115.51   15.20
   6   8  -8   -3.58    3.03
  -6  -8   8   -4.87    7.59
   6   8  -7    5.18    2.52
  -6  -8   7    5.12   11.72
   6   8  -6    4.01    5.80
  -6  -8   6    5.97   10.09
   6   8  -5   18.30    9.19
  -6  -8   5    2.63    4.44
   6   8  -4    7.25    5.62
  -6  -8   4    1.75    6.39
   6   8  -3   94.07   19.62
  -6  -8   3   98.86   30.81
   6   8  -2  178.68   25.26
  -6  -8   2  188.15   40.15
   6   8  -1   41.44   12.28
  -6  -8   1   35.50   17.94
  -6  -8   0  183.00   36.77
  -6  -8  -1   23.88   15.12
  -6  -8  -2   15.09   10.98
  -6  -8  -3    2.87    3.57
  -6  -8  -4  128.40   24.62
  -6  -8  -5    5.38    4.88
  -6  -8  -6   36.54   11.42
   6   8   6   38.24    8.34
  -6  -8  -7   12.53    5.90
   6   8   7   17.83    5.72
  -6  -8  -8   40.56   11.28
   6   8   8   44.63    9.11
   6   8   9  115.05   15.24
   6   8  10  171.61   18.70
   6   9  -7   -0.98    5.63
  -6  -9   7   -7.77    8.35
   6   9  -6  183.06   30.17
  -6  -9   6  176.16   41.78
   6   9  -5    9.21    6.03
  -6  -9   5    2.72    6.81
   6   9  -4  270.91   34.68
  -6  -9   4  281.08   53.69
   6   9  -3  215.74   30.55
  -6  -9   3  210.78   44.54
  -6  -9   2  102.12   29.08
  -6  -9   1  693.97   75.81
  -6  -9   0  144.77   31.96
  -6  -9  -1  458.67   55.78
  -6  -9  -2  261.84   40.80
  -6  -9  -3  241.87   36.43
  -6  -9  -4  104.50   21.98
  -6  -9  -5  278.58   34.53
   6   9   6  227.63   21.58
  -6  -9  -6  251.97   30.38
  -6  -9  -7   21.33    8.11
   6   9   7   28.72    8.07
   6   9   8  228.35   21.94
  -6  -9  -8  208.53   26.82
   6   9   9   85.11   13.24
   6  10  -5   70.31   18.47
  -6 -10   5   54.34   25.86
  -6 -10   4    2.35    7.23
  -6 -10   3   -4.90   10.07
  -6 -10   2   72.64   26.42
  -6 -10   1   21.50   14.36
  -6 -10   0   84.48   25.18
  -6 -10  -1    3.89   10.20
  -6 -10  -2   10.26   11.50
  -6 -10  -3    3.19    7.49
  -6 -10  -4    1.38    8.44
  -6 -10  -5    1.91    4.18
  -6 -10  -6   26.29    9.97
   6  10   6   36.81    8.71
  -6 -10  -7   47.69   13.06
   6  10   7   48.79   10.03
  -6 -11   3  297.58   52.88
  -6 -11   2  -11.95   11.44
  -6 -11   1  212.51   43.03
  -6 -11   0   33.02   15.76
  -6 -11  -1  308.04   45.99
  -6 -11  -2    8.00    8.06
  -6 -11  -3  177.43   31.17
  -6 -11  -4  219.90   33.31
  -6 -11  -5   -1.58    2.19
   7  -6  -3    1.64    1.96
   7  -6  -3   14.48    3.98
   7  -6  -2   27.09    8.01
   7  -6  -2   78.99   14.99
   7  -6  -1  113.09   17.09
   7  -6  -1   41.82    9.64
   7  -6   0   20.20    6.71
   7  -6   1  272.18   27.82
   7  -6   2   13.38    6.86
   7  -6   2   19.11    8.67
   7  -6   3   96.64   19.93
   7  -6   4    8.74    5.64
   7  -6   5   47.65   14.55
   7  -5  -5   62.62   13.47
   7  -5  -5  101.15   15.82
   7  -5  -4   15.62    6.53
   7  -5  -4   45.88   10.36
   7  -5  -3   -2.40    2.67
   7  -5  -3    2.06    3.14
   7  -5  -2   -2.24    2.68
   7  -5  -2    5.33    4.75
   7  -5  -1    3.92    4.09
   7  -5  -1    1.72    2.37
   7  -5   0   14.44    6.81
   7  -5   0   14.90    6.16
   7  -5   1   33.49   11.88
   7  -5   1   25.30    8.33
   7  -5   1   17.92    5.17
   7  -5   2  151.25   24.35
   7  -5   2  115.92   14.13
   7  -5   3   -4.74    4.58
   7  -5   4  112.12   22.47
   7  -5   5   -1.13    3.43
   7  -5   6    2.77    5.06
   7  -5   6    5.75    3.29
   7  -5   7    3.93    5.13
   7  -5   7    5.63    4.41
   7  -4  -6   34.72    9.74
   7  -4  -6   12.37    3.75
   7  -4  -5   87.16   14.52
   7  -4  -5   41.61   11.13
   7  -4  -4   27.95    8.38
   7  -4  -4   60.53   11.47
   7  -4  -3  205.59   21.61
   7  -4  -3  162.12   19.34
   7  -4  -2   83.71   13.08
   7  -4  -2  110.79   15.34
   7  -4  -1   44.07    9.87
   7  -4  -1   39.14    9.08
   7  -4   0  187.03   20.65
   7  -4   0  171.91   22.75
   7  -4   0  128.54   15.99
   7  -4   1  134.19   21.44
   7  -4   1  101.15   13.08
   7  -4   1  160.48   19.67
   7  -4   2   -1.36    3.05
   7  -4   2    0.61    1.16
   7  -4   3  215.63   30.08
   7  -4   3  263.74   20.05
   7  -4   4  285.99   21.58
   7  -4   4  198.02   30.27
   7  -4   5   53.78   16.04
   7  -4   5   68.19   10.38
   7  -4   6  252.40   36.51
   7  -4   6  256.74   22.42
   7  -4   7    5.41    8.32
   7  -4   7    4.49    4.08
   7  -4   8  151.58   27.83
   7  -4   8  198.45   21.25
   7  -3  -7   89.54   15.39
   7  -3  -7   62.12   13.40
   7  -3  -6   -3.06    4.14
   7  -3  -6    0.89    2.78
   7  -3  -5  130.31   17.14
   7  -3  -5   80.85   14.74
   7  -3  -4   21.53    7.51
   7  -3  -4   45.08    9.96
   7  -3  -3   44.77   10.78
   7  -3  -3   85.85   13.65
   7  -3  -2   32.66    9.06
   7  -3  -2   46.31    9.10
   7  -3  -1   25.23    7.86
   7  -3  -1   29.21    8.02
   7  -3   0   87.14   10.08
   7  -3   0   78.42   15.47
   7  -3   0   59.75   10.24
   7  -3   1    1.74    2.16
   7  -3   1    5.52    3.22
   7  -3   1   10.26    3.90
   7  -3   1    7.42    2.91
   7  -3   2    4.80    4.52
   7  -3   2    4.70    2.96
   7  -3   2    2.09    2.84
   7  -3   3   18.67    9.89
   7  -3   3   14.29    5.34
   7  -3   3   11.35    3.65
   7  -3   3    5.69    2.25
   7  -3   4   29.66   13.19
   7  -3   4   28.27    7.25
   7  -3   5   11.64    8.68
   7  -3   5    1.66    1.87
   7  -3   6   15.90   10.28
   7  -3   6    3.39    2.59
   7  -3   7    1.98    2.84
   7  -3   7   -0.41    1.43
   7  -3   8   46.68   14.72
   7  -3   8   53.29   10.17
   7  -3   9   -3.46    6.87
   7  -3   9    1.00    1.67
   7  -2  -8  104.32   17.19
   7  -2  -8   73.60   15.43
   7  -2  -7   21.30    7.12
   7  -2  -7   10.87    6.01
   7  -2  -6   77.39   13.58
   7  -2  -6   64.54   14.14
   7  -2  -5    2.99    1.19
   7  -2  -5    4.13    4.32
   7  -2  -4  221.69   21.49
   7  -2  -4  153.36   19.71
   7  -2  -3  146.25   16.86
   7  -2  -3  101.99   16.14
   7  -2  -2  157.84   13.00
   7  -2  -2  166.00   17.51
   7  -2  -2  125.18   17.63
   7  -2  -1  603.79   32.75
   7  -2  -1  530.08   25.20
   7  -2   0   25.90    8.55
   7  -2   0   36.21    6.51
   7  -2   0   18.75    7.05
   7  -2   1  419.06   27.23
   7  -2   1  353.48   36.30
   7  -2   1  395.81   23.17
   7  -2   1  343.04   26.73
   7  -2   2  225.72   31.04
   7  -2   2  274.62   19.78
   7  -2   2  225.65   21.32
   7  -2   2  302.18   23.47
   7  -2   3  184.40   16.62
   7  -2   3  153.29   26.84
   7  -2   3  145.47   17.14
   7  -2   3  180.36   18.65
   7  -2   4   65.18   18.01
   7  -2   4   71.99   10.71
   7  -2   5  202.23   18.96
   7  -2   5  166.28   29.60
   7  -2   6   13.03    8.87
   7  -2   6   20.45    6.19
   7  -2   7   87.43   21.04
   7  -2   7   99.94   14.06
   7  -2   8  121.93   24.91
   7  -2   8  165.14   19.10
   7  -2   9   25.21   11.80
   7  -2   9   13.21    5.69
   7  -2  10  164.44   26.97
   7  -2  10  246.99   23.69
   7  -1  -8   16.46    8.73
   7  -1  -8   20.99   10.28
   7  -1  -7  193.08   23.61
   7  -1  -7  146.30   23.12
   7  -1  -6   17.84    6.65
   7  -1  -6    8.20    4.05
   7  -1  -5  236.33   23.23
   7  -1  -5  224.82   27.53
   7  -1  -4   -3.54    3.68
   7  -1  -4   -3.77    5.66
   7  -1  -3   15.14    6.07
   7  -1  -3   17.16    6.92
   7  -1  -2    2.20    1.22
   7  -1  -2   -0.95    1.40
   7  -1  -2    0.63    1.53
   7  -1  -1   43.63   11.07
   7  -1  -1   49.45    8.26
   7  -1  -1   59.45   12.55
   7  -1  -1   65.20   10.28
   7  -1   0   18.14    8.64
   7  -1   0   29.62    6.17
   7  -1   0   19.99    8.30
   7  -1   0   34.21    7.62
   7  -1   1   10.52    6.29
   7  -1   1   19.17    4.45
   7  -1   1   16.98    4.90
   7  -1   1   21.63    7.74
   7  -1   2  191.82   16.77
   7  -1   2  182.16   17.23
   7  -1   2  132.68   24.01
   7  -1   2  179.07   22.14
   7  -1   3   -1.18    4.34
   7  -1   3    0.11    1.98
   7  -1   3    5.06    3.16
   7  -1   3    4.06    3.91
   7  -1   4   15.87    8.58
   7  -1   4   18.55    5.27
   7  -1   5   22.45   11.42
   7  -1   5    8.26    3.49
   7  -1   6   25.53   11.55
   7  -1   6   21.48    6.20
   7  -1   7  108.45   14.93
   7  -1   7   58.15   17.07
   7  -1   8   -0.76    1.73
   7  -1   8    5.58    4.27
   7  -1   9   63.21   17.38
   7  -1   9   91.77   13.87
   7  -1  10   30.24   11.14
   7  -1  10   22.30    8.20
   7   0  -8   42.04   13.09
   7   0  -7    3.46    4.42
   7   0  -7    6.06    4.30
   7   0  -6   49.73   11.91
   7   0  -6   47.56   14.24
   7   0  -5    1.17    3.42
   7   0  -5    3.46    6.06
   7   0  -4  239.40   22.97
   7   0  -4  224.11   29.70
   7   0  -3  323.84   24.22
   7   0  -3  322.20   35.05
   7   0  -2  181.17   17.02
   7   0  -2  160.33   24.44
   7   0  -1  675.87   44.42
   7   0  -1  710.92   31.72
   7   0  -1  745.76   50.73
   7   0   0    9.16    6.45
   7   0   0    4.41    4.73
   7   0   0    7.50    7.15
   7   0   0    1.97    2.11
   7   0   1  384.84   25.60
   7   0   1  378.99   20.83
   7   0   1  398.61   36.42
   7   0   2   13.40    7.53
   7   0   2   49.86    9.30
   7   0   2   40.31    7.25
   7   0   2   38.39   11.17
   7   0   3  257.72   34.79
   7   0   3  301.02   27.52
   7   0   4  264.04   35.56
   7   0   4  393.98   27.00
   7   0   5  144.29   16.10
   7   0   5   92.41   20.62
   7   0   6  545.71   50.83
   7   0   6  735.85   38.10
   7   0   7   18.94    8.18
   7   0   7   20.70    6.51
   7   0   8  190.82   19.76
   7   0   8  114.02   23.14
   7   0   9   13.18    9.28
   7   0   9   18.66    6.35
   7   0  10   15.71    8.49
   7   0  10   10.78    5.57
   7   0  11    6.29    5.62
   7   0  11   14.64    6.88
   7   1  -9   55.21   16.70
   7   1  -8   28.02   12.18
   7   1  -7  117.29   22.84
   7   1  -6   63.20   17.16
   7   1  -5   44.41   11.71
   7   1  -5   46.64   15.03
   7   1  -4   39.77    8.87
   7   1  -4   55.04   15.46
  -7  -1   4   49.73   15.40
   7   1  -3   37.44    9.26
   7   1  -3   42.47   12.56
  -7  -1   3   32.93   12.26
   7   1  -2   48.03   14.52
  -7  -1   2   24.28    7.73
  -7  -1   1    4.93    3.30
   7   1  -1    7.66    5.94
   7   1  -1   11.38    9.51
  -7  -1   0    8.59    4.20
   7   1   0   11.96    6.31
   7   1   0    7.50    7.22
  -7  -1  -1    2.90    2.15
   7   1   1    1.88    2.06
   7   1   1    1.01    4.79
   7   1   2   49.66    9.53
   7   1   2   51.93   11.79
   7   1   3   66.31   11.98
   7   1   3   44.16    9.48
   7   1   4  145.14   16.77
   7   1   5  161.19   17.91
   7   1   6    2.24    2.85
   7   1   7   11.29    3.97
   7   1   8  122.22   15.78
   7   1   9    5.52    3.37
   7   1  10  111.96   16.11
   7   1  11   15.12    9.85
   7   1  11   10.76    5.60
   7   2  -9   10.51    4.04
   7   2  -8  408.51   45.25
   7   2  -7   -1.38    4.27
  -7  -2   7    4.01    8.04
   7   2  -6  350.22   41.36
  -7  -2   6  315.70   45.27
   7   2  -5   38.65   12.74
  -7  -2   5   50.94   17.94
   7   2  -4   59.16   15.76
  -7  -2   4   50.37   16.87
   7   2  -3   56.00   15.30
  -7  -2   3   18.43   10.31
   7   2  -2   11.26    7.11
  -7  -2   2   13.55    8.77
   7   2  -1  259.27   33.17
  -7  -2   1  272.95   30.58
  -7  -2   0   41.37   10.66
   7   2   0   28.16   10.54
   7   2   1  833.95   52.38
  -7  -2  -1  944.21   46.13
   7   2   2  289.15   24.83
   7   2   2  263.01   25.78
  -7  -2  -2  277.43   22.42
   7   2   3  954.31   45.15
   7   2   3  850.47   40.73
  -7  -2  -3  894.85   39.54
   7   2   4  275.56   24.08
   7   2   5  250.90   22.96
   7   2   6  318.90   26.08
   7   2   7   13.96    4.95
   7   2   8  178.79   19.53
   7   2   9  146.91   17.38
   7   2  10   37.09    9.13
   7   2  11   90.08   14.10
   7   3  -9   58.28   16.59
  -7  -3   8    8.00   10.94
   7   3  -8   14.87   10.24
  -7  -3   7    5.02    5.16
   7   3  -7    8.92    7.31
  -7  -3   6    0.43    5.46
   7   3  -6    2.21    4.70
   7   3  -5   58.53   16.94
  -7  -3   5   53.23   19.39
   7   3  -4    4.37    5.16
  -7  -3   4   20.99    9.21
   7   3  -3  218.61   31.26
  -7  -3   3  184.51   33.85
   7   3  -2   -3.74    1.70
  -7  -3   2    3.34    3.01
   7   3  -1   13.66    8.66
  -7  -3   1   14.51    8.94
   7   3   0    0.94    2.41
  -7  -3   0    7.46    7.90
  -7  -3  -1  140.32   20.51
   7   3   1  157.62   21.39
  -7  -3  -2   54.12   11.87
   7   3   2   40.44    9.48
   7   3   3   53.46    9.64
  -7  -3  -3   60.20   11.49
   7   3   3   71.13   12.12
  -7  -3  -4    3.15    3.87
   7   3   4   -2.71    3.82
   7   3   5  177.22   19.58
   7   3   6   -3.92    1.72
   7   3   7   94.87   14.65
   7   3   8    3.59    4.82
   7   3   9  219.13   21.89
   7   3  10  167.00   18.99
   7   3  11   20.11    6.36
  -7  -4   8   58.78   23.19
   7   4  -8   70.06   19.24
  -7  -4   7   -1.06    6.69
   7   4  -7   -5.23    8.59
  -7  -4   6   95.23   26.26
   7   4  -6  107.18   22.94
  -7  -4   5   21.36   12.06
   7   4  -5   49.78   15.69
   7   4  -4  368.78   41.68
  -7  -4   4  333.71   49.71
   7   4  -3  557.17   50.35
  -7  -4   3  600.04   64.45
   7   4  -2   82.38   18.82
  -7  -4   2   89.86   23.90
   7   4  -1  946.97   60.44
  -7  -4   1  935.45   71.17
   7   4   0   31.95   11.37
  -7  -4   0   36.02   12.96
   7   4   1  533.59   38.53
  -7  -4  -1  597.76   48.47
   7   4   2  242.14   23.90
  -7  -4  -2  230.30   27.41
  -7  -4  -3  106.56   17.17
   7   4   3  124.41   15.89
   7   4   4  314.11   27.40
  -7  -4  -4  302.77   27.33
  -7  -4  -5    3.63    2.46
   7   4   5    0.65    2.19
   7   4   6  381.89   29.27
   7   4   7  103.31   15.06
   7   4   8  323.41   27.19
   7   4   9   24.18    6.78
   7   4  10   51.30   10.21
  -7  -5   8    5.64   12.63
   7   5  -8    6.49    2.44
  -7  -5   7    0.76    4.74
   7   5  -7    5.62    8.12
  -7  -5   6   75.51   24.46
   7   5  -6  115.70   25.08
  -7  -5   5   13.67   11.48
   7   5  -5   32.23   12.51
  -7  -5   4   23.33   13.91
   7   5  -4   40.87   13.46
  -7  -5   3   -7.25    9.58
   7   5  -3    9.47    2.12
  -7  -5   2   50.70   19.06
   7   5  -2   51.25   14.87
   7   5  -1  202.79   26.51
  -7  -5   1  145.05   28.87
   7   5   0   27.51    9.29
  -7  -5   0   22.02    8.34
   7   5   1  305.20   28.93
  -7  -5  -1  248.47   33.33
  -7  -5  -2   33.65   11.34
   7   5   2   38.06    9.40
  -7  -5  -3   77.16   16.67
  -7  -5  -4   76.87   15.04
   7   5   4   96.53   14.44
  -7  -5  -5    9.77    4.41
   7   5   5    7.11    3.90
  -7  -5  -6   39.21   10.02
   7   5   6   51.67   10.80
   7   5   7   35.42    8.43
   7   5   8    8.07    4.45
   7   5   9  154.38   18.62
   7   5  10  304.37   25.95
  -7  -6   7   -0.15    5.13
   7   6  -7    4.65    4.86
   7   6  -6  537.43   51.84
  -7  -6   6  482.71   65.07
   7   6  -5  313.78   38.95
  -7  -6   5  244.33   46.88
  -7  -6   4   95.90   30.41
   7   6  -4  103.55   21.63
   7   6  -3  322.09   36.84
  -7  -6   3  267.47   45.45
   7   6  -2   14.46    9.03
  -7  -6   2    6.30   13.31
   7   6  -1   27.61    8.71
  -7  -6   1   27.24   14.75
   7   6   0    9.20    7.02
  -7  -6   0   13.79    9.20
   7   6   1  271.40   27.08
  -7  -6  -1  274.25   37.43
   7   6   2  266.72   26.21
  -7  -6  -2  261.04   34.22
  -7  -6  -3  571.08   48.71
  -7  -6  -4  565.44   44.25
  -7  -6  -5    3.99    4.50
   7   6   5    3.25    1.13
   7   6   6  162.52   19.21
  -7  -6  -6  140.46   20.00
   7   6   7   35.21    9.01
   7   6   8   36.82    8.04
   7   6   9   31.51    8.93
   7   7  -6    2.53    2.92
  -7  -7   6   14.21   13.89
   7   7  -5   40.53   13.76
  -7  -7   5   32.43   18.81
   7   7  -4    9.21    6.37
  -7  -7   4    3.04   12.34
   7   7  -3   39.69   12.32
  -7  -7   3   46.48   21.26
   7   7  -2   18.33    8.84
  -7  -7   2   10.65   10.47
   7   7  -1    4.25    5.73
  -7  -7   1   -1.72    4.19
   7   7   0   80.98   15.39
  -7  -7   0  132.33   28.43
  -7  -7  -1    3.61    6.48
  -7  -7  -2  138.27   26.83
  -7  -7  -3   91.69   19.33
  -7  -7  -4   31.06   11.06
   7   7   5  361.34   29.21
  -7  -7  -5  326.08   32.98
  -7  -7  -6  101.17   18.11
   7   7   6   94.23   14.71
   7   7   7  214.46   22.02
  -7  -7  -7  198.72   24.12
   7   7   8  180.48   19.84
   7   7   9  116.32   15.75
   7   8  -5  282.34   37.17
  -7  -8   5  284.79   51.14
   7   8  -4   67.72   18.23
  -7  -8   4   40.16   18.94
   7   8  -3  765.19   57.05
  -7  -8   3  703.92   78.53
   7   8  -2   17.17    8.08
  -7  -8   2   17.00   11.71
   7   8  -1  398.93   37.38
  -7  -8   1  385.05   53.77
  -7  -8   0   76.19   23.28
  -7  -8  -1   11.04   10.53
  -7  -8  -2   65.96   19.28
  -7  -8  -3    0.81    4.39
  -7  -8  -4   55.25   15.39
  -7  -8  -5   -0.17    3.38
  -7  -8  -6   98.33   18.80
   7   8   6   98.66   14.87
  -7  -8  -7    0.39    2.85
   7   8   7    3.54    3.34
   7   9  -4    8.35    7.90
  -7  -9   4   13.03   13.07
   7   9  -3   35.96   12.13
  -7  -9   3   13.84   11.10
  -7  -9   2   55.57   21.18
  -7  -9   1    9.19    9.57
  -7  -9   0   93.52   25.17
  -7  -9  -1  341.47   46.82
  -7  -9  -2    1.68    2.15
  -7  -9  -3  235.36   34.30
  -7  -9  -4   17.56   10.16
  -7  -9  -5   82.89   18.15
  -7  -9  -6    5.60    4.80
   7   9   6   10.40    4.04
  -7 -10   1   72.47   22.39
  -7 -10   0   16.92    8.41
  -7 -10  -1   54.22   18.50
  -7 -10  -2  186.37   32.98
  -7 -10  -3   36.63   14.94
   8  -3  -3  139.50   19.28
   8  -3  -2    5.54    4.42
   8  -3  -1   90.41   14.53
   8  -3   0   -3.47    3.75
   8  -3   3    5.92    5.98
   8  -3   4  142.71   25.82
   8  -3   5   21.90   12.96
   8  -3   5    1.31    1.69
   8  -2  -4   16.24    8.51
   8  -2  -3    7.20    5.87
   8  -2  -2   38.29   11.33
   8  -2  -1   -0.76    3.14
   8  -2   0    7.33    4.91
   8  -2   2  129.02   13.46
   8  -2   3  104.65   12.61
   8  -2   3   73.79   18.16
   8  -2   4   41.83   15.81
   8  -2   4   88.85   11.99
   8  -2   5  118.72   14.36
   8  -2   5   75.03   20.18
   8  -2   6    5.44    6.89
   8  -2   6    5.63    3.06
   8  -1  -5    7.18    6.33
   8  -1  -4   57.57   15.10
   8  -1  -3   87.43   16.08
   8  -1  -2   -1.16    1.54
   8  -1  -1  150.82   23.01
   8  -1   0   86.36   11.27
   8  -1   0   41.24   13.06
   8  -1   1  154.03   15.04
   8  -1   2  204.40   18.00
   8  -1   2  123.15   22.79
   8  -1   3   24.68   11.30
   8  -1   3   39.08    8.25
   8  -1   4  106.49   13.25
   8  -1   4   75.51   18.83
   8  -1   5    2.63    6.95
   8  -1   5    5.04    3.21
   8  -1   6    6.95    6.09
   8  -1   6   19.64    5.92
   8  -1   7    4.65    7.60
   8  -1   7   -3.21    3.17
   8   0  -5    0.29    4.70
   8   0  -4    5.40    6.28
   8   0  -3    3.46    3.92
   8   0  -2  115.77   13.57
   8   0  -2  103.58   20.62
   8   0  -1    2.80    3.08
   8   0  -1   10.23    7.61
   8   0   0   77.25   11.37
   8   0   0   59.85   15.05
   8   0   1   35.71    7.50
   8   0   2   -2.29    5.67
   8   0   2    8.17    4.12
   8   0   3   35.68   12.13
   8   0   3   84.96   12.25
   8   0   4    6.69    6.86
   8   0   4    6.68    4.38
   8   0   5  252.49   22.15
   8   0   5  204.51   32.65
   8   0   6    7.41    7.06
   8   0   6    1.41    1.97
   8   0   7  219.15   21.64
   8   0   7  164.60   29.63
   8   0   8   36.93   13.65
   8   0   8   55.51   10.46
   8   1  -6   19.87   10.82
   8   1  -5  151.82   27.84
   8   1  -4    3.64    7.33
   8   1  -3  164.04   27.08
   8   1  -2    9.49   10.17
   8   1  -1  218.99   19.22
   8   1  -1  233.46   32.30
   8   1   0   89.10   12.93
   8   1   0   34.93   12.38
   8   1   1  298.94   24.41
   8   1   1  236.97   28.04
   8   1   2    5.48    8.04
   8   1   2   26.59    7.19
   8   1   3   28.93   11.93
   8   1   3   53.88   10.69
   8   1   4  272.68   37.60
   8   1   4  388.15   28.09
   8   1   5   62.82   17.54
   8   1   5   86.51   13.49
   8   1   6  185.60   20.00
   8   1   6  112.77   23.80
   8   1   7   57.64   17.29
   8   1   7  112.22   15.82
   8   1   8   17.16   10.57
   8   1   8   32.68    8.47
   8   2  -6    8.76    9.30
   8   2  -5   22.40   10.69
   8   2  -4   -0.86    5.11
   8   2  -3    1.66    6.41
   8   2  -2   10.96   10.25
   8   2  -1   16.51    9.97
   8   2   0   95.41   19.87
   8   2   1  121.00   15.68
   8   2   1   68.84   14.86
   8   2   2  121.79   16.22
   8   2   3  287.59   25.40
   8   2   4   37.15    8.60
   8   2   5  451.23   31.49
   8   2   6   28.75    8.18
   8   2   7  111.80   16.11
   8   2   8  147.02   18.46
   8   3  -6   49.78   16.91
   8   3  -5   64.70   17.59
   8   3  -4   74.52   20.84
   8   3  -3  177.33   29.75
   8   3  -2    9.08    9.55
   8   3  -1  322.72   37.49
   8   3   0  181.77   25.50
   8   3   1   33.98    9.27
   8   3   2  182.84   20.20
   8   3   3    7.74    4.56
   8   3   4   10.97    6.36
   8   3   5   30.25    8.91
   8   3   6   33.86    8.52
   8   3   7    5.69    5.82
   8   3   8   17.29    6.27
   8   4  -5    8.50    3.09
   8   4  -4  130.09   25.69
   8   4  -3   12.40    8.27
   8   4  -2  341.15   38.67
  -8  -4   2  332.00   41.07
   8   4  -1   67.41   17.20
  -8  -4   1   70.57   17.55
  -8  -4   0  160.43   24.48
   8   4   0  181.39   25.07
  -8  -4  -1   65.01   15.24
   8   4   1   58.33   12.63
  -8  -4  -2   14.46    6.66
  -8  -4  -3   24.28    7.78
   8   4   3   43.57   11.06
  -8  -4  -4   24.48    7.01
   8   4   4   58.96   12.51
   8   4   5  207.14   22.48
   8   4   6   13.95    7.21
   8   4   7  524.46   35.85
   8   4   8  177.72   20.51
  -8  -5   5  199.90   39.40
   8   5  -5  235.51   35.31
  -8  -5   4   -3.57    3.50
   8   5  -4  -15.45   11.32
   8   5  -3  579.03   50.99
  -8  -5   3  473.88   55.63
  -8  -5   2   -3.16    5.48
   8   5  -2    4.65    2.83
   8   5  -1  255.34   30.25
  -8  -5   1  238.39   33.60
   8   5   0   10.09    5.70
  -8  -5   0    6.56    4.16
  -8  -5  -1    9.78    6.97
  -8  -5  -2   20.11    7.79
  -8  -5  -3    3.88    4.45
   8   5   3    8.23    5.70
  -8  -5  -4   20.71    7.49
   8   5   4   33.09    9.61
  -8  -5  -5    0.51    2.41
   8   5   5    9.66    4.57
   8   5   6   22.01    6.79
   8   5   7   45.65   10.97
  -8  -6   4  101.38   26.43
   8   6  -4   89.24   20.73
  -8  -6   3    6.97    6.45
   8   6  -3    5.36    4.79
   8   6  -2  113.81   20.32
  -8  -6   2  114.88   26.31
   8   6  -1   94.50   18.46
  -8  -6   1   64.28   19.29
   8   6   0   71.08   15.25
  -8  -6   0   76.07   19.12
  -8  -6  -1  150.82   24.81
  -8  -6  -2   59.38   15.10
  -8  -6  -3  406.00   36.94
  -8  -6  -4    9.00    4.95
   8   6   4    6.36    4.49
   8   6   5  422.33   33.70
  -8  -6  -5  321.49   29.91
   8   6   6  170.00   20.89
  -8  -6  -6  140.11   19.30
   8   7  -2   11.98    6.71
  -8  -7   2   11.93   10.51
   8   7  -1    5.88    2.30
  -8  -7   1   10.96    9.36
   8   7   0   47.91   11.67
  -8  -7   0   40.14   16.56
  -8  -7  -1    5.29    6.23
  -8  -7  -2   72.57   18.09
  -8  -7  -3   -0.19    2.70
  -8  -7  -4    0.27    2.73
   8   7   4   -2.43    2.59
  -8  -7  -5  104.72   18.51
   8   7   5  116.65   17.16
  -8  -8  -1   47.14   16.22
   0   0   0    0.00    0.00


TITL VG9247-12_1 in P-1
REM P-1 (#2 in standard setting)
CELL 0.71073   6.602455  10.289870  12.258327  89.2107  85.3885  81.0761
ZERR    1.00   0.000232   0.000489   0.000576   0.0038   0.0033   0.0034
LATT  1
SFAC C H Cl Se W
UNIT 2.00 6.00 8.00 2.00 2.00
TREF
HKLF 4
END
_computing_structure_solution     'SHELXT 2014/5 (Sheldrick, 2014)'
;
_shelx_hkl_checksum              81664
_olex2_submission_special_instructions 'No special instructions were received'
_oxdiff_exptl_absorpt_empirical_details
;
Empirical correction (ABSPACK) includes:
- Absorption correction using spherical harmonics
- Frame scaling
;
_oxdiff_exptl_absorpt_empirical_full_max 2.820
_oxdiff_exptl_absorpt_empirical_full_min 0.430
loop_
_space_group_symop_operation_xyz
'x, y, z'
'-x, -y, -z'
loop_
_atom_site_label
_atom_site_type_symbol
_atom_site_fract_x
_atom_site_fract_y
_atom_site_fract_z
_atom_site_U_iso_or_equiv
_atom_site_adp_type
_atom_site_occupancy
_atom_site_site_symmetry_order
_atom_site_calc_flag
_atom_site_refinement_flags_posn
_atom_site_refinement_flags_adp
_atom_site_refinement_flags_occupancy
_atom_site_disorder_assembly
_atom_site_disorder_group
W1 W 0.17387(4) 0.52236(3) 0.79921(2) 0.02845(9) Uani 1 1 d . . . . .
W2 W 0.46716(4) -0.00458(3) 0.77420(2) 0.02892(9) Uani 1 1 d . . . . .
Se1 Se 0.09500(12) 0.71187(8) 0.89152(7) 0.03515(19) Uani 1 1 d . . . . .
Se2 Se 0.28362(11) 0.26358(8) 0.68072(6) 0.02914(17) Uani 1 1 d . . . . .
Se3 Se 0.58721(12) -0.19481(8) 0.85179(7) 0.0374(2) Uani 1 1 d . . . . .
Cl1 Cl 0.3527(3) 0.40074(19) 0.92776(15) 0.0331(4) Uani 1 1 d . . . . .
Cl2 Cl 0.4832(3) 0.5533(2) 0.70836(15) 0.0343(4) Uani 1 1 d . . . . .
Cl3 Cl -0.1079(3) 0.4238(2) 0.85042(15) 0.0341(4) Uani 1 1 d . . . . .
Cl4 Cl 0.0228(3) 0.5850(2) 0.63729(15) 0.0370(4) Uani 1 1 d . . . . .
Cl5 Cl 0.2254(3) -0.07607(19) 0.67262(15) 0.0345(4) Uani 1 1 d . . . . .
Cl6 Cl 0.6794(3) -0.0090(2) 0.61445(15) 0.0362(4) Uani 1 1 d . . . . .
Cl7 Cl 0.6712(3) 0.12776(19) 0.84827(15) 0.0344(4) Uani 1 1 d . . . . .
Cl8 Cl 0.2042(3) 0.0724(2) 0.90318(15) 0.0348(4) Uani 1 1 d . . . . .
C1 C 0.4343(12) 0.3018(9) 0.5447(6) 0.0388(19) Uani 1 1 d . . . . .
H1A H 0.369663 0.383204 0.515043 0.058 Uiso 1 1 calc R U . . .
H1B H 0.434583 0.232118 0.493368 0.058 Uiso 1 1 calc R U . . .
H1C H 0.573321 0.308978 0.558306 0.058 Uiso 1 1 calc R U . . .
C2 C 0.0305(12) 0.2374(9) 0.6199(6) 0.0377(19) Uani 1 1 d . . . . .
H2A H -0.055205 0.199528 0.674632 0.057 Uiso 1 1 calc R U . . .
H2B H 0.062013 0.179221 0.558275 0.057 Uiso 1 1 calc R U . . .
H2C H -0.040586 0.320495 0.596850 0.057 Uiso 1 1 calc R U . . .
loop_
_atom_site_aniso_label
_atom_site_aniso_U_11
_atom_site_aniso_U_22
_atom_site_aniso_U_33
_atom_site_aniso_U_23
_atom_site_aniso_U_13
_atom_site_aniso_U_12
W1 0.03102(16) 0.02748(18) 0.02804(16) 0.00113(12) -0.00267(12) -0.00826(13)
W2 0.03093(16) 0.02707(18) 0.03040(17) 0.00004(13) -0.00429(12) -0.00864(13)
Se1 0.0399(4) 0.0293(4) 0.0365(4) -0.0019(3) -0.0004(3) -0.0072(3)
Se2 0.0319(4) 0.0288(4) 0.0283(4) 0.0007(3) -0.0036(3) -0.0093(3)
Se3 0.0419(4) 0.0295(4) 0.0434(5) 0.0049(4) -0.0126(4) -0.0093(4)
Cl1 0.0391(9) 0.0319(10) 0.0296(9) 0.0014(8) -0.0083(7) -0.0063(8)
Cl2 0.0353(9) 0.0348(11) 0.0345(10) -0.0023(8) 0.0003(8) -0.0119(8)
Cl3 0.0327(9) 0.0370(11) 0.0342(10) -0.0003(8) 0.0001(7) -0.0114(8)
Cl4 0.0405(10) 0.0383(11) 0.0334(10) 0.0052(8) -0.0070(8) -0.0079(9)
Cl5 0.0376(9) 0.0321(11) 0.0365(10) -0.0001(8) -0.0086(8) -0.0116(8)
Cl6 0.0371(9) 0.0374(11) 0.0347(10) -0.0030(8) 0.0004(8) -0.0095(8)
Cl7 0.0350(9) 0.0321(10) 0.0385(10) -0.0036(8) -0.0051(8) -0.0107(8)
Cl8 0.0353(9) 0.0378(11) 0.0326(9) 0.0006(8) -0.0009(8) -0.0112(8)
C1 0.042(4) 0.042(5) 0.035(4) -0.007(4) -0.002(3) -0.014(4)
C2 0.036(4) 0.046(5) 0.035(4) 0.001(4) -0.006(3) -0.016(4)
loop_
_atom_type_symbol
_atom_type_description
_atom_type_scat_dispersion_real
_atom_type_scat_dispersion_imag
_atom_type_scat_source
C C 0.0033 0.0016 'International Tables Vol C Tables 4.2.6.8 and 6.1.1.4'
H H 0.0000 0.0000 'International Tables Vol C Tables 4.2.6.8 and 6.1.1.4'
Cl Cl 0.1484 0.1585 'International Tables Vol C Tables 4.2.6.8 and 6.1.1.4'
Se Se -0.0929 2.2259 'International Tables Vol C Tables 4.2.6.8 and 6.1.1.4'
W W -0.8490 6.8722 'International Tables Vol C Tables 4.2.6.8 and 6.1.1.4'
loop_
_geom_angle_atom_site_label_1
_geom_angle_atom_site_label_2
_geom_angle_atom_site_label_3
_geom_angle
_geom_angle_site_symmetry_1
_geom_angle_site_symmetry_3
_geom_angle_publ_flag
Se1 W1 Se2 178.42(3) . . ?
Se1 W1 Cl1 98.42(5) . . ?
Se1 W1 Cl2 100.07(5) . . ?
Se1 W1 Cl3 100.94(5) . . ?
Se1 W1 Cl4 99.64(6) . . ?
Cl1 W1 Se2 80.03(5) . . ?
Cl1 W1 Cl2 88.92(7) . . ?
Cl1 W1 Cl3 89.68(7) . . ?
Cl1 W1 Cl4 161.91(7) . . ?
Cl2 W1 Se2 80.29(5) . . ?
Cl2 W1 Cl4 87.04(7) . . ?
Cl3 W1 Se2 78.75(5) . . ?
Cl3 W1 Cl2 158.92(7) . . ?
Cl3 W1 Cl4 87.79(7) . . ?
Cl4 W1 Se2 81.91(5) . . ?
Se3 W2 Se2 176.28(3) . . ?
Se3 W2 Cl5 98.86(6) . . ?
Se3 W2 Cl6 101.89(6) . . ?
Se3 W2 Cl7 99.23(5) . . ?
Se3 W2 Cl8 99.67(6) . . ?
Cl5 W2 Se2 81.78(5) . . ?
Cl6 W2 Se2 81.79(5) . . ?
Cl6 W2 Cl5 87.67(7) . . ?
Cl7 W2 Se2 80.21(5) . . ?
Cl7 W2 Cl5 161.90(7) . . ?
Cl7 W2 Cl6 87.98(7) . . ?
Cl7 W2 Cl8 89.38(7) . . ?
Cl8 W2 Se2 76.66(5) . . ?
Cl8 W2 Cl5 88.23(7) . . ?
Cl8 W2 Cl6 158.42(7) . . ?
W1 Se2 W2 127.83(3) . . ?
C1 Se2 W1 105.6(2) . . ?
C1 Se2 W2 111.0(3) . . ?
C1 Se2 C2 97.7(3) . . ?
C2 Se2 W1 104.2(3) . . ?
C2 Se2 W2 106.3(3) . . ?
Se2 C1 H1A 109.5 . . ?
Se2 C1 H1B 109.5 . . ?
Se2 C1 H1C 109.5 . . ?
H1A C1 H1B 109.5 . . ?
H1A C1 H1C 109.5 . . ?
H1B C1 H1C 109.5 . . ?
Se2 C2 H2A 109.5 . . ?
Se2 C2 H2B 109.5 . . ?
Se2 C2 H2C 109.5 . . ?
H2A C2 H2B 109.5 . . ?
H2A C2 H2C 109.5 . . ?
H2B C2 H2C 109.5 . . ?
loop_
_geom_bond_atom_site_label_1
_geom_bond_atom_site_label_2
_geom_bond_distance
_geom_bond_site_symmetry_2
_geom_bond_publ_flag
W1 Se1 2.2373(8) . ?
W1 Se2 3.0107(8) . ?
W1 Cl1 2.2869(18) . ?
W1 Cl2 2.3108(19) . ?
W1 Cl3 2.2945(19) . ?
W1 Cl4 2.3312(19) . ?
W2 Se2 3.0813(8) . ?
W2 Se3 2.2255(9) . ?
W2 Cl5 2.3129(18) . ?
W2 Cl6 2.3113(19) . ?
W2 Cl7 2.3007(18) . ?
W2 Cl8 2.3040(18) . ?
Se2 C1 1.940(8) . ?
Se2 C2 1.941(7) . ?
C1 H1A 0.9600 . ?
C1 H1B 0.9600 . ?
C1 H1C 0.9600 . ?
C2 H2A 0.9600 . ?
C2 H2B 0.9600 . ?
C2 H2C 0.9600 . ?
