#------------------------------------------------------------------------------
#$Date: 2022-04-12 02:20:05 +0300 (Tue, 12 Apr 2022) $
#$Revision: 274464 $
#$URL: file:///home/coder/svn-repositories/cod/cif/7/70/99/7709998.cif $
#------------------------------------------------------------------------------
#
# This file is available in the Crystallography Open Database (COD),
# http://www.crystallography.net/
#
# All data on this site have been placed in the public domain by the
# contributors.
#
data_7709998
loop_
_publ_author_name
'Jiang, Lin-Tao'
'Li, Ming-Ze'
'Jiang, Xiao-Ming'
'Liu, Bin-Wen'
'Guo, Guo-Cong'
_publ_section_title
;
 AIn4S6Cl (A = Rb and Cs) and Pb5Sn3Q10Cl2 (Q = S and Se): quaternary
 chalcohalides with mixed anionic coordination exhibit photocurrent
 responses
;
_journal_name_full               'Dalton Transactions'
_journal_paper_doi               10.1039/D2DT00350C
_journal_year                    2022
_chemical_formula_moiety         'Cl2 In8 Rb2 S12'
_chemical_formula_sum            'Cl2 In8 Rb2 S12'
_chemical_formula_weight         1545.12
_chemical_melting_point          ?
_chemical_name_common            RbIn4S6Cl
_space_group_crystal_system      monoclinic
_space_group_IT_number           14
_space_group_name_Hall           '-P 2yn'
_space_group_name_H-M_alt        'P 1 21/n 1'
_audit_creation_method           SHELXL-2013
_audit_update_record
;
2022-01-07 deposited with the CCDC.	2022-03-15 downloaded from the CCDC.
;
_cell_angle_alpha                90
_cell_angle_beta                 90.521(4)
_cell_angle_gamma                90
_cell_formula_units_Z            2
_cell_length_a                   6.6027(3)
_cell_length_b                   24.6116(13)
_cell_length_c                   7.5898(4)
_cell_measurement_reflns_used    2860
_cell_measurement_temperature    293(2)
_cell_measurement_theta_max      28.6720
_cell_measurement_theta_min      2.8010
_cell_volume                     1233.31(11)
_computing_cell_refinement       'CrysAlisPro 1.171.40.59a (Rigaku OD, 2019)'
_computing_data_collection       'CrysAlisPro 1.171.40.59a (Rigaku OD, 2019)'
_computing_data_reduction        'CrysAlisPro 1.171.40.59a (Rigaku OD, 2019)'
_computing_publication_material  'SHELXL-2013 (Sheldrick, 2013)'
_computing_structure_refinement  'SHELXL-2013 (Sheldrick, 2013)'
_computing_structure_solution    'SHELXL-2013 (Sheldrick, 2013)'
_diffrn_ambient_temperature      293(2)
_diffrn_detector_area_resol_mean 10.0000
_diffrn_measured_fraction_theta_full 0.915
_diffrn_measured_fraction_theta_max 0.943
_diffrn_measurement_device_type  'ROD, Synergy Custom DW system, HyPix'
_diffrn_measurement_method       CCD_Profile_fitting
_diffrn_radiation_type           MoK\a
_diffrn_radiation_wavelength     0.71073
_diffrn_reflns_av_R_equivalents  0.0300
_diffrn_reflns_av_unetI/netI     0.0436
_diffrn_reflns_Laue_measured_fraction_full 0.915
_diffrn_reflns_Laue_measured_fraction_max 0.943
_diffrn_reflns_limit_h_max       7
_diffrn_reflns_limit_h_min       -7
_diffrn_reflns_limit_k_max       27
_diffrn_reflns_limit_k_min       -29
_diffrn_reflns_limit_l_max       8
_diffrn_reflns_limit_l_min       -9
_diffrn_reflns_number            4443
_diffrn_reflns_point_group_measured_fraction_full 0.915
_diffrn_reflns_point_group_measured_fraction_max 0.943
_diffrn_reflns_theta_full        25.242
_diffrn_reflns_theta_max         24.998
_diffrn_reflns_theta_min         1.655
_exptl_absorpt_coefficient_mu    12.483
_exptl_absorpt_correction_T_max  1.00000
_exptl_absorpt_correction_T_min  0.48718
_exptl_absorpt_correction_type   multi-scan
_exptl_crystal_colour            yellow
_exptl_crystal_density_diffrn    4.161
_exptl_crystal_density_meas      ?
_exptl_crystal_description       bulk
_exptl_crystal_F_000             1384
_exptl_crystal_size_max          0.125
_exptl_crystal_size_mid          0.120
_exptl_crystal_size_min          0.085
_refine_diff_density_max         1.220
_refine_diff_density_min         -1.135
_refine_diff_density_rms         0.261
_refine_ls_extinction_method     none
_refine_ls_goodness_of_fit_ref   0.999
_refine_ls_hydrogen_treatment    undef
_refine_ls_matrix_type           full
_refine_ls_number_parameters     109
_refine_ls_number_reflns         2034
_refine_ls_number_restraints     0
_refine_ls_restrained_S_all      0.999
_refine_ls_R_factor_all          0.0490
_refine_ls_R_factor_gt           0.0388
_refine_ls_shift/su_max          0.095
_refine_ls_shift/su_mean         0.018
_refine_ls_structure_factor_coef Fsqd
_refine_ls_weighting_details
;
 w=1/[\s^2^(Fo^2^)+(0.1163P)^2^]
 where P=(Fo^2^+2Fc^2^)/3
;
_refine_ls_weighting_scheme      calc
_refine_ls_wR_factor_gt          0.1521
_refine_ls_wR_factor_ref         0.1587
_reflns_Friedel_coverage         0.000
_reflns_number_gt                1653
_reflns_number_total             2034
_reflns_threshold_expression     'I > 2\s(I)'
_cod_data_source_file            d2dt00350c2.cif
_cod_data_source_block           RbIn4S6Cl
_cod_depositor_comments
;
The following automatic conversions were performed:

data item '_chemical_melting_point' value 'not measured' was changed
to '?' -- the value is undefined or not given.

data item '_exptl_crystal_density_meas' value 'not measured' was
changed to '?' -- the value is perceived as not measured.

Automatic conversion script
Id: cif_fix_values 7556 2019-12-06 15:28:31Z antanas 
;
_cod_original_sg_symbol_H-M      'P 21/n'
_cod_database_code               7709998
_shelx_space_group_comment
;
The symmetry employed for this shelxl refinement is uniquely defined
by the following loop, which should always be used as a source of
symmetry information in preference to the above space-group names.
They are only intended as comments.
;
_shelxl_version_number           2013-2
_shelx_res_file
;
TITL a         P 21         R = 0.04  New: P21/n
CELL  0.71073    6.6027   24.6116    7.5898    90.000    90.521    90.000
ZERR        2    0.0003    0.0013    0.0004     0.000     0.004     0.000
LATT   1
SYMM     0.50000 - X ,    0.50000 + Y ,    0.50000 - Z
SFAC In Rb  S CL
UNIT    16.00   4.00  24.00  4.00
acta
omit 0 50
L.S. 4
BOND
FMAP 2
PLAN 20
twin
WGHT    0.116300
FVAR       0.09135
RB1   2    0.406647   -0.261616   -0.138777    11.00000    0.03226    0.03246 =
         0.07118   -0.00111    0.00121   -0.00201
IN1   1    0.090582    0.064807    0.628180    11.00000    0.01298    0.01954 =
         0.01639   -0.00132    0.00026    0.00002
IN2   1   -0.084980   -0.135804   -0.129161    11.00000    0.01498    0.02309 =
         0.01419   -0.00114    0.00041    0.00001
IN3   1    0.574112    0.066082    0.876234    11.00000    0.01454    0.02231 =
         0.01325    0.00019   -0.00040   -0.00207
IN4   1   -0.409947    0.067278    0.377766    11.00000    0.01652    0.02258 =
         0.01304   -0.00052    0.00062    0.00239
S1    3   -0.412780   -0.119295    0.377113    11.00000    0.01214    0.02055 =
         0.01345   -0.00027    0.00074    0.00088
S2    3   -0.240671    0.002136    0.616351    11.00000    0.01688    0.01730 =
         0.01576   -0.00064   -0.00052    0.00054
S3    3   -0.449874   -0.126797   -0.127165    11.00000    0.01418    0.02310 =
         0.01273    0.00099   -0.00122    0.00278
S4    3    0.277312   -0.001591    0.862291    11.00000    0.01484    0.01652 =
         0.01365    0.00149    0.00015    0.00103
S5    3    0.099097   -0.122108    0.144102    11.00000    0.01136    0.02457 =
         0.01543   -0.00131    0.00206   -0.00050
S6    3    0.092965   -0.127548   -0.403461    11.00000    0.01329    0.02742 =
         0.01159    0.00076   -0.00051   -0.00012
CL1   4    0.091073    0.237575    1.118816    11.00000    0.03032    0.01641 =
         0.06088    0.00114    0.00087   -0.00116

HKLF 4

REM  a         P 21         R = 0.04  New: P21/n
REM R1 =  0.0388 for    1653 Fo > 4sig(Fo)  and  0.0490 for all    2034 data
REM    109 parameters refined using      0 restraints

END

WGHT      0.0427      8.2299

REM Highest difference peak  1.220,  deepest hole -1.135,  1-sigma level  0.261
Q1    1   0.3814 -0.2539 -0.0376  11.00000  0.05    1.22
Q2    1   0.2299  0.0844  0.6051  11.00000  0.05    1.21
Q3    1  -0.0992 -0.0923 -0.1438  11.00000  0.05    1.12
Q4    1   0.4431  0.0836  0.8857  11.00000  0.05    1.10
Q5    1   0.7260  0.0945  0.8543  11.00000  0.05    1.09
Q6    1  -0.0879 -0.0740 -0.1360  11.00000  0.05    1.08
Q7    1   0.6004  0.1082  0.8898  11.00000  0.05    1.07
Q8    1  -0.2209 -0.1469 -0.0740  11.00000  0.05    1.07
Q9    1  -0.5996 -0.0666  0.3769  11.00000  0.05    1.06
Q10   1  -0.2582  0.0905  0.3787  11.00000  0.05    1.06
Q11   1   0.0966  0.1139  0.6462  11.00000  0.05    1.05
Q12   1  -0.3881  0.1078  0.3967  11.00000  0.05    1.05
Q13   1   0.5249 -0.2561 -0.1758  11.00000  0.05    1.01
Q14   1   0.0545 -0.1248 -0.1809  11.00000  0.05    0.97
Q15   1  -0.2400 -0.1147 -0.1009  11.00000  0.05    0.96
Q16   1  -0.5743 -0.0720 -0.0926  11.00000  0.05    0.89
Q17   1  -0.4156  0.0726  0.1719  11.00000  0.05    0.84
Q18   1   0.0813  0.0640  0.8335  11.00000  0.05    0.84
Q19   1  -0.2713  0.0438  0.3612  11.00000  0.05    0.84
Q20   1  -0.5458  0.0884  0.4069  11.00000  0.05    0.83
;
_shelx_res_checksum              11370
_shelx_hkl_file
;
   0   0   1   -0.10    0.18
   0   0  -1    0.10    0.17
   0   0  -2    3.33    0.55
   0   0   2    2.76    0.53
   0   0  -3   -0.28    0.39
   0   0   3   -0.10    0.36
   0   0  -4 5566.37  176.45
   0   0  -4 5688.80  176.55
   0   0   4 5713.97  176.82
   0   0  -5   -0.15    0.70
   0   0  -5    0.14    0.52
   0   0   5    0.17    0.59
   0   0   6    5.91    1.25
   0   0  -6    4.74    1.07
   0   0  -7   -0.38    1.09
   0   0  -8 1267.97   42.21
   0   0  -9   -0.71    1.53
   0  -1  -1   25.37    1.18
   0  -1   1   24.38    1.12
   0   1  -1   26.48    1.19
   0   1   1   25.18    1.18
   0  -1  -2  446.65   14.71
   0   1   2  447.42   14.75
   0   1  -2  451.15   14.72
   0  -1   2  442.50   14.74
   0   1  -2  445.77   14.60
   0   1  -3   -0.09    0.44
   0   1  -3    0.75    0.38
   0  -1   3    0.81    0.43
   0  -1  -3    0.93    0.49
   0   1   3   -0.10    0.32
   0   1   4   15.42    1.71
   0  -1   4   18.78    1.81
   0   1  -4   17.40    1.61
   0  -1  -4   16.71    1.70
   0   1  -4   18.70    1.73
   0   1   5   26.15    2.34
   0   1  -5   27.77    2.21
   0  -1  -5   28.03    2.24
   0   1  -5   30.04    2.21
   0  -1  -5   31.74    2.29
   0   1   6   59.38    4.06
   0   1  -6   68.67    3.87
   0  -1  -6   69.12    3.89
   0   1  -7    7.11    1.39
   0  -1  -7    5.67    1.29
   0  -1  -8   14.10    2.12
   0   1  -8   15.78    2.21
   0  -1  -9   12.97    2.11
   0   2   0    0.32    0.18
   0  -2   0  819.30    4.84
   0  -2  -1    2.50    0.33
   0   2   1    1.96    0.30
   0  -2  -2    1.34    0.44
   0   2  -2    1.18    0.35
   0   2   2    1.54    0.39
   0  -2   2    1.02    0.36
   0   2  -2    1.86    0.42
   0   2  -3   20.99    1.42
   0   2   3   21.07    1.56
   0   2  -3   18.91    1.45
   0  -2  -3   17.75    1.44
   0  -2  -4  453.39   15.53
   0   2   4  438.64   15.66
   0   2  -4  438.84   15.30
   0   2  -4  448.28   15.45
   0  -2  -5    1.66    0.84
   0   2   5    1.21    0.72
   0   2  -5    1.36    0.69
   0   2  -5    1.37    0.73
   0   2  -6    1.96    0.91
   0   2   6    2.93    1.01
   0  -2  -6    1.53    0.84
   0   2  -7    9.11    1.56
   0  -2  -7   11.02    1.72
   0   2   7    8.57    1.70
   0  -2  -8  198.02    8.75
   0  -2  -9    0.70    1.48
   0  -2 -10   -0.76    1.45
   0  -3   0    0.33    0.25
   0   3   0   -0.05    0.24
   0  -3  -1  156.68    5.27
   0   3   1  146.06    5.26
   0  -3  -2  389.79   12.97
   0   3   2  378.20   13.00
   0  -3   2  396.72   12.89
   0   3   3  128.84    5.36
   0  -3  -3  130.97    5.33
   0   3  -3  137.16    5.37
   0   3  -3  139.68    5.27
   0  -3   3  127.89    5.19
   0   3  -4    1.23    0.63
   0   3   4    2.37    0.82
   0   3  -4    2.65    0.71
   0  -3  -4    1.35    0.68
   0   3  -5   55.35    3.21
   0   3   5   44.56    3.15
   0   3  -5   50.76    3.02
   0  -3  -5   47.18    3.05
   0   3  -6   43.13    2.96
   0   3   6   41.28    3.30
   0   3   7   56.21    4.11
   0  -3  -7   50.02    3.46
   0  -3  -8    5.20    1.47
   0   3   8    4.07    1.65
   0  -3  -9    9.36    2.02
   0  -3 -10    1.25    1.49
   0   4   0  234.73    8.13
   0  -4   0  234.30    8.15
   0   4   1  209.82    7.19
   0   4  -1  208.13    7.12
   0  -4   2    1.91    0.46
   0   4   2    1.90    0.43
   0  -4  -2    3.10    0.58
   0   4   3  126.66    5.29
   0  -4  -3  121.14    5.15
   0   4  -3  131.71    5.33
   0  -4   3  133.98    5.14
   0  -4  -4  132.98    5.75
   0   4   4  128.89    5.91
   0   4   5   81.13    4.59
   0   4  -5   92.57    4.58
   0  -4  -5   92.66    4.55
   0   4   6    3.20    1.09
   0  -4  -7   33.43    2.80
   0   4   7   31.72    3.06
   0   4   8   63.14    4.75
   0  -4  -8   61.47    4.18
   0  -4  -9   23.09    2.72
   0  -4 -10   -1.76    1.78
   0  -5   0    0.08    0.33
   0   5   0    0.55    0.47
   0   5  -1   -0.12    0.30
   0   5   2  122.42    4.80
   0  -5  -2  121.33    4.78
   0  -5   3    4.57    0.76
   0  -5  -3    4.09    0.77
   0   5   3    5.37    0.86
   0  -5  -4    2.02    0.74
   0   5  -4    2.48    0.73
   0  -5   4    3.18    0.78
   0   5   4    2.30    0.73
   0  -5  -5    1.22    0.75
   0   5  -5    2.41    0.92
   0   5   5    1.99    0.86
   0  -5  -5    1.21    0.31
   0  -5  -6  118.68    4.23
   0   5   6  145.16    6.59
   0   5   7    4.55    1.49
   0   5   8    3.52    1.42
   0  -5  -8    0.23    1.32
   0   5   9   -0.33    1.70
   0  -5  -9   -0.24    1.59
   0  -5 -10   74.01    5.04
   0  -6   0 1467.49   46.83
   0   6   0 1475.44   46.88
   0  -6   1  354.98   11.94
   0   6  -1  345.74   11.82
   0   6   2    0.44    0.17
   0   6   2    0.45    0.37
   0   6   3  218.14    8.47
   0  -6   3  235.57    8.34
   0  -6  -3  223.83    8.42
   0   6  -4  550.31   18.79
   0   6   4  519.56   18.72
   0  -6  -4  516.36   18.51
   0  -6   4  578.69   18.53
   0   6  -5  121.07    5.42
   0   6   5   98.47    5.32
   0   6   6    0.67    0.90
   0   6   7   67.13    4.55
   0   6   8  103.37    6.29
   0  -6  -8  104.60    5.80
   0  -6  -9   22.13    2.65
   0  -6 -10   -0.26    1.70
   0  -7   0   -0.11    0.45
   0   7   0    0.11    0.56
   0   7  -1  405.46   13.89
   0  -7   1  416.28   14.01
   0   7   2  263.14    9.58
   0   7  -2  268.95    9.39
   0  -7  -3  443.75   15.62
   0   7   3  428.44   15.72
   0   7   4    1.40    0.77
   0  -7   4    1.39    0.65
   0  -7  -4    0.82    0.64
   0   7  -4    1.01    0.75
   0   7   5   68.17    4.23
   0  -7   5   87.71    4.30
   0   7   6   53.38    3.79
   0   7   7  190.26    8.98
   0   7   8    3.29    1.62
   0  -7  -9    6.56    1.72
   0  -8   0   69.41    3.48
   0   8  -1   92.54    4.17
   0  -8   1  101.64    4.37
   0   8  -2    3.31    0.71
   0   8   2    2.63    0.70
   0  -8   3   42.16    2.47
   0   8   3   35.79    2.40
   0  -8   4    1.45    0.78
   0  -8  -4    0.56    0.74
   0   8   4    0.49    0.72
   0   8   5   37.40    2.90
   0  -8   5   39.29    2.82
   0   8   6    3.25    1.28
   0   8   7    4.87    1.56
   0   8   8   12.42    2.21
   0  -8  -9   12.60    2.32
   0  -9   0    0.39    0.51
   0   9  -1   41.55    2.51
   0  -9   1   47.04    2.68
   0   9   2  859.45   28.04
   0   9  -2  838.83   27.71
   0   9   3   64.05    3.42
   0   9   3   60.25    2.19
   0   9   4    3.55    1.05
   0  -9   4    2.48    0.84
   0   9   5    6.87    1.43
   0  -9   5    9.23    1.40
   0   9   6  265.24   11.19
   0   9   7   47.62    3.88
   0   9   8    0.31    1.36
   0  -9  -9    0.81    1.40
   0 -10   0  885.06   29.38
   0  10  -1  114.15    5.16
   0 -10   1  120.14    5.31
   0  10  -2    1.14    0.58
   0  10   2    1.26    0.52
   0  10  -3  126.18    5.29
   0  10   3  119.68    4.16
   0  10   3  119.01    5.53
   0  10   4  390.08   14.96
   0 -10   4  428.21   14.78
   0 -10   5   42.59    3.04
   0  10   5   44.48    3.27
   0  10   6    1.46    1.08
   0  10   7   49.44    4.02
   0  10   8   90.10    5.96
   0 -11   0    0.78    0.68
   0 -11  -1   28.09    2.20
   0  11  -1   30.77    2.29
   0 -11   1   30.95    2.31
   0  11  -2   39.44    2.49
   0  11  -3   23.57    1.94
   0  11   3   21.81    2.02
   0  11   4    6.47    1.29
   0  11  -4    4.93    1.10
   0 -11   4    8.18    1.38
   0 -11   5   17.42    1.98
   0  11   5   20.82    2.28
   0  11   6   53.83    3.97
   0  11   7   17.44    2.53
   0  11   8    4.62    1.80
   0 -12   0   13.39    1.58
   0 -12   1    8.95    1.33
   0 -12  -1    7.67    1.28
   0  12  -1    7.40    1.27
   0  12  -2    0.55    0.63
   0  12   3    0.72    0.71
   0  12  -3   -0.28    0.67
   0 -12   4    1.49    0.94
   0  12   4    2.38    1.04
   0  12   5    5.06    1.41
   0  12   6    1.04    1.16
   0  12   7    1.79    1.47
   0  12   8    0.67    1.60
   0 -13   0    0.36    0.67
   0 -13  -1   30.35    2.51
   0  13  -1   28.53    2.51
   0 -13   1   29.39    2.42
   0  13  -2    9.66    1.33
   0  13  -3   36.38    2.61
   0  13   3   44.34    3.09
   0  13   4    3.60    1.15
   0  13   5    4.07    1.39
   0  13   6    0.55    1.05
   0  13   7   12.83    2.41
   0  13   8    9.29    2.47
   0 -14   0 1279.58   42.26
   0 -14  -1    2.78    1.08
   0  14  -1    3.95    1.18
   0 -14   1    2.12    0.92
   0  14  -2    0.16    0.77
   0  14  -3    2.64    0.94
   0  14   3    1.50    1.03
   0  14   4  836.38   25.37
   0  14   4  689.89   22.29
   0  14   5    0.75    1.28
   0  14   6   -0.57    1.19
   0  14   7    1.26    1.61
   0  14   8  353.04   15.31
   0 -15   0    2.24    1.04
   0 -15  -1    1.06    0.98
   0 -15   1    0.41    0.76
   0  15  -2    8.89    1.47
   0  15   3   24.86    2.58
   0  15   4    1.97    0.56
   0  15   4    0.48    1.11
   0  15   5    7.38    1.68
   0  15   6    3.26    1.49
   0  15   7   22.32    3.00
   0 -16   0 2394.91   77.18
   0 -16   1  103.02    5.56
   0 -16  -1  105.26    5.67
   0 -16  -2    0.63    0.88
   0  16  -2   -0.39    0.86
   0  16   3   45.11    3.55
   0  16   4 1288.95   40.94
   0  16   4 1341.21   43.90
   0  16   5   56.02    4.26
   0  16   6    0.62    1.29
   0  16   7    3.35    1.62
   0 -17   0    1.14    0.99
   0 -17  -1   80.35    4.96
   0 -17   1   90.75    5.12
   0 -17  -2   10.25    1.75
   0  17   3   45.31    3.68
   0  17   4    5.51    0.79
   0  17   4    8.63    1.90
   0  17   5   46.08    3.95
   0  17   6    1.95    1.45
   0  17   7   11.01    2.45
   0 -18   0   30.08    2.87
   0 -18  -1   34.53    3.08
   0 -18   1   30.89    2.96
   0 -18  -2   -0.24    0.96
   0  18   3    4.21    1.34
   0  18   4   23.63    1.54
   0  18   4   28.71    3.04
   0  18   5   30.50    3.36
   0  18   6   -1.01    1.54
   0  18   7    1.11    1.69
   0 -19   0   -1.25    1.09
   0 -19  -1   11.37    1.91
   0 -19   1   13.49    2.07
   0 -19  -2  102.06    5.87
   0  19   3    9.29    1.96
   0 -19  -3   11.83    1.98
   0  19   4   -0.31    1.20
   0  19   4    0.16    0.51
   0  19   5    9.31    2.15
   0  19   6   36.30    3.91
   0  19   7   10.84    2.49
   0 -20   0  197.98    9.17
   0 -20   1  126.40    6.76
   0 -20  -1  123.14    6.61
   0 -20  -2    0.54    1.21
   0  20   3   92.81    6.13
   0 -20  -3  110.64    6.11
   0  20   4  126.21    7.18
   0  20   4  116.14    4.80
   0  20   5   79.34    5.72
   0  20   6    0.37    1.64
   0 -21   0    0.53    1.11
   0 -21  -1   29.10    2.98
   0 -21   1   31.71    3.22
   0 -21  -2   37.31    3.49
   0 -21  -3   15.30    2.37
   0  21   3   15.08    2.68
   0  21   4   -1.03    1.50
   0  21   5   29.44    3.59
   0  21   6   34.16    4.10
   0 -22   0   98.43    5.89
   0 -22  -1   26.89    2.94
   0 -22   1   31.89    3.27
   0 -22  -2    1.46    1.33
   0  22   3   10.19    2.29
   0 -22  -3   15.24    2.42
   0 -22  -4   54.45    4.35
   0  22   4   58.26    4.92
   0  22   5    9.42    2.47
   0  22   6    0.40    1.75
   0 -23   0    0.29    1.19
   0 -23  -1   73.57    5.05
   0 -23   1   80.35    5.36
   0 -23  -2   59.12    4.52
   0 -23  -3  108.64    6.37
   0  23   3   75.61    5.98
   0 -23  -4    0.63    1.35
   0  23   4   -0.38    1.62
   0  23   5    9.82    2.52
   0 -24   0   62.17    4.68
   0 -24  -1   72.63    5.15
   0 -24   1   88.01    5.66
   0 -24  -2    0.30    1.26
   0 -24  -3   39.26    3.84
   0  24   3   28.56    3.65
   0  24   4   38.22    4.26
   0 -24  -4   33.54    3.71
   0 -24  -5   44.72    4.36
   0  24   5   49.31    4.84
   0 -25   0   -0.31    1.34
   0 -25  -1    4.87    1.63
   0 -25   1    2.58    1.56
   0 -25  -2   54.54    4.53
   0  25   3    1.21    1.54
   0 -25  -3    1.34    1.65
   0 -25  -4   -0.69    1.61
   0  25   4   -0.83    1.85
   0 -25  -5    2.49    1.78
   0 -26   0    5.68    1.82
   0 -26  -1    4.07    1.82
   0 -26   1    1.65    1.60
   0 -26  -2   -1.89    1.71
   0 -26  -3    8.50    2.25
   0  26   3    5.86    2.28
   0 -26  -4    4.70    2.08
   0  26   4    6.06    2.32
   0 -27   0    0.65    1.60
   0 -27   1    4.39    1.91
   0 -27  -1    4.51    1.90
   0 -27  -2    8.06    2.13
   0  27   3    2.60    1.85
   0 -27  -3    2.40    1.63
   0 -27  -4    2.22    1.92
   0 -28   0   39.14    4.01
   0 -28   1    2.77    1.85
   0 -28  -1    1.64    1.64
   0 -28  -2    1.98    1.54
   0  28   3   -0.45    1.72
   0 -28  -3    2.77    1.82
   0 -29   0    3.43    1.91
   0 -29  -1   -1.00    1.70
   0 -29   1    0.35    1.80
   0 -29  -2    4.09    1.85
   1   0 -10    0.88    1.83
   1   0  -9   -1.61    2.01
   1   0  -8   -1.71    1.62
   1   0  -7   -0.44    1.07
   1   0  -6    3.34    1.36
   1   0  -5   18.20    1.81
   1   0  -5   14.32    1.69
   1   0  -4   -0.12    0.66
   1   0  -3    0.19    0.44
   1   0  -2   37.04    2.02
   1   0  -1   87.88    3.16
  -1   0   0    0.25    0.22
   1   0   0    0.08    0.19
  -1   0  -1    0.73    0.27
  -1   0  -1    0.80    0.24
   1   0   1    0.58    0.20
   1   0   2   44.99    2.06
  -1   0  -2   42.98    2.01
  -1   0  -3   38.30    1.84
   1   0   3   41.06    2.30
  -1   0  -3   38.72    2.19
   1   0   4    1.64    0.62
  -1   0  -4    0.72    0.37
  -1   0  -4    0.47    0.60
   1   0   5   -0.35    0.71
  -1   0  -5    0.11    0.51
  -1   0  -5   -0.15    0.73
  -1   0  -6    5.03    1.27
  -1   0  -7   -0.31    0.99
   1  -1 -10   18.20    2.91
   1  -1  -9    4.00    1.81
   1   1  -9    4.05    1.83
   1  -1  -8   11.83    2.11
   1   1  -8   13.16    2.18
   1  -1  -7    3.13    1.25
   1   1  -7    3.52    1.26
   1  -1  -6  118.87    6.01
   1   1  -6  122.42    6.05
   1   1  -5   18.02    1.79
   1   1  -5   14.52    1.66
   1  -1  -5   12.98    1.56
   1  -1  -5   13.96    1.63
   1   1  -4   12.48    1.43
   1  -1  -4   16.52    1.55
   1   1  -4   15.40    1.52
   1   1  -3    0.75    0.47
   1  -1  -3    0.86    0.52
   1  -1  -2  476.04   15.51
   1   1  -2  467.44   15.51
   1  -1  -1    2.92    0.35
   1  -1  -1    2.26    0.41
   1   1  -1    2.28    0.40
   1   1  -1    2.36    0.32
  -1   1   0   17.46    0.97
   1   1   0   16.75    0.82
   1  -1   0   16.61    0.95
   1   1   1    1.16    0.25
  -1  -1  -1    1.65    0.28
  -1  -1  -1    1.48    0.29
  -1   1  -1    2.02    0.29
  -1  -1  -2  635.07   20.36
   1  -1   2  634.48   20.43
  -1   1  -2  619.56   20.34
   1   1   2  628.59   20.43
   1   1   3   27.03    1.80
  -1   1  -3   27.56    1.42
  -1   1  -3   23.23    1.63
  -1  -1  -3   23.28    1.64
   1  -1   3   24.51    1.73
   1   1   4   16.83    1.61
  -1   1  -4   16.15    1.24
  -1  -1  -4   15.93    1.54
  -1   1  -4   19.36    1.62
   1  -1   4   17.18    1.63
  -1  -1  -4   15.59    1.25
  -1  -1  -5    0.32    0.49
  -1   1  -5    0.15    0.71
   1   1   5   -0.17    0.81
  -1  -1  -5   -0.30    0.73
  -1   1  -5    0.11    0.53
   1   1   6  266.28   10.58
  -1  -1  -6  236.17    9.39
  -1   1  -6  255.99    9.52
  -1  -1  -7   14.63    1.74
  -1  -1  -8   11.89    1.78
   1  -2 -10  110.52    6.60
   1  -2  -9   18.90    2.77
   1  -2  -8    0.25    1.46
   1   2  -8   -0.99    1.45
   1   2  -7    3.51    1.32
   1  -2  -7    2.47    1.29
   1   2  -6  374.18   13.57
   1  -2  -6  329.24   13.39
   1   2  -5   60.75    3.55
   1  -2  -5   60.43    3.45
   1   2  -5   55.67    3.36
   1   2  -4    0.70    0.50
   1  -2  -4    1.24    0.60
   1   2  -4    0.62    0.56
   1   2  -3    0.87    0.48
   1  -2  -3    1.33    0.52
   1   2  -2  679.15   22.51
   1  -2  -2  718.86   22.55
   1   2  -1   72.24    2.61
   1  -2  -1   71.05    2.66
  -1  -2   1   67.98    2.85
   1  -2  -1   68.59    2.76
   1   2  -1   71.62    2.89
  -1   2   0    5.32    0.50
   1   2   1    6.06    0.50
   1   2   1    5.33    0.48
  -1  -2  -1    5.50    0.49
  -1  -2  -1    5.33    0.48
   1   2   2  665.98   21.52
  -1   2  -2  670.29   21.47
  -1  -2  -2  678.67   21.04
  -1  -2  -2  677.72   21.49
   1  -2   2  640.57   21.04
   1   2   3   41.75    2.38
  -1  -2  -3   44.68    2.36
  -1   2  -3   40.17    2.29
  -1   2  -4   15.13    1.46
  -1  -2  -4   15.60    1.51
   1   2   4   16.07    1.58
  -1  -2  -5    2.89    0.76
  -1   2  -5    1.78    0.81
   1   2   5    2.42    1.02
  -1  -2  -5    2.96    0.98
  -1  -2  -6  243.97    9.49
   1   2   6  260.83   10.50
  -1  -2  -7   17.53    1.87
   1   2   7   14.85    2.25
  -1  -2  -8    8.01    1.54
  -1  -2  -9   -0.78    1.28
   1  -3 -10    1.73    2.03
   1  -3  -9    3.54    1.76
   1   3  -8   40.07    3.43
   1  -3  -8   31.04    3.13
   1   3  -7    4.86    1.40
   1  -3  -7    4.83    1.38
   1   3  -6   46.03    3.45
   1  -3  -5    1.68    0.84
   1   3  -5    0.33    0.60
   1   3  -5    1.40    0.71
   1   3  -4  154.51    6.56
   1   3  -4  150.34    6.32
   1  -3  -4  157.15    6.38
   1   3  -3    0.87    0.52
   1  -3  -3    1.35    0.55
   1  -3  -2  211.55    7.36
   1  -3  -2  212.19    7.53
  -1  -3   2  218.68    7.76
  -1  -3   1    0.68    0.32
  -1   3   1    0.29    0.26
   1   3  -1    0.64    0.27
   1  -3  -1    0.32    0.22
   1  -3   0  316.36   10.39
  -1   3   0  332.03   10.49
   1   3   1    0.96    0.27
   1   3   1    0.59    0.24
  -1  -3  -2  249.42    8.15
  -1  -3  -2  243.44    8.61
   1   3   2  255.90    8.72
  -1  -3  -3    0.37    0.38
  -1   3  -3    0.28    0.42
   1   3   3    0.10    0.41
  -1  -3  -3    0.03    0.20
   1  -3   3   -0.06    0.34
   1   3   4  128.79    5.84
  -1  -3  -4  132.52    5.68
  -1   3  -4  140.56    5.77
  -1  -3  -5    1.80    0.87
   1   3   5    1.77    0.89
  -1   3  -5    1.52    0.86
   1   3   6   64.62    4.01
  -1  -3  -6   49.84    3.18
  -1  -3  -7    0.79    0.89
   1   3   7    2.00    1.23
   1   3   8   20.33    2.68
  -1  -3  -8   16.73    2.00
  -1  -3  -9    1.55    1.18
   1  -4 -10  103.80    6.41
   1  -4  -9   26.49    3.12
   1  -4  -8    8.40    1.87
   1  -4  -7   89.18    5.31
   1  -4  -7   85.95    3.92
   1   4  -6  372.94   13.13
   1  -4  -6  315.64   11.45
   1  -4  -5  101.49    4.33
   1  -4  -5  110.80    5.20
   1   4  -5  110.95    5.23
   1   4  -5  116.60    5.41
   1   4  -4   47.77    2.81
   1  -4  -4   46.89    2.78
   1   4  -4   49.78    2.96
   1  -4  -4   45.84    2.28
   1   4  -3  130.17    5.39
  -1  -4   3  134.99    5.54
   1  -4  -3  130.01    4.85
   1  -4  -3  131.73    5.30
   1  -4  -2  814.50   25.25
  -1  -4   2  784.80   25.39
   1   4  -2  756.11   25.39
   1  -4  -2  773.20   24.91
  -1  -4   1  319.92   10.64
  -1  -4   1  296.13   10.59
  -1   4   1  300.93   10.45
   1  -4   0  131.58    4.72
  -1   4   0  138.62    4.86
   1   4   1    8.24    0.72
   1   4   2  802.00   25.47
  -1  -4  -2  824.08   26.14
   1   4   2  823.56   26.17
  -1  -4  -3  209.67    7.93
  -1   4  -3  229.17    8.09
   1   4   3  210.96    8.08
   1  -4   3  223.78    7.63
  -1  -4  -3  213.15    7.03
   1   4   4   74.58    3.97
  -1   4  -4   79.86    3.84
  -1  -4  -4   78.33    3.82
  -1  -4  -4   76.06    2.76
  -1  -4  -5   19.12    1.00
   1   4   5   19.39    2.00
  -1  -4  -5   18.83    1.88
  -1   4  -5   22.07    1.96
   1   4   6  304.37   11.60
  -1  -4  -6  278.40    9.24
  -1  -4  -7   43.28    2.94
   1   4   7   39.76    3.43
  -1  -4  -8   21.41    2.22
   1   4   8   21.52    2.87
  -1  -4  -9   12.27    1.94
   1  -5 -10   23.79    3.25
   1  -5  -9    1.41    1.64
  -1   5   9    4.33    2.03
   1  -5  -8    3.93    1.56
   1  -5  -7  114.50    4.52
   1  -5  -6  143.57    5.46
   1   5  -5   32.98    2.57
   1  -5  -5   24.66    2.17
   1  -5  -5   25.17    1.55
   1   5  -5   30.29    2.35
   1   5  -4   21.61    1.90
   1  -5  -4   17.54    1.20
   1   5  -4   19.17    1.73
   1  -5  -4   22.79    1.82
  -1  -5   3  519.09   17.46
   1  -5  -3  527.76   17.29
   1  -5  -3  499.31   16.59
   1  -5  -2  536.40   17.60
  -1  -5   2  531.24   17.71
   1   5  -2  545.13   17.45
  -1   5   2  532.02   17.25
   1  -5  -2  520.50   17.17
  -1   5   1   54.90    2.41
   1   5  -1   60.84    2.66
   1  -5   0   47.34    2.18
  -1   5   0   51.18    2.36
   1   5   2  605.56   19.80
   1   5   2  602.84   19.07
  -1  -5  -2  601.24   19.74
  -1  -5  -3   19.48    1.50
   1  -5   3   20.38    1.34
   1  -5   4   23.26    1.63
   1   5   4   22.04    1.91
  -1  -5  -4   20.56    1.77
  -1  -5  -5  260.14   10.29
   1   5   5  259.12   10.62
   1   5   6  225.25    9.69
  -1  -5  -7    2.35    1.04
   1   5   7    5.06    1.49
  -1  -5  -8    9.27    1.66
   1   5   8    9.07    2.07
   1   5   9   47.60    4.34
  -1  -5  -9   42.16    3.29
   1  -6 -10   36.76    3.87
   1  -6  -9   12.58    2.33
   1  -6  -8   14.02    2.26
  -1   6   8   11.51    2.25
   1  -6  -6  185.78    6.61
   1  -6  -5   89.47    3.55
  -1  -6   4   21.00    1.87
   1  -6  -4   21.23    1.81
   1  -6  -4   19.62    1.21
   1  -6  -3   11.39    1.20
  -1  -6   3   10.80    1.23
   1  -6  -3    9.64    0.80
  -1   6   2  720.21   23.29
  -1  -6   2  715.88   23.79
   1   6  -2  746.98   23.66
   1   6  -1  404.68   13.70
   1  -6   0   34.87    1.88
  -1   6   0   40.09    2.16
   1   6   2  702.93   23.00
  -1  -6  -3  313.53   11.20
   1   6   3  317.53   11.34
  -1  -6  -4   37.13    2.53
  -1   6  -4   47.43    2.79
   1   6   4   41.24    2.74
   1  -6   4   42.37    2.38
   1   6   5    0.37    0.79
  -1   6  -5    0.48    0.75
   1   6   6  181.25    8.27
   1   6   7   98.84    5.76
   1   6   8   30.39    3.28
  -1  -6  -8   31.34    2.77
  -1  -6  -9    0.20    1.21
   1  -7  -9   -0.29    1.73
  -1   7   8   59.25    4.54
   1  -7  -6   72.02    2.84
   1  -7  -5    4.37    0.58
   1   7  -4  167.38    7.22
   1  -7  -4  178.11    7.18
  -1  -7   4  173.62    7.19
  -1  -7   3    9.50    1.20
   1  -7  -3    9.30    1.10
  -1   7   2  275.11    9.67
  -1  -7   2  295.82   10.25
   1   7  -2  292.86   10.07
   1   7  -1    0.60    0.51
   1  -7  -1    0.09    0.39
   1  -7   0  296.63   10.64
  -1   7   0  324.83   11.07
   1   7   2  372.53   12.89
  -1  -7  -3   20.26    1.61
   1   7   3   17.89    1.58
   1  -7   4  195.03    7.40
  -1   7  -4  198.34    7.97
   1   7   4  193.86    7.91
  -1  -7  -4  185.56    7.71
   1  -7   5    2.33    0.75
   1   7   5    2.63    0.91
   1   7   6  154.34    7.38
   1   7   7   13.77    2.15
  -1  -7  -8   57.93    3.87
   1   7   8   59.48    4.59
  -1  -7  -9   -0.21    1.11
   1  -8  -9   31.31    3.44
  -1   8   8    0.91    1.52
  -1  -8   5  170.34    7.47
   1  -8  -4    0.70    0.86
  -1  -8   4    1.67    0.83
  -1   8   3   23.06    1.37
   1   8  -3   23.80    1.75
  -1  -8   3   20.68    1.76
   1   8  -2   26.53    1.81
  -1   8   2   25.82    1.50
   1  -8  -1  333.98   11.97
   1   8  -1  354.01   12.25
  -1   8   0    1.22    0.75
   1  -8   0    0.96    0.56
  -1   8  -1   13.52    1.22
   1   8   2   26.17    1.86
   1   8   3  317.28   11.55
   1  -8   4    1.61    0.73
  -1  -8  -4    2.35    0.95
   1   8   4    0.81    0.66
   1   8   5    1.33    0.90
   1  -8   5    0.81    0.77
   1   8   6    2.55    1.29
   1   8   7  178.12    8.68
   1   8   8    3.02    1.54
  -1  -8  -9    0.22    1.24
   1  -9  -9   -0.31    1.58
  -1   9   8   12.11    2.34
  -1  -9   4  109.85    5.25
   1   9  -3  143.28    6.06
  -1   9   3  154.68    5.57
  -1  -9   3  151.56    6.35
   1   9  -2  134.38    5.57
  -1   9   2  133.44    5.07
   1   9  -1    6.81    1.11
   1  -9  -1    5.79    0.94
  -1   9   0  264.90    9.92
   1  -9   0  255.05    9.48
  -1   9  -1  161.71    6.36
   1   9   2  148.97    6.17
   1   9   3   31.02    2.26
   1   9   4  102.84    5.14
   1  -9   4  105.48    4.74
   1   9   5   75.32    4.57
   1  -9   5   95.28    4.44
   1   9   6   88.62    5.21
   1   9   7   17.01    2.40
   1   9   8   12.41    2.37
  -1  -9  -9   21.73    2.55
  -1  10   8   11.55    2.43
  -1  10   7   -0.56    1.43
  -1 -10   4   53.40    3.23
   1  10  -4   45.63    2.90
  -1 -10   3    5.86    1.08
  -1  10   3    3.63    0.66
   1  10  -3    3.39    0.86
   1  10  -2  426.59   14.89
   1  10  -1   23.51    2.03
   1 -10  -1   25.45    1.94
   1 -10   0  158.89    6.46
  -1  10   0  156.88    6.75
  -1  10  -1    3.22    0.84
   1  10   2  483.35   16.85
   1  10   3   22.80    1.96
   1 -10   4  136.81    5.80
   1  10   4  123.52    6.04
   1  10   5    1.89    1.05
   1 -10   5    1.51    0.90
   1  10   6  201.61    9.49
   1 -10   6  232.02    9.09
   1  10   7    4.20    1.61
   1  10   8   45.32    4.12
  -1 -10  -9    2.08    1.25
  -1  11   8   26.29    3.26
  -1  11   7   23.38    2.86
   1  11  -4  142.36    6.33
  -1 -11   4  155.32    6.76
   1  11  -3  101.01    4.81
  -1 -11   3  112.74    5.17
  -1  11   3  106.47    4.25
   1  11  -2  381.50   13.64
   1  11  -1   18.22    1.88
   1 -11  -1   21.41    1.88
  -1  11   0  315.38   12.09
   1 -11   0  325.35   11.76
   1 -11   1  161.06    6.47
  -1  11  -1  145.62    6.36
   1  11   3   11.64    1.46
   1  11   4  105.77    5.39
   1 -11   5   51.49    3.21
   1  11   5   42.84    3.31
   1  11   6  183.32    8.62
   1  11   7    7.23    1.84
   1  11   8   12.49    2.42
  -1  12   8   -0.67    1.56
  -1  12   7   38.33    3.70
  -1  12   6  608.32   22.26
   1  12  -4    2.08    0.95
  -1  12   3   37.38    2.08
   1  12  -3   38.63    2.59
   1  12  -2 1481.74   47.96
   1 -12  -1  146.27    6.46
   1  12  -1  145.51    6.60
  -1  12   0   22.42    2.17
   1 -12   0   21.54    1.91
   1 -12   1    0.44    0.59
  -1  12  -1    0.89    0.80
   1  12   3   92.91    4.87
   1  12   4   17.43    2.00
   1 -12   5   15.61    1.84
   1  12   5   17.64    2.23
   1  12   6  450.57   17.30
   1  12   7   26.12    3.08
   1  12   8    4.02    2.09
  -1  13   8    1.37    1.53
  -1  13   7    1.22    1.39
  -1  13   6    1.09    1.33
  -1  13   4    0.22    0.48
   1  13  -3   10.07    1.44
  -1  13   3   11.13    1.11
   1 -13  -2   16.05    1.74
  -1 -13   2   16.17    1.88
   1  13  -2   18.86    1.90
   1  13  -1    0.19    0.86
   1 -13  -1   -0.17    0.77
  -1  13   0    0.39    0.88
   1 -13   0    1.28    0.79
  -1 -13  -1   20.34    2.08
  -1  13  -1   19.57    1.99
   1 -13   1   23.50    2.01
   1  13   3    2.72    0.99
   1  13   4    1.89    0.92
   1  13   5    2.63    1.22
   1  13   6   14.11    2.28
   1  13   7    0.30    1.50
   1  13   8    1.37    1.50
  -1  14   8    0.35    1.64
  -1  14   7    1.57    1.43
  -1  14   6   12.22    2.18
  -1  14   5    5.49    1.55
  -1  14   4    1.14    0.60
   1  14  -3    0.65    0.79
  -1  14   3    0.18    0.50
   1  14  -2    2.87    1.11
   1 -14  -2    2.84    0.99
   1  14  -1    3.55    1.16
   1 -14  -1    1.60    0.83
  -1  14   0    5.55    1.38
   1 -14   0    7.70    1.28
  -1  14  -1    1.29    0.77
   1 -14   1    2.60    0.94
  -1 -14  -1    2.85    1.11
  -1  14  -2    3.02    1.09
   1  14   3    1.28    0.79
   1  14   4    0.22    0.90
   1  14   5    0.75    1.12
   1  14   6   11.93    2.09
   1  14   7    1.26    1.31
   1  14   8    3.52    1.88
  -1  15   7    2.26    1.70
  -1  15   6   62.15    4.62
  -1  15   5    2.61    1.26
  -1  15   4   34.64    2.03
  -1  15   4   30.91    2.88
  -1  15   3   21.93    1.64
  -1  15   3   20.50    2.28
   1  15  -2  138.60    6.66
   1 -15  -2  139.27    6.55
   1 -15  -1    0.56    0.80
   1  15  -1   -0.42    1.02
   1 -15   0   62.97    3.78
  -1  15  -1   42.02    3.21
   1 -15   1   48.11    3.23
  -1 -15  -1   41.96    3.23
  -1  15  -2  131.26    6.13
   1  15   3    8.92    1.63
   1  15   4   17.00    2.23
   1  15   5   19.39    2.48
   1  15   6   90.03    5.78
   1  15   7   10.34    2.21
  -1  16   7   -0.33    1.48
  -1  16   6   76.86    5.33
  -1  16   5   27.00    2.85
  -1  16   4    5.96    0.96
  -1  16   4    3.99    1.36
  -1  16   3   -0.48    0.93
   1 -16  -2   83.44    4.74
   1  16  -2   79.46    4.77
   1 -16  -1   70.81    4.20
   1  16  -1   67.27    4.33
   1 -16   0   17.99    2.01
   1 -16   1    5.38    1.35
  -1  16  -1    4.15    1.34
  -1 -16  -1    5.45    1.38
  -1  16  -2   79.67    4.46
   1  16   3   38.81    3.27
   1  16   4    8.56    1.69
   1  16   5    7.20    1.56
   1  16   6   62.78    4.77
   1  16   7    4.66    1.73
  -1  17   7    1.40    1.69
  -1  17   6   14.79    2.61
  -1  17   5    7.04    1.84
  -1  17   4    6.35    1.62
  -1  17   4    4.80    0.91
   1 -17  -3    0.86    0.92
  -1  17   3    3.10    1.40
   1 -17  -2   75.84    4.62
   1 -17  -1    4.35    1.13
   1 -17   0    0.41    0.85
  -1 -17  -1    4.73    1.42
   1 -17   1    5.71    1.27
  -1  17  -1    7.72    1.71
  -1 -17  -2  108.22    5.88
   1  17   3   -0.52    1.01
   1  17   4    9.93    1.91
   1  17   5    4.11    1.50
   1  17   6   54.57    4.56
   1  17   7   -0.35    1.69
  -1  18   7    8.79    2.33
  -1  18   6  172.24    9.08
  -1  18   5   60.80    4.68
  -1  18   4    2.46    0.78
  -1  18   4    1.13    1.20
   1 -18  -3    9.92    1.79
  -1  18   3    8.81    1.78
   1 -18  -2  398.15   15.35
   1 -18  -1   77.58    4.64
   1 -18   0    1.09    0.99
  -1 -18  -1    1.31    1.09
   1 -18   1    4.03    1.25
  -1 -18  -2  360.68   14.35
   1  18   3   68.67    4.78
   1  18   4    0.29    1.06
   1  18   5   -0.92    1.37
   1  18   6  119.49    7.16
   1  18   7   29.79    3.72
  -1  19   7   46.59    4.63
  -1  19   6   46.71    4.43
  -1  19   5   11.14    2.30
  -1  19   4   51.64    4.20
  -1  19   4   50.67    2.89
   1 -19  -3   92.81    5.39
  -1  19   3   86.22    5.63
   1 -19  -2  168.20    8.05
   1 -19  -1    4.75    1.39
   1 -19   0  107.71    5.82
  -1 -19   0  111.93    6.21
  -1 -19  -1  109.73    6.27
   1 -19   1  113.65    6.06
  -1 -19  -2  174.94    8.45
   1  19   3   -0.89    1.38
   1  19   4   36.08    3.57
   1  19   5   71.66    5.21
   1  19   6   62.85    5.09
   1  19   7    2.30    2.08
  -1  20   6   15.64    2.79
  -1  20   5    0.33    1.55
  -1  20   4   34.09    2.36
  -1  20   4   39.52    3.71
   1 -20  -4   31.56    3.20
  -1  20   3    7.42    1.86
   1 -20  -3   10.19    1.92
   1 -20  -2   15.04    2.16
   1 -20  -1    0.24    0.99
  -1 -20   0  111.05    6.41
   1 -20   0  116.89    6.21
   1 -20   1   -0.74    1.03
  -1 -20  -1   -0.56    1.16
  -1 -20  -2   19.45    2.60
   1  20   3    0.32    1.25
   1  20   4   72.97    5.29
   1  20   5    5.41    1.84
   1  20   6   30.42    3.71
  -1  21   6   56.16    5.02
  -1  21   5    2.11    1.39
  -1  21   4  139.24    5.94
  -1  21   4  145.36    8.04
   1 -21  -4  140.49    7.41
  -1  21   3   81.12    5.67
   1 -21  -3   92.38    5.61
   1 -21  -2   70.29    4.68
   1 -21  -1    0.99    1.31
   1 -21   0  232.96   10.34
  -1 -21   0  241.69   10.82
   1 -21   1  119.30    6.40
  -1 -21  -1  106.02    6.37
  -1 -21  -2   80.57    5.38
  -1 -21  -3    0.87    1.35
   1  21   3    0.33    1.42
   1  21   4  125.56    7.43
   1  21   5   41.70    4.14
   1  21   6   61.28    5.32
  -1  22   6   76.15    6.01
  -1  22   5   47.32    4.52
   1 -22  -4    1.17    1.34
  -1  22   4    2.12    1.61
  -1  22   3   -0.69    1.50
   1 -22  -3   -0.86    1.41
   1 -22  -2  198.23    9.24
   1 -22  -1  109.32    6.11
  -1 -22   0   10.33    2.12
   1 -22   0   11.43    1.95
   1 -22   1    0.27    1.14
  -1 -22  -1   -0.29    1.15
  -1 -22  -2  182.47    9.17
   1  22   3   94.61    6.37
  -1 -22  -3   91.58    5.93
   1  22   4    2.16    1.68
   1  22   5   -0.38    1.71
   1  22   6   54.99    5.16
   1 -23  -5    3.48    1.81
  -1  23   5    1.93    1.87
  -1  23   4   10.02    2.39
   1 -23  -4   12.62    2.30
  -1  23   3    7.56    2.11
   1 -23  -3   11.87    2.24
   1 -23  -2   94.99    5.77
   1 -23  -1    1.35    1.37
   1 -23   0   16.76    2.44
  -1 -23   0   19.54    2.70
   1 -23   1   25.40    2.95
  -1 -23  -1   22.82    2.93
  -1 -23  -2  158.00    8.43
  -1 -23  -3   -0.32    1.37
   1  23   3    0.37    1.50
   1  23   4   20.06    3.21
  -1 -23  -4   15.62    2.62
   1  23   5   15.32    2.91
   1 -24  -6    4.14    1.95
  -1  24   5    8.84    2.46
   1 -24  -5    9.61    2.22
  -1  24   4    1.55    1.69
   1 -24  -4    2.26    1.53
   1 -24  -3    3.60    1.72
  -1  24   3    1.88    1.72
   1 -24  -2   31.76    3.22
   1 -24  -1   16.05    2.42
  -1 -24   0   -0.31    1.45
   1 -24   0    1.12    1.22
  -1 -24  -1    0.93    1.34
   1 -24   1    0.29    1.40
  -1 -24  -2   30.66    3.49
  -1 -24  -3   27.85    3.38
   1  24   3   21.66    3.27
  -1 -24  -4    4.77    1.96
   1  24   4    1.98    1.81
   1  24   5   -0.82    2.05
   1 -25  -5   -0.69    1.76
  -1  25   4   -0.41    1.77
   1 -25  -4    2.32    1.82
  -1  25   3   27.11    3.62
   1 -25  -3   37.11    3.71
   1 -25  -2   29.78    3.19
   1 -25  -1    0.28    1.26
  -1 -25   0    1.27    1.42
   1 -25   0    0.58    1.30
  -1 -25  -1   49.63    4.31
   1 -25   1   50.36    4.22
  -1 -25  -2   26.39    3.39
  -1 -25  -3    0.70    1.63
   1  25   3   -0.40    1.63
   1  25   4   -0.41    1.68
  -1 -25  -4    0.71    1.63
   1 -26  -5    1.44    1.93
   1 -26  -4   -0.34    1.65
  -1  26   4    0.84    1.62
  -1  26   3    2.86    1.78
   1 -26  -3   -0.31    1.57
   1 -26  -2  193.42    9.45
   1 -26  -1    0.87    1.48
   1 -26   0    6.90    1.91
  -1 -26   0    8.87    2.28
  -1 -26  -1    3.93    1.78
   1 -26   1    7.07    1.90
  -1 -26  -2  195.27    9.87
  -1 -26  -3   -0.36    1.74
   1  26   3    0.42    1.74
  -1 -26  -4    7.80    2.42
   1  26   4    3.02    1.80
   1 -27  -4   38.99    4.08
   1 -27  -3    0.32    1.52
  -1  27   3   -0.85    1.72
   1 -27  -2   31.03    3.48
   1 -27  -1    0.30    1.46
   1 -27   0   78.84    5.48
  -1 -27   0   77.10    5.67
  -1 -27  -1    0.34    1.44
   1 -27   1    0.32    1.61
  -1 -27  -2   34.40    3.84
  -1 -27  -3    1.10    1.87
   1  27   3    0.87    1.76
   1 -28  -3    1.61    1.66
  -1  28   3   -0.88    1.95
   1 -28  -2  299.63   13.13
   1 -28  -1    0.62    1.56
  -1 -28   1    1.46    1.86
   1 -28   0   15.08    2.64
  -1 -28   0   15.66    2.82
  -1 -28  -1    2.42    1.90
  -1 -28  -2  235.34   11.36
   1  28   3   -0.45    2.22
   1 -29  -2   14.23    2.52
   1 -29  -1    2.24    1.46
  -1 -29   1    0.37    1.73
  -1 -29   0    4.63    1.91
   1 -29   0    3.98    1.88
  -1 -29  -1    3.89    2.00
   2   0  -9    0.30    1.72
   2   0  -8  235.11   10.69
   2   0  -7   -0.25    1.10
   2   0  -6    8.41    1.53
   2   0  -5   -1.69    0.96
   2   0  -5    0.40    0.79
  -2   0   4  723.50   24.43
   2   0  -4  734.45   24.33
  -2   0   3    0.30    0.44
   2   0  -3   -0.09    0.46
   2   0  -2  181.42    6.50
  -2   0   2  183.86    6.55
   2   0  -1    0.28    0.36
   2   0  -1    0.10    0.20
   2   0   0 1063.38   34.83
  -2   0   0 1114.60   34.86
   2   0   1    0.11    0.15
  -2   0  -1    0.41    0.20
  -2   0  -1   -0.08    0.36
  -2   0  -2  210.12    7.33
   2   0   2  195.46    7.14
  -2   0  -2  204.05    7.11
  -2   0  -3   -0.09    0.42
  -2   0  -3    0.74    0.45
   2   0   3   -0.20    0.46
   2   0   4  426.42   14.96
  -2   0  -4  416.37   14.67
   2   0   5    0.17    0.78
  -2   0  -5   -0.29    0.84
   2  -1  -9    6.32    2.01
   2   1  -9    6.60    2.06
   2  -1  -8   60.75    4.51
   2   1  -8   59.89    4.46
   2  -1  -7    1.03    1.22
   2   1  -7    0.25    1.14
   2  -1  -6   35.67    3.05
   2   1  -6   37.88    3.10
  -2   1   6   31.19    2.78
   2   1  -5   10.49    1.58
   2  -1  -5    9.68    1.53
   2   1  -5    9.91    1.39
  -2   1   5   10.54    1.44
   2  -1  -5    8.32    1.37
   2   1  -4  290.07   10.67
  -2   1   4  285.29   10.76
   2  -1  -4  296.93   10.74
  -2   1   3    3.27    0.70
   2  -1  -3    3.13    0.72
   2   1  -3    2.50    0.77
   2   1  -3    2.95    0.63
   2   1  -2   85.45    3.93
   2   1  -2   84.46    3.50
   2  -1  -2   88.33    3.51
   2  -1  -2   89.02    3.92
  -2   1   2   82.03    3.46
   2   1  -1    4.40    0.66
  -2   1   1    5.83    0.49
   2   1  -1    7.05    0.53
   2  -1  -1    5.76    0.48
   2  -1  -1    6.18    0.81
  -2   1   0  753.13   23.82
   2   1   0  717.17   23.35
   2  -1   0  734.27   23.82
  -2  -1  -1    0.92    0.44
  -2  -1  -1    0.57    0.23
  -2   1  -1    0.97    0.43
   2   1   1    0.79    0.24
  -2   1  -1    0.76    0.23
   2   1   1    0.38    0.32
  -2   1  -2   37.50    2.03
  -2  -1  -2   36.36    1.83
  -2   1  -2   38.62    1.87
   2   1   2   32.29    1.84
  -2  -1  -2   37.79    1.97
  -2  -1  -3    0.08    0.37
  -2   1  -3    0.36    0.42
  -2  -1  -3    0.36    0.45
   2   1   3    1.00    0.51
  -2  -1  -4  407.90   13.73
  -2  -1  -4  435.31   14.25
  -2  -1  -4  428.16   14.77
   2   1   4  440.03   15.04
  -2   1  -4  427.74   14.72
  -2  -1  -5    0.07    0.43
   2   1   5    0.17    0.72
  -2   1  -5   -0.88    0.95
  -2  -1  -5   -0.73    0.83
  -2  -1  -5    0.44    0.51
   2   1   6    2.33    1.04
   2   2  -9    0.61    1.94
   2  -2  -9    0.61    1.96
   2   2  -8    9.93    2.05
   2  -2  -8   12.43    2.21
   2   2  -7    0.50    1.25
   2  -2  -7    0.26    1.17
   2   2  -6   60.87    3.98
  -2   2   6   56.66    3.76
   2   2  -5    7.79    1.39
   2   2  -5    7.51    1.27
  -2   2   5    8.38    1.26
   2  -2  -5    6.56    1.23
   2  -2  -4    2.36    0.77
  -2   2   4    2.71    0.74
   2   2  -4    3.40    0.85
  -2   2   3    1.44    0.55
   2   2  -3    1.11    0.64
   2  -2  -3    0.66    0.51
   2   2  -3    0.58    0.52
   2  -2  -3    1.01    0.54
   2   2  -2  293.59   10.13
   2   2  -2  309.65   10.73
   2  -2  -2  297.97   10.10
   2   2  -2  291.02    9.82
  -2   2   2  303.90   10.18
   2  -2  -2  300.90   10.59
   2   2  -1    0.87    0.36
   2  -2  -1    1.60    0.31
   2   2  -1    0.78    0.30
  -2  -2   1    1.15    0.29
   2  -2  -1    1.43    0.46
  -2   2   1    1.30    0.28
   2  -2   0    1.16    0.43
   2   2   0    1.33    0.35
  -2   2   0    2.01    0.58
  -2  -2  -1   12.38    0.71
  -2  -2  -1   11.42    1.02
  -2   2  -1   11.41    1.03
   2   2   1   10.99    1.01
   2   2   1   12.63    0.77
  -2   2  -1   13.17    0.76
  -2  -2  -2  342.19   11.56
  -2   2  -2  344.57   11.58
   2   2   2  355.97   11.70
  -2  -2  -2  342.39   11.69
   2   2   3    5.19    0.83
  -2  -2  -3    5.82    0.82
  -2  -2  -3    5.74    0.44
  -2   2  -3    6.53    0.85
  -2  -2  -3    5.19    0.72
  -2  -2  -4    1.12    0.43
  -2   2  -4    2.98    0.80
  -2  -2  -4    0.35    0.72
   2   2   4    2.61    0.86
  -2  -2  -4    2.05    0.60
  -2  -2  -5    9.59    1.43
  -2  -2  -5    9.93    1.00
  -2   2  -5   11.88    1.50
   2   2   5   11.90    1.54
  -2  -2  -5   10.54    0.99
  -2  -2  -6   79.36    3.52
   2   2   6   81.91    4.83
  -2  -2  -6   86.31    3.73
   2   2   7    3.75    1.45
  -2  -2  -7    8.13    1.15
   2  -3  -9   20.91    2.97
   2   3  -8  144.17    7.69
   2  -3  -8  141.81    7.65
  -2   3   7    6.04    1.52
   2   3  -7    4.75    1.42
   2  -3  -7    4.51    1.16
   2  -3  -7    5.24    1.45
  -2   3   6   13.24    1.78
   2   3  -6   10.22    1.69
   2  -3  -6    6.96    1.17
   2   3  -5   85.44    4.74
   2   3  -5   85.54    4.42
   2  -3  -5   85.84    4.42
  -2   3   5   77.93    4.42
   2  -3  -5   85.88    4.14
  -2   3   4  288.93   11.02
   2  -3  -4  308.79   10.92
   2   3  -4  294.77   10.94
   2  -3  -4  287.58   10.70
   2  -3  -3   -0.19    0.45
   2   3  -3    0.14    0.48
  -2   3   3    0.63    0.44
   2   3  -3   -0.20    0.49
   2  -3  -3    0.11    0.46
   2   3  -2   56.09    2.41
  -2   3   2   56.09    2.58
   2   3  -2   52.43    2.88
   2  -3  -2   59.61    2.87
   2  -3  -2   59.07    2.60
   2   3  -2   55.74    2.61
   2   3  -1  162.74    6.07
   2  -3  -1  154.86    6.11
  -2   3   1  158.49    5.57
  -2  -3   1  155.28    6.06
  -2  -3   1  166.00    5.73
   2   3  -1  168.77    5.78
   2  -3   0  331.28   11.29
  -2  -3   0  323.51   10.91
  -2   3   0  325.85   11.29
   2   3   1   19.18    1.06
  -2  -3  -1   19.78    1.00
  -2   3  -1   20.41    1.45
   2   3   1   18.85    1.35
  -2  -3  -2   44.34    2.21
  -2  -3  -2   45.62    2.19
   2   3   2   47.57    2.26
   2   3   2   46.60    2.25
  -2   3  -2   44.25    2.16
   2  -3   3  130.42    4.57
  -2  -3  -3  135.28    5.27
  -2  -3  -3  127.74    4.90
   2   3   3  125.79    5.34
  -2   3  -3  134.33    5.28
  -2  -3  -4  358.96   12.27
  -2  -3  -4  371.61   12.99
  -2   3  -4  384.54   13.07
   2   3   4  356.96   13.22
  -2  -3  -5   45.03    2.84
   2   3   5   41.18    2.90
  -2   3  -5   44.54    2.83
  -2  -3  -5   37.94    2.05
  -2  -3  -5   41.14    2.16
  -2  -3  -6    6.35    1.00
   2   3   6    8.04    1.55
  -2  -3  -6    7.27    0.88
  -2  -3  -7   58.02    3.11
   2   3   7   56.29    4.16
   2  -4  -9    0.31    1.84
   2   4  -8   77.27    5.28
  -2   4   8   70.11    4.98
   2  -4  -8   69.93    5.04
  -2   4   7   72.10    4.72
   2  -4  -7   63.42    4.67
   2  -4  -7   70.96    3.73
   2  -4  -6    1.84    0.82
   2   4  -6    2.24    1.11
  -2   4   6    1.91    0.95
   2  -4  -5    3.83    0.93
   2   4  -5    8.20    1.40
   2  -4  -5    5.88    1.12
   2   4  -5    5.36    1.26
  -2   4   5    6.96    1.26
   2  -4  -4  153.27    6.27
   2  -4  -4  155.69    6.44
  -2   4   4  151.37    6.58
   2   4  -4  164.19    6.61
   2   4  -3  215.32    8.21
  -2   4   3  192.82    7.70
   2  -4  -3  213.47    7.71
   2  -4  -3  199.39    7.69
   2   4  -3  209.66    7.74
   2  -4  -2    0.50    0.43
   2  -4  -2    0.95    0.50
   2   4  -2    1.56    0.46
   2   4  -2    0.22    0.47
  -2   4   2    1.22    0.43
  -2  -4   1   14.70    1.21
   2  -4  -1   14.34    0.82
  -2  -4   1   16.29    1.15
   2   4  -1   14.89    1.12
  -2   4   1   14.37    0.94
   2  -4  -1   15.34    1.22
  -2   4   1   14.57    1.23
  -2   4   0  357.23   11.61
  -2  -4   0  353.61   11.82
   2   4   1  288.83    9.63
   2   4   1  288.04   10.03
  -2  -4  -2    1.75    0.48
   2   4   2    1.18    0.40
   2   4   2    1.29    0.45
  -2  -4  -3   12.95    1.21
  -2  -4  -3   12.60    1.00
   2  -4   3   11.35    0.84
  -2   4  -3   12.05    1.17
   2   4   3   12.42    1.21
  -2  -4  -4  207.96    8.18
  -2   4  -4  235.55    8.43
   2   4   4  206.96    8.46
  -2  -4  -4  212.86    7.50
  -2  -4  -5  142.85    6.40
  -2  -4  -5  146.25    5.44
   2   4   5  151.94    6.83
  -2  -4  -6    0.61    0.62
   2   4   6    0.64    1.06
  -2  -4  -6    1.99    0.57
   2   4   7    8.50    1.77
  -2  -4  -7    3.09    0.93
  -2  -4  -8   67.32    3.66
   2   4   8   71.95    4.98
   2  -5  -9   -0.32    1.83
  -2   5   8  145.37    7.53
   2  -5  -8  127.98    7.40
   2   5  -7   12.77    2.20
   2  -5  -7   11.72    1.38
  -2   5   7    8.54    1.62
   2   5  -6   64.67    4.22
  -2   5   6   59.35    3.99
   2  -5  -6   64.36    3.32
   2  -5  -5    2.38    0.73
   2   5  -5    3.39    1.07
   2  -5  -5    2.18    0.92
  -2   5   5    2.54    1.10
   2  -5  -4  677.26   22.22
  -2   5   4  648.64   22.34
   2  -5  -4  660.17   21.87
   2   5  -4  642.79   22.19
   2  -5  -3   10.80    1.12
   2   5  -3    8.73    1.08
   2   5  -3    9.77    0.99
   2   5  -3    9.81    1.26
  -2   5   3    8.83    1.08
   2  -5  -3    8.99    1.02
  -2   5   2   77.33    3.37
   2   5  -2   78.13    3.33
   2  -5  -2   75.13    3.45
  -2   5   2   76.81    3.54
  -2   5   1    8.76    0.80
   2  -5  -1   11.32    0.79
   2   5  -1    8.53    0.92
  -2   5   1    8.68    1.00
  -2  -5   1    9.61    0.99
  -2  -5   1    9.60    0.98
  -2  -5   0 1620.02   51.61
  -2   5   0 1654.50   51.51
   2   5   1    1.49    0.43
   2   5   2   76.21    3.42
   2   5   2   82.00    3.38
   2   5   3    8.18    1.02
  -2   5  -3    8.41    1.03
  -2  -5  -3    8.52    1.05
   2  -5   4  725.06   23.67
  -2  -5  -4  745.42   24.47
   2   5   4  724.54   24.67
  -2   5  -4  743.32   24.47
   2   5   5   12.71    1.68
  -2   5  -5   13.02    1.64
  -2  -5  -5   14.05    1.65
   2   5   6   53.21    3.67
  -2  -5  -6   47.01    2.69
  -2  -5  -7    4.09    0.97
   2   5   7    4.53    1.56
  -2  -5  -8  146.45    6.33
   2   5   8  155.68    7.97
   2  -6  -9    5.77    2.09
   2  -6  -8   91.42    6.04
  -2   6   8  103.31    6.19
   2  -6  -7   85.74    3.99
  -2   6   7   87.17    5.26
   2  -6  -6   40.07    2.40
  -2   6   6   39.92    3.17
   2   6  -5   17.16    2.02
  -2   6   5   17.65    1.91
   2  -6  -5   17.14    1.49
   2  -6  -4  363.38   12.61
  -2   6   4  349.44   12.70
   2   6  -4  330.52   12.53
   2  -6  -4  341.13   12.09
   2  -6  -3  336.84   11.69
   2  -6  -3  326.31   11.47
   2   6  -3  318.77   11.41
  -2   6   3  331.13   11.82
  -2  -6   3  338.42   12.09
  -2   6   2   22.52    1.54
   2   6  -2   21.81    1.53
  -2   6   2   22.58    1.65
   2  -6  -2   22.83    1.57
  -2  -6   1   33.96    1.98
  -2  -6   1   30.95    2.06
   2  -6  -1   34.39    1.73
   2   6  -1   33.46    2.05
  -2   6   1   31.82    1.98
  -2   6   0  609.49   19.91
   2   6   2   16.15    1.28
   2   6   2   16.25    1.20
   2   6   3   17.21    1.50
  -2  -6  -3   14.70    1.36
  -2  -6  -4  233.55    9.06
   2   6   4  227.46    9.19
  -2   6  -4  247.74    9.19
   2  -6   4  241.07    8.46
   2   6   5  244.99    9.91
   2   6   6   28.03    2.70
  -2  -6  -7    1.16    0.88
   2   6   7    1.53    1.23
  -2  -6  -8   51.96    3.21
   2   6   8   52.96    4.25
   2  -7  -9  134.88    7.87
  -2   7   8   14.52    2.47
  -2   7   7    1.82    1.13
   2  -7  -6   29.24    1.93
  -2   7   6   35.54    2.99
   2  -7  -5  335.76   11.70
  -2   7   5  333.47   12.85
   2  -7  -4   22.19    1.90
   2   7  -4   21.72    1.70
   2  -7  -4   18.45    1.47
  -2   7   4   16.72    1.78
   2   7  -4   24.00    2.03
   2   7  -3   14.86    1.36
  -2   7   3   19.62    1.63
   2  -7  -3   17.53    1.38
  -2  -7   3   17.49    1.72
  -2   7   2   90.87    3.95
   2   7  -2   88.62    3.91
  -2   7   2   84.26    3.84
  -2  -7   1  548.26   19.30
   2  -7  -1  583.48   18.69
  -2  -7   1  577.95   19.03
   2   7  -1  567.99   19.16
  -2   7   1  566.43   19.00
  -2   7   0   13.88    1.24
  -2  -7   0   12.51    1.33
  -2   7  -1  102.09    4.15
   2   7   2   51.15    2.52
   2   7   2   55.34    2.74
   2   7   3  287.01   10.51
   2   7   3  286.71    9.71
  -2  -7  -4   11.98    1.46
   2  -7   4   14.96    1.28
   2   7   4   12.65    1.53
  -2   7  -4   15.86    1.67
   2  -7   5   96.02    4.19
   2   7   5   87.86    4.87
   2   7   6   13.31    2.00
   2   7   7   73.64    4.74
  -2  -7  -7   63.35    3.58
  -2  -7  -8    9.83    1.55
   2   7   8    9.44    2.16
   2  -8  -9   -1.01    1.93
  -2   8   8   23.79    2.97
  -2   8   7   29.29    2.99
  -2   8   6  168.74    7.72
   2  -8  -6  157.25    6.13
   2  -8  -5    0.84    0.65
  -2   8   5    0.58    0.84
  -2  -8   4   44.15    3.12
   2  -8  -4   50.12    2.99
  -2   8   4   44.93    3.02
   2   8  -4   49.08    3.09
   2   8  -4   46.59    2.76
  -2  -8   3   90.17    4.44
  -2   8   3   90.14    4.27
   2   8  -3   86.30    4.02
  -2   8   3   88.09    4.01
  -2   8   2  640.24   21.46
   2   8  -2  640.70   21.49
  -2   8   2  651.71   21.40
   2  -8  -1    5.75    0.80
  -2   8   1    3.79    0.78
   2   8  -1    4.45    0.95
   2  -8   0   68.69    3.06
  -2  -8   0   75.25    3.78
  -2   8   0   64.24    3.37
  -2   8  -1  106.51    4.44
   2   8   2  674.73   22.38
   2   8   3   12.18    0.95
   2   8   3   11.31    1.33
   2  -8   4   65.55    3.15
   2   8   4   58.03    3.52
  -2   8  -4   61.48    3.51
   2   8   5   39.01    2.96
   2  -8   5   40.34    2.46
   2   8   6  175.83    8.16
   2   8   7    2.42    1.42
   2   8   8   23.71    3.01
  -2  -8  -8   25.93    2.27
   2  -9  -9   33.94    3.88
  -2   9   8   23.59    3.07
  -2   9   7    4.13    1.64
  -2   9   6  104.44    5.75
   2   9  -5   93.23    4.55
  -2   9   5   89.90    4.96
  -2   9   4   48.58    3.11
   2   9  -4   40.23    2.63
  -2  -9   3   21.20    1.93
  -2   9   3   22.54    1.88
   2   9  -3   25.11    1.87
  -2   9   3   22.72    1.72
  -2   9   2  198.30    7.69
   2   9  -2  190.70    7.69
  -2   9   2  200.40    7.53
   2  -9  -1  124.46    4.90
   2   9  -1  121.96    5.28
  -2   9   1  113.89    4.94
  -2   9   0   40.59    2.64
  -2  -9   0   40.93    2.75
   2  -9   0   35.76    2.12
  -2   9  -1   41.12    2.36
   2   9   2  122.01    5.28
   2   9   3   60.42    3.36
   2   9   3   61.54    2.70
   2   9   4   30.30    2.46
   2  -9   5   29.41    2.17
   2   9   5   29.15    2.51
   2   9   6   30.18    2.85
   2   9   7   14.24    2.25
  -2  -9  -8   12.95    1.76
   2   9   8   14.62    2.52
  -2  10   8   86.48    5.78
  -2  10   7   72.11    4.96
  -2  10   6    8.25    1.72
  -2  10   5   33.63    2.81
   2  10  -4  254.22    9.73
  -2  10   4  262.42   10.30
  -2 -10   3  217.39    8.45
  -2  10   3  193.39    8.19
   2  10  -3  207.43    8.07
  -2  10   3  209.39    7.88
  -2  10   2   70.88    3.68
  -2 -10   2   71.69    3.86
   2  10  -2   68.60    3.72
   2 -10  -2   68.18    3.47
  -2  10   2   69.46    3.46
  -2 -10   1   20.62    2.00
   2 -10  -1   24.15    1.75
   2 -10   0  471.97   15.64
  -2  10   0  431.97   16.11
  -2 -10   0  468.60   16.63
  -2  10  -1  318.84   11.41
   2  10   2   89.84    4.27
  -2  10  -2   83.51    4.02
   2  10   3    1.43    0.50
   2  10   3    2.36    0.78
   2  10   4  195.39    8.25
   2 -10   5  226.76    8.51
   2  10   5  201.73    9.09
   2  10   6   13.99    2.08
   2 -10   6   16.13    1.83
   2  10   7   -0.28    1.21
   2  10   8   60.95    4.78
  -2  11   8  248.42   11.52
  -2  11   7   10.27    2.16
  -2  11   6   16.13    2.16
  -2  11   5    9.79    1.74
  -2  11   4  842.50   27.86
   2  11  -4  794.02   27.19
   2  11  -3    7.37    1.20
  -2 -11   3    8.04    1.32
  -2  11   3    8.67    1.34
  -2  11   3    7.62    1.10
  -2  11   2   15.48    1.62
   2 -11  -2   16.82    1.59
  -2 -11   2   12.08    1.59
  -2  11   2   16.09    1.49
   2  11  -2   16.74    1.76
  -2 -11   1   14.18    1.77
   2 -11  -1   14.94    1.45
   2 -11   0 1815.87   57.05
  -2 -11   0 1809.48   58.11
  -2  11   0 1737.64   57.64
  -2  11  -1    2.06    0.80
   2  11   2   22.36    1.96
  -2  11  -2   24.20    1.89
   2  11   3   19.93    1.87
   2  11   3   19.82    1.38
   2  11   4  962.95   32.35
   2 -11   5    2.02    0.87
   2  11   5    0.43    0.97
   2 -11   6   24.70    2.19
   2  11   6   17.80    2.35
   2  11   7   23.32    2.91
   2  11   8  288.66   12.86
  -2  12   8   15.35    2.71
  -2  12   7    8.24    2.04
  -2  12   6   12.67    2.04
  -2  12   5    0.23    0.96
  -2  12   4   33.26    2.73
   2  12  -4   30.74    2.47
  -2 -12   3   26.73    2.30
  -2  12   3   26.03    2.29
  -2  12   3   31.86    2.14
   2  12  -3   29.26    2.31
  -2  12   2   23.37    2.05
  -2 -12   2   22.60    2.17
   2  12  -2   25.41    2.22
   2 -12  -2   18.80    1.83
  -2  12   2   20.52    1.75
  -2 -12   1    6.22    1.32
   2 -12  -1    5.79    1.03
   2 -12   0   64.67    3.47
  -2 -12   0   72.72    4.27
  -2  12   0   66.25    3.93
  -2  12  -1   34.01    2.41
   2  12   2   23.76    2.12
  -2  12  -2   22.19    1.91
   2  12   3    7.25    1.32
  -2  12  -3   10.77    1.37
   2  12   4   50.58    3.46
   2 -12   5    9.93    1.49
   2  12   5    9.25    1.66
   2  12   6   14.93    2.19
   2 -12   6   19.35    2.09
   2  12   7    4.71    1.78
   2  12   8   18.61    3.03
  -2  13   8  124.18    7.43
  -2  13   7    4.85    1.83
  -2  13   6    3.95    1.43
  -2  13   5   11.81    1.87
  -2  13   4  233.76    9.67
  -2  13   4  223.52    8.62
  -2  13   3    0.18    0.76
  -2  13   3    0.12    0.64
   2  13  -3    0.65    0.89
  -2  13   2    0.62    0.68
  -2 -13   2    1.65    1.00
   2 -13  -2    0.95    0.77
   2  13  -2    0.37    0.94
  -2 -13   1   36.11    2.93
   2 -13  -1   34.53    2.46
   2 -13   0  333.51   12.24
  -2 -13   0  347.25   13.30
  -2  13   0  324.70   12.77
  -2  13  -1   17.27    1.79
  -2  13  -2   -0.29    0.71
   2  13   3   23.44    2.17
  -2  13  -3   18.21    1.88
   2  13   4  280.26   11.41
   2  13   4  284.98    9.40
   2 -13   5   26.35    2.38
   2  13   5   30.28    2.79
   2  13   6    0.53    1.13
   2  13   7    5.44    1.72
   2  13   8  173.27    9.11
  -2  14   7   -0.62    1.74
  -2  14   6   -0.83    1.27
  -2  14   5    3.69    1.13
  -2  14   4   63.58    4.13
  -2  14   4   64.61    3.41
   2 -14  -3    3.20    1.01
  -2  14   3    5.18    1.08
   2  14  -3    2.12    0.96
  -2  14   3    3.23    0.89
   2 -14  -2    8.84    1.39
  -2  14   2    6.11    1.09
  -2 -14   2    6.24    1.40
   2  14  -2    5.99    1.37
  -2 -14   1    2.26    1.07
   2 -14  -1    0.93    0.71
   2 -14   0   84.01    4.28
  -2 -14   0   92.77    5.16
  -2  14  -1   11.51    1.62
  -2 -14  -1   15.36    1.93
  -2  14  -2    9.06    1.41
   2  14   3    3.87    0.97
   2  14   4   44.95    3.43
   2  14   4   48.61    2.14
   2 -14   5    3.92    1.21
   2  14   5    6.16    1.42
   2  14   6    1.39    1.19
  -2  15   7    4.16    1.71
  -2  15   6    4.66    1.61
  -2  15   5   23.89    2.72
  -2  15   4   10.81    1.79
  -2  15   4   11.99    1.52
  -2  15   3    6.43    1.49
  -2  15   3    8.23    1.26
   2 -15  -3    7.11    1.38
  -2 -15   2    8.11    1.59
  -2  15   2    9.66    1.34
   2 -15  -2    8.67    1.47
   2  15  -2    9.74    1.70
  -2 -15   1   24.72    2.59
   2 -15  -1   27.09    2.28
  -2 -15   0    6.87    1.51
   2 -15   0   12.64    1.54
  -2  15   0   10.16    1.73
  -2  15  -1   -0.39    0.88
  -2 -15  -1    0.91    0.87
  -2  15  -2    7.45    1.38
   2  15   3    6.68    1.58
   2  15   4    8.07    0.87
   2  15   4    8.86    1.72
   2  15   5    0.26    1.07
   2  15   6    3.20    1.56
   2  15   7    0.64    1.54
  -2  16   7   18.08    2.84
  -2  16   6   -0.30    1.29
  -2  16   5    1.34    1.22
  -2  16   4  168.30    8.08
  -2  16   4  169.08    6.95
   2 -16  -3   50.63    3.46
  -2  16   3   51.42    3.77
  -2  16   3   48.14    2.97
   2 -16  -2    3.57    1.11
  -2 -16   2    3.55    1.32
  -2 -16   1   -0.50    1.01
   2 -16  -1    0.35    0.73
   2 -16   0  219.57    9.09
  -2 -16   0  223.29    9.90
  -2  16   0  225.24    9.69
  -2  16  -1   46.26    3.53
  -2 -16  -1   61.02    4.10
   2  16   3    1.91    1.11
   2  16   4   88.66    5.29
   2  16   4   87.78    3.57
   2  16   5   10.83    2.07
   2  16   6    1.82    1.29
   2  16   7    1.97    1.78
  -2  17   7   -1.01    1.69
  -2  17   6    1.88    1.43
  -2  17   5   25.05    2.86
  -2  17   4  204.22    8.21
  -2  17   4  213.99    9.57
  -2  17   3    3.96    1.46
   2 -17  -3    1.69    1.04
  -2  17   3    1.13    0.75
   2 -17  -2    0.20    0.85
  -2 -17   2    1.07    1.17
  -2 -17   1   62.84    4.43
   2 -17  -1   70.64    4.11
   2 -17   0  393.82   14.90
  -2 -17   0  415.68   15.85
  -2  17  -1   10.75    1.84
  -2 -17  -1   13.33    2.11
   2  17   3   55.12    4.09
   2  17   4  268.73   11.52
   2  17   4  268.26    9.33
   2  17   5   13.70    2.24
   2  17   6    2.84    1.56
   2  17   7   14.90    2.67
  -2  18   7   14.11    2.68
  -2  18   6   23.53    3.03
  -2  18   5    0.60    1.11
   2 -18  -4    4.54    1.47
  -2  18   4    5.96    1.58
  -2  18   4    5.94    1.36
   2 -18  -3   41.60    3.28
  -2  18   3   35.72    2.63
  -2  18   3   42.38    3.57
  -2 -18   2   51.14    4.14
   2 -18  -2   62.24    3.92
   2 -18  -1    6.32    1.39
  -2 -18   1    2.71    1.21
   2 -18   0   13.98    1.91
  -2 -18   0   18.07    2.40
  -2 -18  -1   39.06    3.51
   2  18   3   29.10    2.99
   2  18   4   11.41    1.20
   2  18   4   15.23    2.30
   2  18   5   11.85    2.27
   2  18   6   27.42    3.34
   2  18   7   24.27    3.34
  -2  19   6   24.25    3.22
  -2  19   5   13.44    2.34
  -2  19   4   75.95    5.10
  -2  19   4   77.02    4.09
   2 -19  -4   69.60    4.65
  -2  19   3    2.79    1.24
   2 -19  -3    0.94    1.13
  -2  19   3    0.46    0.88
  -2 -19   2   44.63    3.81
   2 -19  -2   39.54    3.14
   2 -19  -1   16.47    2.03
  -2 -19   1   17.52    2.42
   2 -19   0  106.62    5.66
  -2 -19   0  110.48    6.28
   2  19   3   27.17    2.92
   2  19   4   75.84    5.23
   2  19   5    3.16    1.56
   2  19   6    8.63    2.31
  -2  20   6    7.47    2.35
  -2  20   5    1.30    1.55
   2 -20  -5   -0.53    1.45
  -2  20   4  100.53    4.98
  -2  20   4   91.52    5.98
   2 -20  -4  102.77    5.86
   2 -20  -3  123.06    6.42
  -2  20   3  115.77    5.55
  -2  20   3  114.37    6.71
  -2 -20   2    8.56    2.03
   2 -20  -2    7.97    1.68
   2 -20  -1    3.00    1.18
  -2 -20   1    2.66    1.51
   2 -20   0  163.14    7.76
  -2 -20   0  174.59    8.56
   2  20   3   -0.31    1.51
   2  20   4   93.85    6.00
   2  20   5   99.96    6.41
   2  20   6    5.03    2.06
  -2  21   6   23.20    3.34
  -2  21   5   15.55    2.79
   2 -21  -5   13.88    2.35
   2 -21  -4   67.02    4.66
  -2  21   4   58.80    4.79
  -2  21   3    6.21    1.70
  -2  21   3    7.06    1.35
   2 -21  -3    5.76    1.61
  -2 -21   2   39.02    3.76
   2 -21  -2   34.46    3.07
   2 -21  -1   15.35    2.10
  -2 -21   1   12.26    2.25
   2 -21   0  103.87    5.70
  -2 -21   0   99.13    6.16
   2  21   3   10.68    2.22
   2  21   4   55.85    4.69
   2  21   5   -1.38    1.84
   2  21   6   11.95    2.71
  -2  22   6   75.75    5.85
   2 -22  -6   65.78    5.04
  -2  22   5   -0.70    1.85
   2 -22  -5   -0.58    1.74
  -2  22   4   76.50    5.54
   2 -22  -4   71.59    5.00
  -2  22   3   12.75    2.42
   2 -22  -3   12.69    2.17
  -2 -22   2  151.17    8.03
   2 -22  -2  133.12    6.95
  -2 -22   1    0.32    1.41
   2 -22  -1    0.71    1.25
   2 -22   0   96.19    5.50
  -2 -22   0   89.85    5.89
   2  22   3   -0.68    1.65
   2  22   4   47.78    4.42
   2  22   5   14.14    2.73
   2 -23  -6    4.45    2.01
   2 -23  -5   83.69    5.65
  -2  23   5   78.60    6.00
  -2  23   4   26.97    3.51
   2 -23  -4   26.35    3.10
  -2  23   3    1.37    1.74
   2 -23  -3    0.52    1.26
   2 -23  -2    4.77    1.55
  -2 -23   2    3.73    1.84
   2 -23  -1  123.16    6.68
  -2 -23   1  140.08    7.68
   2 -23   0   41.28    3.59
  -2 -23   0   44.57    4.06
   2  23   3   52.19    4.69
   2  23   4   35.31    3.89
   2  23   5   18.64    3.10
   2 -24  -6    1.99    1.95
  -2  24   5   -0.39    1.86
   2 -24  -5   -1.27    1.73
  -2  24   4   53.15    4.79
   2 -24  -4   51.54    4.30
   2 -24  -3  102.74    5.87
  -2  24   3   85.21    6.24
  -2 -24   2    6.28    2.11
   2 -24  -2    7.27    1.75
  -2 -24   1    4.02    1.65
   2 -24  -1    3.85    1.47
   2 -24   0   69.50    4.69
  -2 -24   0   65.35    5.04
   2  24   3    5.24    2.15
  -2 -24  -3    7.66    2.32
   2  24   4   35.89    4.04
  -2 -24  -4   30.90    3.75
   2  24   5   33.08    4.13
   2 -25  -5    1.63    1.80
   2 -25  -4   85.67    5.76
  -2  25   4   92.83    6.59
  -2  25   3    5.60    2.23
   2 -25  -3    4.41    1.76
   2 -25  -2   12.65    2.24
  -2 -25   2   11.09    2.43
  -2 -25   1    1.04    1.73
   2 -25  -1    0.27    1.35
   2 -25   0  151.65    7.71
  -2 -25   0  144.84    8.13
   2  25   3   -0.78    1.70
  -2 -25  -3    0.36    1.79
   2  25   4   88.17    6.46
  -2 -25  -4   75.73    5.82
   2 -26  -5    3.69    1.97
  -2  26   4   20.29    3.44
   2 -26  -4   24.11    3.08
  -2  26   3    8.92    2.59
   2 -26  -3    9.61    2.07
  -2 -26   2   17.92    2.97
   2 -26  -2   17.08    2.51
  -2 -26   1    0.35    1.39
   2 -26  -1    0.83    1.47
   2 -26   0   34.66    3.49
  -2 -26   0   39.14    3.91
  -2 -26  -3    2.62    2.00
   2  26   3    1.63    1.73
   2  26   4   28.25    4.00
   2 -27  -4  204.46   55.35
  -2  27   3    6.03    2.23
   2 -27  -3   12.00    2.23
  -2 -27   2    0.75    1.70
   2 -27  -2    1.41    1.50
  -2 -27   1    0.36    1.65
   2 -27  -1   -0.28    1.47
   2 -27   0  323.81   13.62
  -2 -27   0  321.99   14.24
   2  27   3   -1.27    2.42
   2 -28  -4    0.31    1.88
   2 -28  -3    2.41   36.66
   2 -28  -2   12.55    2.47
  -2 -28   2   16.41    2.91
  -2 -28   1    1.86    1.80
   2 -28  -1    2.94    1.66
  -2 -28   0    0.72    1.63
   2 -28   0    1.49    1.69
   2 -29  -3   -0.31    1.63
   2 -29  -2   10.56    2.37
   2 -29  -1   -0.30    1.50
   2 -29   0   49.35    4.34
   2 -30  -1    0.95    1.66
   3   0  -8   -0.62    1.49
   3   0  -8   -0.22    1.14
   3   0  -7    4.51    1.66
   3   0  -6   24.93    3.31
   3   0  -5    0.15    1.01
   3   0  -4    0.79    0.82
   3   0  -4    0.12    0.72
   3   0  -3   11.58    1.46
   3   0  -3   13.99    1.24
   3   0  -3   10.76    1.44
   3   0  -2  136.19    4.50
   3   0  -2  162.45    6.43
   3   0  -1   19.23    0.93
   3   0  -1   21.61    1.78
  -3   0   0    0.12    0.53
  -3   0  -1    5.19    0.40
  -3   0  -1    5.33    0.91
   3   0   1    4.28    0.52
   3   0   1    3.90    0.81
  -3   0  -2  125.10    5.15
  -3   0  -2  165.77    6.04
  -3   0  -3   28.89    1.82
  -3   0  -3   29.46    2.05
  -3   0  -4   -0.58    0.80
  -3   0  -4    0.48    0.60
  -3   0  -5    7.28    1.31
  -3   0  -5    6.49    1.09
  -3   0  -6   44.00    2.91
   3  -1  -8    0.31    1.50
   3   1  -8    0.30    1.53
   3  -1  -7    0.29    1.43
   3   1  -7   -0.56    1.60
   3  -1  -7    1.22    1.00
   3  -1  -6 1013.36   34.80
   3   1  -6 1025.09   34.88
   3  -1  -6  997.02   33.94
   3   1  -5    4.62    1.20
   3  -1  -5    4.25    1.17
   3  -1  -5    3.86    1.18
   3   1  -4    5.79    1.22
   3  -1  -4    6.55    1.23
  -3   1   4    6.82    1.05
   3   1  -4    4.49    1.00
   3  -1  -4    5.05    0.97
   3   1  -3    3.96    0.94
   3   1  -3    2.52    0.63
  -3   1   3    3.56    0.70
   3  -1  -3    3.15    0.67
   3  -1  -3    2.23    0.82
   3   1  -2 2583.89   80.32
   3   1  -2 2558.39   79.28
   3   1  -2 2486.37   78.88
   3   1  -2 2567.47   80.60
   3  -1  -2 2571.71   79.24
   3  -1  -2 2545.57   80.50
  -3   1   2 2506.90   79.29
   3   1  -1    1.36    0.54
   3   1  -1    0.49    0.24
   3   1  -1    0.42    0.56
   3  -1  -1    1.75    0.66
  -3   1   0   10.56    1.23
   3  -1   0   11.72    1.28
   3   1   0   13.14    1.05
   3   1   1    3.06    0.72
   3   1   1    3.77    0.49
  -3   1  -1    3.65    0.36
  -3   1  -1    2.48    0.71
  -3  -1  -1    4.43    0.83
   3  -1   1    5.06    0.85
  -3   1  -2 2654.27   83.04
  -3  -1  -2 2635.25   82.13
  -3   1  -2 2627.96   82.15
  -3  -1  -2 2603.70   82.92
   3   1   2 2624.85   82.26
  -3  -1  -3    5.59    0.82
  -3   1  -3    5.44    0.82
   3   1   3    7.88    0.95
  -3  -1  -3    5.20    0.90
  -3   1  -3    5.90    1.01
  -3  -1  -4    9.77    1.26
   3   1   4   10.82    1.31
  -3  -1  -4    6.96    1.06
  -3   1  -4    9.18    1.23
  -3   1  -4    8.61    1.20
  -3  -1  -5   17.09    1.76
  -3   1  -5   15.38    1.74
  -3  -1  -5   16.30    1.55
  -3   1  -5   17.74    1.67
  -3  -1  -6 1072.72   35.47
  -3   1  -6 1118.91   35.73
   3  -2  -8    6.59    1.97
   3   2  -8    9.77    2.18
   3   2  -7   25.33    3.06
   3  -2  -7   31.18    3.22
   3  -2  -7   28.66    2.60
   3  -2  -6    6.38    1.74
   3   2  -6   10.04    2.06
   3  -2  -6    9.15    1.96
   3   2  -5    3.21    1.13
   3  -2  -5    4.99    1.18
   3  -2  -5    2.61    1.04
  -3   2   5    4.33    1.11
  -3   2   4   16.84    1.57
   3   2  -4   14.74    1.79
   3  -2  -4   13.33    1.45
   3   2  -4   15.27    1.54
   3  -2  -4   15.09    1.69
   3   2  -3   35.08    2.56
   3  -2  -3   32.45    2.42
   3  -2  -3   32.88    2.00
   3   2  -3   30.16    1.68
   3   2  -3   35.21    2.08
  -3   2   3   35.88    2.11
   3   2  -2   15.92    1.69
   3  -2  -2   11.35    1.16
   3   2  -2   14.56    1.06
   3   2  -2   11.44    1.12
  -3   2   2   12.97    1.15
   3   2  -1    9.69    1.08
  -3  -2   1   10.22    0.71
   3   2  -1   10.36    0.70
  -3   2   1   10.89    0.69
   3  -2  -1   11.31    1.27
   3   2  -1   10.04    1.26
  -3   2   0   24.01    1.85
   3  -2   0   21.06    1.71
   3   2   0   20.94    1.39
  -3   2  -1   11.93    1.29
  -3   2  -1    9.50    0.62
   3   2   1   10.84    0.68
   3   2   1    9.86    1.16
  -3  -2  -2   24.99    1.54
   3   2   2   22.75    1.57
  -3   2  -2   27.27    1.53
  -3  -2  -2   25.15    1.87
   3   2   2   25.21    1.89
  -3  -2  -3   26.61    1.92
  -3  -2  -3   31.59    1.87
   3   2   3   29.53    1.92
  -3   2  -3   31.49    1.88
  -3   2  -3   27.86    2.09
  -3  -2  -4   12.91    1.31
  -3   2  -4   10.28    1.29
  -3  -2  -4   11.06    1.33
  -3   2  -4   14.08    1.51
   3   2   4   15.31    1.57
  -3   2  -5    2.89    1.05
   3   2   5    3.30    1.12
  -3  -2  -5    1.70    0.88
  -3   2  -5    3.71    1.03
  -3  -2  -5    3.17    0.84
   3   2   6   18.76    2.40
  -3   2  -6   22.61    2.07
  -3  -2  -6   17.29    1.69
   3  -3  -8    0.32    1.46
   3   3  -8   -0.92    1.78
   3  -3  -7    1.77    1.45
   3  -3  -7    1.46    0.99
   3   3  -7    0.56    1.53
   3   3  -6    2.00    1.36
  -3   3   6    2.12    1.27
   3  -3  -6    2.17    1.07
   3   3  -5    6.02    1.28
   3  -3  -5    5.65    1.22
  -3   3   5    8.26    1.35
   3  -3  -5    6.34    1.22
   3   3  -4    4.23    0.97
   3  -3  -4    4.33    1.11
   3  -3  -4    3.70    0.92
   3   3  -4    3.82    0.92
  -3   3   4    2.86    0.80
   3   3  -3    0.65    0.60
   3   3  -3    0.69    0.56
   3  -3  -3    0.65    0.54
  -3   3   3    0.52    0.48
   3   3  -3    0.39    0.41
   3  -3  -3   -0.15    0.60
   3  -3  -2    9.76    0.90
   3   3  -2    8.75    1.18
   3   3  -2   11.85    0.97
  -3   3   2   11.25    0.97
   3   3  -2   10.92    0.99
   3  -3  -2    9.66    1.28
   3   3  -1    8.23    0.98
  -3  -3   1    7.85    0.72
  -3   3   1    6.36    0.57
   3  -3  -1    5.99    0.99
  -3   3   0   10.67    0.58
   3   3   0   11.91    1.03
  -3   3   0   11.91    1.32
   3  -3   0   12.59    1.28
  -3   3  -1    0.88    0.29
   3   3   1    0.93    0.32
  -3   3  -1    1.01    0.59
  -3   3  -2    7.04    1.10
  -3   3  -2    5.54    0.72
   3   3   2    5.80    0.73
   3   3   2    7.84    1.01
  -3  -3  -3    9.78    1.07
   3   3   3   11.25    1.19
  -3  -3  -3   10.74    1.18
  -3   3  -3    6.95    0.93
  -3   3  -3    9.26    1.26
  -3  -3  -4    6.87    1.09
  -3   3  -4    7.21    1.11
   3   3   4    7.96    1.19
  -3  -3  -4    5.18    0.91
  -3   3  -4    8.25    1.27
   3   3   5    1.73    0.89
  -3   3  -5   -0.28    0.97
  -3  -3  -5    0.14    0.92
  -3  -3  -5    1.54    0.70
   3   3   6    0.21    1.03
  -3  -3  -6    0.60    0.67
   3  -4  -8   53.54    4.41
   3   4  -8   45.26    4.21
   3  -4  -7   18.84    2.72
   3  -4  -7   18.04    2.03
   3   4  -7   18.79    2.60
  -3   4   7   22.41    2.52
   3   4  -6    1.26    1.38
   3  -4  -6    1.19    1.15
  -3   4   6    3.36    1.45
   3  -4  -5   56.99    3.43
   3   4  -5   55.74    3.43
   3  -4  -5   61.45    3.55
  -3   4   5   57.94    3.59
   3   4  -4  149.20    7.05
   3  -4  -4  161.47    6.48
   3   4  -4  152.15    6.00
  -3   4   4  153.57    6.60
   3   4  -4  160.15    6.52
   3  -4  -4  163.53    6.83
   3   4  -3  100.60    4.96
   3  -4  -3  102.88    4.85
   3   4  -3   99.93    4.04
  -3   4   3   92.61    4.30
   3   4  -3   98.97    4.34
   3  -4  -3  103.34    4.36
   3   4  -2    4.08    0.81
   3   4  -2    5.74    1.15
  -3   4   2    4.69    0.77
   3  -4  -2    5.35    0.54
   3   4  -2    4.40    0.93
   3  -4  -2    6.41    1.23
   3   4  -1   42.15    2.46
  -3   4   1   45.11    1.94
  -3  -4   1   44.14    2.25
   3  -4  -1   40.68    2.59
  -3  -4   0  279.87    9.89
  -3   4   0  284.37   10.40
  -3   4   0  281.27    9.31
   3   4   1  218.99    7.53
   3   4   1  221.82    8.48
  -3  -4  -1  226.21    7.73
  -3   4  -1  227.21    8.56
  -3  -4  -2    4.79    0.53
  -3   4  -2    4.28    0.77
   3   4   2    6.13    0.82
   3   4   2    9.16    1.12
  -3   4  -2    8.03    1.24
  -3  -4  -3    0.57    0.52
  -3   4  -3    0.85    0.59
   3   4   3    0.65    0.59
  -3   4  -3    0.84    0.70
  -3  -4  -4  161.80    6.53
  -3  -4  -4  155.41    6.24
  -3   4  -4  163.55    6.55
   3   4   4  162.74    6.80
  -3  -4  -5  128.95    5.72
  -3   4  -5  138.05    5.83
  -3  -4  -5  119.33    5.10
   3   4   5  124.21    5.94
   3   4   6    4.02    1.38
   3   4   7    2.27    1.35
  -3   5   8    2.90    1.43
   3  -5  -8    3.28    1.73
   3   5  -7   37.53    3.56
  -3   5   7   44.04    3.50
   3  -5  -7   34.86    2.74
   3   5  -6  182.44    8.83
  -3   5   6  183.97    8.35
   3  -5  -6  195.50    7.94
  -3   5   5  172.80    7.57
   3  -5  -5  176.32    7.39
   3  -5  -4   11.78    1.35
   3   5  -4   12.27    1.64
   3   5  -4   11.38    1.23
   3   5  -4   11.08    1.42
   3  -5  -4   11.63    1.44
  -3   5   4    9.38    1.30
   3  -5  -3  125.77    5.22
   3   5  -3  130.34    5.94
   3   5  -3  134.62    5.10
  -3   5   3  126.00    5.30
   3  -5  -3  127.42    5.70
   3   5  -3  118.36    5.22
  -3   5   2  351.52   13.14
   3   5  -2  367.52   13.27
   3  -5  -2  356.56   13.15
  -3   5   2  361.40   12.47
   3  -5  -2  383.52   11.97
   3   5  -2  358.62   12.58
  -3  -5   1  470.66   15.65
  -3   5   1  458.02   14.80
  -3   5   1  478.53   15.92
   3  -5  -1  462.15   15.86
  -3  -5   0   12.76    1.17
  -3   5   0   14.42    0.98
  -3  -5  -1  147.79    5.37
   3   5   1  144.90    5.27
  -3   5  -1  157.16    6.24
   3   5   1  135.12    5.98
   3   5   2  338.78   12.37
   3   5   2  342.71   11.95
  -3  -5  -2  349.08   11.46
  -3  -5  -3  396.55   13.43
   3   5   3  393.21   13.56
  -3   5  -3  380.67   13.35
  -3  -5  -4    5.50    1.05
   3  -5   4    3.85    0.54
  -3   5  -4    4.12    0.99
   3   5   4    4.04    0.97
  -3  -5  -5   50.19    2.05
  -3  -5  -5   52.46    3.20
  -3   5  -5   51.41    3.18
   3   5   5   46.85    3.25
  -3  -5  -6  147.77    5.28
   3   5   6  149.56    7.10
   3   5   7  128.28    6.77
   3   5   8    1.45    1.37
   3  -6  -8   74.14    5.54
  -3   6   8   83.81    5.46
  -3   6   7    3.29    1.33
   3  -6  -7    2.03    1.02
   3   6  -6    4.98    1.65
   3  -6  -6    1.73    1.19
  -3   6   6    3.67    1.40
   3  -6  -5  136.95    6.01
   3   6  -5  128.41    5.58
  -3   6   5  130.63    6.20
   3  -6  -4  107.41    4.83
   3   6  -4  103.95    5.41
   3   6  -4   97.25    4.38
  -3   6   4  101.74    4.84
   3   6  -4   97.29    4.69
   3  -6  -4   99.55    4.81
   3   6  -3   40.57    2.87
   3   6  -3   38.38    2.23
  -3   6   3   39.16    2.37
   3  -6  -3   40.49    2.59
   3   6  -3   37.73    2.36
  -3  -6   2    6.42    1.34
  -3   6   2   10.51    1.13
   3  -6  -2   10.69    0.92
   3   6  -2    8.56    1.35
  -3   6   2   11.44    1.60
   3  -6  -2    7.40    1.27
  -3  -6   1  204.46    7.55
  -3   6   1  194.95    6.90
  -3   6   1  208.73    7.83
  -3  -6   0  109.99    4.60
  -3   6   0  114.07    4.40
   3   6   1  116.76    4.42
  -3   6  -1  114.17    5.14
  -3  -6  -1  111.69    4.39
   3   6   1  109.53    5.04
   3   6   2   12.32    1.36
   3   6   2    9.88    1.05
   3   6   3   86.42    3.98
  -3   6  -3   86.40    3.87
   3   6   3   80.92    3.82
  -3  -6  -4  104.22    4.76
   3  -6   4   98.31    3.91
  -3   6  -4  103.05    4.72
   3   6   4  113.55    5.05
   3   6   5   65.02    3.91
  -3  -6  -6    0.87    0.59
   3   6   6    4.34    1.52
  -3  -6  -7   16.88    1.33
   3   6   7   13.36    2.14
   3   6   8   78.41    5.38
  -3   7   8   -0.89    1.72
  -3   7   7    0.26    1.24
  -3   7   6   68.06    4.34
   3  -7  -6   69.54    3.77
   3   7  -5   14.49    1.61
  -3   7   5   15.15    1.86
   3  -7  -5   14.91    1.64
   3   7  -4    0.83    0.74
  -3   7   4    0.91    0.71
   3  -7  -4    0.54    0.76
   3  -7  -4    1.13    0.69
   3   7  -4    0.67    0.69
   3   7  -3    2.43    0.74
  -3   7   3    1.83    0.71
   3  -7  -3    1.38    0.68
  -3  -7   2  151.99    6.56
  -3   7   2  155.26    6.04
   3  -7  -2  153.09    5.67
   3   7  -2  160.22    6.31
  -3   7   2  160.83    6.64
  -3   7   1    8.47    0.87
  -3  -7   1    7.50    1.05
  -3  -7   1    6.36    1.10
  -3   7   1    7.16    1.13
  -3  -7   0    2.13    0.60
  -3   7   0    1.45    0.57
  -3  -7   0    1.74    0.76
   3   7   1    1.99    0.54
  -3   7  -1    1.35    0.52
   3   7   1    1.46    0.62
  -3   7  -1    1.85    0.73
   3   7   2  136.49    5.70
   3   7   2  136.83    5.43
  -3   7  -3    1.41    0.67
   3   7   3    2.31    0.73
   3   7   3    1.67    0.58
  -3   7  -4    0.26    0.69
   3  -7   4    0.79    0.51
   3   7   4    1.66    0.74
   3   7   5   10.83    1.63
  -3  -7  -6   43.07    2.23
   3   7   6   47.00    3.51
  -3  -7  -7    0.80    0.70
   3   7   7    2.81    1.48
   3   7   8    0.59    1.39
  -3   8   8   10.16    2.21
  -3   8   7   13.30    2.21
  -3   8   6    2.53    1.26
   3  -8  -6   -0.14    0.75
   3   8  -5  153.77    6.52
  -3   8   5  158.71    7.16
   3  -8  -5  156.87    6.60
  -3   8   4   12.46    1.45
   3   8  -4   13.87    1.63
   3   8  -4   10.37    1.32
   3  -8  -4    9.85    1.30
  -3   8   3   49.27    2.82
   3   8  -3   43.74    2.66
  -3  -8   2    0.86    0.75
   3   8  -2    1.23    0.78
  -3   8   2    1.42    0.57
   3  -8  -2    0.07    0.42
  -3   8   2    1.14    0.74
  -3   8   1  156.11    6.00
  -3  -8   1  155.04    6.35
   3  -8  -1  160.56    5.67
  -3  -8   1  140.74    6.53
  -3   8   1  160.93    6.63
  -3  -8   0    8.54    1.04
  -3   8   0    7.08    1.03
  -3  -8   0    8.62    1.22
  -3   8  -1   97.16    4.19
  -3   8  -1  103.08    4.84
   3   8   2    1.23    0.57
   3   8   2    0.61    0.56
   3   8   3   77.63    3.86
   3   8   3   78.92    3.70
   3   8   4   13.53    1.56
  -3   8  -4   14.59    1.59
   3  -8   5  108.10    4.45
   3   8   5  105.71    5.45
   3   8   6    1.14    1.18
  -3  -8  -7   10.17    1.17
   3   8   7   13.28    2.15
   3   8   8    9.45    2.11
  -3   9   8    4.23    1.85
  -3   9   7    6.76    1.81
  -3   9   6   35.27    3.09
   3   9  -5   84.44    4.24
  -3   9   5   80.49    4.64
  -3   9   4    2.16    0.98
   3   9  -4    1.71    0.92
   3   9  -4    1.68    0.99
  -3   9   3   15.83    1.57
   3   9  -3   16.30    1.63
  -3   9   3   19.04    1.84
  -3  -9   2   26.15    2.12
  -3   9   2   27.21    1.89
  -3  -9   2   25.60    2.03
   3  -9  -2   25.72    1.66
   3   9  -2   25.75    2.05
  -3   9   2   24.06    2.07
  -3  -9   1  129.21    5.48
   3  -9  -1  130.43    4.91
  -3   9   1  131.75    5.73
  -3  -9   0    0.32    0.51
  -3  -9   0   -0.17    0.64
  -3   9   0    0.12    0.58
  -3   9  -1   50.92    2.71
   3   9   2   23.84    1.76
   3   9   2   20.36    1.75
   3   9   3   90.31    4.38
   3   9   3   93.34    4.21
  -3   9  -4    0.59    0.80
   3   9   4   -0.17    0.69
   3  -9   5   38.20    2.31
   3   9   5   41.53    3.08
   3   9   6   26.19    2.68
  -3  -9  -7   39.56    2.44
   3   9   7   44.45    3.77
   3   9   8   -0.60    1.45
  -3  10   8  132.98    7.43
  -3  10   7   11.65    2.16
  -3  10   6    0.96    1.35
  -3  10   5    3.44    1.28
   3  10  -5    4.33    1.09
  -3  10   4  323.84   12.10
   3  10  -4  310.66   11.66
  -3  10   3    4.77    1.04
  -3  10   3    3.07    0.89
   3  10  -3    3.89    1.02
   3 -10  -3    2.43    0.78
  -3 -10   2    1.19    0.93
  -3  10   2    1.61    0.86
  -3 -10   2    1.91    0.98
   3 -10  -2    1.53    0.75
  -3  10   2    2.70    1.06
   3  10  -2    1.88    0.98
  -3 -10   1    6.67    1.07
   3 -10  -1    7.09    0.88
  -3 -10   1    5.94    1.24
  -3  10   1    7.20    1.22
  -3  10   0  506.75   18.46
  -3  10   0  536.22   18.40
  -3 -10   0  557.55   19.13
  -3  10  -1    1.01    0.63
   3  10   2    1.53    0.73
  -3  10  -2    3.51    1.03
   3  10   2    2.35    0.87
   3  10   3    0.58    0.73
   3  10   3    0.11    0.53
   3  10   4  321.00   12.22
   3 -10   5    0.34    0.68
   3  10   5    0.20    0.85
   3  10   6    1.43    1.32
   3  10   7    1.10    1.31
   3  10   8  122.06    7.07
  -3  11   8    1.26    1.73
  -3  11   7    0.28    1.29
  -3  11   6  148.51    7.42
  -3  11   5   39.19    3.13
  -3  11   4    6.56    1.38
   3  11  -4    8.67    1.35
  -3  11   3   12.44    1.56
   3  11  -3    9.95    1.50
  -3  11   3    8.20    1.25
   3 -11  -3   10.11    1.27
  -3 -11   2  390.62   14.18
  -3 -11   2  373.58   14.32
   3 -11  -2  387.04   13.50
   3  11  -2  401.23   14.26
  -3  11   2  407.25   14.16
  -3  11   2  379.38   13.90
  -3 -11   1  113.81    5.22
   3 -11  -1  114.83    4.78
  -3 -11   1  115.71    5.78
  -3  11   1  116.87    5.39
  -3  11   0   21.08    2.03
  -3 -11   0   17.81    2.06
  -3  11   0   21.05    2.03
  -3  11  -1    9.82    1.25
   3  11   2  374.74   13.17
  -3  11  -2  351.29   12.90
   3  11   3   97.79    4.74
   3  11   3   92.87    4.30
   3  11   4   17.95    1.98
   3  11   5    3.99    1.36
   3 -11   5    2.28    0.85
   3  11   6  117.45    6.32
   3  11   7   27.53    3.09
   3  11   8    7.20    2.05
  -3  12   8   -0.33    1.51
  -3  12   7   16.78    2.56
  -3  12   6    5.06    1.57
  -3  12   5   47.54    3.53
  -3  12   4    2.66    1.03
   3  12  -4    3.22    1.06
   3  12  -3   51.05    3.44
   3 -12  -3   57.26    3.22
  -3  12   3   52.05    3.31
  -3  12   2    0.15    0.66
  -3 -12   2    1.58    0.99
  -3 -12   2    1.37    1.04
   3 -12  -2    0.70    0.63
  -3  12   2    0.95    0.88
   3  12  -2    0.50    0.92
  -3 -12   1   36.18    2.55
   3 -12  -1   43.27    2.42
  -3 -12   1   37.02    2.96
  -3  12   1   36.12    2.67
  -3  12   0   18.34    1.92
  -3 -12   0   13.42    1.90
  -3  12  -1  105.43    4.93
   3  12   2   13.08    1.60
  -3  12  -2   15.28    1.63
   3  12   3    3.29    1.00
  -3  12  -3    4.52    1.10
   3  12   3    3.80    0.89
   3  12   4    1.90    0.95
   3  12   4    2.20    0.67
   3 -12   5   65.06    3.61
   3  12   5   63.69    4.17
   3  12   6   15.07    2.24
   3  12   7   -0.29    1.31
   3  12   8    1.29    1.47
  -3  13   7    0.89    1.35
  -3  13   6  138.58    7.19
  -3  13   5    2.31    1.16
  -3  13   4    2.39    1.08
  -3  13   3    6.62    1.20
  -3  13   3    4.06    1.06
   3  13  -3    4.23    1.29
   3 -13  -3    5.07    1.08
  -3  13   2  388.17   13.94
   3 -13  -2  384.05   13.44
  -3  13   2  401.57   13.99
   3 -13  -1    8.50    1.12
  -3 -13   1    7.55    1.52
  -3  13   1    5.83    1.22
  -3 -13   0   -0.92    0.93
  -3  13   0   -0.19    0.94
  -3  13  -1   12.80    1.57
   3  13   2  416.77   14.70
  -3  13  -2  384.97   14.25
   3  13   3    3.90    0.92
   3  13   3    1.13    0.63
   3  13   4    0.20    0.91
   3  13   4    0.19    0.54
   3  13   5    7.37    1.62
   3  13   6  168.17    8.18
   3  13   7    0.59    1.37
  -3  14   7    1.53    1.53
  -3  14   6    4.53    2.00
  -3  14   5    1.44    1.20
  -3  14   4    4.21    1.29
  -3  14   4    3.92    1.14
   3 -14  -4    4.14    1.15
  -3  14   3    0.19    0.83
   3 -14  -3    0.16    0.88
  -3  14   3   -0.17    0.97
   3  14  -3    0.20    0.98
  -3  14   2    6.55    1.32
  -3 -14   2    5.29    1.65
   3 -14  -2    4.55    1.14
  -3  14   2    6.00    1.60
   3 -14  -1    0.26    0.63
  -3 -14   1    1.18    1.05
  -3  14   1    0.34    0.78
  -3 -14   0   27.37    2.75
  -3  14   0   25.56    2.50
  -3  14  -1    2.72    1.03
  -3 -14  -1    1.33    1.05
   3  14   2    4.98    1.46
  -3  14  -2    9.01    1.73
   3  14   3    0.96    0.92
   3  14   3    0.91    0.68
   3  14   4    4.73    1.32
   3  14   4    4.02    0.85
   3  14   5    4.33    1.59
   3  14   6    9.27    2.12
   3  14   7    1.22    1.58
  -3  15   7   22.67    3.04
  -3  15   6  600.20   22.24
  -3  15   5    1.51    1.15
  -3  15   4    3.80    1.40
  -3  15   4    4.18    1.18
   3 -15  -4    4.29    1.16
  -3  15   3   38.95    3.03
   3 -15  -3   42.83    2.98
  -3  15   3   43.50    3.01
  -3  15   2 1030.34   34.18
  -3 -15   2  950.59   34.65
   3 -15  -2 1039.28   33.61
  -3  15   2 1029.35   33.87
   3 -15  -1   21.68    1.90
  -3 -15   1   19.12    2.43
  -3  15   1   18.12    2.01
  -3 -15   0    3.00    1.27
  -3  15   0    2.30    1.20
  -3  15  -1   24.17    2.35
  -3 -15  -1   23.34    2.54
   3  15   2 1123.35   36.31
  -3  15  -2 1045.36   35.72
   3  15   3   29.29    2.65
   3  15   3   28.44    2.21
   3  15   4    2.02    1.12
   3  15   4    2.06    0.77
   3  15   5    2.02    1.33
   3  15   6  645.73   23.69
   3  15   7   14.43    2.51
  -3  16   7   10.02    2.33
  -3  16   6    3.51    1.98
  -3  16   5    0.26    1.11
  -3  16   4    5.00    1.27
  -3  16   4    5.11    1.42
   3 -16  -4    4.41    1.26
   3 -16  -3   13.80    1.78
  -3  16   3   15.40    2.03
  -3  16   3   15.32    1.85
  -3 -16   2    3.91    1.56
   3 -16  -2    2.71    1.28
  -3  16   2    7.07    1.61
  -3  16   2    5.72    1.53
  -3 -16   1   12.99    2.08
   3 -16  -1   14.30    1.65
  -3 -16   0   12.45    2.09
  -3  16   0   15.84    2.13
  -3  16  -1    7.65    1.59
  -3 -16  -1    4.32    1.43
   3  16   3   27.63    2.72
   3  16   4    3.54    1.37
   3  16   4    2.88    0.83
   3  16   5    1.32    1.29
   3  16   6    7.61    2.17
   3  16   7   18.99    2.82
  -3  17   7   -0.33    1.85
  -3  17   6  314.92   13.53
   3 -17  -5    5.76    1.55
  -3  17   5    5.99    1.51
   3 -17  -4    1.23    1.16
  -3  17   4    1.23    1.02
  -3  17   4    1.29    1.04
  -3  17   3    7.12    1.58
   3 -17  -3    7.90    1.53
  -3  17   3    5.24    1.28
  -3  17   2  726.61   25.47
  -3 -17   2  694.88   26.00
   3 -17  -2  745.14   24.85
  -3 -17   1    4.05    1.47
   3 -17  -1    1.98    0.94
  -3 -17   0    8.02    1.81
  -3  17  -1   16.12    2.28
  -3 -17  -1   20.34    2.54
   3  17   3   -0.24    1.04
   3  17   4    8.30    1.76
   3  17   4    6.02    1.03
   3  17   5   19.82    2.64
   3  17   6  299.70   13.03
   3  17   7    1.00    1.58
  -3  18   7   24.60    3.34
  -3  18   6    0.32    1.69
  -3  18   5   19.57    2.73
   3 -18  -5   17.17    2.32
  -3  18   4    1.56    1.28
  -3  18   4    0.94    1.04
   3 -18  -4    0.65    1.19
  -3  18   3   50.06    3.89
   3 -18  -3   61.83    3.82
  -3 -18   2   -0.29    1.31
   3 -18  -2    0.36    0.85
   3 -18  -1   29.34    2.49
  -3 -18   1   30.78    3.16
  -3 -18   0    5.27    1.60
  -3 -18  -1   52.46    4.19
  -3 -18  -2    5.93    1.63
   3  18   3   24.38    2.78
   3  18   4    0.79    1.28
   3  18   4    0.93    0.75
   3  18   5   32.52    3.34
   3  18   6   10.18    2.37
  -3  19   6   39.64    4.02
   3 -19  -6   39.20    3.55
  -3  19   5   51.58    4.27
   3 -19  -5   42.52    3.58
  -3  19   4    4.89    1.62
  -3  19   4    2.85    1.30
   3 -19  -4    1.58    1.29
  -3  19   3   43.24    3.71
   3 -19  -3   47.28    3.35
  -3 -19   2  125.84    7.18
   3 -19  -2  132.17    6.25
   3 -19  -1   90.57    4.93
  -3 -19   1  101.96    6.03
  -3 -19   0    8.59    1.86
  -3 -19  -1   34.33    3.41
  -3 -19  -2  121.16    6.80
   3  19   3   95.27    5.78
   3  19   4    9.19    1.95
   3  19   4    6.45    1.15
   3  19   5   10.87    2.37
   3  19   6   29.16    3.48
  -3  20   6    1.36    1.58
   3 -20  -6    0.26    1.45
  -3  20   5    1.55    1.52
   3 -20  -5    0.76    1.39
  -3  20   4  138.25    7.33
   3 -20  -4  126.56    6.68
  -3  20   3    0.83    1.15
   3 -20  -3    1.45    1.19
  -3 -20   2    2.51    1.43
   3 -20  -2   -0.20    0.97
   3 -20  -1    7.94    1.58
  -3 -20   1    6.02    1.78
  -3 -20   0  216.38   10.17
  -3 -20  -1    5.89    1.71
  -3 -20  -2    4.84    1.87
   3  20   3   14.82    2.49
   3  20   4  123.40    7.06
   3  20   4  125.52    5.50
   3  20   5    5.75    1.84
   3  20   6    3.11    1.90
  -3  21   6   44.82    4.47
  -3  21   5   72.96    5.35
   3 -21  -5   70.41    4.89
  -3  21   4    2.39    1.55
   3 -21  -4    5.42    1.72
  -3  21   3   34.45    3.46
   3 -21  -3   32.46    2.99
  -3 -21   2   42.11    3.98
   3 -21  -2   43.97    3.32
   3 -21  -1  130.17    6.49
  -3 -21   1  137.10    7.58
  -3 -21   0    3.05    1.48
  -3 -21  -1   53.25    4.47
  -3 -21  -2   37.79    3.81
   3  21   3  101.51    6.31
  -3 -21  -3   94.38    6.14
   3  21   4    1.24    1.61
   3  21   4    0.68    0.80
   3  21   5   30.97    3.67
   3  21   6   35.33    4.03
  -3  22   5   74.80    5.58
   3 -22  -5   68.08    4.90
  -3  22   4    8.76    2.29
   3 -22  -4   12.05    2.13
  -3  22   3   27.22    3.24
   3 -22  -3   34.90    3.07
  -3 -22   2    0.67    1.55
   3 -22  -2    0.65    1.21
   3 -22  -1  102.23    5.65
  -3 -22   1  113.77    6.77
  -3 -22   0   39.24    3.80
  -3 -22  -1   44.33    4.08
  -3 -22  -2    1.00    1.59
   3  22   3   58.24    4.81
  -3 -22  -3   62.27    4.91
   3  22   4   11.41    2.35
   3  22   5   38.23    4.06
  -3  23   5    1.77    1.64
   3 -23  -5    1.11    1.57
  -3  23   4   -0.98    1.72
   3 -23  -4   -0.74    1.26
  -3  23   3    9.62    2.20
   3 -23  -3   11.74    1.99
  -3 -23   2  141.21    7.79
   3 -23  -2  115.62    6.31
   3 -23  -1   10.14    1.90
  -3 -23   1   12.98    2.40
  -3 -23   0    2.29    1.72
  -3 -23  -1    7.83    2.07
  -3 -23  -2  112.63    7.00
   3  23   3   11.21    2.54
  -3 -23  -3   13.77    2.68
   3  23   4    0.34    1.75
   3  23   5    2.55    1.76
  -3  24   5   20.48    3.24
   3 -24  -5   23.54    2.95
  -3  24   4   27.23    3.55
   3 -24  -4   22.55    2.78
  -3  24   3    1.67    1.65
   3 -24  -3    2.91    1.46
  -3 -24   2    1.77    1.77
   3 -24  -2   -0.24    1.22
   3 -24  -1   15.12    2.25
  -3 -24   1   15.74    2.74
  -3 -24   0   25.59    3.33
  -3 -24  -1    7.69    2.14
  -3 -24  -2   -0.71    1.58
   3  24   3    1.42    1.72
  -3 -24  -3    1.08    1.63
   3  24   4   25.85    3.52
  -3 -24  -4   27.91    3.53
   3 -25  -4    1.30    1.47
  -3  25   4    0.35    1.75
  -3  25   3    9.41    2.42
   3 -25  -3   12.29    2.23
   3 -25  -2    4.17    1.54
  -3 -25   2    6.54    2.09
   3 -25  -1   53.03    4.02
  -3 -25   1   52.94    4.76
  -3 -25   0   -1.04    1.47
  -3 -25  -1   15.99    2.67
  -3 -25  -2    1.45    1.59
   3  25   3   44.97    4.64
  -3 -25  -3   42.12    4.38
   3  25   4   -0.37    1.74
  -3  26   4   39.08    4.28
   3 -26  -4   37.10    3.60
   3 -26  -3   11.02    2.10
  -3  26   3    6.52    2.27
  -3 -26   2    0.37    1.73
   3 -26  -2   -1.27    1.38
   3 -26  -1    8.21    1.87
  -3 -26   1    3.24    1.87
  -3 -26   0   68.66    5.42
  -3 -26  -1   10.46    2.34
  -3 -26  -2    0.73    1.63
   3  26   3    5.80    2.16
   3 -27  -4    1.39    1.63
  -3  27   3    5.63    2.29
   3 -27  -3    2.64    1.62
  -3 -27   2   10.98    2.48
   3 -27  -2    7.63    1.97
   3 -27  -1   -1.06    1.52
  -3 -27   1    1.11    1.82
  -3 -27   0    7.48    2.26
  -3 -27  -1    1.78    1.75
   3  27   3   -0.80    1.94
   3 -28  -3    2.47    1.69
   3 -28  -2   -0.27    1.56
   3 -28  -1    0.27    1.41
   3 -29  -3    3.10    1.70
   3 -29  -2  218.25   10.22
   3 -29  -1   -0.28    1.59
   4   0  -8   80.73    5.76
   4   0  -7    2.01    1.40
   4   0  -6    0.28    1.12
   4   0  -6    1.71    1.26
   4   0  -5   -0.25    1.05
   4   0  -5   -0.30    0.97
   4   0  -5    0.47    0.99
   4   0  -4  376.58   14.58
   4   0  -4  379.09   13.31
   4   0  -4  374.00   12.44
   4   0  -4  376.63   14.55
   4   0  -3    1.16    0.74
   4   0  -3    1.07    0.48
   4   0  -3    0.06    0.27
   4   0  -3   -0.21    0.75
   4   0  -2    7.45    1.24
   4   0  -2    9.20    0.79
   4   0  -2    9.97    1.45
   4   0  -1   -0.39    0.59
   4   0  -1    0.18    0.59
   4   0   0  750.22   24.62
   4   0   1    0.71    0.35
  -4   0  -1   -0.32    0.74
   4   0   1   -0.16    0.60
  -4   0  -2    2.93    0.48
  -4   0  -2    1.89    0.86
  -4   0  -3   -0.16    0.53
  -4   0  -3   -0.15    0.78
  -4   0  -4  493.57   16.65
  -4   0  -4  479.28   17.12
  -4   0  -5   -0.16    0.82
   4  -1  -8   62.05    4.93
   4   1  -8   54.07    4.73
   4   1  -8   60.01    4.48
   4   1  -7   17.01    2.46
   4  -1  -7   21.91    2.58
   4  -1  -6    0.86    1.38
   4   1  -6    2.80    1.35
   4   1  -6    1.75    1.16
   4  -1  -6    1.19    1.13
   4  -1  -5    0.52    0.96
   4   1  -5    3.03    1.28
   4  -1  -5    0.74    0.88
   4   1  -5    1.80    0.90
   4   1  -5    1.91    1.14
   4  -1  -5    1.83    1.12
   4  -1  -4  202.45    9.18
   4   1  -4  204.55    9.16
   4  -1  -4  211.01    8.02
   4  -1  -4  211.24    7.15
   4   1  -4  211.83    8.07
   4   1  -4  203.75    7.29
   4   1  -4  208.40    9.19
   4  -1  -4  198.11    9.00
   4   1  -3   68.16    3.98
   4  -1  -3   63.21    3.03
   4   1  -3   65.72    3.10
   4   1  -3   62.39    2.55
   4   1  -3   66.31    4.13
   4  -1  -3   69.93    4.13
   4   1  -2   21.50    1.99
   4  -1  -2   23.87    1.37
   4   1  -2   25.07    1.41
   4   1  -2   25.17    2.39
   4  -1  -2   25.57    2.32
   4   1  -1    0.26    0.55
   4   1  -1    0.55    0.65
   4  -1  -1    0.36    0.62
   4   1   0  287.06   10.53
  -4   1   0  320.96   11.50
   4   1   1   86.97    3.47
  -4   1  -1   82.84    4.37
   4   1   1   84.21    4.38
   4  -1   1   92.99    4.56
   4  -1   1   80.62    3.46
  -4   1  -2   46.85    2.05
  -4  -1  -2   45.61    2.97
  -4   1  -2   45.04    2.97
  -4  -1  -3    0.08    0.55
  -4   1  -3    0.33    0.53
  -4  -1  -3    0.15    0.73
  -4   1  -3   -0.16    0.71
  -4  -1  -4  130.19    5.50
  -4   1  -4  138.11    5.58
  -4   1  -4  128.51    5.99
  -4  -1  -4  129.49    5.85
  -4  -1  -5   32.85    2.53
  -4  -1  -5   37.17    2.59
  -4   1  -5   38.22    2.59
  -4   1  -5   36.49    2.73
   4  -2  -8    6.18    2.17
   4   2  -8    8.02    2.29
   4   2  -8    4.34    1.75
   4   2  -7    1.32    1.36
   4  -2  -7    0.93    1.20
   4   2  -6   77.31    5.02
   4  -2  -6   67.54    4.42
   4  -2  -5    1.58    1.27
   4   2  -5    1.49    1.16
   4  -2  -5    2.20    0.98
   4   2  -5    1.84    0.72
   4  -2  -5    1.32    1.10
   4   2  -5    1.67    0.99
   4   2  -4    3.28    1.38
   4  -2  -4    2.95    0.94
   4   2  -4    2.99    0.72
   4  -2  -4    4.17    1.30
   4   2  -4    2.72    1.04
   4   2  -3    0.19    0.53
   4   2  -3    2.26    0.82
   4  -2  -3    0.88    0.51
   4   2  -3   -0.43    0.76
   4  -2  -3   -0.40    0.94
   4   2  -3    0.33    0.41
   4   2  -2  204.21    8.46
   4   2  -2  209.91    7.33
   4   2  -2  207.31    8.99
   4  -2  -2  217.40    8.91
   4   2  -1    5.52    0.95
   4   2  -1    6.30    0.46
  -4  -2   1    6.14    0.55
   4   2  -1    5.37    1.12
   4  -2  -1    7.34    1.28
   4   2   0   -0.66    0.80
  -4   2   0    1.65    0.88
  -4   2  -1   12.25    1.56
   4   2   1    9.20    1.34
   4  -2   2  169.58    5.94
  -4   2  -2  183.72    6.20
  -4  -2  -2  179.99    7.39
  -4   2  -2  180.07    7.48
   4   2   2  173.59    7.37
  -4  -2  -3    7.48    0.93
  -4  -2  -3    6.27    1.15
   4   2   3    6.72    0.97
  -4   2  -3    6.13    0.89
  -4   2  -3    8.32    1.37
  -4  -2  -4    0.11    0.76
  -4   2  -4    0.79    0.90
  -4  -2  -4    0.74    0.82
  -4   2  -4    1.01    1.08
  -4  -2  -5   22.57    2.01
  -4   2  -5   22.41    1.98
  -4  -2  -5   22.14    2.02
  -4   2  -5   24.12    2.25
   4  -3  -8  141.84    8.04
   4   3  -8  124.92    7.63
   4  -3  -7   60.33    4.12
   4   3  -6    6.09    1.76
   4  -3  -6    7.92    1.60
   4   3  -5   46.96    3.74
   4  -3  -5   51.24    3.14
   4   3  -5   49.75    2.68
   4   3  -5   51.71    3.21
   4  -3  -5   50.76    3.59
  -4   3   5   50.16    3.29
   4   3  -4  210.46    9.48
   4  -3  -4  232.22    8.54
   4   3  -4  225.29    7.97
   4   3  -4  221.30    8.48
   4  -3  -4  215.07    9.36
  -4   3   4  214.23    8.57
   4  -3  -3  122.33    4.84
   4   3  -3  107.97    5.64
   4   3  -3  121.04    4.87
   4   3  -3  112.90    4.49
   4  -3  -3  121.35    5.89
  -4   3   3  117.09    4.85
   4   3  -2   48.45    3.08
   4   3  -2   47.28    2.22
   4   3  -2   43.05    3.25
   4  -3  -2   41.73    3.08
  -4   3   2   45.84    2.18
   4   3  -1   31.99    2.17
   4   3  -1   25.50    2.38
  -4  -3   1   30.47    1.60
   4   3  -1   31.39    1.38
   4  -3  -1   28.42    2.40
  -4   3   1   30.89    1.30
   4   3   0  260.72    9.39
  -4   3   0  270.98   10.24
   4  -3   0  244.71   10.13
  -4   3  -1  121.11    4.21
   4   3   1  129.80    4.30
   4   3   1  130.67    5.89
  -4   3  -1  132.60    5.88
  -4   3  -2   51.01    2.27
  -4   3  -2   54.54    3.34
   4   3   2   50.80    2.37
   4   3   2   48.75    3.09
  -4   3  -3    2.31    0.68
   4   3   3    2.54    0.70
  -4   3  -3    2.55    0.95
  -4  -3  -3    1.56    0.62
  -4  -3  -4  210.09    8.48
  -4  -3  -4  214.09    8.24
  -4   3  -4  214.26    8.21
  -4   3  -4  230.50    8.98
   4   3   4  217.65    8.44
  -4  -3  -5   67.44    3.79
  -4   3  -5   76.58    3.92
  -4  -3  -5   68.95    3.75
   4   3   5   74.24    4.10
   4  -4  -7    3.03    1.35
   4   4  -6   -0.28    1.34
  -4   4   6   -0.21    0.91
   4  -4  -6    2.14    1.24
   4   4  -5   36.56    3.26
   4   4  -5   37.78    2.33
   4  -4  -5   39.68    3.13
  -4   4   5   41.61    2.87
   4  -4  -4   82.20    4.00
   4   4  -4   76.49    4.71
   4   4  -4   83.17    3.63
   4   4  -4   80.42    4.00
   4  -4  -4   76.10    4.52
  -4   4   4   76.65    3.99
   4   4  -3    3.90    1.04
  -4   4   3    3.54    0.77
   4   4  -3    4.31    0.90
   4   4  -3    5.13    0.81
   4  -4  -3    3.49    1.10
   4   4  -2    0.77    0.48
  -4   4   2    1.25    0.46
   4   4  -2    0.16    0.63
   4  -4  -2   -0.36    0.82
   4   4  -1   64.98    3.37
  -4  -4   1   58.30    2.77
  -4   4   1   62.85    2.40
   4   4  -1   59.61    2.43
   4  -4  -1   61.49    3.69
   4   4   0   92.05    3.37
  -4   4   0  108.79    3.72
  -4   4   0  109.07    5.12
   4   4   0  103.83    5.13
   4   4   1    3.98    0.48
  -4   4  -1    3.02    0.43
  -4   4  -1    3.36    0.99
   4   4   1    3.51    0.97
   4   4   2    1.47    0.53
  -4   4  -2    1.51    0.45
  -4   4  -2    1.20    0.95
   4   4   2    1.24    0.66
  -4   4  -3   46.13    2.50
   4   4   3   51.24    2.70
  -4   4  -3   50.15    3.28
  -4  -4  -4   95.36    4.34
  -4   4  -4   93.01    4.29
   4   4   4   90.83    4.48
  -4  -4  -5    0.29    0.98
  -4   4  -5    0.57    0.86
   4   4   5   -0.34    0.93
   4   4   6    3.37    1.32
   4  -5  -7    0.42    1.09
  -4   5   7   -0.50    1.37
   4   5  -6    1.41    1.43
  -4   5   6    0.64    1.04
   4  -5  -6    0.84    1.05
   4   5  -5   44.94    3.65
   4   5  -5   51.22    2.83
   4  -5  -5   47.06    3.42
  -4   5   5   49.54    3.26
   4  -5  -4  397.28   13.84
   4   5  -4  372.98   14.83
   4   5  -4  380.57   13.37
   4   5  -4  396.16   13.86
  -4   5   4  382.37   13.90
   4  -5  -4  407.06   14.74
  -4   5   3   -0.11    0.59
   4   5  -3    0.20    0.62
   4   5  -3    0.19    0.76
   4   5  -3    0.45    0.58
   4  -5  -3    0.19    0.74
   4   5  -2    0.81    0.48
   4   5  -2    0.80    0.73
  -4   5   2    0.53    0.42
   4  -5  -2    0.71    0.78
  -4   5   1   31.49    1.50
   4  -5  -1   34.28    2.55
  -4   5   1   35.16    2.66
  -4   5   0  606.72   19.96
  -4   5   0  653.19   20.30
   4   5   0  650.56   22.12
  -4   5   0  669.98   21.93
   4   5   1    0.89    0.36
   4   5   1    1.18    0.72
  -4   5  -1   -0.34    0.76
   4   5   2    0.60    0.42
  -4   5  -2    0.59    0.41
  -4   5  -2    0.18    0.85
   4   5   2    0.63    0.69
   4   5   3    1.18    0.66
  -4   5  -3    1.58    0.87
  -4   5  -3    1.02    0.60
  -4   5  -4  348.01   12.29
   4   5   4  340.06   12.55
   4   5   5    4.17    1.13
  -4   5  -5    1.29    0.80
   4   5   6    6.94    1.50
   4   5   7   -0.50    1.42
  -4   6   7    4.58    1.55
   4  -6  -7    2.37    1.31
   4   6  -6   18.18    2.60
   4  -6  -6   16.77    2.05
  -4   6   6   17.76    2.20
   4   6  -5   64.60    4.48
   4   6  -5   66.85    3.45
  -4   6   5   61.82    3.82
   4  -6  -5   70.59    4.17
   4   6  -4  196.23    8.50
   4   6  -4  173.36    6.98
   4   6  -4  176.63    7.33
  -4   6   4  188.96    7.54
   4  -6  -4  178.89    7.89
   4   6  -3   13.28    1.77
   4  -6  -3   12.63    0.78
  -4   6   3   13.58    1.35
   4   6  -3   11.39    1.25
   4   6  -3   11.01    1.24
   4  -6  -3   13.57    1.69
  -4   6   2   14.68    1.19
  -4   6   2   16.28    1.87
   4   6  -2   15.86    1.27
   4  -6  -2   12.34    1.63
  -4   6   1  141.19    5.12
  -4  -6   1  129.90    5.73
  -4   6   0  427.61   14.12
  -4  -6   0  435.05   15.01
   4   6   0  405.79   15.54
   4   6   1   20.91    1.28
   4   6   1   21.68    2.02
  -4   6  -1   22.09    2.16
   4   6   2   25.97    1.63
   4   6   2   23.01    2.08
  -4   6  -2   26.14    2.35
  -4   6  -2   23.74    1.51
   4   6   3  108.64    4.70
  -4   6  -3  106.03    4.50
   4   6   3  105.05    5.06
  -4   6  -4  291.65    8.30
   4   6   4  281.74    8.55
   4   6   5   12.49    1.71
   4   6   6   28.98    2.71
   4   6   7   27.89    2.96
  -4   7   8   11.09    2.37
  -4   7   7  102.93    5.88
   4  -7  -6    0.95    1.08
  -4   7   6    2.17    1.21
  -4   7   5    6.69    1.42
   4   7  -5    8.37    1.27
   4  -7  -5    7.59    1.48
   4   7  -4   11.73   10.87
   4   7  -4   12.40    1.44
  -4   7   4   11.41    1.54
   4  -7  -4   10.43    1.62
   4  -7  -3  257.84    8.72
  -4   7   3  267.79    9.73
   4   7  -3  273.31    9.71
   4  -7  -3  278.58   10.59
   4   7  -3  251.12    9.60
  -4   7   2   14.92    1.26
  -4   7   2   13.29    1.76
   4  -7  -2   12.23    1.62
  -4   7   1    1.39    0.49
  -4  -7   1    0.53    0.73
  -4   7   1    0.89    0.87
  -4  -7   0   12.81    1.40
  -4   7   0   13.71    1.23
   4   7   0   14.80    1.79
  -4  -7   0   11.11    1.49
  -4  -7  -1  391.23   12.86
   4   7   1  359.14   12.42
  -4   7  -1  363.37   12.64
   4   7   1  363.15   13.79
  -4   7  -1  399.71   14.06
  -4  -7  -2   26.84    1.59
   4   7   2   24.36    1.67
   4   7   2   25.92    2.19
  -4   7  -3    4.14    0.81
  -4  -7  -3    5.11    0.61
   4   7   3    5.99    0.96
   4   7   3    5.52    1.16
   4   7   4   19.62    1.84
  -4   7  -4   19.61    1.75
   4   7   5  234.47    9.58
   4   7   6   10.12    1.80
   4   7   7    5.26    1.62
   4   7   8    9.52    2.18
  -4   8   8   19.69    2.78
  -4   8   7    2.05    1.47
  -4   8   6   97.60    5.33
   4  -8  -6   91.86    4.98
   4   8  -5   17.35    1.77
  -4   8   5   18.70    2.03
   4  -8  -5   14.52    1.85
   4   8  -4   27.62    2.12
  -4   8   4   22.85    2.07
   4  -8  -4   22.62    2.22
   4   8  -4   28.44   20.43
  -4   8   3    2.25    0.79
   4   8  -3    3.40    0.90
   4  -8  -3    1.99    0.53
   4   8  -3    4.71    1.05
  -4   8   2  269.16    9.87
  -4   8   2  294.21   11.09
  -4  -8   1   43.58    2.72
  -4   8   1   39.19    2.06
  -4  -8   1   33.81    2.52
  -4   8   1   36.56    2.79
  -4  -8   0   28.44    2.09
  -4   8   0   30.09    1.98
  -4  -8   0   31.17    2.45
   4   8   1    0.50    0.50
  -4  -8  -1    0.69    0.53
  -4   8  -1    0.28    0.53
   4   8   1    0.36    0.73
  -4   8  -1    0.18    0.83
  -4  -8  -2  259.28    8.86
   4   8   2  244.30    9.04
   4   8   2  245.73    9.84
  -4  -8  -3   32.17    1.65
   4   8   3   32.56    2.23
   4   8   3   33.21    2.38
  -4   8  -3   28.72    2.04
  -4  -8  -4   37.94    1.65
   4   8   4   43.17    2.86
  -4   8  -4   42.10    2.62
   4   8   5    0.38    0.89
   4   8   6   81.12    4.82
   4   8   7    9.37    1.91
   4   8   8   40.11    3.89
  -4   9   8    9.83    2.24
  -4   9   7   27.20    2.99
  -4   9   6    6.49    1.57
   4   9  -5    0.58    0.88
  -4   9   5   -0.19    0.89
  -4   9   4   21.77    2.04
   4   9  -4   23.55    2.13
   4  -9  -4   18.72    1.58
   4   9  -4   21.50    2.00
  -4   9   3   53.81    3.12
   4  -9  -3   54.01    2.52
   4   9  -3   60.19    3.30
  -4  -9   2   35.91    2.74
  -4   9   2   36.48    2.26
  -4   9   2   42.12    3.02
  -4   9   1    0.18    0.49
  -4  -9   1    0.44    0.70
  -4  -9   1   -0.17    0.74
  -4   9   1    0.92    0.86
  -4  -9   0   32.87    2.34
  -4   9   0   37.32    2.45
   4   9   1   74.63    3.48
  -4  -9  -1   81.00    3.66
  -4   9  -1   74.66    3.57
   4   9   1   76.01    4.30
  -4  -9  -2   72.03    3.19
   4   9   2   67.13    3.35
   4   9   2   66.91    3.88
  -4  -9  -3    0.88    0.47
   4   9   3    0.79    0.64
   4   9   3   -0.15    0.72
   4   9   4   38.37    2.72
  -4   9  -4   39.34    2.65
   4   9   5   58.01    3.73
   4   9   6   37.28    3.21
   4   9   7    1.29    1.40
   4   9   8   21.12    3.01
  -4  10   8   33.24    3.68
  -4  10   7    0.27    1.36
  -4  10   6   12.80    2.06
   4  10  -5   29.06    2.40
  -4  10   5   27.87    2.64
  -4  10   4  133.14    6.18
   4  10  -4  146.89    6.30
   4 -10  -4  132.13    5.54
   4  10  -4  136.03    6.16
   4 -10  -3    3.24    0.69
  -4  10   3    4.08    0.96
   4  10  -3    4.78    1.16
  -4  10   2   37.46    2.36
   4 -10  -2   39.31    1.96
  -4 -10   2   39.13    2.74
  -4  10   2   45.80    3.13
  -4  10   1   44.24    2.55
  -4 -10   1   49.08    3.02
  -4 -10   1   46.18    3.19
  -4 -10   0  331.67   12.02
  -4  10   0  333.14   12.14
  -4 -10   0  336.08   12.92
   4  10   1   24.35    1.82
  -4 -10  -1   29.08    1.97
  -4  10  -1   26.38    1.93
   4  10   1   27.75    2.42
  -4 -10  -2   30.97    1.90
   4  10   2   29.19    2.01
  -4  10  -2   24.52    1.96
   4  10   2   23.69    2.19
   4  10   3   37.85    2.50
   4  10   3   33.25    2.59
   4  10   4  218.09    9.03
  -4  10  -4  229.69    8.84
   4  10   5   29.10    2.63
   4  10   6    5.13    1.60
   4  10   7   18.72    2.57
   4  10   8   81.42    5.60
  -4  11   8  232.12   10.85
  -4  11   7   16.04    2.46
  -4  11   6   -0.48    1.14
  -4  11   5   12.64    1.83
  -4  11   4  599.90   20.53
   4  11  -4  597.11   20.45
   4 -11  -4  563.52   19.63
   4 -11  -3   10.83    1.14
  -4  11   3   12.30    1.53
  -4  11   2    6.48    1.11
   4 -11  -2    6.85    0.85
  -4 -11   1    9.46    1.41
  -4 -11   1   11.95    1.74
  -4  11   1    8.61    1.16
  -4 -11   0  905.42   30.01
  -4 -11   0  930.17   31.16
  -4  11   0  901.34   30.24
  -4 -11  -1    8.46    1.14
  -4  11  -1    9.30    1.32
   4  11   2    6.90    1.11
  -4  11  -2    8.86    1.30
   4  11   2    7.11    1.37
   4  11   3    1.18    0.81
   4  11   3    0.47    0.69
   4  11   4  486.06   17.75
   4  11   4  522.76   17.40
  -4  11  -4  483.01   17.49
   4  11   5    4.90    1.32
   4  11   6    0.48    1.17
   4  11   7    1.91    1.39
   4  11   8  140.52    7.74
  -4  12   7    4.27    1.55
  -4  12   6   12.14    2.07
  -4  12   5    0.21    1.03
   4 -12  -4   13.60    1.62
   4  12  -4   14.26    1.98
  -4  12   4   12.79    1.81
  -4  12   3    2.36    0.89
   4 -12  -3    1.88    0.70
  -4  12   2   17.80    1.73
  -4 -12   2   17.84    2.00
   4 -12  -2   20.18    1.49
  -4 -12   1    2.36    0.97
  -4 -12   1    2.10    1.12
  -4 -12   0   14.85    2.16
  -4  12   0   14.86    1.85
  -4 -12  -1   -0.50    0.76
  -4  12  -1   -0.42    0.79
   4  12   2   20.16    1.81
  -4  12  -2   19.48    1.86
   4  12   2   18.84    1.99
   4  12   3    0.80    0.81
   4  12   3    0.32    0.84
   4  12   4   14.61    1.71
   4  12   4   15.84    1.96
   4  12   5   -0.84    0.97
   4  12   6   10.84    2.01
   4  12   7    1.96    1.71
  -4  13   7   22.13    2.88
  -4  13   6   -0.26    1.33
  -4  13   5   20.98    2.36
   4 -13  -5   26.06    2.26
  -4  13   4  200.57    8.50
   4 -13  -4  193.18    7.81
  -4  13   3   55.12    3.54
   4 -13  -3   64.14    3.18
  -4  13   2    0.30    0.72
  -4 -13   2    2.28    1.16
   4 -13  -2    3.07    0.82
  -4 -13   1    8.75    1.70
  -4 -13   0  229.18    9.04
  -4 -13   0  242.10   10.20
  -4  13   0  227.94    9.37
  -4  13  -1   67.92    3.78
  -4 -13  -1   66.63    4.28
   4  13   2    0.31    0.75
  -4  13  -2    0.44    0.88
   4  13   2    0.74    0.94
   4  13   3    1.83    0.76
   4  13   3    1.48    0.83
   4  13   4  146.99    6.89
   4  13   4  152.28    6.42
   4  13   5   23.77    2.52
   4  13   6    2.53    1.45
   4  13   7    7.45    2.01
  -4  14   7    0.89    1.46
  -4  14   6   10.79    2.01
  -4  14   5    1.16    1.18
   4 -14  -5   -0.49    0.97
  -4  14   4   38.82    3.06
   4 -14  -4   38.96    2.71
  -4  14   3    3.35    0.96
   4 -14  -3    2.76    0.92
  -4  14   2   17.34    1.87
   4 -14  -2   20.51    1.67
  -4 -14   2   16.13    2.21
  -4 -14   1    2.85    1.23
  -4 -14   0   53.65    3.29
  -4 -14   0   56.10    4.05
  -4  14   0   50.20    3.46
  -4  14  -1    5.91    1.31
  -4 -14  -1    7.04    1.60
   4  14   2   13.03    1.72
  -4  14  -2   13.60    1.70
   4  14   2   11.85    1.72
   4  14   3    1.62    0.82
   4  14   3    0.84    0.88
   4  14   4   38.78    3.09
   4  14   4   40.27    2.69
   4  14   5    8.09    1.79
   4  14   6    2.86    1.39
   4  14   7   -1.46    1.86
  -4  15   7    6.98    2.03
  -4  15   6    0.54    1.55
  -4  15   5    1.46    1.24
  -4  15   4    7.44    1.57
   4 -15  -4    5.50    1.25
  -4  15   3   21.70    2.26
   4 -15  -3   15.77    1.64
  -4  15   2    1.60    0.90
  -4 -15   2    0.96    1.21
   4 -15  -2    1.34    0.80
  -4 -15   1   -0.25    1.01
  -4 -15   0    8.68    1.84
  -4  15   0    6.63    1.51
  -4  15  -1   17.02    2.05
  -4 -15  -1   20.11    2.50
   4  15   2    0.56    0.89
   4  15   3    3.05    1.26
   4  15   3    1.73    0.95
   4  15   4    6.82    1.59
   4  15   4    6.74    1.27
   4  15   5   13.31    2.08
   4  15   6    1.88    1.50
   4  15   7   -0.30    1.77
  -4  16   7   -4.07    2.04
  -4  16   6   10.52    2.10
  -4  16   5   20.39    2.66
  -4  16   4  102.02    5.57
   4 -16  -4   99.53    4.96
  -4  16   3    2.38    1.11
   4 -16  -3    0.98    0.90
  -4  16   2    7.96    1.49
  -4 -16   2    4.87    1.50
   4 -16  -2    8.90    1.30
  -4 -16   1   65.67    4.55
  -4 -16   0  202.19    9.40
  -4  16  -1    5.58    1.53
  -4 -16  -1    2.40    1.27
   4  16   2   12.77    1.88
   4  16   3   53.78    3.61
   4  16   3   47.99    3.33
   4  16   4  114.55    6.24
   4  16   4  128.41    5.71
   4  16   5    3.53    1.45
   4  16   6   13.74    2.27
   4  16   7   13.09    2.64
  -4  17   7   31.87    3.58
  -4  17   6    1.42    1.54
  -4  17   5    4.19    1.60
  -4  17   4  179.32    8.12
   4 -17  -4  161.98    7.20
  -4  17   3   98.22    5.50
   4 -17  -3  109.36    5.08
  -4  17   2   -0.20    1.00
  -4 -17   2    0.27    1.07
   4 -17  -2    1.58    0.86
  -4 -17   1    4.32    1.61
  -4 -17   0  229.99   10.42
  -4 -17  -1  151.58    7.90
   4  17   2    0.43    0.98
   4  17   3    0.22    0.97
   4  17   3    0.92    1.03
   4  17   4  113.39    6.28
   4  17   4  125.11    5.66
   4  17   5   78.05    5.09
   4  17   6    0.29    1.48
   4  17   7   -0.96    1.95
  -4  18   6   26.86    3.17
  -4  18   5    9.57    2.07
  -4  18   4    4.72    1.65
   4 -18  -4    3.25    1.26
  -4  18   3    8.69    1.71
   4 -18  -3    7.34    1.37
  -4  18   2   58.65    4.07
  -4 -18   2   60.25    4.56
   4 -18  -2   71.60    3.84
  -4 -18   1   23.44    2.80
  -4 -18   0    7.06    1.79
  -4 -18  -1    0.59    1.43
   4  18   2   63.90    4.21
  -4 -18  -2   56.92    4.43
   4  18   3   13.52    2.09
   4  18   3   12.69    1.78
   4  18   4    3.02    1.50
   4  18   4    4.72    1.27
   4  18   5    8.56    2.02
   4  18   6   23.82    3.17
  -4  19   6    7.78    2.08
  -4  19   5   17.06    2.56
  -4  19   4   47.67    3.89
   4 -19  -4   49.93    3.40
  -4  19   3    9.68    1.71
   4 -19  -3   10.50    1.59
  -4  19   2   19.18    2.42
   4 -19  -2   22.98    2.14
  -4 -19   2   21.39    2.84
  -4 -19   1   14.53    2.35
  -4 -19   0   72.91    5.09
  -4 -19  -1    6.47    1.78
   4  19   2   25.47    2.77
  -4 -19  -2   22.18    2.90
   4  19   3    2.23    1.31
   4  19   3    1.17    1.04
   4  19   4   43.30    3.73
   4  19   4   46.67    3.13
   4  19   5    3.16    1.83
   4  19   6   15.06    2.70
  -4  20   6    6.46    2.21
  -4  20   5   50.86    4.34
  -4  20   4   49.43    4.00
  -4  20   3    0.50    1.23
   4 -20  -3   -0.53    1.04
  -4  20   2    6.75    1.76
  -4 -20   2    5.54    1.89
   4 -20  -2    7.21    1.42
  -4 -20   1   75.52    5.24
  -4 -20   0  110.53    6.55
  -4 -20  -1   -0.64    1.43
  -4 -20  -2    2.52    1.63
   4  20   2    5.45    1.59
   4  20   3   58.28    4.38
   4  20   3   62.70    4.03
   4  20   4   73.47    5.02
   4  20   5    0.60    1.65
   4  20   6    7.22    2.15
  -4  21   5   14.64    2.68
  -4  21   4   44.67    3.87
  -4  21   3   21.27    2.70
   4 -21  -3   25.77    2.50
  -4  21   2   -0.25    1.34
  -4 -21   2   -0.32    1.60
   4 -21  -2   -0.19    1.02
  -4 -21   1    8.18    1.98
  -4 -21   0   64.84    4.99
  -4 -21  -1   35.56    3.70
  -4 -21  -2    1.32    1.60
   4  21   2    2.19    1.65
   4  21   3   -0.56    1.52
   4  21   3    0.21    1.08
  -4 -21  -3   -0.98    1.54
   4  21   4   47.27    4.10
   4  21   5   36.61    3.84
  -4  22   5    4.12    1.93
  -4  22   4   38.85    3.80
  -4  22   3   -1.38    1.74
   4 -22  -3    0.39    1.21
  -4  22   2   76.60    5.28
  -4 -22   2   92.36    6.00
   4 -22  -2   85.80    4.80
  -4 -22   1   11.69    2.38
  -4 -22   0   85.75    5.80
  -4 -22  -1    0.98    1.69
   4  22   2   87.99    5.66
  -4 -22  -2   85.63    6.04
   4  22   3    4.13    1.70
  -4 -22  -3    7.17    2.18
   4  22   4   71.33    5.26
   4  22   5   -0.98    2.14
  -4  23   5    0.33    2.02
  -4  23   4   20.77    2.97
  -4  23   3   48.78    4.27
  -4  23   2    6.46    1.89
  -4 -23   2    8.85    2.20
   4 -23  -2    6.92    1.55
  -4 -23   1    1.00    1.52
  -4 -23   0   31.86    3.60
  -4 -23  -1   95.23    6.30
  -4 -23  -2    7.82    2.36
   4  23   2   12.35    2.36
   4  23   3    5.59    1.92
  -4 -23  -3    5.00    1.91
   4  23   4   13.72    2.65
   4  23   5   54.55    4.83
  -4  24   4   27.94    3.37
  -4  24   3    2.12    1.57
  -4  24   2   -0.88    1.87
  -4 -24   2   -0.35    1.59
   4 -24  -2    1.92    1.30
  -4 -24   1   50.67    4.55
  -4 -24   0   69.97    5.34
  -4 -24  -1   -0.34    1.58
  -4 -24  -2    1.46    1.70
   4  24   2    0.32    1.61
   4  24   3   34.15    3.75
  -4 -24  -3   30.06    3.67
   4  24   4   63.88    5.21
  -4  25   4   68.19    5.40
  -4  25   3   -0.32    1.63
  -4  25   2   -0.31    1.61
   4 -25  -2    0.44    1.20
  -4 -25   2   -1.08    1.67
  -4 -25   1    1.41    1.76
  -4 -25   0  104.89    6.77
  -4 -25  -1   -0.69    1.44
  -4 -25  -2    0.74    1.91
   4  25   2   -0.99    1.85
   4  25   3   -0.68    2.00
   4  25   4   62.15    5.23
  -4  26   3   -0.98    1.83
  -4  26   2   12.38    2.48
  -4 -26   2   12.09    2.77
  -4 -26   1   -0.36    1.83
  -4 -26   0   22.97    3.25
  -4 -26  -1    2.83    1.89
   4  26   2   14.80    2.84
   4  26   3   -1.77    2.23
  -4  27   2    1.31    1.67
  -4 -27   1   -1.11    1.97
   4  27   2    0.71    2.07
   5   0  -7   51.41    4.49
   5   0  -7   54.69    4.37
   5   0  -6    5.57    1.85
   5   0  -6    3.38    1.84
   5   0  -5    0.84    1.38
   5   0  -5    1.09    1.30
   5   0  -4   -0.25    1.17
   5   0  -4    1.31    1.03
   5   0  -3   56.45    3.83
   5   0  -3   62.25    2.82
   5   0  -3   52.62    4.03
   5   0  -2    5.88    1.70
   5   0  -2   12.18    2.02
   5   0  -1    4.12    1.03
   5   0  -1    6.37    1.46
   5   0   0   -0.12    0.59
   5   0   1   41.61    2.23
   5   0   1   42.84    3.16
  -5   0  -3    1.29    0.62
  -5   0  -4   -0.31    0.76
  -5   0  -5   24.11    2.10
   5  -1  -7    3.75    1.83
   5   1  -7    4.04    2.17
   5   1  -7    2.66    1.72
   5  -1  -7    4.19    1.70
   5  -1  -6  118.58    7.07
   5   1  -6  120.69    7.02
   5   1  -6  115.18    6.88
   5  -1  -6  137.95    7.08
   5  -1  -5    0.28    1.39
   5   1  -5   -1.11    1.41
   5   1  -5    0.85    1.18
   5  -1  -5   -0.53    1.19
   5  -1  -4    2.52    1.29
   5   1  -4    5.41    1.47
   5  -1  -4    3.77    0.99
   5   1  -4    4.85    1.51
   5  -1  -4    4.90    1.54
   5  -1  -3    2.33    0.66
   5  -1  -3    1.55    0.90
   5   1  -3    0.43    0.75
   5   1  -3    1.86    0.58
   5   1  -3    1.77    1.23
   5  -1  -3    0.50    1.06
   5   1  -2  169.90    5.68
   5  -1  -2  153.76    7.31
   5   1  -2  158.38    7.32
   5   1  -2  162.20    7.88
   5  -1  -2  164.23    7.88
   5  -1  -1    0.31    0.79
   5   1  -1   -0.30    0.75
   5   1  -1    0.91    0.92
   5  -1  -1    0.23    0.96
   5  -1   0   13.00    1.41
   5   1   0   13.70    1.36
   5  -1   1    1.80    0.59
   5   1   1    2.05    0.99
  -5   1  -3    6.07    0.86
  -5  -1  -4    3.81    1.02
  -5   1  -4    3.48    0.89
  -5  -1  -5    2.01    1.05
  -5   1  -5    2.77    1.06
   5   2  -8    9.59    2.41
   5  -2  -7   -0.35    1.93
   5   2  -7    0.33    1.78
   5   2  -7    0.31    1.36
   5  -2  -7    0.28    1.30
   5  -2  -6  152.18    7.97
   5   2  -6  145.33    7.83
   5   2  -6  142.30    7.69
   5  -2  -6  131.71    7.23
   5  -2  -5   -0.29    1.44
   5   2  -5    0.28    1.28
   5   2  -5    3.46    1.56
   5  -2  -5    1.06    1.20
   5  -2  -4    6.65    1.18
   5  -2  -4    9.59    1.91
   5   2  -4    9.97    1.81
   5   2  -4    8.87    1.25
   5   2  -4    8.28    1.87
   5  -2  -4    7.16    1.76
   5  -2  -3    2.04    1.04
   5   2  -3    2.74    0.92
   5   2  -3    2.39    0.70
   5   2  -3    3.41    1.34
   5  -2  -3    1.95    1.20
   5   2  -2  284.49   10.94
   5   2  -2  268.53    9.09
   5  -2  -2  295.04   11.66
   5   2  -2  279.01   11.60
   5   2  -1    0.15    0.76
   5   2  -1    1.62    0.99
   5  -2  -1   -0.22    0.88
   5  -2   0    3.44    0.89
   5   2   0    4.73    0.89
   5   2   0    3.08    1.07
   5  -2   1   -0.09    0.49
   5   2   1    0.20    0.81
   5  -2   2  290.89    9.80
   5   2   2  309.40   11.78
  -5   2  -3    0.64    0.48
  -5   2  -4   -0.21    0.67
  -5  -2  -4    0.75    0.70
  -5  -2  -5    0.14    1.01
  -5   2  -5    1.99    1.00
   5   3  -8    7.57    2.17
   5  -3  -7    0.35    2.07
   5   3  -7   -1.00    2.22
   5   3  -7    0.31    1.64
   5  -3  -7    0.53    1.40
   5  -3  -6   22.60    3.04
   5   3  -6   17.29    2.83
   5   3  -6   16.69    2.79
   5  -3  -6   15.60    2.70
   5  -3  -5   11.50    2.18
   5   3  -5    9.81    1.92
   5   3  -5    6.73    1.79
   5  -3  -5    9.58    1.93
   5  -3  -4   62.43    3.21
   5   3  -4   59.16    4.17
   5   3  -4   62.77    3.25
   5   3  -4   55.59    4.38
   5  -3  -4   56.26    4.08
   5   3  -3    0.84    0.78
   5   3  -3   -0.26    0.62
   5   3  -3    0.80    0.99
   5  -3  -3   -0.24    1.04
   5   3  -2   44.15    3.23
   5   3  -2   40.48    1.93
   5   3  -2   45.46    3.63
   5  -3  -2   42.59    3.34
   5   3  -1    4.56    1.08
  -5  -3   1    5.83    0.61
   5  -3  -1    5.23    1.38
  -5   3   0  102.97    3.66
   5   3   0   95.38    5.41
   5   3   1    0.62    0.75
   5  -3   2   42.07    2.14
  -5   3  -2   50.52    1.98
   5   3   2   49.11    3.41
  -5   3  -3    5.07    0.81
  -5   3  -4   62.55    3.22
  -5  -3  -5    1.10    0.90
  -5   3  -5    0.13    0.98
   5   4  -8   18.08    2.82
   5  -4  -7   39.19    4.05
   5   4  -7   44.80    4.30
   5   4  -7   36.33    3.85
   5  -4  -7   44.34    3.71
   5  -4  -6  166.98    8.57
   5   4  -6  158.45    8.22
   5   4  -6  137.82    7.96
   5  -4  -6  153.25    7.73
   5   4  -5    4.10    1.51
   5   4  -5    1.80    1.34
   5  -4  -5    3.85    1.53
   5   4  -4   47.09    3.65
   5   4  -4   47.89    2.77
   5   4  -4   42.58    3.74
   5  -4  -4   43.88    3.58
   5   4  -3   91.20    5.17
   5   4  -3  101.07    4.18
   5   4  -3   95.72    5.79
   5  -4  -3   93.55    5.45
   5   4  -2  280.78   11.04
   5   4  -2  275.16    9.43
   5   4  -2  287.10   11.91
   5  -4  -2  291.24   11.59
   5   4  -1    6.22    1.19
  -5  -4   1    5.22    0.71
   5  -4  -1    6.77    1.50
  -5   4   0   61.89    2.50
  -5  -4   0   61.93    3.20
   5   4   0   66.28    4.22
   5   4   1   91.70    5.09
  -5   4  -2  282.47    9.30
   5   4   2  272.55   11.17
  -5   4  -3   40.74    2.20
  -5   4  -4   36.21    2.34
  -5   4  -5   32.77    2.47
   5   5  -8    2.31    1.84
   5  -5  -7    5.44    2.22
   5   5  -7    7.18    2.32
   5   5  -7    4.86    2.01
   5  -5  -7    6.26    1.70
   5  -5  -6   81.39    5.83
   5   5  -6   94.93    5.96
   5  -5  -6   83.19    5.34
   5   5  -5  218.22   10.03
   5  -5  -5  218.29    9.76
   5   5  -4    2.16    0.95
   5   5  -4    2.20    1.11
  -5   5   4    1.74    0.89
   5   5  -4    3.18    1.45
   5  -5  -4    1.90    1.13
   5   5  -3   22.55    2.38
   5   5  -3   24.18    1.71
   5   5  -3   23.49    2.80
   5  -5  -3   24.23    2.54
  -5   5   3   25.08    1.74
   5   5  -2  153.35    6.91
   5   5  -2  145.79    5.49
   5   5  -2  146.87    7.61
   5  -5  -2  153.73    7.33
  -5   5   2  151.47    5.45
  -5  -5   1  425.66   13.58
   5   5  -1  388.65   12.79
   5  -5  -1  408.44   15.33
  -5   5   0    3.06    0.57
   5   5   0    3.37    1.13
  -5  -5   0    3.79    0.95
   5   5   1   41.16    1.64
   5   5   1   45.64    3.30
  -5   5  -2  152.44    5.40
   5   5   2  154.50    5.54
   5   5   2  142.00    6.95
  -5   5  -3  338.59    9.51
   5   5   3  346.33    9.73
   5   5   4    3.67    0.99
  -5   5  -4    2.82    0.90
  -5   5  -5   17.48    1.90
   5   5   5   15.24    1.91
   5   6  -8   31.95    3.75
   5  -6  -7   35.20    3.33
   5  -6  -6   82.42    5.21
  -5   6   6   94.84    5.13
   5   6  -5   10.17    1.93
  -5   6   5    7.61    1.47
   5  -6  -5    9.33    1.85
   5   6  -4   72.83    4.69
   5   6  -4   66.05    3.54
   5  -6  -4   67.75    4.45
  -5   6   4   68.90    3.67
   5   6  -3   80.93    3.84
  -5   6   3   88.76    3.93
   5   6  -2  218.46    7.79
  -5   6   2  219.27    7.77
   5   6  -2  219.71   10.05
   5  -6  -2  233.53    9.71
  -5  -6   1   36.55    2.19
  -5   6   1   37.16    1.62
   5   6  -1   34.97    1.66
  -5   6   0   82.50    3.25
  -5  -6   0   88.96    4.17
   5   6   0   86.34    4.86
  -5   6  -1   62.90    2.99
   5   6   1   67.36    2.61
  -5   6  -1   66.91    2.48
   5   6   1   62.73    4.10
  -5   6  -2  209.93    7.27
   5   6   2  208.93    7.42
   5   6   2  202.35    8.88
  -5   6  -3   41.95    2.36
   5   6   3   46.82    2.55
   5   6   3   48.14    3.31
  -5   6  -4   52.49    2.93
   5   6   4   54.80    3.13
   5   6   5   14.26    1.85
   5   6   6   77.21    4.64
   5  -7  -6   38.24    3.33
  -5   7   6   37.85    3.15
  -5   7   5    5.26    1.30
   5  -7  -5    4.95    1.57
   5   7  -4   99.12    4.73
  -5   7   4  105.06    4.89
   5  -7  -4  102.82    5.67
   5   7  -3    3.24    0.88
  -5   7   3    2.88    0.82
   5  -7  -3    1.37    0.98
  -5   7   2   72.84    3.23
   5   7  -2   77.77    4.99
   5   7  -2   72.19    3.20
  -5  -7   1   14.76    1.44
  -5   7   1   12.00    0.92
   5   7   0  130.47    4.67
  -5   7   0  121.95    4.51
  -5   7   0  142.26    5.16
  -5  -7   0  140.94    6.09
   5   7   0  138.97    6.76
  -5   7  -1    0.70    0.67
  -5   7  -1    0.27    0.38
   5   7   1   -0.06    0.41
   5   7   1    0.22    0.95
   5   7   2   62.07    2.85
  -5   7  -2   61.01    2.73
   5   7   2   59.64    3.91
  -5   7  -3   29.31    1.92
   5   7   3   30.64    2.05
   5   7   3   28.32    2.55
  -5   7  -4  105.06    4.81
   5   7   4  112.82    5.11
   5   7   5    1.73    1.07
   5   7   6   27.18    2.72
  -5   8   7  144.58    7.38
  -5   8   6    1.29    1.20
   5  -8  -6    0.70    1.26
  -5   8   5   14.80    1.89
   5  -8  -5   17.80    2.36
  -5   8   4    3.62    1.11
   5  -8  -4    0.93    1.08
  -5   8   3  172.62    6.69
   5   8  -3  160.90    6.52
   5   8  -2    5.22    0.86
  -5   8   2    5.90    0.91
  -5   8   1   44.76    2.17
  -5  -8   1   48.35    2.90
   5   8  -1   44.47    3.62
  -5   8   0    3.00    0.57
   5   8   0    2.88    1.23
  -5   8   0    2.80    0.75
  -5  -8   0    1.91    0.97
   5   8   0    2.56    0.59
   5   8   1  130.65    4.94
  -5   8  -1  130.76    5.28
   5   8   1  132.83    6.56
   5   8   2    6.65    0.95
  -5   8  -2    6.65    0.85
   5   8   2    3.99    1.37
   5   8   3   70.89    3.52
  -5   8  -3   68.20    3.35
   5   8   3   72.05    4.20
   5   8   4    2.08    1.01
  -5   8  -4    1.12    0.88
   5   8   5   59.73    3.72
   5   8   6    1.06    1.19
   5   8   7   60.28    4.39
  -5   9   7   11.29    2.33
  -5   9   6   25.86    2.67
  -5   9   5   98.08    5.14
  -5   9   4   59.36    3.51
   5   9  -3   12.24    1.38
  -5   9   3   12.20    1.42
  -5   9   2   50.52    2.69
  -5   9   1  168.08    6.21
  -5  -9   1  165.51    7.07
   5   9  -1  171.86    8.21
  -5   9   0  107.31    4.36
  -5  -9   0  123.77    5.81
  -5   9   0  119.33    4.93
   5   9   0  116.31    6.19
   5   9   1    2.82    0.67
  -5   9  -1    3.62    0.89
   5   9   1    4.04    1.35
  -5   9  -2   56.28    3.14
   5   9   2   59.51    2.95
   5   9   2   60.41    3.97
  -5   9  -2   58.60    2.83
   5   9   3  175.11    7.04
  -5   9  -3  180.88    6.89
   5   9   3  176.57    7.86
   5   9   4   67.23    3.65
  -5   9  -4   58.39    3.37
   5   9   5   -0.19    1.00
   5   9   6   34.82    3.05
   5   9   7  104.89    6.04
  -5  10   7   -0.26    1.61
  -5  10   6   99.78    5.57
  -5  10   5   10.57    1.76
  -5  10   4  109.72    5.31
   5  10  -3    7.64    1.22
  -5  10   3    8.80    1.28
  -5  10   2  159.73    6.33
  -5  10   1   21.40    1.56
  -5 -10   1   23.90    2.19
  -5 -10   0  110.63    5.29
  -5 -10   0  114.09    5.80
  -5  10   0  114.10    4.98
   5  10   0  111.82    6.14
  -5 -10  -1    2.83    0.92
   5  10   1    2.44    0.73
  -5  10  -1    4.43    0.97
   5  10   1    3.92    1.25
  -5 -10  -2  159.32    6.11
   5  10   2  145.25    6.01
  -5  10  -2  151.72    6.32
   5  10   2  154.43    7.26
  -5 -10  -3   20.52    1.52
   5  10   3   26.74    2.03
   5  10   3   25.90    2.42
  -5  10  -3   21.99    1.81
   5  10   4   58.96    3.48
  -5  10  -4   51.87    3.16
   5  10   5    0.38    1.10
   5  10   6   84.88    5.07
   5  10   7    8.04    2.08
  -5  11   7    4.20    1.66
  -5  11   6   67.75    4.53
  -5  11   5   81.86    4.73
  -5  11   4   84.05    4.47
  -5  11   3   12.82    1.57
   5  11  -3   12.71    1.48
  -5  11   2  131.37    5.53
  -5  11   1  150.94    5.96
  -5 -11   1  155.68    6.99
  -5 -11   0  148.74    6.53
  -5 -11   0  158.12    7.22
  -5  11   0  140.96    6.17
   5  11   0  150.02    7.50
  -5 -11  -1   18.26    1.77
   5  11   1   17.95    1.52
  -5  11  -1   13.33    1.56
   5  11   1   16.35    2.25
  -5 -11  -2  121.13    5.10
   5  11   2  115.73    5.10
  -5  11  -2  118.79    5.40
   5  11   2  118.85    6.15
  -5 -11  -3  132.62    5.31
   5  11   3  138.02    5.92
   5  11   3  145.27    6.67
  -5  11  -3  131.90    5.72
   5  11   4   89.40    4.51
  -5  11  -4   75.94    4.10
   5  11   5    2.16    1.24
   5  11   6   56.22    4.12
  -5  12   7   12.08    2.32
  -5  12   6  300.00   12.32
  -5  12   5    1.45    1.23
  -5  12   4   -0.35    0.99
  -5  12   3   29.47    2.34
  -5  12   2  610.82   21.02
  -5 -12   2  641.45   21.71
  -5  12   1    1.44    0.73
  -5 -12   1    2.39    1.13
  -5 -12   0    1.59    0.94
  -5 -12   0    0.90    1.13
  -5  12   0    0.84    0.84
  -5 -12  -1   27.38    2.18
   5  12   1   24.14    1.88
  -5  12  -1   20.85    2.00
  -5 -12  -1   23.75    2.54
   5  12   1   24.08    2.65
  -5 -12  -2  701.57   22.35
   5  12   2  648.71   22.34
  -5  12  -2  644.83   22.52
   5  12   2  670.24   23.59
  -5 -12  -3   16.22    1.45
   5  12   3   16.99    1.79
   5  12   3   19.29    2.21
   5  12   4    5.28    1.27
   5  12   4    5.45    1.40
   5  12   5    8.79    1.76
   5  12   6  367.92   14.45
  -5  13   7   -1.93    1.90
  -5  13   6    6.93    1.85
  -5  13   5   -0.86    1.34
  -5  13   4   -0.55    1.03
  -5  13   3    1.59    0.85
  -5  13   2    5.36    1.16
  -5 -13   2    6.64    1.56
  -5  13   1    2.00    0.91
  -5 -13   1    2.33    1.17
  -5 -13   0    3.49    1.28
   5  13   1    1.45    0.67
  -5 -13  -1    0.43    0.75
  -5  13  -1    0.61    0.94
   5  13   1   -0.25    1.14
  -5 -13  -1   -0.23    1.09
  -5 -13  -2    1.50    0.91
   5  13   2    2.07    0.82
  -5  13  -2    3.25    1.19
   5  13   2    1.34    1.10
  -5 -13  -3    3.45    0.94
   5  13   3    4.10    1.12
   5  13   3    2.29    1.08
   5  13   4   -0.18    0.93
   5  13   4    0.19    0.93
   5  13   5   -0.63    1.30
   5  13   6    2.65    1.72
  -5  14   7   13.96    2.55
  -5  14   6    8.33    2.02
  -5  14   5    1.99    1.32
  -5  14   4    1.94    1.14
  -5  14   3   26.27    2.32
  -5  14   2    2.47    1.02
  -5 -14   2    2.48    1.26
  -5  14   1    1.37    0.83
  -5 -14   1    2.70    1.24
  -5 -14   0    2.18    1.30
   5  14   1   20.38    1.98
  -5 -14  -1   21.17    2.02
  -5  14  -1   21.02    2.14
  -5 -14  -1   22.66    2.60
   5  14   1   21.62    2.55
  -5 -14  -2    7.76    1.31
   5  14   2    4.77    1.15
   5  14   2    5.27    1.50
  -5 -14  -3    0.34    0.73
   5  14   3    0.50    1.01
   5  14   3    1.90    1.18
   5  14   4    1.51    1.04
   5  14   4    1.54    1.12
   5  14   5    8.03    1.68
   5  14   6   16.58    2.46
  -5  15   7    6.74    2.08
  -5  15   6   63.63    4.58
  -5  15   5    3.42    1.44
  -5  15   4   -0.20    1.08
  -5  15   3    0.35    0.90
  -5  15   2   80.13    4.28
  -5 -15   2   89.04    5.05
  -5  15   1    5.35    1.16
  -5 -15   1    6.14    1.58
  -5 -15   0   -0.25    1.07
   5  15   1    1.53    1.14
  -5  15  -1    2.06    1.10
  -5 -15  -1    2.91    1.37
   5  15   1    1.11    0.88
  -5 -15  -2   68.30    3.74
   5  15   2   64.99    3.79
   5  15   2   67.84    4.48
   5  15   3    0.90    0.93
   5  15   3    1.93    1.18
   5  15   4    1.01    1.10
   5  15   4   -0.19    1.02
   5  15   5    1.56    1.19
   5  15   6   26.22    3.09
  -5  16   7    9.30    2.28
  -5  16   6   38.71    3.62
  -5  16   5    4.43    1.58
  -5  16   4   -0.42    1.12
  -5  16   3   10.15    1.62
  -5  16   2   44.72    2.99
  -5 -16   2   36.63    3.29
  -5  16   1    5.14    1.16
  -5 -16   1    7.47    1.73
  -5 -16   0    3.14    1.40
  -5  16  -1    3.78    1.31
  -5 -16  -1    6.74    1.75
   5  16   1    3.61    1.14
  -5 -16  -2   50.83    3.19
   5  16   2   48.00    3.26
   5  16   2   43.81    3.68
   5  16   3    2.86    1.24
   5  16   3    2.18    1.22
   5  16   4    0.43    1.10
   5  16   4    0.96    1.02
   5  16   5    1.40    1.28
   5  16   6   43.38    3.85
  -5  17   6   25.39    3.08
  -5  17   5   -0.74    1.39
  -5  17   4    1.33    1.27
  -5  17   3   -0.20    0.94
  -5  17   2   31.74    2.66
  -5 -17   2   28.51    3.07
  -5 -17   1    2.09    1.50
  -5  17   1   -0.35    0.92
  -5 -17   0    6.23    1.79
  -5 -17  -1    0.87    1.35
   5  17   2   16.02    2.08
   5  17   2   14.53    2.29
  -5 -17  -2   12.17    2.23
   5  17   3    2.59    1.17
   5  17   3    1.99    1.25
   5  17   4    0.39    1.07
   5  17   5    0.49    1.36
  -5  18   6   86.12    5.67
  -5  18   5   -0.77    1.47
  -5  18   4   -1.16    1.23
  -5  18   3   16.94    2.14
  -5  18   2  201.48    8.55
  -5 -18   2  198.50    9.33
  -5 -18   1   -0.27    1.37
  -5  18   1   -0.37    1.19
  -5 -18   0    1.40    1.43
  -5 -18  -1   21.17    2.89
   5  18   2  220.18    9.36
  -5 -18  -2  218.70   10.33
   5  18   2  218.61    9.83
   5  18   3    3.42    1.32
   5  18   3    4.03    1.46
   5  18   4    3.26    1.41
   5  18   4    1.99    1.26
   5  18   5   21.25    2.81
  -5  19   6   19.18    2.83
  -5  19   5   61.96    4.55
  -5  19   4   30.78    3.11
  -5  19   3    1.09    1.22
  -5  19   2   48.57    3.57
  -5 -19   2   53.05    4.22
  -5  19   1   59.95    3.92
  -5 -19   1   75.54    5.02
  -5 -19   0   61.67    4.71
  -5 -19  -1    4.05    1.86
   5  19   2   51.92    3.76
  -5 -19  -2   46.99    4.22
   5  19   2   46.44    3.84
   5  19   3   50.53    3.81
   5  19   3   51.68    3.82
   5  19   4   26.83    2.99
   5  19   5    6.46    1.91
  -5  20   5    1.11    1.52
  -5  20   4   45.72    3.84
  -5  20   3    0.92    1.23
  -5  20   2    6.51    1.66
  -5 -20   2   10.20    2.21
  -5 -20   1    2.38    1.75
  -5  20   1   -0.21    1.32
  -5 -20   0   51.40    4.27
  -5 -20  -1    3.18    1.73
   5  20   2    7.08    1.90
   5  20   2    8.15    1.94
  -5 -20  -2    9.21    2.32
   5  20   3    0.24    1.30
   5  20   3   -0.23    1.19
  -5 -20  -3   -0.98    1.66
   5  20   4   24.55    2.89
  -5  21   5   38.35    3.79
  -5  21   4   55.36    4.28
  -5  21   3    2.16    1.51
  -5  21   2   37.78    3.30
  -5 -21   2   38.49    3.79
  -5  21   1   75.69    4.81
  -5 -21   1   97.26    5.97
  -5 -21   0  108.87    6.63
  -5 -21  -1    3.22    1.77
   5  21   2   43.31    3.73
  -5 -21  -2   41.45    4.21
   5  21   2   46.67    3.95
   5  21   3   82.70    5.11
  -5 -21  -3   70.09    5.50
   5  21   3   74.54    4.87
   5  21   4   68.83    4.89
  -5  22   5    2.36    1.88
  -5  22   4    2.43    1.53
  -5  22   3   44.33    3.76
  -5  22   2   93.00    5.58
  -5 -22   2   98.94    6.34
  -5 -22   1   12.02    2.34
  -5 -22   0    4.49    2.01
  -5 -22  -1   34.64    3.80
  -5 -22  -2   86.28    6.30
   5  22   2   91.68    5.75
   5  22   3    9.51    2.19
   5  22   3    9.98    2.01
  -5 -22  -3   10.67    2.62
   5  22   4    5.69    1.95
  -5  23   4   15.58    2.60
  -5  23   3   -1.56    1.86
  -5  23   2   34.76    3.46
  -5 -23   2   44.38    4.13
  -5 -23   1   14.32    2.57
  -5 -23   0   18.08    2.97
  -5 -23  -1    0.67    1.64
   5  23   2   23.45    3.11
  -5 -23  -2   28.56    3.61
   5  23   3    5.53    1.93
  -5  24   4    4.13    1.95
  -5  24   3   24.43    2.95
  -5  24   2   12.55    2.33
  -5 -24   2   11.32    2.56
  -5 -24   1   10.73    2.46
  -5 -24   0    5.40    2.16
  -5 -24  -1   18.68    2.98
   5  24   2   12.44    2.49
  -5 -24  -2   16.08    2.95
   5  24   3   18.25    2.82
  -5  25   3    0.56    1.74
  -5  25   2   12.49    2.25
  -5 -25   2   11.28    2.63
  -5 -25   1   85.60    6.09
  -5 -25   0    1.71    1.75
  -5 -25  -1    1.74    1.85
   5  25   2   17.24    2.85
  -5  26   3   -1.46    1.72
  -5  26   2   89.10    5.92
  -5  26   1    6.30    1.92
  -5  27   2   11.64    2.48
  -5  27   1    5.39    2.02
   6   0  -7    2.30    1.81
   6   0  -6   10.40    2.55
   6   0  -6    9.10    2.32
   6   0  -5    0.61    1.55
   6   0  -5    0.64    1.54
   6   0  -4 1256.70   42.05
   6   0  -4 1212.56   42.45
   6   0  -3   -0.96    1.37
   6   0  -3   -0.30    1.29
   6   0  -2   44.89    3.33
   6   0  -2   47.98    4.03
   6   0  -1    0.51    0.82
   6   0  -1    0.27    1.03
   6   0   0 1783.53   56.22
  -6   0   0 1745.19   54.96
   6   0   1    0.25    0.99
   6   1  -7    0.33    1.60
   6  -1  -7    0.32    1.54
   6  -1  -6   13.53    2.75
   6   1  -6   11.27    2.62
   6   1  -6   16.72    2.72
   6  -1  -6   21.03    3.03
   6  -1  -5    6.80    1.98
   6   1  -5    5.14    1.89
   6   1  -5    5.13    1.77
   6  -1  -5    8.13    2.00
   6   1  -4   58.13    5.23
   6   1  -4   45.21    4.52
   6  -1  -3    5.65    1.54
   6   1  -3    3.06    1.41
   6   1  -3    5.12    1.64
   6  -1  -3    7.67    1.85
   6  -1  -2   54.09    3.66
   6   1  -2   48.66    3.50
   6   1  -2   50.75    4.09
   6  -1  -2   51.14    4.07
   6  -1  -1    4.01    1.10
   6   1  -1    3.49    1.02
   6   1  -1    3.32    1.50
   6  -1  -1    2.91    1.37
   6  -1   0   10.59    1.68
   6   1   0   21.08    2.23
  -6   1   0   15.35    1.10
   6   1   0   19.54    2.67
   6  -1   1   21.43    1.64
   6   1   1   21.10    2.47
   6   2  -7    0.68    1.72
   6  -2  -7    0.63    1.63
   6  -2  -6   -1.37    2.41
   6   2  -6   -0.66    1.98
   6   2  -6    1.00    1.61
   6  -2  -6    1.57    1.65
   6  -2  -5   -0.32    1.64
   6   2  -5   -1.19    1.73
   6   2  -5    0.33    1.42
   6  -2  -5   -0.62    1.75
   6  -2  -4   97.28    5.89
   6   2  -4  106.44    5.99
   6   2  -4   85.79    5.90
   6  -2  -4  102.24    6.22
   6  -2  -3    0.74    1.44
   6   2  -3    0.70    1.21
   6   2  -3    0.30    1.23
   6  -2  -3    2.62    1.38
   6  -2  -2    1.92    1.18
   6   2  -2    2.58    0.99
   6   2  -2    0.87    1.35
   6  -2  -2    1.36    1.19
   6  -2  -1    2.32    1.09
   6   2  -1    1.17    0.85
   6  -2  -1    4.23    1.52
   6  -2   0  123.19    5.59
  -6  -2   0  123.87    4.88
   6   2   0  121.62    6.64
   6  -2   1    3.44    0.80
   6   2   1    1.75    1.12
   6   3  -7    8.63    2.39
   6  -3  -7   17.97    2.96
   6  -3  -6    9.84    2.46
   6   3  -6    9.91    2.38
   6   3  -6    8.16    2.23
   6  -3  -6   10.88    2.24
   6  -3  -5   38.97    3.84
   6   3  -5   42.24    3.92
   6   3  -5   46.09    4.12
   6  -3  -5   45.59    4.10
   6  -3  -4    3.76    1.61
   6   3  -4    3.44    1.71
   6   3  -4    2.25    2.15
   6  -3  -4    1.18    1.35
   6  -3  -3   11.97    2.34
   6   3  -3   14.59    2.03
   6   3  -3   13.44    2.36
   6  -3  -3   13.80    2.34
   6  -3  -2   50.30    3.68
   6   3  -2   53.53    3.59
   6   3  -2   55.69    4.29
   6  -3  -2   45.45    3.78
   6  -3  -1   67.41    4.01
   6   3  -1   64.30    3.81
   6  -3  -1   61.40    4.44
   6  -3   0    0.30    1.02
  -6  -3   0    1.90    0.86
   6   3   0    1.34    1.22
   6  -3   1    3.85    0.98
   6   3   1    4.01    1.34
   6  -3   2   45.07    2.19
   6   3   2   43.85    3.51
   6  -4  -7   35.03    3.64
   6  -4  -6    6.66    2.40
   6   4  -6    6.64    2.21
   6   4  -6    8.49    2.19
   6  -4  -6    6.25    2.19
   6  -4  -5    2.27    1.57
   6   4  -5    1.79    1.71
   6   4  -5    4.82    2.08
   6  -4  -5    3.84    1.67
   6  -4  -4   51.09    4.26
   6   4  -4   59.12    4.34
   6   4  -4   52.17    4.50
   6  -4  -4   53.72    4.23
   6   4  -3   82.68    5.17
   6   4  -3   98.54    6.13
   6  -4  -3   94.96    5.72
   6   4  -2   14.83    1.95
   6   4  -2   14.45    2.42
   6  -4  -2    8.14    1.84
   6  -4  -1    4.24    1.56
  -6  -4   0   52.69    2.88
   6   4   0   47.00    3.87
   6  -4   1  109.31    4.77
   6   4   1  101.71    5.87
   6  -4   2    8.68    0.95
   6   4   2    7.38    1.72
  -6   4  -3    1.72    0.55
   6  -5  -7    0.29    1.81
   6  -5  -6   40.93    4.25
   6   5  -6   36.48    3.95
   6   5  -6   40.15    4.18
   6  -5  -6   40.92    3.78
   6  -5  -5    6.65    2.09
   6   5  -5    9.73    2.29
   6   5  -5    9.07    2.40
   6  -5  -5    8.08    2.04
   6   5  -4    1.08    1.51
   6   5  -4    3.36    1.82
   6  -5  -4    5.69    2.54
   6   5  -3    9.81    1.86
   6   5  -3    6.10    2.02
   6  -5  -3    6.38    1.78
   6   5  -2   34.51    3.45
   6  -5  -2   37.06    3.36
  -6  -5   0    5.48    1.19
   6   5   0    5.97    1.64
  -6   5  -1   21.14    1.53
   6   5   1   25.96    2.75
   6  -5   2   34.68    2.00
   6   5   2   36.76    3.21
   6   6  -6    8.01    2.28
   6  -6  -6    4.85    1.79
   6   6  -5    2.48    1.77
   6  -6  -5    2.57    1.68
   6   6  -4  175.55    9.17
   6  -6  -4  170.21    8.59
   6   6  -3  103.46    6.63
   6  -6  -3  112.93    6.33
   6   6  -2   15.30    2.46
   6  -6  -2   11.69    2.08
  -6  -6   1    5.80    0.92
   6   6  -1    8.61    1.92
  -6  -6   0  253.31    9.52
   6   6   0  237.82   10.86
  -6   6  -1  137.31    5.31
   6   6   1  136.41    7.14
   6   6   2   17.68    2.28
   6   7  -6   12.57    2.53
   6  -7  -6   11.58    2.26
   6   7  -5   15.81    2.75
   6  -7  -5   14.45    2.46
   6   7  -4    5.19    2.43
   6  -7  -4    1.68    1.33
   6   7  -3  133.73    7.68
   6  -7  -3  135.66    7.23
  -6  -7   1   44.94    2.49
   6   7  -1   47.90    3.96
  -6  -7   0    1.06    1.00
   6   7   0    2.77    1.61
  -6   7  -1   74.40    3.38
   6   7   1   74.31    4.91
  -6   7  -2   31.23    1.45
   6   7   2   36.17    3.14
   6   7   3   63.24    4.33
   6   8  -6   -0.38    1.69
   6  -8  -6    0.28    1.85
  -6   8   5    5.38    1.35
   6   8  -5    5.51    2.11
   6  -8  -5    3.37    1.55
  -6   8   4    5.32    1.20
   6   8  -4    5.65    2.00
  -6   8   3   18.59    1.60
   6   8  -3   25.56    3.28
  -6   8   2    3.08    0.86
  -6  -8   1    9.66    1.27
   6   8  -1    8.39    1.99
  -6  -8   0    0.98    0.92
   6   8   0    0.84    1.19
  -6   8  -1   29.41    1.97
   6   8   1   29.51    3.02
  -6   8  -2    3.03    0.60
  -6   8  -2    3.16    0.97
   6   8   2    3.23    1.50
   6   8   3    2.42    1.31
  -6   9   6   86.18    4.93
  -6   9   5   -0.52    1.08
   6   9  -5    0.37    1.76
  -6   9   4    2.07    1.14
   6   9  -4   -0.36    1.56
  -6   9   3   24.33    1.89
   6   9  -3   17.83    2.88
  -6   9   2  158.85    5.90
  -6   9   1    0.72    0.45
  -6  -9   1    1.44    0.91
   6   9  -1    0.62    1.25
  -6  -9   0    1.92    1.12
  -6   9   0    1.33    0.34
   6   9   0    1.99    1.42
  -6   9  -1   11.49    0.83
  -6   9  -1   13.55    1.38
  -6   9  -1    9.97    0.81
   6   9   1   13.18    2.19
  -6  -9  -1   12.75    1.79
  -6   9  -2  148.91    6.15
   6   9   2  146.49    7.42
   6   9   3    3.62    1.39
  -6  10   5    2.31    1.11
  -6  10   4  138.29    6.07
  -6  10   3   84.65    3.93
   6  10  -3   71.28    5.63
  -6  10   2   11.55    1.23
  -6  10   1    0.43    0.50
  -6 -10   1    1.77    0.93
   6  10  -1   -0.31    1.33
  -6 -10   0  204.06    8.05
   6  10   0  196.98    9.07
  -6  10  -1   84.88    3.98
  -6 -10  -1   89.80    4.92
   6  10   1   93.60    5.53
  -6  10  -1   80.44    3.28
  -6  10  -2   17.34    1.72
   6  10   2   17.95    2.47
   6  10   3    4.10    1.61
  -6  11   5   24.32    2.41
  -6  11   4    0.31    0.95
  -6  11   3    1.87    0.88
  -6  11   2    7.56    1.06
   6  11  -2    7.09    2.05
  -6  11   1   23.13    1.58
  -6 -11   1   23.78    2.23
   6  11  -1   25.38    3.08
  -6  11   0    5.50    0.79
  -6 -11   0   11.02    1.75
   6  11   0    9.53    2.24
  -6  11  -1    0.12    0.78
   6  11   1   -0.55    1.14
  -6 -11  -1   -0.22    1.12
  -6  11  -2    9.39    1.39
   6  11   2   14.10    2.20
   6  11   3   18.21    2.41
  -6  12   5    1.15    1.21
  -6  12   4    0.65    1.04
  -6  12   3    9.65    1.40
  -6  12   2    7.61    1.09
   6  12  -2    6.14    2.04
  -6  12   1    3.11    0.82
  -6 -12   1    5.16    1.32
   6  12  -1    1.93    1.53
  -6  12   0    0.79    0.65
  -6 -12   0    1.88    1.21
   6  12   0    2.12    1.57
   6  12   1   18.05    2.45
  -6 -12  -1   17.31    2.37
   6  12   2    7.12    1.68
   6  12   3    5.85    1.64
  -6  13   5    9.49    1.73
  -6  13   4    0.17    1.07
  -6  13   3    5.80    1.25
  -6  13   2    0.84    0.75
  -6  13   1   19.76    1.63
  -6 -13   1   19.83    2.22
   6  13  -1   21.11    2.91
  -6  13   0    1.14    0.77
  -6 -13   0    0.22    1.24
   6  13   0    0.92    1.25
   6  13   1    1.13    1.24
  -6 -13  -1    0.98    1.29
   6  13   2    0.80    1.19
   6  13   3   13.30    2.10
   6  13   4    7.06    1.79
  -6  14   4  264.78   10.51
  -6  14   3   -0.60    1.07
  -6  14   2    1.17    0.90
  -6  14   1   -0.11    0.66
  -6 -14   1    2.89    1.36
   6  14  -1    0.33    1.39
  -6  14   0  306.78   11.31
  -6 -14   0  340.34   13.02
   6  14   0  340.51   13.95
   6  14   1    1.15    1.49
  -6 -14  -1   -0.26    1.32
   6  14   2   -0.27    1.21
   6  14   3    2.28    1.49
   6  14   4  293.33   12.10
  -6  15   4    4.09    1.45
  -6  15   3    0.16    0.96
  -6  15   2   -0.14    0.93
  -6  15   1    1.60    0.84
  -6 -15   1    0.22    1.15
  -6  15   0    4.09    1.14
  -6 -15   0    2.17    1.52
   6  15   0    2.54    1.92
   6  15   1    4.17    1.71
  -6 -15  -1    3.25    1.59
   6  15   2   -0.27    1.35
  -6 -15  -2    0.27    1.32
   6  15   3    4.39    1.56
   6  15   4    0.94    1.53
  -6  16   4  426.20   15.75
  -6  16   3    5.67    1.39
  -6  16   2   18.62    1.94
  -6  16   1   25.81    2.17
  -6 -16   1   32.08    3.02
  -6 -16   0  661.48   22.13
   6  16   0  633.94   23.00
   6  16   1   20.34    2.87
  -6 -16  -1   17.45    2.64
   6  16   2   22.40    2.79
  -6 -16  -2   17.87    2.71
   6  16   3   17.54    2.48
  -6  17   3   23.76    2.40
  -6  17   2    0.81    1.00
  -6  17   1   32.90    2.53
  -6 -17   1   36.66    3.39
  -6 -17   0    2.88    1.62
   6  17   0    3.65    2.12
  -6  17   0    4.87    1.24
   6  17   1   27.78    3.31
  -6 -17  -1   27.86    3.21
   6  17   2    0.56    1.33
  -6 -17  -2    1.79    1.52
   6  17   3   20.96    2.78
  -6  18   3   16.96    2.19
  -6  18   2    0.34    0.99
  -6  18   1    1.43    1.10
  -6 -18   1    0.26    1.33
  -6 -18   0    8.72    2.04
   6  18   0    9.76    2.34
  -6  18   0    8.66    1.48
  -6 -18  -1   30.33    3.36
   6  18   1   36.95    3.77
   6  18   2   -0.28    1.32
  -6 -18  -2    1.56    1.59
  -6 -18  -3    2.50    1.75
   6  18   3    1.85    1.49
  -6  19   2   29.65    2.66
  -6  19   1   18.33    2.06
  -6 -19   1   23.57    2.84
  -6 -19   0    1.42    1.56
  -6 -19  -1   -0.90    1.45
   6  19   1    0.64    1.73
  -6 -19  -2   35.94    3.86
   6  19   2   34.82    3.55
   6  19   3   20.84    2.71
  -6 -19  -3   15.66    2.74
  -6  20   1   13.89    1.96
  -6 -20   1   17.02    2.53
  -6 -20   0   67.08    4.98
  -6 -20  -1  101.53    6.49
   6  20   1  107.18    6.65
   6  20   2   12.69    2.26
  -6 -20  -2    6.70    2.13
   6  20   3   13.75    2.48
  -6 -20  -3   18.74    2.93
  -6 -21   1   -2.03    1.68
  -6 -21   0    0.91    1.69
  -6 -21  -1   44.15    4.13
   6  21   1   40.84    4.09
   6  21   2    9.93    2.36
  -6 -21  -2    9.30    2.41
  -6 -22   1   -1.50    1.67
  -6 -22   0   39.58    3.97
  -6 -22  -1   11.82    2.50
   6  22   1   15.10    2.75
   6  22   2    2.77    1.74
  -6 -22  -2    3.16    1.96
  -6 -23   1   18.84    2.94
  -6 -23   0    1.57    1.80
  -6 -23  -1   25.45    3.27
   6  23   1   21.19    3.15
   6  23   2   20.62    3.14
  -6 -24   1    7.69    2.41
  -6 -24   0   42.02    4.14
   6  24   1   41.86    4.34
   7   0  -5   19.96    3.15
   7   0  -5   32.61    3.81
   7   0  -4   -1.48    1.92
   7   0  -4    1.07    1.72
   7   0  -3    6.50    1.76
   7   0  -3    2.74    1.57
   7   0  -2   13.31    2.16
   7   0  -2   16.40    2.93
   7   0  -1   69.50    4.12
   7   0   0    0.76    1.00
   7   0   0    1.22    1.50
   7  -1  -5   -1.32    2.21
   7   1  -5   -2.58    2.36
   7   1  -5    3.64    2.19
   7  -1  -5    3.94    1.94
   7  -1  -4    4.16    1.90
   7   1  -4    3.75    1.75
   7   1  -4    8.90    2.30
   7  -1  -4   10.78    2.41
   7  -1  -3   -0.26    1.42
   7   1  -3   -0.25    1.49
   7   1  -3   -0.35    1.59
   7  -1  -3    0.33    1.60
   7  -1  -2  139.48    6.65
   7   1  -2  120.42    6.31
   7  -1  -2  139.46    7.57
   7  -1  -1    7.99    1.59
   7   1  -1   10.20    1.65
   7  -1  -1    6.54    2.09
   7  -1   0   10.88    1.49
   7   1   0    9.11    2.10
   7   1   1    2.08    1.46
   7  -2  -5   38.13    3.94
   7   2  -5   29.98    3.68
   7  -2  -5   33.60    3.80
   7  -2  -4   -0.30    1.84
   7   2  -4   -0.29    1.71
   7   2  -4    1.80    1.77
   7  -2  -4    4.03    2.12
   7  -2  -3    1.07    1.47
   7   2  -3    2.54    1.53
   7   2  -3    3.13    1.83
   7  -2  -3    2.30    1.70
   7  -2  -2  138.93    7.02
   7   2  -2  145.94    7.04
   7   2  -2  155.50    8.28
   7  -2  -2  135.12    7.78
   7  -2  -1   42.38    3.20
   7  -2  -1   43.42    3.94
   7  -2   0   -0.31    0.97
   7   2   0    1.83    1.36
   7   2   1    4.75    1.61
   7  -3  -5    1.36    1.89
   7  -3  -4   34.47    3.57
   7   3  -4   26.85    3.17
   7   3  -4   30.48    3.73
   7  -3  -4   27.77    3.47
   7  -3  -3    3.04    1.72
   7   3  -3   -1.02    1.42
   7   3  -3   -1.06    1.50
   7  -3  -3    3.27    2.02
   7  -3  -2   31.85    3.06
   7   3  -2   27.86    2.91
   7  -3  -2   29.71    3.61
   7   3  -2   23.77    3.39
   7  -3  -1    2.01    1.32
   7  -3  -1    0.31    1.27
   7  -3   0   46.59    3.10
   7   3   0   44.52    3.93
   7   3   1    2.37    1.43
   7  -4  -5   18.17    3.02
   7  -4  -4    0.62    1.56
   7   4  -4    0.29    1.70
   7   4  -4    4.06    2.09
   7  -4  -4    3.32    1.77
   7  -4  -3   58.17    4.44
   7   4  -3   53.13    4.71
   7  -4  -3   65.59    4.97
   7   4  -2  120.80    7.57
   7  -4  -2  133.39    7.58
   7  -4  -1   37.81    3.10
   7  -4   0    4.69    1.21
   7   4   0    8.30    2.07
   7   4   1   13.34    2.31
   7  -5  -5    9.34    2.55
   7  -5  -4    3.56    1.76
   7   5  -4    5.20    2.05
   7  -5  -4    1.65    1.51
   7  -5  -3   50.95    4.24
   7   5  -3   57.29    4.90
   7  -5  -3   49.42    4.39
   7  -5  -2   82.88    5.15
   7   5  -2   74.37    5.72
   7  -5  -1   16.48    2.29
   7   5  -1    7.26    2.04
   7  -5   0    2.26    1.14
   7   5   0    2.21    1.44
  -7  -5  -1   63.64    3.56
   7   5   1   63.15    4.75
   7   5   2   94.91    5.99
   7  -6  -5   49.53    4.48
   7  -6  -4    1.97    1.83
   7   6  -4    0.76    1.61
   7  -6  -4    3.95    1.96
   7  -6  -3    8.78    2.11
   7  -6  -3    6.24    1.91
   7   6  -1   97.85    6.31
   7  -6   0    5.50    1.54
   7   6   0    4.50    1.90
  -7  -6  -1   15.64    1.85
   7   6   1   12.24    2.38
   7   6   2   74.65    5.16
   7  -7  -5    0.66    2.29
   7  -7  -4   39.49    4.09
   7   7  -4   42.60    4.46
   7   7  -3   -0.74    1.53
   7   7  -1   10.85    2.50
   7   7   0   47.52    4.23
  -7  -7  -1    0.17    1.12
   7   7   1   -0.30    1.43
   7   7   2   54.80    4.42
   7   8  -3   -1.12    1.56
   7   8  -1   94.55    6.27
  -7  -8   0    2.09    1.04
   7   8   0    1.30    1.73
  -7  -8  -1   -0.36    1.07
   7   8   1    0.31    1.41
   7   8   2    0.87    1.69
   7   9  -3   12.27    2.60
   7   9  -1   12.40    2.59
  -7  -9   0   23.98    2.12
   7   9   0   25.58    3.14
  -7  -9  -1   14.69    2.05
   7   9   1   17.98    2.70
   7   9   2   26.97    3.16
   7   9   3   14.62    2.65
   7  10  -3    7.08    2.32
   7  10  -2   78.74    5.91
   7  10  -1    3.82    1.71
  -7 -10   0    3.63    1.19
   7  10   0    2.34    1.62
  -7 -10  -1   10.11    1.88
   7  10   1    9.55    2.25
   7  10   2   79.69    5.39
   7  10   3    4.58    1.75
   7  11  -2   74.82    6.00
   7  11  -1    5.66    1.90
  -7 -11   0   43.98    3.14
   7  11   0   43.64    4.14
  -7 -11  -1    4.56    1.43
   7  11   1    1.91    1.54
   7  11   2   89.97    5.90
   7  11   3    4.31    1.76
   7  12  -2  314.03   14.31
   7  12  -1   39.90    4.10
  -7 -12   0   16.58    2.12
   7  12   0   11.85    2.44
  -7 -12  -1    3.65    1.49
   7  12   1    2.57    1.56
  -7 -12  -2  225.08   10.15
   7  12   2  249.65   11.09
   7  12   3   21.82    2.82
   7  13  -2   20.00    3.62
   7  13  -1    2.94    1.97
  -7 -13   0    1.96    1.23
   7  13   0    1.03    1.53
  -7 -13  -1    9.37    1.90
   7  13   1    7.49    2.02
   7  13   2   18.50    2.89
  -7 -13  -2    8.84    2.08
   7  13   3    6.04    1.84
   7  14  -1   20.44    3.21
   7  14   0    5.57    1.92
  -7 -14  -1    0.49    1.38
   7  14   1    0.99    1.51
   7  14   2    7.24    1.96
  -7 -14  -2   10.12    2.15
   7  14   3   16.18    2.62
   7  15  -1    6.12    2.26
   7  15   0    8.15    2.29
  -7 -15  -1   11.84    2.18
   7  15   1   14.63    2.58
  -7 -15  -2   52.18    4.25
   7  15   2   44.47    4.22
   7  15   3   13.63    2.48
   7  16   0    1.08    1.57
  -7 -16  -1   -0.52    1.43
   7  16   1    1.01    1.62
  -7 -16  -2   16.71    2.73
   7  16   2   27.81    3.36
  -7 -16  -3   44.53    4.17
   7  16   3   46.54    4.12
   7  17   0   10.73    2.59
  -7 -17  -1    7.73    2.04
   7  17   1    5.76    2.05
  -7 -17  -2   40.96    4.00
   7  17   2   36.77    3.85
   7  17   3    2.33    1.74
  -7 -17  -3    0.31    1.69
  -7 -18  -1    2.73    1.67
   7  18   1    2.40    1.69
  -7 -18  -2   72.67    5.37
   7  18   2   68.33    5.32
  -7 -18  -3   36.06    3.98
  -7 -19  -1   20.77    2.85
   7  19   1   21.60    3.25
  -7 -19  -2   34.05    3.80
   7  19   2   28.66    3.48
  -7 -20  -2   12.35    2.70
   7  20   2   14.50    2.65
   8   0  -3    0.82    1.55
   8   0  -2   72.09    4.72
   8  -1  -3    0.55    1.58
   8   1  -3    1.64    1.44
   8  -1  -2    3.12    1.66
   8   1  -2    9.34    2.19
   8   1   0   95.30    6.45
   8  -2  -3   -0.28    1.60
   8   2  -3    0.55    1.56
   8  -2  -2   19.18    2.54
   8   2   0   17.21    3.06
   8  -3  -3    6.90    2.21
   8  -3  -2    0.75    1.52
   8   3   0   73.96    5.55
   8  -4  -3   76.22    5.31
   8  -4  -2   11.49    2.33
   8   4   0   35.40    4.14
   8   4   1   78.66    5.70
   8  -5  -3    1.21    2.30
   8  -5  -2   43.69    3.74
   8   5   1    3.78    2.39
   8  -6  -3  100.02    6.36
   8  -6  -2    5.12    1.88
   8   6   1  129.22    7.61
   8  -7  -3   25.25    3.38
   8  -7  -2   18.72    2.99
   8   7   1   55.58    5.04
   8   7   2   11.41    2.56
   8  -8  -3   18.23    2.96
   8  -8  -2  112.92    6.65
   8   8   2  114.55    7.08
   8  -9  -3   21.88    3.34
   8  -9  -2   42.40    4.01
   8   9   2   24.89    3.48
   0   0   0    0.00    0.00
;
_shelx_hkl_checksum              89930
loop_
_space_group_symop_operation_xyz
'x, y, z'
'-x+1/2, y+1/2, -z+1/2'
'-x, -y, -z'
'x-1/2, -y-1/2, z-1/2'
loop_
_atom_site_label
_atom_site_type_symbol
_atom_site_fract_x
_atom_site_fract_y
_atom_site_fract_z
_atom_site_U_iso_or_equiv
_atom_site_adp_type
_atom_site_occupancy
_atom_site_site_symmetry_order
_atom_site_calc_flag
_atom_site_refinement_flags_posn
_atom_site_refinement_flags_adp
_atom_site_refinement_flags_occupancy
_atom_site_disorder_assembly
_atom_site_disorder_group
Rb1 Rb 0.40665(19) -0.26162(6) -0.13878(19) 0.0453(5) Uani 1 1 d . . . . .
In1 In 0.09058(10) 0.06481(3) 0.62818(9) 0.0163(3) Uani 1 1 d . . . . .
In2 In -0.08498(10) -0.13580(3) -0.12916(9) 0.0174(3) Uani 1 1 d . . . . .
In3 In 0.57411(11) 0.06608(3) 0.87623(10) 0.0167(3) Uani 1 1 d . . . . .
In4 In -0.40995(11) 0.06728(3) 0.37777(10) 0.0174(3) Uani 1 1 d . . . . .
S1 S -0.4128(4) -0.11930(12) 0.3771(3) 0.0154(6) Uani 1 1 d . . . . .
S2 S -0.2407(3) 0.00214(11) 0.6164(3) 0.0166(6) Uani 1 1 d . . . . .
S3 S -0.4499(4) -0.12680(12) -0.1272(3) 0.0167(6) Uani 1 1 d . . . . .
S4 S 0.2773(4) -0.00159(11) 0.8623(3) 0.0150(6) Uani 1 1 d . . . . .
S5 S 0.0991(4) -0.12211(13) 0.1441(3) 0.0171(6) Uani 1 1 d . . . . .
S6 S 0.0930(4) -0.12755(13) -0.4035(3) 0.0174(7) Uani 1 1 d . . . . .
Cl1 Cl 0.0911(4) 0.23758(14) 1.1188(4) 0.0359(9) Uani 1 1 d . . . . .
loop_
_atom_site_aniso_label
_atom_site_aniso_U_11
_atom_site_aniso_U_22
_atom_site_aniso_U_33
_atom_site_aniso_U_23
_atom_site_aniso_U_13
_atom_site_aniso_U_12
Rb1 0.0323(8) 0.0325(9) 0.0712(12) -0.0011(7) 0.0012(7) -0.0020(5)
In1 0.0130(5) 0.0195(5) 0.0164(5) -0.0013(3) 0.0003(3) 0.0000(3)
In2 0.0150(5) 0.0231(5) 0.0142(5) -0.0011(3) 0.0004(3) 0.0000(3)
In3 0.0145(5) 0.0223(5) 0.0133(5) 0.0002(3) -0.0004(3) -0.0021(3)
In4 0.0165(5) 0.0226(5) 0.0130(5) -0.0005(3) 0.0006(3) 0.0024(3)
S1 0.0121(13) 0.0206(15) 0.0134(14) -0.0003(11) 0.0007(10) 0.0009(10)
S2 0.0169(15) 0.0173(15) 0.0158(15) -0.0006(12) -0.0005(11) 0.0005(11)
S3 0.0142(13) 0.0231(16) 0.0127(14) 0.0010(11) -0.0012(10) 0.0028(11)
S4 0.0148(13) 0.0165(15) 0.0136(14) 0.0015(11) 0.0002(11) 0.0010(11)
S5 0.0114(14) 0.0246(16) 0.0154(15) -0.0013(12) 0.0021(10) -0.0005(10)
S6 0.0133(14) 0.0274(17) 0.0116(14) 0.0008(11) -0.0005(10) -0.0001(11)
Cl1 0.0303(18) 0.0164(17) 0.061(2) 0.0011(15) 0.0009(15) -0.0012(12)
loop_
_atom_type_symbol
_atom_type_description
_atom_type_scat_dispersion_real
_atom_type_scat_dispersion_imag
_atom_type_scat_source
In In -0.7276 1.3100 'International Tables Vol C Tables 4.2.6.8 and 6.1.1.4'
Rb Rb -0.9393 2.9676 'International Tables Vol C Tables 4.2.6.8 and 6.1.1.4'
S S 0.1246 0.1234 'International Tables Vol C Tables 4.2.6.8 and 6.1.1.4'
Cl Cl 0.1484 0.1585 'International Tables Vol C Tables 4.2.6.8 and 6.1.1.4'
loop_
_geom_angle_atom_site_label_1
_geom_angle_atom_site_label_2
_geom_angle_atom_site_label_3
_geom_angle
_geom_angle_site_symmetry_1
_geom_angle_site_symmetry_3
_geom_angle_publ_flag
Cl1 Rb1 Cl1 159.03(13) 3_556 3_656 ?
Cl1 Rb1 S3 95.64(8) 3_556 1_655 ?
Cl1 Rb1 S3 63.92(8) 3_656 1_655 ?
Cl1 Rb1 S6 117.29(8) 3_556 4_656 ?
Cl1 Rb1 S6 76.79(7) 3_656 4_656 ?
S3 Rb1 S6 130.16(8) 1_655 4_656 ?
Cl1 Rb1 S5 121.38(8) 3_556 4_655 ?
Cl1 Rb1 S5 78.81(7) 3_656 4_655 ?
S3 Rb1 S5 133.53(7) 1_655 4_655 ?
S6 Rb1 S5 58.60(7) 4_656 4_655 ?
Cl1 Rb1 S1 64.40(7) 3_556 4_655 ?
Cl1 Rb1 S1 135.66(9) 3_656 4_655 ?
S3 Rb1 S1 159.89(8) 1_655 4_655 ?
S6 Rb1 S1 63.30(6) 4_656 4_655 ?
S5 Rb1 S1 64.68(6) 4_655 4_655 ?
Cl1 Rb1 Cl1 93.40(8) 3_556 2_545 ?
Cl1 Rb1 Cl1 91.89(7) 3_656 2_545 ?
S3 Rb1 Cl1 91.56(7) 1_655 2_545 ?
S6 Rb1 Cl1 120.29(8) 4_656 2_545 ?
S5 Rb1 Cl1 61.69(7) 4_655 2_545 ?
S1 Rb1 Cl1 92.10(7) 4_655 2_545 ?
Cl1 Rb1 Cl1 87.16(7) 3_556 2_546 ?
Cl1 Rb1 Cl1 87.77(7) 3_656 2_546 ?
S3 Rb1 Cl1 88.90(7) 1_655 2_546 ?
S6 Rb1 Cl1 58.97(7) 4_656 2_546 ?
S5 Rb1 Cl1 117.57(7) 4_655 2_546 ?
S1 Rb1 Cl1 87.67(7) 4_655 2_546 ?
Cl1 Rb1 Cl1 179.24(10) 2_545 2_546 ?
Cl1 Rb1 In1 100.38(7) 3_556 2_545 ?
Cl1 Rb1 In1 99.82(7) 3_656 2_545 ?
S3 Rb1 In1 163.65(6) 1_655 2_545 ?
S6 Rb1 In1 37.34(5) 4_656 2_545 ?
S5 Rb1 In1 36.86(5) 4_655 2_545 ?
S1 Rb1 In1 35.99(5) 4_655 2_545 ?
Cl1 Rb1 In1 90.76(6) 2_545 2_545 ?
Cl1 Rb1 In1 88.63(6) 2_546 2_545 ?
Cl1 Rb1 Rb1 51.44(6) 3_556 4 ?
Cl1 Rb1 Rb1 130.65(6) 3_656 4 ?
S3 Rb1 Rb1 95.04(6) 1_655 4 ?
S6 Rb1 Rb1 134.56(7) 4_656 4 ?
S5 Rb1 Rb1 88.66(5) 4_655 4 ?
S1 Rb1 Rb1 74.85(5) 4_655 4 ?
Cl1 Rb1 Rb1 41.95(5) 2_545 4 ?
Cl1 Rb1 Rb1 138.60(4) 2_546 4 ?
In1 Rb1 Rb1 97.49(4) 2_545 4 ?
Cl1 Rb1 Rb1 125.67(6) 3_556 4_656 ?
Cl1 Rb1 Rb1 46.27(6) 3_656 4_656 ?
S3 Rb1 Rb1 72.18(6) 1_655 4_656 ?
S6 Rb1 Rb1 58.42(5) 4_656 4_656 ?
S5 Rb1 Rb1 101.92(6) 4_655 4_656 ?
S1 Rb1 Rb1 116.45(6) 4_655 4_656 ?
Cl1 Rb1 Rb1 138.15(5) 2_545 4_656 ?
Cl1 Rb1 Rb1 41.50(4) 2_546 4_656 ?
In1 Rb1 Rb1 95.54(4) 2_545 4_656 ?
Rb1 Rb1 Rb1 166.97(7) 4 4_656 ?
Cl1 Rb1 Rb1 131.22(6) 3_556 4_655 ?
Cl1 Rb1 Rb1 50.85(6) 3_656 4_655 ?
S3 Rb1 Rb1 74.40(6) 1_655 4_655 ?
S6 Rb1 Rb1 104.03(6) 4_656 4_655 ?
S5 Rb1 Rb1 60.38(5) 4_655 4_655 ?
S1 Rb1 Rb1 119.95(6) 4_655 4_655 ?
Cl1 Rb1 Rb1 41.04(5) 2_545 4_655 ?
Cl1 Rb1 Rb1 138.62(4) 2_546 4_655 ?
In1 Rb1 Rb1 97.11(4) 2_545 4_655 ?
Rb1 Rb1 Rb1 81.406(8) 4 4_655 ?
Rb1 Rb1 Rb1 97.118(10) 4_656 4_655 ?
S1 In1 S5 97.80(9) 3_556 3_556 ?
S1 In1 S6 93.57(9) 3_556 3 ?
S5 In1 S6 83.55(9) 3_556 3 ?
S1 In1 S2 175.89(9) 3_556 . ?
S5 In1 S2 86.31(8) 3_556 . ?
S6 In1 S2 86.80(8) 3 . ?
S1 In1 S2 89.92(8) 3_556 3_556 ?
S5 In1 S2 172.19(9) 3_556 3_556 ?
S6 In1 S2 94.83(8) 3 3_556 ?
S2 In1 S2 85.97(8) . 3_556 ?
S1 In1 S4 87.25(8) 3_556 . ?
S5 In1 S4 96.43(9) 3_556 . ?
S6 In1 S4 179.17(9) 3 . ?
S2 In1 S4 92.37(8) . . ?
S2 In1 S4 85.08(8) 3_556 . ?
S1 In1 Rb1 57.57(7) 3_556 2 ?
S5 In1 Rb1 55.93(7) 3_556 2 ?
S6 In1 Rb1 54.47(7) 3 2 ?
S2 In1 Rb1 125.45(6) . 2 ?
S2 In1 Rb1 128.79(6) 3_556 2 ?
S4 In1 Rb1 126.17(6) . 2 ?
S6 In2 S5 118.97(9) . . ?
S6 In2 S3 119.43(10) . . ?
S5 In2 S3 118.34(9) . . ?
S6 In2 Cl1 96.86(10) . 3_556 ?
S5 In2 Cl1 96.92(11) . 3_556 ?
S3 In2 Cl1 94.31(10) . 3_556 ?
S1 In3 S3 97.27(9) 3_556 3_556 ?
S1 In3 S5 91.39(9) 3_556 3_656 ?
S3 In3 S5 90.37(9) 3_556 3_656 ?
S1 In3 S4 89.35(9) 3_556 . ?
S3 In3 S4 99.16(9) 3_556 . ?
S5 In3 S4 170.27(9) 3_656 . ?
S1 In3 S4 174.65(9) 3_556 3_657 ?
S3 In3 S4 85.05(9) 3_556 3_657 ?
S5 In3 S4 93.42(8) 3_656 3_657 ?
S4 In3 S4 85.51(8) . 3_657 ?
S1 In3 S2 86.56(8) 3_556 1_655 ?
S3 In3 S2 172.89(8) 3_556 1_655 ?
S5 In3 S2 83.53(8) 3_656 1_655 ?
S4 In3 S2 86.83(8) . 1_655 ?
S4 In3 S2 91.66(8) 3_657 1_655 ?
S1 In4 S3 95.12(9) 3_456 3_455 ?
S1 In4 S6 91.93(9) 3_456 3 ?
S3 In4 S6 90.84(9) 3_455 3 ?
S1 In4 S4 170.03(9) 3_456 3_556 ?
S3 In4 S4 87.53(9) 3_455 3_556 ?
S6 In4 S4 97.65(9) 3 3_556 ?
S1 In4 S2 89.93(8) 3_456 . ?
S3 In4 S2 174.78(8) 3_455 . ?
S6 In4 S2 87.67(9) 3 . ?
S4 In4 S2 87.71(8) 3_556 . ?
S1 In4 S2 85.02(8) 3_456 3_456 ?
S3 In4 S2 93.83(8) 3_455 3_456 ?
S6 In4 S2 174.63(8) 3 3_456 ?
S4 In4 S2 85.21(8) 3_556 3_456 ?
S2 In4 S2 87.90(7) . 3_456 ?
In1 S1 In4 97.92(10) 3_556 3_456 ?
In1 S1 In3 93.54(9) 3_556 3_556 ?
In4 S1 In3 95.79(10) 3_456 3_556 ?
In1 S1 Rb1 86.44(7) 3_556 4_556 ?
In4 S1 Rb1 134.67(10) 3_456 4_556 ?
In3 S1 Rb1 129.12(9) 3_556 4_556 ?
In4 S2 In1 90.78(8) . . ?
In4 S2 In1 93.15(8) . 3_556 ?
In1 S2 In1 94.03(8) . 3_556 ?
In4 S2 In3 87.56(8) . 1_455 ?
In1 S2 In3 90.82(8) . 1_455 ?
In1 S2 In3 175.08(11) 3_556 1_455 ?
In4 S2 In4 92.10(7) . 3_456 ?
In1 S2 In4 176.89(11) . 3_456 ?
In1 S2 In4 86.97(8) 3_556 3_456 ?
In3 S2 In4 88.14(7) 1_455 3_456 ?
In2 S3 In3 112.56(11) . 3_556 ?
In2 S3 In4 113.58(10) . 3_455 ?
In3 S3 In4 95.87(10) 3_556 3_455 ?
In2 S3 Rb1 100.65(9) . 1_455 ?
In3 S3 Rb1 119.35(9) 3_556 1_455 ?
In4 S3 Rb1 115.64(9) 3_455 1_455 ?
In3 S4 In4 99.81(8) . 3_556 ?
In3 S4 In1 88.76(8) . . ?
In4 S4 In1 94.01(8) 3_556 . ?
In3 S4 In3 94.49(8) . 3_657 ?
In4 S4 In3 91.55(9) 3_556 3_657 ?
In1 S4 In3 173.00(10) . 3_657 ?
In2 S5 In1 114.19(10) . 3_556 ?
In2 S5 In3 116.08(10) . 3_656 ?
In1 S5 In3 99.26(10) 3_556 3_656 ?
In2 S5 Rb1 96.13(9) . 4_556 ?
In1 S5 Rb1 87.21(7) 3_556 4_556 ?
In3 S5 Rb1 140.09(10) 3_656 4_556 ?
In2 S6 In4 112.72(11) . 3 ?
In2 S6 In1 112.96(10) . 3 ?
In4 S6 In1 94.68(10) 3 3 ?
In2 S6 Rb1 101.81(9) . 4 ?
In4 S6 Rb1 140.81(10) 3 4 ?
In1 S6 Rb1 88.18(8) 3 4 ?
In2 Cl1 Rb1 99.17(10) 3_556 3_556 ?
In2 Cl1 Rb1 100.96(10) 3_556 3_656 ?
Rb1 Cl1 Rb1 159.03(13) 3_556 3_656 ?
In2 Cl1 Rb1 92.12(10) 3_556 2 ?
Rb1 Cl1 Rb1 93.29(8) 3_556 2 ?
Rb1 Cl1 Rb1 91.77(7) 3_656 2 ?
In2 Cl1 Rb1 88.49(9) 3_556 2_556 ?
Rb1 Cl1 Rb1 87.06(7) 3_556 2_556 ?
Rb1 Cl1 Rb1 87.67(7) 3_656 2_556 ?
Rb1 Cl1 Rb1 179.25(10) 2 2_556 ?
loop_
_geom_bond_atom_site_label_1
_geom_bond_atom_site_label_2
_geom_bond_distance
_geom_bond_site_symmetry_2
_geom_bond_publ_flag
Rb1 Cl1 3.344(3) 3_556 ?
Rb1 Cl1 3.371(3) 3_656 ?
Rb1 S3 3.452(3) 1_655 ?
Rb1 S6 3.479(3) 4_656 ?
Rb1 S5 3.544(3) 4_655 ?
Rb1 S1 3.614(3) 4_655 ?
Rb1 Cl1 3.644(3) 2_545 ?
Rb1 Cl1 3.946(3) 2_546 ?
Rb1 In1 4.2728(17) 2_545 ?
Rb1 Rb1 5.0398(4) 4 ?
Rb1 Rb1 5.0398(4) 4_656 ?
Rb1 Rb1 5.0848(4) 4_655 ?
In1 S1 2.515(3) 3_556 ?
In1 S5 2.566(3) 3_556 ?
In1 S6 2.593(3) 3 ?
In1 S2 2.677(3) . ?
In1 S2 2.679(3) 3_556 ?
In1 S4 2.703(3) . ?
In1 Rb1 4.2728(17) 2 ?
In2 S6 2.408(3) . ?
In2 S5 2.418(3) . ?
In2 S3 2.420(3) . ?
In2 Cl1 2.506(3) 3_556 ?
In3 S1 2.552(3) 3_556 ?
In3 S3 2.562(3) 3_556 ?
In3 S5 2.566(3) 3_656 ?
In3 S4 2.573(3) . ?
In3 S4 2.717(3) 3_657 ?
In3 S2 2.812(3) 1_655 ?
In4 S1 2.551(3) 3_456 ?
In4 S3 2.567(3) 3_455 ?
In4 S6 2.571(3) 3 ?
In4 S4 2.594(3) 3_556 ?
In4 S2 2.657(3) . ?
In4 S2 2.871(3) 3_456 ?
S1 In1 2.515(3) 3_556 ?
S1 In4 2.551(3) 3_456 ?
S1 In3 2.551(3) 3_556 ?
S1 Rb1 3.614(3) 4_556 ?
S2 In1 2.678(3) 3_556 ?
S2 In3 2.812(3) 1_455 ?
S2 In4 2.871(3) 3_456 ?
S3 In3 2.562(3) 3_556 ?
S3 In4 2.567(3) 3_455 ?
S3 Rb1 3.452(3) 1_455 ?
S4 In4 2.594(3) 3_556 ?
S4 In3 2.717(3) 3_657 ?
S5 In1 2.566(3) 3_556 ?
S5 In3 2.566(3) 3_656 ?
S5 Rb1 3.544(3) 4_556 ?
S6 In4 2.571(3) 3 ?
S6 In1 2.593(3) 3 ?
S6 Rb1 3.479(3) 4 ?
Cl1 In2 2.506(3) 3_556 ?
Cl1 Rb1 3.344(3) 3_556 ?
Cl1 Rb1 3.371(3) 3_656 ?
Cl1 Rb1 3.644(3) 2 ?
Cl1 Rb1 3.946(3) 2_556 ?
