#------------------------------------------------------------------------------
#$Date: 2022-03-23 01:50:33 +0200 (Wed, 23 Mar 2022) $
#$Revision: 273903 $
#$URL: file:///home/coder/svn-repositories/cod/cif/7/70/97/7709792.cif $
#------------------------------------------------------------------------------
#
# This file is available in the Crystallography Open Database (COD),
# http://www.crystallography.net/
#
# All data on this site have been placed in the public domain by the
# contributors.
#
data_7709792
loop_
_publ_author_name
'Zhou, Liang'
'Ruan, Mingming'
'Meng, Wei'
'Wang, Qianping'
'Liu, Bo'
'Xuan, Xiaopeng'
'Zhang, Jun'
_publ_section_title
;
 Two-dimensional coordination polymers with high proton conductivity and
 ultrafast highly efficient molecular sieving constructed by structural
 inductive effect
;
_journal_name_full               'Dalton Transactions'
_journal_paper_doi               10.1039/D2DT00364C
_journal_year                    2022
_chemical_formula_moiety
'C20 H8 Cu2 O16, Br, 2(Br0.5 H1.5 O0.75), 3.5(H2 O), 2(H3 O)'
_chemical_formula_sum            'C20 H24 Br2 Cu2 O23'
_chemical_formula_weight         919.29
_space_group_crystal_system      triclinic
_space_group_IT_number           2
_space_group_name_Hall           '-P 1'
_space_group_name_H-M_alt        'P -1'
_atom_sites_solution_hydrogens   mixed
_audit_creation_date             2021-10-29
_audit_creation_method
;
Olex2 1.2-beta
(compiled 2018.05.29 svn.r3508 for OlexSys, GUI svn.r5506)
;
_audit_update_record
;
2022-01-07 deposited with the CCDC.	2022-03-21 downloaded from the CCDC.
;
_cell_angle_alpha                67.116(2)
_cell_angle_beta                 89.982(2)
_cell_angle_gamma                75.517(2)
_cell_formula_units_Z            1
_cell_length_a                   7.6566(4)
_cell_length_b                   10.5717(5)
_cell_length_c                   10.5825(5)
_cell_measurement_reflns_used    2109
_cell_measurement_temperature    101.0
_cell_measurement_theta_max      26.40
_cell_measurement_theta_min      2.764
_cell_volume                     759.56(7)
_computing_cell_refinement       'SAINT V8.40A (?, 2016)'
_computing_data_reduction        'SAINT V8.40A (?, 2016)'
_computing_molecular_graphics    'Olex2 (Dolomanov et al., 2009)'
_computing_publication_material  'Olex2 (Dolomanov et al., 2009)'
_computing_structure_refinement  'ShelXL (Sheldrick, 2015)'
_computing_structure_solution    'SHELXT 2014/5 (Sheldrick, 2014)'
_diffrn_ambient_temperature      101.0
_diffrn_detector
'Bruker D8 Venture with photon2 CMOS detector'
_diffrn_detector_area_resol_mean 7.9
_diffrn_detector_type            'CMOS detector'
_diffrn_measured_fraction_theta_full 0.996
_diffrn_measured_fraction_theta_max 0.992
_diffrn_measurement_device       'three-circle diffractometer'
_diffrn_measurement_device_type
'Bruker D8 Venture with photon2 CMOS detector'
_diffrn_measurement_method       '\w and \f scans'
_diffrn_radiation_monochromator  'mirror optics'
_diffrn_radiation_probe          x-ray
_diffrn_radiation_type           MoK\a
_diffrn_radiation_wavelength     0.71073
_diffrn_reflns_av_R_equivalents  0.0856
_diffrn_reflns_av_unetI/netI     0.0773
_diffrn_reflns_Laue_measured_fraction_full 0.996
_diffrn_reflns_Laue_measured_fraction_max 0.992
_diffrn_reflns_limit_h_max       9
_diffrn_reflns_limit_h_min       -9
_diffrn_reflns_limit_k_max       12
_diffrn_reflns_limit_k_min       -12
_diffrn_reflns_limit_l_max       12
_diffrn_reflns_limit_l_min       -11
_diffrn_reflns_number            3109
_diffrn_reflns_point_group_measured_fraction_full 0.996
_diffrn_reflns_point_group_measured_fraction_max 0.992
_diffrn_reflns_theta_full        25.242
_diffrn_reflns_theta_max         26.407
_diffrn_reflns_theta_min         2.101
_diffrn_source                   'microfocus sealed X-ray tube'
_diffrn_source_type              'Incoatec I\ms'
_diffrn_standards_number         0
_exptl_absorpt_coefficient_mu    4.128
_exptl_absorpt_correction_T_max  0.745
_exptl_absorpt_correction_T_min  0.605
_exptl_absorpt_correction_type   multi-scan
_exptl_absorpt_process_details
;
 TWINABS-2012/1 (Bruker,2012) was used for absorption correction.

Final HKLF 4 output contains 12623 reflections, Rint = 0.0582
 (8306 with I > 3sig(I), Rint = 0.0520)
;
_exptl_crystal_colour            blue
_exptl_crystal_colour_primary    blue
_exptl_crystal_density_diffrn    2.010
_exptl_crystal_description       block
_exptl_crystal_F_000             456
_exptl_crystal_size_max          0.18
_exptl_crystal_size_mid          0.12
_exptl_crystal_size_min          0.12
_refine_diff_density_max         1.518
_refine_diff_density_min         -1.077
_refine_diff_density_rms         0.235
_refine_ls_extinction_method     none
_refine_ls_goodness_of_fit_ref   1.085
_refine_ls_hydrogen_treatment    constr
_refine_ls_matrix_type           full
_refine_ls_number_parameters     238
_refine_ls_number_reflns         3109
_refine_ls_number_restraints     6
_refine_ls_restrained_S_all      1.084
_refine_ls_R_factor_all          0.1087
_refine_ls_R_factor_gt           0.0807
_refine_ls_shift/su_max          0.000
_refine_ls_shift/su_mean         0.000
_refine_ls_structure_factor_coef Fsqd
_refine_ls_weighting_details
'w=1/[\s^2^(Fo^2^)+(0.0615P)^2^+15.7689P] where P=(Fo^2^+2Fc^2^)/3'
_refine_ls_weighting_scheme      calc
_refine_ls_wR_factor_gt          0.1862
_refine_ls_wR_factor_ref         0.2049
_reflns_Friedel_coverage         0.000
_reflns_number_gt                2463
_reflns_number_total             3109
_reflns_threshold_expression     'I > 2\s(I)'
_cod_data_source_file            d2dt00364c2.cif
_cod_data_source_block           HNNU-1beta
_cod_database_code               7709792
_shelx_shelxl_version_number     2018/3
_shelx_space_group_comment
;
The symmetry employed for this shelxl refinement is uniquely defined
by the following loop, which should always be used as a source of
symmetry information in preference to the above space-group names.
They are only intended as comments.
;
_shelx_estimated_absorpt_t_max   0.637
_shelx_estimated_absorpt_t_min   0.524
_olex2_refinement_description
;
1. Fixed Uiso
 At 1.2 times of:
  All C(H) groups
 At 1.5 times of:
  All O(H) groups, All O(H,H) groups, All O(H,H,H) groups
2. Uiso/Uaniso restraints and constraints
Uanis(C8) \\sim Ueq: with sigma of 0.005 and sigma for terminal atoms of 0.01
3. Others
 Fixed Sof: Br2(0.5) Br1(0.5) H8(0.5) H3(0.5) H2(0.5) H6(0.5) O9(0.75)
 H9A(0.75) H9B(0.75) O13(0.5) H13A(0.5) H13B(0.5) O10(0.25) H10A(0.25)
 H10B(0.25)
4.a Riding coordinates:
 O3(H3), O11(H11A,H11B), O12(H12A,H12B,H12C), O9(H9A,H9B), O13(H13A,H13B),
 O10(H10A,H10B)
4.b Aromatic/amide H refined with riding coordinates:
 C4(H4), C7(H7)
4.c Idealised tetrahedral OH refined as rotating group:
 O8(H8), O2(H2), O6(H6)
;
_shelx_res_file
;
TITL d03_a.res in P-1
    d03.res
    created by SHELXL-2018/3 at 14:48:43 on 29-Oct-2021
REM Old TITL d03 in P-1
REM SHELXT solution in P-1
REM R1 0.265, Rweak 0.027, Alpha 0.046, Orientation as input
REM Formula found by SHELXT: C10 N4 O10 Cu
CELL 0.71073 7.6566 10.5717 10.5825 67.116 89.982 75.517
ZERR 1 0.0004 0.0005 0.0005 0.002 0.002 0.002
LATT 1
SFAC C H Br Cu O
UNIT 20 24 2 2 23
EQIV $1 1-X,2-Y,1-Z
EQIV $2 1-X,1-Y,1-Z
EQIV $3 +X,+Y,-1+Z
EQIV $4 -1+X,+Y,+Z
EQIV $5 1-X,2-Y,-Z
EQIV $6 +X,+Y,1+Z
EQIV $7 -1+X,+Y,1+Z
ISOR 0.005 0.01 C8

L.S. 12
PLAN  2
SIZE 0.18 0.12 0.12
TEMP -172.15
HTAB O8 Br1
HTAB O3 Br2_$1
HTAB O2 Br1_$2
HTAB O6 O9_$3
HTAB O6 O10
HTAB O11 Br2_$2
HTAB O11 O13_$2
HTAB O12 Br2
HTAB O12 O4_$4
HTAB O12 O3
HTAB O12 O6_$5
HTAB O9 Br1_$6
HTAB O9 O5_$7
HTAB O9 O3_$1
HTAB O13 O12
HTAB O13 O13_$5
HTAB O10 Br1
HTAB O10 O6
HTAB O10 O13
bond $h
list 4
fmap 2
acta
REM <olex2.extras>
REM <HklSrc "%.\\d03.hkl">
REM </olex2.extras>

WGHT    0.061500   15.768901
FVAR       0.60831
CU1   4    1.002596    0.767014    0.764077    11.00000    0.02123    0.00988 =
         0.00832   -0.00504    0.00480   -0.00747
BR2   3    0.319970    0.807438    0.489354    10.50000    0.02868    0.02556 =
         0.02401   -0.00782    0.00691   -0.00854
BR1   3    0.300386    0.484019    0.150551    10.50000    0.03964    0.02931 =
         0.02833   -0.01102    0.00872   -0.01646
O4    5    1.058858    1.027205    0.274173    11.00000    0.02270    0.01403 =
         0.01732   -0.00833    0.00562   -0.01110
O7    5    0.934440    0.436587    0.191191    11.00000    0.02745    0.01050 =
         0.01421   -0.00889    0.01155   -0.00790
O5    5    1.049932    0.731624   -0.040146    11.00000    0.02749    0.01836 =
         0.01010   -0.00740    0.00443   -0.01179
O8    5    0.682151    0.440203    0.298856    11.00000    0.02259    0.01915 =
         0.02147   -0.00953    0.00610   -0.01214
AFIX 147
H8    2    0.596968    0.464173    0.237091    10.50000   -1.50000
AFIX   0
O3    5    0.768027    1.085027    0.304791    11.00000    0.02353    0.01184 =
         0.02358   -0.00960    0.00667   -0.00556
AFIX   3
H3    2    0.738477    1.046677    0.381041    10.50000   -1.50000
AFIX   0
O1    5    0.948300    0.808604    0.571613    11.00000    0.02349    0.01999 =
         0.00949   -0.00662    0.00435   -0.01569
O2    5    0.698721    0.730221    0.605697    11.00000    0.02444    0.02526 =
         0.00917   -0.00730    0.00742   -0.01107
AFIX 147
H2    2    0.730367    0.709883    0.688813    10.50000   -1.50000
AFIX   0
O6    5    0.767393    0.722372   -0.057602    11.00000    0.03330    0.02470 =
         0.01975   -0.01169    0.00563   -0.01550
AFIX 147
H6    2    0.707226    0.673721   -0.002042    10.50000   -1.50000
AFIX   0

PART 3
O11   5    0.636211    0.356058    0.683525    11.00000    0.03663    0.04776 =
         0.05096   -0.02910    0.00324   -0.01387
AFIX   3
H11A  2    0.677951    0.339258    0.613465    11.00000   -1.50000
H11B  2    0.632721    0.276298    0.750025    11.00000   -1.50000
AFIX   0

PART 0
O12   5    0.449928    1.016498    0.311560    11.00000    0.02812    0.02992 =
         0.06895    0.01914   -0.00353   -0.01114
AFIX   3
H12A  2    0.464638    0.930308    0.373550    11.00000   -1.50000
H12B  2    0.339248    1.041368    0.273360    11.00000   -1.50000
H12C  2    0.543288    1.055958    0.292940    11.00000   -1.50000
AFIX   0

C4    1    0.915884    0.845407    0.165566    11.00000    0.01501    0.01572 =
         0.01267   -0.00654    0.00328   -0.00731
AFIX  43
H4    2    0.957153    0.914169    0.092619    11.00000   -1.20000
AFIX   0
C1    1    0.821552    0.765970    0.534872    11.00000    0.02365    0.00723 =
         0.01226   -0.00394    0.00723   -0.00782
C3    1    0.890345    0.861390    0.288385    11.00000    0.01728    0.01217 =
         0.00811   -0.00571    0.00329   -0.00485
C8    1    0.908221    0.998467    0.293265    11.00000    0.01781    0.01371 =
         0.00659   -0.00284   -0.00298   -0.00647
C10   1    0.805913    0.492385    0.247356    11.00000    0.02450    0.02024 =
         0.00574   -0.00525    0.00086   -0.00868
C9    1    0.898663    0.726294    0.006669    11.00000    0.02373    0.00458 =
         0.01189   -0.00090    0.00182   -0.00363
C5    1    0.882004    0.730099    0.147342    11.00000    0.02008    0.01092 =
         0.01052   -0.00851    0.00290   -0.00280
C2    1    0.834021    0.758974    0.397983    11.00000    0.02093    0.01621 =
         0.01197   -0.00985    0.00805   -0.00889
C7    1    0.800290    0.642408    0.380502    11.00000    0.02226    0.01203 =
         0.01474   -0.00869    0.00969   -0.01161
AFIX  43
H7    2    0.760281    0.573201    0.453908    11.00000   -1.20000
AFIX   0
C6    1    0.825011    0.626894    0.255700    11.00000    0.02606    0.00834 =
         0.01062   -0.00216    0.00296   -0.00788

PART 1
O9    5    0.445029    0.675733    0.961410    10.75000    0.01835    0.03680 =
         0.04027   -0.00364    0.00238   -0.01341
AFIX   3
H9A   2    0.364599    0.649853    1.016800    10.75000   -1.50000
H9B   2    0.396199    0.759193    0.896060    10.75000   -1.50000
AFIX   0

PART 0
O13   5    0.390298    0.922337    0.110645    10.50000    0.03323    0.02743 =
         0.03830   -0.00345   -0.00592    0.00658
AFIX   3
H13A  2    0.405908    1.003067    0.053625    10.50000   -1.50000
H13B  2    0.343298    0.932877    0.181965    10.50000   -1.50000
AFIX   0

PART 2
O10   5    0.408933    0.737970    0.042196    10.25000    0.03085    0.03603 =
         0.04377    0.00342   -0.00237   -0.01969
AFIX   3
H10A  2    0.374813    0.692620    0.121896    10.25000   -1.50000
H10B  2    0.488973    0.779490    0.053186    10.25000   -1.50000
AFIX   0
HKLF 4




REM  d03_a.res in P-1
REM wR2 = 0.2049, GooF = S = 1.085, Restrained GooF = 1.084 for all data
REM R1 = 0.0807 for 2463 Fo > 4sig(Fo) and 0.1087 for all 3109 data
REM 238 parameters refined using 6 restraints

END

WGHT      0.0615     15.7689

REM Highest difference peak  1.518,  deepest hole -1.077,  1-sigma level  0.235
Q1    1   1.0000  1.0000  0.0000  10.50000  0.05    1.52
Q2    1   0.9995  0.6303  0.6379  11.00000  0.05    1.47
;
_shelx_res_checksum              26731
_shelx_hkl_file
;
  -1   0   0 3412.66   47.00
  -2   0   0   33.30    2.80
  -3   0   0 3667.03   89.39
  -4   0   0  308.37    8.60
  -5   0   0    6.90    4.80
  -6   0   0  357.46   17.60
  -7   0   0   92.59    5.90
  -8   0   0  133.09   39.20
  -9   0   0  108.59   23.00
   9   1   0    0.00   30.40
   8   1   0  186.38   39.20
   7   1   0   12.80    4.50
   6   1   0  108.49   14.30
   5   1   0   25.60    3.20
   4   1   0  145.09    5.50
   3   1   0    2.70    1.90
   2   1   0  396.86    6.60
   1   1   0   17.20    1.20
   0   1   0   11.70    1.40
  -1   1   0  684.13   11.00
  -2   1   0 7200.08   92.89
  -3   1   0  138.39    7.60
  -4   1   0  179.08    7.10
  -5   1   0   95.39   20.90
  -6   1   0  136.19   11.40
  -7   1   0   76.19    6.90
  -8   1   0    5.60   18.20
   9   2   0  107.19   36.50
   8   2   0  146.09   10.30
   7   2   0   68.39    6.60
   6   2   0  567.94   24.60
   5   2   0  894.51   17.70
   4   2   0  565.84   11.60
   3   2   0 3334.07  104.59
   2   2   0 1189.18   17.30
   1   2   0  998.90   15.70
   0   2   0 1988.30   38.00
  -1   2   0 3291.67   45.50
  -2   2   0  161.58    7.40
  -3   2   0   70.69    7.60
  -4   2   0   23.80    3.40
  -5   2   0  111.99   20.70
  -6   2   0  307.77   14.70
  -7   2   0  163.18   12.20
  -8   2   0   76.79   10.60
   9   3   0    3.00   21.60
   8   3   0    0.00    6.30
   7   3   0  232.98   12.30
   6   3   0  234.68   21.50
   5   3   0  147.79    7.10
   4   3   0  189.98    5.30
   3   3   0 1804.92   46.20
   2   3   0  587.04   11.10
   1   3   0   94.69    4.70
   0   3   0  267.97    7.30
  -1   3   0 1200.18   22.90
  -2   3   0   58.49   11.70
  -3   3   0  518.85   13.00
  -4   3   0    4.50    2.40
  -5   3   0  184.98   23.10
  -6   3   0  180.78   14.50
  -7   3   0   12.50    8.20
   9   4   0   89.59   22.60
   8   4   0   11.70    5.90
   7   4   0  106.39   11.90
   6   4   0  307.57   18.70
   5   4   0  103.69    6.50
   4   4   0   83.79    4.50
   3   4   0 1438.06   23.90
   2   4   0  565.54   13.60
   1   4   0  414.46   18.40
   0   4   0 4422.46   70.89
  -1   4   0 1569.54   30.20
  -2   4   0  157.78   15.90
  -3   4   0  428.46   13.10
  -4   4   0 1007.00   24.80
  -5   4   0   45.70   20.10
  -6   4   0   64.99   14.30
  -7   4   0  387.16   33.40
   9   5   0    0.00   17.60
   8   5   0   14.20    7.30
   7   5   0    5.90    6.20
   6   5   0  779.22   26.50
   5   5   0  217.48    6.80
   4   5   0   11.80    7.20
   3   5   0  649.83   17.80
   2   5   0 1875.71   32.70
   1   5   0  109.39   23.20
   0   5   0  158.48    6.40
  -1   5   0  514.45   13.30
  -2   5   0  364.06   25.30
  -3   5   0   72.09    6.80
  -4   5   0    6.90    3.60
  -5   5   0    7.70  134.89
  -6   5   0    9.10    6.30
  -7   5   0    0.00  256.57
   9   6   0   46.40   26.90
   8   6   0  462.95   32.40
   7   6   0  177.88   18.30
   6   6   0  514.55   23.90
   5   6   0 1244.18   21.90
   4   6   0   13.40   11.70
   3   6   0  418.46   12.90
   2   6   0 1077.59   21.00
   1   6   0  383.46   34.80
   0   6   0   85.19    4.70
  -1   6   0 1128.99   23.20
  -2   6   0    1.30   19.20
  -3   6   0    1.80    3.20
  -4   6   0  511.85   35.80
  -5   6   0   64.99   24.60
  -6   6   0    9.20    9.60
   9   7   0    8.30  146.69
   8   7   0   28.40    6.50
   7   7   0   49.30   12.80
   6   7   0 1174.28   26.80
   5   7   0 1486.35   32.70
   4   7   0  590.14   22.10
   3   7   0  532.15   15.20
   2   7   0   15.40    3.40
   1   7   0   71.49    7.70
   0   7   0  204.68   12.00
  -1   7   0   77.69    5.90
  -2   7   0   37.00    9.80
  -3   7   0   77.59    7.90
  -4   7   0    0.00   42.80
  -6   7   0  146.49   22.70
   8   8   0  255.27   15.70
   7   8   0  397.66   37.20
   6   8   0   71.19    6.60
   5   8   0   93.89    7.40
   4   8   0   63.89   16.30
   3   8   0  143.59    7.50
   2   8   0   35.70    4.20
   1   8   0  162.18   11.00
   0   8   0  328.27   15.40
  -1   8   0  550.04   17.00
  -2   8   0  123.69   25.10
  -3   8   0   20.50    5.90
  -4   8   0   38.20   15.60
  -5   8   0  104.79   25.60
   8   9   0  100.59   11.60
   7   9   0   40.70   10.20
   6   9   0  520.95   14.90
   5   9   0  436.46   13.90
   4   9   0   18.40    5.90
   3   9   0  195.08    9.90
   2   9   0  513.65   17.10
   1   9   0  129.99   30.10
   0   9   0   37.50    7.10
  -1   9   0  883.91   54.09
  -2   9   0  185.08   14.90
  -3   9   0   15.70    7.20
  -4   9   0  155.68   19.00
   7  10   0    0.00    8.50
   6  10   0  112.69    7.30
   5  10   0   86.79   11.20
   4  10   0   22.60    9.40
   3  10   0    7.60    3.20
   2  10   0  138.49   16.00
   1  10   0    8.40   26.20
   0  10   0    9.40    6.50
  -1  10   0  216.48   34.10
  -2  10   0   81.89   23.10
  -3  10   0    1.10   22.20
   6  11   0  122.39    8.20
   5  11   0  554.64   12.70
   4  11   0  294.47   16.30
   3  11   0   78.59    6.20
   2  11   0  140.89   14.10
   1  11   0  151.58   16.40
   0  11   0   11.70    6.60
  -1  11   0   16.80   18.90
   4  12   0  144.49   22.60
   3  12   0   10.60    2.80
   2  12   0   11.90   13.40
   1  12   0   88.79   26.60
   0 -12  -1  109.09   15.10
  -1 -12  -1   18.90   19.20
  -2 -12  -1   79.89  232.08
  -3 -12  -1  266.17   26.90
  -4 -12  -1  239.98   47.90
  -5 -12  -1  450.85   24.90
   2 -11  -1    0.00   13.70
   1 -11  -1  110.29   19.60
   0 -11  -1   17.10    6.50
  -1 -11  -1  133.69   35.80
  -2 -11  -1  218.88    7.80
  -3 -11  -1   23.20   10.10
  -4 -11  -1    0.00   26.80
  -5 -11  -1  248.78   19.60
  -6 -11  -1    7.20    5.10
   3 -10  -1   47.70   14.70
   2 -10  -1  362.76   17.50
   1 -10  -1  319.47   34.40
   0 -10  -1  253.17   16.90
  -1 -10  -1  235.28   42.90
  -2 -10  -1  692.23   18.70
  -3 -10  -1  458.55   24.30
  -4 -10  -1  102.99   18.40
  -5 -10  -1  172.88    8.70
  -6 -10  -1  151.88    8.80
  -7 -10  -1   42.30   13.30
   4  -9  -1  187.68   21.00
   3  -9  -1   16.20    6.50
   2  -9  -1    0.00   18.20
   1  -9  -1  331.57   17.00
   0  -9  -1  228.48   13.60
  -1  -9  -1   55.09   16.30
  -2  -9  -1  148.79    6.40
  -3  -9  -1  440.06   10.70
  -4  -9  -1    0.60    9.90
  -5  -9  -1    8.20    3.10
  -6  -9  -1   99.09    6.70
  -7  -9  -1   82.89   28.60
  -8  -9  -1    2.30    6.50
   5  -8  -1   71.39  309.87
   4  -8  -1    8.60   24.20
   3  -8  -1  451.55   19.90
   2  -8  -1    0.00   12.70
   1  -8  -1  235.78   11.20
   0  -8  -1  734.03   18.40
  -1  -8  -1  183.48   11.60
  -2  -8  -1   53.69    3.20
  -3  -8  -1 1035.90   19.00
  -4  -8  -1  371.06   29.30
  -5  -8  -1   59.69    5.40
  -6  -8  -1  274.67    8.60
  -7  -8  -1  240.88   15.80
  -8  -8  -1   58.99    8.10
   6  -7  -1   65.69   14.10
   5  -7  -1   49.60   17.20
   4  -7  -1   18.70    9.10
   3  -7  -1   42.50    5.90
   2  -7  -1    7.90    9.40
   1  -7  -1  800.92   18.90
   0  -7  -1  246.18    8.90
  -1  -7  -1  317.87   20.70
  -2  -7  -1  447.16   10.20
  -3  -7  -1  898.01   18.90
  -4  -7  -1  823.12   32.50
  -5  -7  -1  725.53   15.00
  -6  -7  -1   43.40   12.80
  -7  -7  -1  164.98   16.30
  -8  -7  -1   50.39    8.60
  -9  -7  -1  109.69  198.28
   6  -6  -1    9.40    7.80
   5  -6  -1   34.30   21.10
   4  -6  -1   92.49   10.10
   3  -6  -1  133.59    8.00
   2  -6  -1 2028.90   39.10
   1  -6  -1  371.96   10.70
   0  -6  -1  103.59    5.70
  -1  -6  -1 1761.72   39.10
  -2  -6  -1  535.85   11.80
  -3  -6  -1  190.58    8.20
  -4  -6  -1  849.32   19.40
  -5  -6  -1  180.98    5.10
  -6  -6  -1   25.80   14.80
  -7  -6  -1  125.99   13.30
  -8  -6  -1  323.77   21.00
  -9  -6  -1  116.89   25.90
   7  -5  -1   88.69   22.30
   6  -5  -1  132.49   17.10
   5  -5  -1   49.50  145.29
   4  -5  -1  497.35   19.00
   3  -5  -1 1044.10   21.90
   2  -5  -1   35.40    6.00
   1  -5  -1  956.40   18.00
   0  -5  -1 9999.00  129.99
  -1  -5  -1  279.17    9.70
  -2  -5  -1  299.67    7.80
  -3  -5  -1 1805.12   44.30
  -4  -5  -1    1.80    1.20
  -5  -5  -1   42.40    5.20
  -6  -5  -1  227.78   24.00
  -7  -5  -1    2.80    3.80
  -8  -5  -1  302.87   22.90
  -9  -5  -1  193.78   20.80
   8  -4  -1  113.59   29.40
   7  -4  -1    3.20    8.60
   6  -4  -1   38.20    7.30
   5  -4  -1  200.68   27.00
   4  -4  -1    2.40    3.00
   3  -4  -1  324.17   10.20
   2  -4  -1  958.40   40.60
   1  -4  -1  467.45   10.60
   0  -4  -1 1070.89   18.20
  -1  -4  -1  176.18    5.00
  -2  -4  -1  396.16    8.30
  -3  -4  -1 1401.76   47.20
  -4  -4  -1  149.09    6.60
  -5  -4  -1  150.58    7.50
  -6  -4  -1   58.49   13.70
  -7  -4  -1  160.28   12.30
  -8  -4  -1   12.70    7.60
  -9  -4  -1   12.70   14.30
   8  -3  -1    9.50   17.00
   7  -3  -1  137.09   11.90
   6  -3  -1  554.34   22.70
   5  -3  -1  451.25   17.50
   4  -3  -1  114.19    6.70
   3  -3  -1 1160.68   29.90
   2  -3  -1 1045.20   21.90
   1  -3  -1  633.44   12.00
   0  -3  -1  904.11   18.40
  -1  -3  -1  448.06    9.00
  -2  -3  -1  949.11   13.50
  -3  -3  -1  123.29   41.50
  -4  -3  -1  325.37   10.70
  -5  -3  -1  271.07   10.80
  -6  -3  -1    0.40   31.50
  -7  -3  -1   44.70    7.30
  -8  -3  -1   37.50   10.20
  -9  -3  -1  181.08   36.50
   8  -2  -1  130.19   31.50
   7  -2  -1  135.49    7.70
   6  -2  -1   13.20    7.30
   5  -2  -1  416.16   20.30
   4  -2  -1   49.10    4.50
   3  -2  -1  575.94   20.90
   2  -2  -1  911.41   14.70
   1  -2  -1  109.59    3.60
   0  -2  -1   25.30    1.90
  -1  -2  -1  522.45    6.90
  -2  -2  -1  410.76    8.40
  -3  -2  -1  287.37   11.90
  -4  -2  -1  329.57    7.10
  -5  -2  -1 1159.38   21.50
  -6  -2  -1  322.47   13.00
  -7  -2  -1   31.00    3.70
  -8  -2  -1  265.77   13.70
  -9  -2  -1    0.40   26.80
   9  -1  -1   69.39   19.90
   8  -1  -1  106.19   21.50
   7  -1  -1   96.29   11.60
   6  -1  -1  168.38   14.10
   5  -1  -1  150.08   15.70
   4  -1  -1 1485.75   25.70
   3  -1  -1 1561.44   43.30
   2  -1  -1  970.50   13.30
   1  -1  -1  784.12   10.20
   0  -1  -1 2770.92   86.29
  -1  -1  -1 1334.37   15.60
  -2  -1  -1  323.07    6.90
  -3  -1  -1 1575.74   91.39
  -4  -1  -1 2138.09   31.50
  -5  -1  -1    4.00    3.20
  -6  -1  -1  197.98   13.20
  -7  -1  -1  402.16   14.30
  -8  -1  -1   87.89   15.80
  -9  -1  -1   46.20   13.70
   9   0  -1   26.60  229.68
   8   0  -1  194.68   20.50
   7   0  -1   33.30    6.30
   6   0  -1  453.25   22.70
   5   0  -1   19.00    4.10
   4   0  -1  198.78    7.60
   3   0  -1   82.19   10.60
   2   0  -1  786.02   12.90
   1   0  -1    7.10    0.90
   0   0  -1   18.20    1.70
  -1   0  -1  319.37    7.40
  -2   0  -1 5939.11   83.79
  -3   0  -1    5.20    4.00
  -4   0  -1   17.90    3.10
  -5   0  -1   35.00   14.00
  -6   0  -1   65.69    9.50
  -7   0  -1    6.30    4.20
  -8   0  -1   14.70    8.60
  -9   0  -1    3.50    7.30
   9   1  -1   96.09   32.60
   8   1  -1  542.05   47.20
   7   1  -1  640.44   24.70
   6   1  -1 1106.49   33.70
   5   1  -1 2003.70   36.10
   4   1  -1  199.78    6.40
   3   1  -1 4949.10  106.69
   2   1  -1 3201.68   39.60
   1   1  -1  352.66    7.70
   0   1  -1   13.60    1.70
  -1   1  -1 1329.47   22.20
  -2   1  -1  135.19    5.60
  -3   1  -1    4.10    2.50
  -4   1  -1 2961.70   47.30
  -5   1  -1  231.98   19.20
  -6   1  -1    7.00    4.00
  -7   1  -1   14.40    4.80
  -8   1  -1   14.80   10.40
   9   2  -1    0.00    4.70
   8   2  -1    2.20    4.80
   7   2  -1    9.70    3.90
   6   2  -1  325.57   20.70
   5   2  -1  136.59    5.00
   4   2  -1   23.40    2.40
   3   2  -1  969.40   28.00
   2   2  -1  773.62   12.90
   1   2  -1  335.17   10.60
   0   2  -1  265.07    5.90
  -1   2  -1    1.70    1.40
  -2   2  -1  641.24   22.80
  -3   2  -1    1.40    1.80
  -4   2  -1   17.40    3.40
  -5   2  -1   19.00    8.20
  -6   2  -1  397.96   18.20
  -7   2  -1   15.10    7.30
  -8   2  -1   68.89   25.60
   9   3  -1    0.00   21.20
   8   3  -1  858.71   43.50
   7   3  -1  481.75   21.30
   6   3  -1   99.79    8.80
   5   3  -1  556.74   11.20
   4   3  -1  660.53   15.70
   3   3  -1    0.00    9.00
   2   3  -1  651.13   14.50
   1   3  -1  524.65   19.50
   0   3  -1    4.00    1.20
  -1   3  -1  387.96   10.20
  -2   3  -1  554.64   24.60
  -3   3  -1  723.43   17.90
  -4   3  -1  198.88    9.20
  -5   3  -1  374.96   16.60
  -6   3  -1  151.88   13.80
  -7   3  -1   12.90   12.00
  -8   3  -1    0.00   26.20
   9   4  -1  159.58   34.60
   8   4  -1   13.40    8.00
   7   4  -1   46.00    6.70
   6   4  -1 1124.39   27.70
   5   4  -1   13.40    2.30
   4   4  -1  317.17   14.90
   3   4  -1  594.74   15.00
   2   4  -1 1655.33   29.30
   1   4  -1  676.13   27.30
   0   4  -1   30.10    4.40
  -1   4  -1  801.92   19.10
  -2   4  -1  176.68    9.50
  -3   4  -1    4.50    2.80
  -4   4  -1  103.79    8.70
  -5   4  -1   38.80  132.39
  -6   4  -1    0.00    8.20
  -7   4  -1   71.69   37.50
   9   5  -1   71.79   29.00
   8   5  -1  139.39   18.90
   7   5  -1   30.60   19.40
   6   5  -1  307.17   16.90
   5   5  -1  466.45   12.10
   4   5  -1  200.28   14.60
   3   5  -1  910.31   19.60
   2   5  -1  648.54   15.80
   1   5  -1  611.34   45.30
   0   5  -1  279.37   11.70
  -1   5  -1  793.22   19.60
  -2   5  -1  252.77   23.00
  -3   5  -1   14.50    4.00
  -4   5  -1  344.47   30.40
  -5   5  -1  120.19   29.90
  -6   5  -1    7.30    9.30
  -7   5  -1   20.40  237.78
   9   6  -1   85.99  205.58
   8   6  -1  260.07   16.10
   7   6  -1  227.78   15.40
   6   6  -1   21.10    5.80
   5   6  -1  411.46   12.70
   4   6  -1  229.58   16.20
   3   6  -1    9.70    2.70
   2   6  -1  621.94   20.70
   1   6  -1  557.44   37.10
   0   6  -1   21.70    4.40
  -1   6  -1    3.20    2.00
  -2   6  -1   76.79    9.40
  -3   6  -1    3.00    3.40
  -4   6  -1   74.39  274.77
  -5   6  -1    0.00  279.47
  -6   6  -1   11.80   12.60
   8   7  -1  264.27   15.10
   7   7  -1  425.76   19.00
   6   7  -1    7.90    3.20
   5   7  -1    3.80    2.60
   4   7  -1 2008.50   51.09
   3   7  -1  340.17   11.00
   2   7  -1    5.20    3.80
   1   7  -1  439.76   22.50
   0   7  -1  109.09   10.00
  -1   7  -1  108.19    5.90
  -2   7  -1  280.37   18.70
  -3   7  -1   95.09   11.80
  -4   7  -1   20.20   28.50
  -5   7  -1  241.38   21.50
   8   8  -1   69.99    9.80
   7   8  -1    7.20    5.40
   6   8  -1  194.08   11.00
   5   8  -1   83.09    7.40
   4   8  -1  129.59   11.80
   3   8  -1   18.60    4.50
   2   8  -1 1116.19   33.80
   1   8  -1  152.68   27.60
   0   8  -1   30.40    6.60
  -1   8  -1  199.28   18.60
  -2   8  -1  104.19   11.50
  -3   8  -1   44.60    9.10
  -4   8  -1  141.29   23.60
   7   9  -1  286.87   15.90
   6   9  -1  172.98   10.60
   5   9  -1   17.40    5.40
   4   9  -1   19.90    7.30
   3   9  -1  374.86   16.50
   2   9  -1  213.58   24.50
   1   9  -1    0.70    7.40
   0   9  -1   11.20    5.00
  -1   9  -1   11.90  180.88
  -2   9  -1   75.89    8.10
  -3   9  -1  236.88   22.10
   6  10  -1    5.20    4.10
   5  10  -1  319.07   12.10
   4  10  -1   89.09   26.30
   3  10  -1    3.80    3.30
   2  10  -1  229.58   17.10
   1  10  -1  709.23   40.50
   0  10  -1   28.10    9.30
  -1  10  -1    0.00  108.59
  -2  10  -1  113.59   21.00
   5  11  -1   69.69   29.20
   4  11  -1  164.18   15.30
   3  11  -1   40.40    6.10
   2  11  -1    0.00   11.40
   1  11  -1   80.19   15.20
   0  11  -1    8.80    8.20
   0 -12  -2    0.00   13.70
  -1 -12  -2    0.00   22.60
  -2 -12  -2   37.50   19.30
  -3 -12  -2    2.70    9.80
  -4 -12  -2   77.59   23.50
  -5 -12  -2   74.79    9.60
   2 -11  -2  360.96   21.80
   1 -11  -2   13.80   24.50
   0 -11  -2  191.48   28.60
  -1 -11  -2  802.82   34.10
  -2 -11  -2  220.68   30.00
  -3 -11  -2  284.67   15.00
  -4 -11  -2  649.14   37.50
  -5 -11  -2   85.29    9.20
  -6 -11  -2    9.50    4.50
  -7 -11  -2  260.47   17.40
   3 -10  -2  186.78   16.70
   2 -10  -2   29.50   25.90
   1 -10  -2   17.90   10.70
   0 -10  -2  143.89    9.30
  -1 -10  -2    4.50   17.30
  -2 -10  -2    6.90    5.60
  -3 -10  -2  449.26   17.40
  -4 -10  -2   25.80   10.40
  -5 -10  -2    2.80    4.00
  -6 -10  -2  214.88   11.00
  -7 -10  -2    0.00   35.80
   4  -9  -2   42.80   15.70
   3  -9  -2  389.46   17.60
   2  -9  -2  111.69   23.30
   1  -9  -2  246.48   19.60
   0  -9  -2  845.32   21.80
  -1  -9  -2  349.47   15.60
  -2  -9  -2   32.80    4.40
  -3  -9  -2  584.44   18.90
  -4  -9  -2  323.17   21.30
  -5  -9  -2   41.80    4.80
  -6  -9  -2   39.90    7.50
  -7  -9  -2   76.59   16.90
  -8  -9  -2   28.30    8.90
   5  -8  -2   49.99   24.90
   4  -8  -2   20.40   40.20
   3  -8  -2  134.59   11.70
   2  -8  -2  104.99   10.40
   1  -8  -2   12.70    3.20
   0  -8  -2  113.19    6.90
  -1  -8  -2  126.49    7.70
  -2  -8  -2   37.00    4.50
  -3  -8  -2    5.20    3.80
  -4  -8  -2   21.10   19.30
  -5  -8  -2   81.59    5.20
  -6  -8  -2   36.10   14.90
  -7  -8  -2   40.20   18.30
  -8  -8  -2   25.30    6.40
   6  -7  -2  119.19   14.60
   5  -7  -2  131.69   54.89
   4  -7  -2   49.60    8.70
   3  -7  -2   34.80    5.60
   2  -7  -2  348.57   13.10
   1  -7  -2    4.30    2.40
   0  -7  -2   69.49    5.20
  -1  -7  -2 2034.80   39.60
  -2  -7  -2  197.08    8.00
  -3  -7  -2    2.20    5.70
  -4  -7  -2  984.00   26.00
  -5  -7  -2 1281.47   20.10
  -6  -7  -2   45.70    9.70
  -7  -7  -2  187.28   11.50
  -8  -7  -2  209.68   13.60
  -9  -7  -2   18.70   21.80
   7  -6  -2   25.90    9.80
   6  -6  -2   29.10    8.00
   5  -6  -2   71.59   28.80
   4  -6  -2  461.25   15.00
   3  -6  -2  589.04   15.00
   2  -6  -2  400.66   16.00
   1  -6  -2    3.40    1.90
   0  -6  -2  206.48    6.30
  -1  -6  -2  581.94   20.10
  -2  -6  -2  144.29    6.50
  -3  -6  -2  864.31   25.10
  -4  -6  -2  457.25   10.40
  -5  -6  -2   86.39    6.00
  -6  -6  -2  261.97   24.50
  -7  -6  -2  229.78   12.40
  -8  -6  -2   32.60    8.80
  -9  -6  -2   69.09  143.69
   7  -5  -2   28.40   11.40
   6  -5  -2    7.30    6.40
   5  -5  -2  340.37   39.10
   4  -5  -2  419.16   13.00
   3  -5  -2   20.00    3.60
   2  -5  -2  586.64   29.70
   1  -5  -2  990.60   19.20
   0  -5  -2   50.79    9.60
  -1  -5  -2 1641.74   29.10
  -2  -5  -2 3955.80   57.19
  -3  -5  -2  100.89   14.60
  -4  -5  -2   56.49    3.20
  -5  -5  -2    4.50    3.20
  -6  -5  -2   38.70   12.70
  -7  -5  -2   30.70    6.70
  -8  -5  -2    0.00    9.10
  -9  -5  -2    0.00   28.80
   8  -4  -2   18.20  118.39
   7  -4  -2   71.29   12.00
   6  -4  -2  300.17   16.60
   5  -4  -2  648.14   28.80
   4  -4  -2   74.49    6.40
   3  -4  -2 1336.87   38.20
   2  -4  -2 2643.44   45.10
   1  -4  -2    1.70    1.40
   0  -4  -2   26.90   19.90
  -1  -4  -2 1337.27   21.30
  -2  -4  -2  158.38    4.20
  -3  -4  -2   29.20    4.80
  -4  -4  -2 1186.98   24.40
  -5  -4  -2    2.10    2.90
  -6  -4  -2   18.30   10.10
  -7  -4  -2   54.99    8.10
  -8  -4  -2    0.00   44.10
  -9  -4  -2   38.60   31.60
   7  -3  -2   15.70    7.00
   6  -3  -2   77.89   13.80
   5  -3  -2  348.87   19.80
   4  -3  -2  374.56   10.80
   3  -3  -2   36.00    9.70
   2  -3  -2  182.88    6.20
   1  -3  -2    1.70    1.10
   0  -3  -2   63.79    7.80
  -1  -3  -2  444.76    7.30
  -2  -3  -2    3.60    0.90
  -3  -3  -2   74.39    6.60
  -4  -3  -2  277.77    9.20
  -5  -3  -2  315.77   12.10
  -6  -3  -2  153.88   22.80
  -7  -3  -2   80.09    9.30
  -8  -3  -2  180.18   38.90
  -9  -3  -2  103.39   31.80
   8  -2  -2  585.24   52.39
   7  -2  -2  101.59   11.90
   6  -2  -2   27.70   16.90
   5  -2  -2 1266.37   36.10
   4  -2  -2  493.15   11.80
   3  -2  -2    0.00    3.70
   2  -2  -2  980.40   14.20
   1  -2  -2 1098.69   14.10
   0  -2  -2  455.65   12.70
  -1  -2  -2   22.10    1.70
  -2  -2  -2 1481.25   19.00
  -3  -2  -2  626.34   38.40
  -4  -2  -2  155.88    6.50
  -5  -2  -2  747.43   14.90
  -6  -2  -2  211.68   15.30
  -7  -2  -2   31.60    4.10
  -8  -2  -2  150.68   12.10
  -9  -2  -2    2.20    9.60
   9  -1  -2    0.00   31.80
   8  -1  -2   50.79   24.10
   7  -1  -2  167.58   12.30
   6  -1  -2  486.15   24.50
   5  -1  -2   95.39    8.20
   4  -1  -2  778.02   15.80
   3  -1  -2  245.88    7.60
   2  -1  -2    6.60    1.10
   1  -1  -2  739.13    9.10
   0  -1  -2    7.50    2.10
  -1  -1  -2    1.20    1.10
  -2  -1  -2 1872.21   26.50
  -3  -1  -2   99.29    7.10
  -4  -1  -2   35.30    3.90
  -5  -1  -2  277.07   15.70
  -6  -1  -2  123.59    9.80
  -7  -1  -2  174.28   11.90
  -8  -1  -2   66.19   22.50
  -9  -1  -2    3.60   11.80
   9   0  -2   12.80   30.50
   8   0  -2  149.88   23.10
   7   0  -2  105.79    9.80
   6   0  -2  144.09    9.60
   5   0  -2  642.84   14.90
   4   0  -2  822.22   16.30
   3   0  -2 2336.77   41.80
   2   0  -2 1776.02   24.00
   1   0  -2  644.44   10.20
   0   0  -2 1740.53   34.70
  -1   0  -2 3526.65   47.50
  -2   0  -2  373.76    8.90
  -3   0  -2  219.28    8.90
  -4   0  -2   67.89    6.50
  -5   0  -2  112.89   14.30
  -6   0  -2   24.80    4.10
  -7   0  -2   40.80    6.30
  -8   0  -2  181.28   14.40
   9   1  -2    0.00   19.90
   8   1  -2   98.79   12.60
   7   1  -2    3.40    4.10
   6   1  -2  296.87   12.60
   5   1  -2    2.20    1.90
   4   1  -2   11.80    2.30
   3   1  -2 1024.20   45.40
   2   1  -2  755.92   13.50
   1   1  -2  479.95   12.70
   0   1  -2   55.59    2.60
  -1   1  -2    5.00    1.40
  -2   1  -2  239.28   29.00
  -3   1  -2   62.79    5.70
  -4   1  -2    3.30    2.70
  -5   1  -2  157.68   14.60
  -6   1  -2  263.87   16.00
  -7   1  -2   12.50    5.40
  -8   1  -2    0.00   16.50
   9   2  -2    0.00   17.20
   8   2  -2  715.73   27.10
   7   2  -2  825.12   26.40
   6   2  -2  167.28   16.90
   5   2  -2  199.48    6.00
   4   2  -2 4345.67   61.29
   3   2  -2  306.07    9.90
   2   2  -2   59.59    4.20
   1   2  -2 3691.03   87.39
   0   2  -2 6543.35   90.79
  -1   2  -2  584.64   12.70
  -2   2  -2 2458.55   63.89
  -3   2  -2  102.89    7.30
  -4   2  -2  415.66   14.00
  -5   2  -2  722.93   26.80
  -6   2  -2  695.73   26.40
  -7   2  -2  135.49   26.20
  -8   2  -2  468.45  372.56
   9   3  -2   27.20   18.20
   8   3  -2   15.50    5.60
   7   3  -2    6.30    3.90
   6   3  -2  205.68   26.00
   5   3  -2    2.30    1.90
   4   3  -2  190.38   10.20
   3   3  -2   15.60    6.10
   2   3  -2 1435.86   24.50
   1   3  -2   15.90    3.20
   0   3  -2   21.30    2.40
  -1   3  -2  518.35   13.80
  -2   3  -2  531.95   17.20
  -3   3  -2   71.69    6.60
  -4   3  -2  239.88   11.30
  -5   3  -2    0.00   21.40
  -6   3  -2  115.29   12.90
  -7   3  -2    0.10   25.00
   9   4  -2  156.18   30.00
   8   4  -2    1.50    7.80
   7   4  -2  288.47   42.70
   6   4  -2  115.39   11.90
   5   4  -2    3.50    1.90
   4   4  -2  443.66   21.30
   3   4  -2  257.27    9.70
   2   4  -2  475.25   12.10
   1   4  -2  417.36   20.40
   0   4  -2  434.46   11.80
  -1   4  -2   54.79    5.40
  -2   4  -2  481.45   22.50
  -3   4  -2  775.52   21.60
  -4   4  -2  334.07   20.70
  -5   4  -2  227.78   75.79
  -6   4  -2   77.49   17.80
  -7   4  -2  155.78  266.97
   9   5  -2    0.00   19.80
   8   5  -2   49.70   12.30
   7   5  -2   31.50    9.90
   6   5  -2   51.89    9.40
   5   5  -2  257.37   11.20
   4   5  -2   74.09    8.10
   3   5  -2  169.28    9.70
   2   5  -2  555.44   13.60
   1   5  -2 1028.30   45.50
   0   5  -2   87.69    8.70
  -1   5  -2  311.97   11.20
  -2   5  -2  331.47   18.40
  -3   5  -2    3.60    3.40
  -4   5  -2   15.50   21.10
  -5   5  -2   64.59   38.00
  -6   5  -2    3.40   10.70
   8   6  -2   97.89   10.90
   7   6  -2  282.27   19.90
   6   6  -2  113.89    7.40
   5   6  -2  100.09    7.70
   4   6  -2  927.81   26.70
   3   6  -2  166.68    7.00
   2   6  -2   49.00    9.70
   1   6  -2  539.65   34.70
   0   6  -2   49.00    6.60
  -1   6  -2   32.20    5.10
  -2   6  -2    0.70   16.70
  -3   6  -2  497.15   20.00
  -4   6  -2   14.70  191.98
  -5   6  -2  170.18   24.90
  -6   6  -2  277.97   45.40
   8   7  -2   27.50    6.60
   7   7  -2  138.79   12.90
   6   7  -2   46.00    6.10
   5   7  -2   71.89    6.90
   4   7  -2  242.38   12.10
   3   7  -2   66.49    4.90
   2   7  -2  130.59   11.60
   1   7  -2   28.50   15.10
   0   7  -2   67.49    8.80
  -1   7  -2   18.40   11.50
  -2   7  -2    4.90    3.70
  -3   7  -2   32.60    8.70
  -4   7  -2   36.60   28.40
  -5   7  -2   88.49   15.40
   8   8  -2   51.09    9.30
   7   8  -2   70.59   16.20
   6   8  -2  116.29    8.60
   5   8  -2   70.09    7.60
   4   8  -2    0.00    6.20
   3   8  -2  175.88   11.50
   2   8  -2   20.00   15.80
   1   8  -2    4.30    6.30
   0   8  -2  920.81   30.80
  -1   8  -2   70.19   14.30
  -2   8  -2  145.79    9.20
  -3   8  -2  275.17   21.00
  -4   8  -2   25.30   15.80
   7   9  -2   83.79   11.60
   6   9  -2    9.60    3.80
   5   9  -2    0.00   10.00
   4   9  -2   10.70   10.90
   3   9  -2   30.40    5.10
   2   9  -2   69.29   11.50
   1   9  -2  191.58   15.50
   0   9  -2   39.00    8.60
  -1   9  -2   20.20  192.18
  -2   9  -2  628.04   74.59
  -3   9  -2   13.60    7.00
   6  10  -2   33.20    6.10
   5  10  -2    0.20   25.70
   4  10  -2   14.90   11.00
   3  10  -2  252.07   13.10
   2  10  -2  262.97   22.60
   1  10  -2   85.49   17.50
   0  10  -2   92.29   14.10
  -1  10  -2   47.80  149.49
   4  11  -2   60.09    8.90
   3  11  -2  306.07   14.90
   2  11  -2   19.00   16.50
   1  11  -2  141.09   15.70
  -2 -13  -3   67.79   20.10
  -3 -13  -3   72.69   17.80
   1 -12  -3    0.00  146.79
   0 -12  -3   59.99    6.90
  -1 -12  -3  694.13   47.80
  -2 -12  -3  120.49   22.00
  -3 -12  -3   69.69    9.60
  -4 -12  -3  427.26   29.30
  -5 -12  -3  350.96   19.90
   2 -11  -3    0.00   22.00
   1 -11  -3   33.50   15.00
   0 -11  -3    0.50    3.30
  -1 -11  -3   90.09   13.40
  -2 -11  -3    4.40    6.10
  -3 -11  -3   24.20    6.40
  -4 -11  -3    6.10   16.90
  -5 -11  -3   11.80    4.90
  -6 -11  -3   34.00    7.30
  -7 -11  -3   20.40   31.10
   4 -10  -3  208.18   19.60
   3 -10  -3   66.49    8.90
   2 -10  -3  408.66   25.40
   1 -10  -3  897.81   29.30
   0 -10  -3  140.09    8.90
  -1 -10  -3  380.96   33.00
  -2 -10  -3  360.36   15.00
  -3 -10  -3   45.10    7.00
  -4 -10  -3  131.29   13.90
  -5 -10  -3   76.19    8.00
  -6 -10  -3    3.40    9.10
  -7 -10  -3   26.90   17.90
   5  -9  -3    0.00   18.30
   4  -9  -3   12.20    9.50
   3  -9  -3  101.49   10.70
   2  -9  -3  233.68   20.40
   1  -9  -3  103.09    8.10
   0  -9  -3   57.79    5.70
  -1  -9  -3  339.37   17.20
  -2  -9  -3   39.80    5.40
  -3  -9  -3   16.60    5.00
  -4  -9  -3  208.58   20.00
  -5  -9  -3   31.40    7.80
  -6  -9  -3    0.00    6.80
  -7  -9  -3  139.09   16.40
  -8  -9  -3    2.20    5.90
   5  -8  -3  178.48   35.10
   4  -8  -3  353.96   20.40
   3  -8  -3  162.88   10.90
   2  -8  -3   41.40   11.20
   1  -8  -3   13.70    4.10
   0  -8  -3  116.49    6.70
  -1  -8  -3  568.54   21.40
  -2  -8  -3    6.90    2.90
  -3  -8  -3    0.00   15.90
  -4  -8  -3  428.16   45.80
  -5  -8  -3  342.27    9.60
  -6  -8  -3   16.30    9.80
  -7  -8  -3  208.08   15.00
  -8  -8  -3  164.68   12.10
   6  -7  -3    3.90    7.00
   5  -7  -3  237.08   25.10
   4  -7  -3   12.40    4.50
   3  -7  -3    9.30    4.00
   2  -7  -3  286.17   11.80
   1  -7  -3  135.49    6.90
   0  -7  -3   84.49    4.80
  -1  -7  -3  260.37   15.90
  -2  -7  -3  440.66   13.50
  -3  -7  -3    0.00   25.40
  -4  -7  -3   75.39    4.70
  -5  -7  -3  452.15   10.80
  -6  -7  -3    0.00    6.80
  -7  -7  -3    1.80    4.00
  -8  -7  -3   65.19   11.30
  -9  -7  -3   70.79   33.80
   7  -6  -3  119.09   15.20
   6  -6  -3    5.20    6.20
   5  -6  -3   91.79   20.90
   4  -6  -3  363.86   12.80
   3  -6  -3    3.10    2.90
   2  -6  -3  639.24   24.40
   1  -6  -3  777.32   16.30
   0  -6  -3  156.28    9.10
  -1  -6  -3   68.79    7.10
  -2  -6  -3 1339.17   24.00
  -3  -6  -3   45.30    4.40
  -4  -6  -3    7.50    1.80
  -5  -6  -3  859.51   19.10
  -6  -6  -3  172.88   11.30
  -7  -6  -3    5.00    4.90
  -8  -6  -3  102.09   20.40
  -9  -6  -3  237.28   37.40
   7  -5  -3   66.59   10.50
   6  -5  -3  102.99   14.60
   5  -5  -3  294.97   40.80
   4  -5  -3   75.19    6.10
   3  -5  -3  907.81   23.70
   2  -5  -3 1418.06   28.40
   1  -5  -3    8.40    1.80
   0  -5  -3  345.07   33.40
  -1  -5  -3 1528.85   24.90
  -2  -5  -3  579.84   10.30
  -3  -5  -3  405.06   15.60
  -4  -5  -3   10.70    1.80
  -5  -5  -3   32.10    4.50
  -6  -5  -3   17.80    7.20
  -7  -5  -3  312.77   16.30
  -8  -5  -3   85.79   25.50
  -9  -5  -3   73.59   29.50
   7  -4  -3  151.78   12.20
   6  -4  -3  386.36   18.20
   5  -4  -3   52.59   10.50
   4  -4  -3  194.18    7.70
   3  -4  -3 1159.38   24.50
   2  -4  -3   51.49    4.20
   1  -4  -3   42.30    3.30
   0  -4  -3  690.93   14.30
  -1  -4  -3    9.10    1.80
  -2  -4  -3  637.64   11.40
  -3  -4  -3   56.69    5.60
  -4  -4  -3  152.88    5.90
  -5  -4  -3   92.59    8.50
  -6  -4  -3  455.75   27.10
  -7  -4  -3  174.58   12.70
  -8  -4  -3    0.00   22.60
  -9  -4  -3   17.20  160.48
   7  -3  -3  480.55   24.40
   6  -3  -3   90.99   16.50
   5  -3  -3  530.25   19.20
   4  -3  -3  466.85   10.50
   3  -3  -3  335.07   15.40
   2  -3  -3  215.48    6.00
   1  -3  -3 3533.45   41.30
   0  -3  -3 4814.62  106.09
  -1  -3  -3   56.39    3.10
  -2  -3  -3 2586.24   31.60
  -3  -3  -3   11.80    3.00
  -4  -3  -3  113.99    5.40
  -5  -3  -3  682.63   18.50
  -6  -3  -3  314.77   10.20
  -7  -3  -3   24.40    8.10
  -8  -3  -3  848.82   47.70
  -9  -3  -3   27.80   31.10
   8  -2  -3    2.30  108.79
   7  -2  -3   44.40   10.00
   6  -2  -3    0.10   18.30
   5  -2  -3   34.40    4.90
   4  -2  -3   93.09    4.20
   3  -2  -3  117.19    6.30
   2  -2  -3  220.28    5.50
   1  -2  -3  175.28    4.20
   0  -2  -3  393.06    8.90
  -1  -2  -3  328.87    7.10
  -2  -2  -3 1360.06   19.70
  -3  -2  -3    5.60    7.00
  -4  -2  -3    4.10    1.90
  -5  -2  -3  890.51   22.90
  -6  -2  -3  485.95   15.90
  -7  -2  -3    1.30    2.60
  -8  -2  -3   17.40    7.40
  -9  -2  -3  119.79   15.80
   9  -1  -3    0.00   25.00
   8  -1  -3   38.30  136.09
   7  -1  -3  176.38   12.70
   6  -1  -3   21.40    7.20
   5  -1  -3   23.20    3.50
   4  -1  -3  677.63   14.00
   3  -1  -3   94.89    5.60
   2  -1  -3  243.28    5.30
   1  -1  -3 1007.90   15.80
   0  -1  -3  800.72   17.50
  -1  -1  -3  815.52   15.90
  -2  -1  -3  930.61   16.70
  -3  -1  -3  465.75   14.20
  -4  -1  -3  281.67    9.20
  -5  -1  -3  212.28   17.10
  -6  -1  -3  159.38    9.30
  -7  -1  -3  271.77   13.80
  -8  -1  -3  142.09   14.00
   9   0  -3    0.00   36.90
   8   0  -3   39.60   10.20
   7   0  -3   35.10    6.40
   6   0  -3  281.97   11.80
   5   0  -3  108.29    6.30
   4   0  -3   73.29    5.00
   3   0  -3 1645.64   45.80
   2   0  -3   17.30    1.90
   1   0  -3  611.74   12.10
   0   0  -3    2.10    1.10
  -1   0  -3 1785.72   27.80
  -2   0  -3   67.89   25.80
  -3   0  -3  209.98    7.90
  -4   0  -3  121.19    7.60
  -5   0  -3   93.69   13.50
  -6   0  -3  163.98   13.20
  -7   0  -3   96.19    8.70
  -8   0  -3   26.50    9.30
   9   1  -3   66.89  210.68
   8   1  -3  204.18   15.80
   7   1  -3  456.15   15.80
   6   1  -3  515.85   23.50
   5   1  -3  521.55   13.40
   4   1  -3  423.66    9.90
   3   1  -3   80.79   12.40
   2   1  -3  339.97    9.20
   1   1  -3  720.03   16.30
   0   1  -3   10.80    1.70
  -1   1  -3    6.60    2.10
  -2   1  -3  727.13   56.29
  -3   1  -3  982.90   23.00
  -4   1  -3   17.30    4.10
  -5   1  -3  745.33   45.80
  -6   1  -3  627.14   31.40
  -7   1  -3    0.00   10.30
  -8   1  -3   56.09   22.70
   9   2  -3   49.60   25.80
   8   2  -3    5.50    6.80
   7   2  -3  178.88   11.20
   6   2  -3   86.59   23.20
   5   2  -3    4.40    1.90
   4   2  -3  482.85   15.30
   3   2  -3   44.60    6.40
   2   2  -3 1459.25   27.00
   1   2  -3    1.50    3.00
   0   2  -3   70.89    3.80
  -1   2  -3  214.78    7.30
  -2   2  -3  212.48   13.70
  -3   2  -3    1.50    2.60
  -4   2  -3   48.90    6.40
  -5   2  -3   29.30   22.20
  -6   2  -3    7.30    7.30
  -7   2  -3   13.00  240.68
   9   3  -3  119.39   27.90
   8   3  -3   19.80   11.30
   7   3  -3  286.87   20.40
   6   3  -3  348.77   17.90
   5   3  -3   71.19    5.30
   4   3  -3  173.98   21.00
   3   3  -3    6.40    2.30
   2   3  -3    1.00    1.60
   1   3  -3  316.87   28.30
   0   3  -3 2966.40   46.40
  -1   3  -3  177.88    6.80
  -2   3  -3 1008.30   34.50
  -3   3  -3 2139.09   42.20
  -4   3  -3   71.29   10.20
  -5   3  -3   90.89   24.20
  -6   3  -3  542.15   32.00
  -7   3  -3  250.47  335.87
   9   4  -3    0.00  143.69
   8   4  -3    5.70    4.10
   7   4  -3  106.69   11.40
   6   4  -3    0.00   10.60
   5   4  -3    0.00    2.80
   4   4  -3   84.49   19.00
   3   4  -3   67.69    5.80
   2   4  -3   13.10    3.40
   1   4  -3  163.88   10.50
   0   4  -3    1.80    1.70
  -1   4  -3   38.50    4.70
  -2   4  -3  476.05   24.10
  -3   4  -3   63.89    6.90
  -4   4  -3   17.60   15.10
  -5   4  -3   42.80   33.00
  -6   4  -3   19.00   11.30
   8   5  -3   47.10    6.10
   7   5  -3    0.00    9.10
   6   5  -3  288.77   17.10
   5   5  -3  617.84   19.00
   4   5  -3    0.00    6.00
   3   5  -3  431.26   13.50
   2   5  -3  496.55   16.50
   1   5  -3  609.84   35.70
   0   5  -3  967.40   26.80
  -1   5  -3  554.84   17.90
  -2   5  -3  378.76   20.10
  -3   5  -3  140.39   11.80
  -4   5  -3   71.39  199.98
  -5   5  -3   36.50   10.90
  -6   5  -3   32.10   15.60
   8   6  -3   10.50    3.90
   7   6  -3  284.67   42.70
   6   6  -3    7.20    3.70
   5   6  -3   34.10    4.80
   4   6  -3  465.75   16.90
   3   6  -3  356.96   11.10
   2   6  -3  664.93   35.30
   1   6  -3  225.68   15.30
   0   6  -3  411.56   16.20
  -1   6  -3   25.50    7.90
  -2   6  -3   18.30    6.00
  -3   6  -3  408.06   20.40
  -4   6  -3    1.80   26.70
  -5   6  -3   38.10   18.50
   8   7  -3    5.80    4.20
   7   7  -3   72.69   17.30
   6   7  -3   73.39    6.90
   5   7  -3    8.40    3.90
   4   7  -3  291.17   23.60
   3   7  -3  375.56   16.10
   2   7  -3  139.09   25.40
   1   7  -3   39.30    8.80
   0   7  -3  528.15   21.40
  -1   7  -3  126.69   30.90
  -2   7  -3   63.49    8.00
  -3   7  -3  285.47   21.30
  -4   7  -3  293.17   40.30
   7   8  -3   23.30   10.20
   6   8  -3   69.09    7.90
   5   8  -3    7.40    6.30
   4   8  -3    4.10    2.70
   3   8  -3  110.59   10.00
   2   8  -3   77.49   28.40
   1   8  -3   47.70    8.80
   0   8  -3  286.27   15.10
  -1   8  -3  126.19   20.70
  -2   8  -3    5.50    8.70
  -3   8  -3   40.40   10.80
   6   9  -3   85.99    7.50
   5   9  -3  644.74   22.70
   4   9  -3   46.50   11.40
   3   9  -3    1.90    3.80
   2   9  -3  563.34   37.10
   1   9  -3  163.58   16.30
   0   9  -3    2.40    6.50
  -1   9  -3  237.18  401.56
  -2   9  -3   43.70   17.20
   5  10  -3    0.30   12.60
   4  10  -3  288.77   16.50
   3  10  -3  621.44   21.50
   2  10  -3   66.69   17.70
   1  10  -3   13.50    9.00
   0  10  -3  351.86   34.20
  -1 -13  -4   99.39  285.67
  -2 -13  -4   42.60   17.30
  -3 -13  -4    9.90   16.20
   1 -12  -4    0.00  236.58
   0 -12  -4  116.79   14.40
  -1 -12  -4   60.29   19.20
  -2 -12  -4   17.90   11.70
  -3 -12  -4   86.69   10.20
  -4 -12  -4    0.00   11.30
  -5 -12  -4   21.20   11.10
  -6 -12  -4   16.60   16.60
   3 -11  -4    2.20    7.10
   2 -11  -4   96.59   13.10
   1 -11  -4  366.86   24.40
   0 -11  -4   51.89    9.70
  -1 -11  -4  150.58   26.20
  -2 -11  -4  813.02   29.30
  -3 -11  -4  117.79    9.80
  -4 -11  -4    4.90   12.20
  -5 -11  -4  603.54   21.90
  -6 -11  -4  132.29   14.60
  -7 -11  -4   26.40   11.00
   4 -10  -4    3.40   12.50
   3 -10  -4   94.09   10.30
   2 -10  -4   42.40   11.10
   1 -10  -4   44.90    6.00
   0 -10  -4   18.50    3.70
  -1 -10  -4    9.10    8.40
  -2 -10  -4    8.00    4.30
  -3 -10  -4    0.00    4.30
  -4 -10  -4   45.80   11.10
  -5 -10  -4   13.60    4.90
  -6 -10  -4    0.20   11.30
  -7 -10  -4  275.57   38.00
   5  -9  -4   53.49   20.30
   4  -9  -4  322.57   26.20
   3  -9  -4  492.25   19.90
   2  -9  -4  141.29   24.10
   1  -9  -4   35.50    5.50
   0  -9  -4  566.44   15.80
  -1  -9  -4   32.40   14.40
  -2  -9  -4    8.20    3.20
  -3  -9  -4  399.26   22.00
  -4  -9  -4    0.00   16.40
  -5  -9  -4   10.00    3.90
  -6  -9  -4  181.48   20.50
  -7  -9  -4  110.99   12.80
  -8  -9  -4   72.79   10.20
   5  -8  -4  137.89   15.30
   4  -8  -4   13.10    6.00
   3  -8  -4  154.58   10.00
   2  -8  -4   22.00    9.20
   1  -8  -4  481.35   13.60
   0  -8  -4  181.68    7.90
  -1  -8  -4    2.80   15.90
  -2  -8  -4  545.65   15.10
  -3  -8  -4   55.79   14.70
  -4  -8  -4    6.20    4.20
  -5  -8  -4  262.77    9.80
  -6  -8  -4    0.00   12.60
  -7  -8  -4   69.99    9.50
  -8  -8  -4  146.59   14.10
   6  -7  -4   67.09   11.60
   5  -7  -4   36.30    9.80
   4  -7  -4  188.08   11.60
   3  -7  -4  107.69    8.90
   2  -7  -4   16.10    5.10
   1  -7  -4  102.69    6.10
   0  -7  -4  126.69    8.70
  -1  -7  -4   13.80    4.10
  -2  -7  -4 1003.60   21.90
  -3  -7  -4  171.58   12.10
  -4  -7  -4   39.10    3.80
  -5  -7  -4 1108.09   20.30
  -6  -7  -4  835.92   26.00
  -7  -7  -4   70.69    7.80
  -8  -7  -4   63.09   15.30
   7  -6  -4   56.49   13.20
   6  -6  -4   20.50    8.00
   5  -6  -4    0.00   16.20
   4  -6  -4  262.67   11.50
   3  -6  -4  177.38   12.50
   2  -6  -4   93.79   16.70
   1  -6  -4  109.39    5.30
   0  -6  -4   79.09    9.00
  -1  -6  -4  201.78    5.90
  -2  -6  -4  147.09    3.90
  -3  -6  -4  121.49    6.00
  -4  -6  -4   99.09    5.00
  -5  -6  -4   16.10    3.80
  -6  -6  -4   94.69   15.00
  -7  -6  -4  102.29   10.60
  -8  -6  -4   12.30  199.58
  -9  -6  -4   67.89   27.00
   7  -5  -4  117.39   11.80
   6  -5  -4  348.97   26.90
   5  -5  -4    2.00    9.10
   4  -5  -4   68.49    6.10
   3  -5  -4 1169.68   27.90
   2  -5  -4    8.60    2.80
   1  -5  -4   56.29    4.20
   0  -5  -4  967.10   20.50
  -1  -5  -4  181.28    5.60
  -2  -5  -4  117.49    4.60
  -3  -5  -4 1066.39   20.70
  -4  -5  -4  346.67    8.10
  -5  -5  -4  214.38   10.30
  -6  -5  -4  348.77   19.10
  -7  -5  -4  356.56   18.00
  -8  -5  -4   45.50   23.50
  -9  -5  -4   82.99   30.70
   7  -4  -4   12.20    7.50
   6  -4  -4  106.99   12.50
   5  -4  -4  259.47   11.70
   4  -4  -4   83.29    5.10
   3  -4  -4  294.77   10.60
   2  -4  -4  357.16    8.60
   1  -4  -4  581.64   11.50
   0  -4  -4    2.90    2.40
  -1  -4  -4    2.90    1.50
  -2  -4  -4  734.93   13.50
  -3  -4  -4  471.35   15.50
  -4  -4  -4   33.00    3.50
  -5  -4  -4  251.67   30.70
  -6  -4  -4  255.87   17.80
  -7  -4  -4    9.70    7.50
  -8  -4  -4  109.19   24.50
  -9  -4  -4   22.40   15.90
   7  -3  -4   22.50    7.70
   6  -3  -4  470.75   34.40
   5  -3  -4  362.86   10.40
   4  -3  -4    3.60    1.80
   3  -3  -4  191.28   18.80
   2  -3  -4  104.39    4.30
   1  -3  -4  975.50   14.30
   0  -3  -4   82.39   12.90
  -1  -3  -4 1100.89   16.40
  -2  -3  -4  402.46    8.90
  -3  -3  -4  299.47   11.10
  -4  -3  -4  811.02   17.10
  -5  -3  -4  181.28   17.90
  -6  -3  -4  308.17   13.10
  -7  -3  -4  248.58    9.30
  -8  -3  -4  132.89   21.50
  -9  -3  -4  119.69   18.10
   8  -2  -4    8.90  118.69
   7  -2  -4   57.19    8.80
   6  -2  -4   95.99   17.60
   5  -2  -4   19.60    3.50
   4  -2  -4  399.46    9.40
   3  -2  -4  346.57   15.00
   2  -2  -4    5.60    1.50
   1  -2  -4  321.77    7.70
   0  -2  -4 1540.65   23.00
  -1  -2  -4   67.59    3.90
  -2  -2  -4  261.77   11.50
  -3  -2  -4 3708.83   55.99
  -4  -2  -4  132.69    7.00
  -5  -2  -4  404.56   21.20
  -6  -2  -4  425.26   15.50
  -7  -2  -4  157.28   12.20
  -8  -2  -4   33.60   10.40
   8  -1  -4   19.90    9.30
   7  -1  -4   13.40    4.30
   6  -1  -4   39.10   10.00
   5  -1  -4   19.20    3.20
   4  -1  -4   54.89    3.60
   3  -1  -4  727.13   17.40
   2  -1  -4   17.20    1.80
   1  -1  -4   61.99    2.70
   0  -1  -4  371.26    9.80
  -1  -1  -4 1081.99   21.10
  -2  -1  -4  286.77   12.20
  -3  -1  -4  699.63   16.60
  -4  -1  -4  279.57    9.40
  -5  -1  -4    0.00   11.90
  -6  -1  -4  168.78   11.70
  -7  -1  -4  129.29   11.80
  -8  -1  -4    0.00   17.20
   9   0  -4  235.58   35.70
   8   0  -4   13.20    6.70
   7   0  -4   10.10    4.40
   6   0  -4  626.14   23.10
   5   0  -4  377.66   12.00
   4   0  -4    1.60    1.40
   3   0  -4 1121.79   40.50
   2   0  -4 1252.87   24.80
   1   0  -4  356.56   11.70
   0   0  -4 1609.74   27.10
  -1   0  -4 2199.08   40.80
  -2   0  -4  623.54   28.10
  -3   0  -4   83.09    6.70
  -4   0  -4  729.83   18.80
  -5   0  -4  165.58   25.10
  -6   0  -4   46.70    9.00
  -7   0  -4  118.69   17.50
  -8   0  -4   84.39   25.10
   9   1  -4    0.00   24.70
   8   1  -4    4.80    4.30
   7   1  -4  269.37   15.90
   6   1  -4  308.47   14.50
   5   1  -4  324.17    7.90
   4   1  -4  514.25   13.00
   3   1  -4    0.00    3.20
   2   1  -4 2192.78   39.40
   1   1  -4  228.38   27.30
   0   1  -4  202.18    8.70
  -1   1  -4  717.13   17.90
  -2   1  -4  151.88   17.30
  -3   1  -4   54.89    5.50
  -4   1  -4   85.19    7.70
  -5   1  -4  199.48   20.70
  -6   1  -4   41.40    8.20
  -7   1  -4  220.58   44.30
   9   2  -4  145.29  290.77
   8   2  -4   35.50    6.30
   7   2  -4  111.09   15.20
   6   2  -4  308.47   21.20
   5   2  -4   34.60    3.80
   4   2  -4  211.38   16.20
   3   2  -4  331.37   10.30
   2   2  -4  307.47    8.10
   1   2  -4  322.57   19.30
   0   2  -4  739.53   17.20
  -1   2  -4   30.40    4.00
  -2   2  -4  303.27   30.90
  -3   2  -4 1416.46   31.30
  -4   2  -4  386.96   24.90
  -5   2  -4   73.89   15.90
  -6   2  -4  289.17   19.50
  -7   2  -4  382.76  325.47
   9   3  -4  143.99  215.08
   8   3  -4    9.50    4.80
   7   3  -4   39.80   13.50
   6   3  -4   80.79    8.10
   5   3  -4    3.10    2.40
   4   3  -4   48.10    8.30
   3   3  -4  116.19    6.90
   2   3  -4    5.80    2.60
   1   3  -4  109.89   10.70
   0   3  -4    5.10    1.80
  -1   3  -4   33.40    4.00
  -2   3  -4  144.89   13.40
  -3   3  -4   43.50    6.20
  -4   3  -4   34.00   12.60
  -5   3  -4   31.60   34.90
  -6   3  -4   18.40    8.70
  -7   3  -4   18.00   27.10
   8   4  -4   64.59    8.80
   7   4  -4  287.27   21.10
   6   4  -4   35.70    5.00
   5   4  -4 1554.14   35.30
   4   4  -4   55.89    7.00
   3   4  -4  118.89    7.80
   2   4  -4 2970.60   60.69
   1   4  -4  513.45   30.40
   0   4  -4 1070.99   19.60
  -1   4  -4 2507.45   55.39
  -2   4  -4  518.35   38.10
  -3   4  -4   67.89    8.70
  -4   4  -4 1653.63   91.19
  -5   4  -4  145.59   19.50
  -6   4  -4   20.30   10.70
   8   5  -4   18.70    4.40
   7   5  -4  155.48   29.50
   6   5  -4    8.20    3.90
   5   5  -4   15.80    3.80
   4   5  -4   41.00   10.10
   3   5  -4  269.97   10.90
   2   5  -4  165.68   10.40
   1   5  -4   20.90    5.60
   0   5  -4  553.34   15.10
  -1   5  -4   45.90    9.90
  -2   5  -4   22.70    9.50
  -3   5  -4  244.28   14.60
  -4   5  -4    0.00   23.60
  -5   5  -4   15.10   14.20
   8   6  -4  382.16   16.20
   7   6  -4   55.69    8.60
   6   6  -4   21.80    4.70
   5   6  -4  489.95   16.50
   4   6  -4  499.45   39.00
   3   6  -4  333.57   12.40
   2   6  -4  326.27   23.80
   1   6  -4  564.94   28.20
   0   6  -4  138.09   12.00
  -1   6  -4  210.08   13.90
  -2   6  -4   86.89    9.80
  -3   6  -4   82.69   10.40
  -4   6  -4  201.68   33.50
  -5   6  -4   61.59   22.30
   7   7  -4   35.40    9.40
   6   7  -4  201.18   11.40
   5   7  -4   24.40    6.90
   4   7  -4   21.20    8.20
   3   7  -4  173.48   12.80
   2   7  -4   40.40   22.20
   1   7  -4   13.00    6.30
   0   7  -4   14.00    4.70
  -1   7  -4  475.15   32.90
  -2   7  -4   23.30    5.80
  -3   7  -4   10.00   10.10
  -4   7  -4  149.29   61.79
   7   8  -4    0.00   23.30
   6   8  -4   17.20    5.00
   5   8  -4  355.56   17.30
   4   8  -4   24.30    8.50
   3   8  -4   15.50    4.80
   2   8  -4  217.38   29.40
   1   8  -4  242.48   14.00
   0   8  -4   97.79   12.50
  -1   8  -4  416.06   29.90
  -2   8  -4  419.36   29.30
   5   9  -4   74.49   14.50
   4   9  -4   57.59    8.60
   3   9  -4   51.49    8.70
   2   9  -4  192.88   23.20
   1   9  -4   57.79   10.70
   0   9  -4   40.60    9.90
  -1   9  -4   72.99  168.38
   3  10  -4   22.00    6.90
   2  10  -4   63.19   18.00
  -1 -13  -5   74.99   20.60
  -2 -13  -5   30.10   11.10
  -3 -13  -5  169.48   15.40
  -4 -13  -5   58.39   16.70
   1 -12  -5  161.78   23.40
   0 -12  -5   56.39   10.80
  -1 -12  -5   76.19   16.10
  -2 -12  -5  281.37   16.90
  -3 -12  -5  120.29   13.20
  -4 -12  -5   40.20   34.80
  -5 -12  -5  533.05   32.20
  -6 -12  -5  432.26   32.50
   3 -11  -5   11.50    6.70
   2 -11  -5   40.20   10.00
   1 -11  -5   37.10    8.20
   0 -11  -5   15.40    7.00
  -1 -11  -5   44.10    9.70
  -2 -11  -5   10.80    5.20
  -3 -11  -5   13.50    6.20
  -4 -11  -5   75.19   18.50
  -5 -11  -5   98.79    9.40
  -6 -11  -5    9.60   28.50
  -7 -11  -5   11.80    9.50
   4 -10  -5  135.79   16.40
   3 -10  -5  327.97   16.70
   2 -10  -5   58.99   18.50
   1 -10  -5  512.75   17.90
   0 -10  -5  795.82   35.70
  -1 -10  -5    0.00   19.30
  -2 -10  -5   11.20    4.80
  -3 -10  -5  416.66   21.20
  -4 -10  -5  218.98   17.40
  -5 -10  -5    5.60    4.20
  -6 -10  -5  454.35   23.70
  -7 -10  -5  157.28   35.70
   5  -9  -5   43.70   14.60
   4  -9  -5   17.10    7.40
   3  -9  -5   39.00    7.00
   2  -9  -5    0.00    7.00
   1  -9  -5   88.49    8.80
   0  -9  -5   62.19    6.40
  -1  -9  -5   15.20   10.30
  -2  -9  -5   35.30    5.50
  -3  -9  -5   29.80   12.60
  -4  -9  -5   66.09   15.10
  -5  -9  -5   16.80    6.20
  -6  -9  -5    0.00   11.00
  -7  -9  -5    2.10    5.50
  -8  -9  -5   28.90    8.70
   5  -8  -5  180.38   17.40
   4  -8  -5    9.10    5.80
   3  -8  -5  213.68   12.10
   2  -8  -5    0.00    9.60
   1  -8  -5  188.28    9.50
   0  -8  -5  206.18   11.70
  -1  -8  -5  460.85   14.80
  -2  -8  -5   11.90    3.30
  -3  -8  -5  304.77   15.30
  -4  -8  -5  589.84   13.70
  -5  -8  -5  495.05   14.70
  -6  -8  -5  945.51   31.20
  -7  -8  -5  439.66   18.60
  -8  -8  -5   37.00   14.50
   6  -7  -5   27.40   14.80
   5  -7  -5   40.50   10.20
   4  -7  -5  177.98   10.50
   3  -7  -5  218.28   12.90
   2  -7  -5  141.49   20.70
   1  -7  -5  170.98    7.20
   0  -7  -5  392.66   15.50
  -1  -7  -5  159.28    5.80
  -2  -7  -5   15.90    2.10
  -3  -7  -5  670.73   17.70
  -4  -7  -5   15.80    2.70
  -5  -7  -5    9.90    3.10
  -6  -7  -5  142.89   26.00
  -7  -7  -5    1.50    5.40
  -8  -7  -5   12.10  173.98
   7  -6  -5   26.60   11.50
   6  -6  -5  549.25   44.80
   5  -6  -5   37.20    9.70
   4  -6  -5    4.20    3.80
   3  -6  -5  229.08   31.70
   2  -6  -5  366.36   11.90
   1  -6  -5  724.23   14.30
   0  -6  -5  973.00   22.10
  -1  -6  -5  330.97    8.50
  -2  -6  -5  858.71   15.00
  -3  -6  -5 1671.33   34.40
  -4  -6  -5  339.27    9.10
  -5  -6  -5    4.00    1.90
  -6  -6  -5  489.45   34.30
  -7  -6  -5  216.18   14.60
  -8  -6  -5   10.30  159.48
   7  -5  -5   12.30   11.20
   6  -5  -5  517.45   33.40
   5  -5  -5   68.39   20.60
   4  -5  -5   25.70    3.90
   3  -5  -5  420.06   14.20
   2  -5  -5  267.77    7.80
   1  -5  -5    1.00    1.30
   0  -5  -5  800.72   24.10
  -1  -5  -5 1148.29   18.50
  -2  -5  -5    8.10    2.10
  -3  -5  -5   82.19   10.00
  -4  -5  -5  290.47    8.30
  -5  -5  -5  118.29   18.60
  -6  -5  -5   17.30   11.40
  -7  -5  -5  192.78   19.20
  -8  -5  -5  130.59   75.89
   7  -4  -5   17.40    8.60
   6  -4  -5  345.07   31.90
   5  -4  -5  164.78   10.10
   4  -4  -5  120.69    6.10
   3  -4  -5  433.16   29.70
   2  -4  -5 1033.80   16.40
   1  -4  -5  192.58    6.00
   0  -4  -5  112.89   19.10
  -1  -4  -5 1141.89   18.00
  -2  -4  -5    3.80    2.10
  -3  -4  -5  120.79   24.40
  -4  -4  -5 1192.78   22.10
  -5  -4  -5  361.06   20.80
  -6  -4  -5   24.80   12.40
  -7  -4  -5  583.64   14.90
  -8  -4  -5  165.98   45.50
   7  -3  -5   60.39   10.10
   6  -3  -5  491.15   27.80
   5  -3  -5   54.79    4.90
   4  -3  -5   86.69    5.50
   3  -3  -5   49.80    6.00
   2  -3  -5  194.58    5.30
   1  -3  -5  744.13   13.10
   0  -3  -5 1983.90   38.40
  -1  -3  -5  295.37    8.40
  -2  -3  -5   45.10   10.60
  -3  -3  -5 1775.12   43.80
  -4  -3  -5  781.02   17.50
  -5  -3  -5   69.99   17.90
  -6  -3  -5  252.67   13.50
  -7  -3  -5  262.37   14.00
  -8  -3  -5   30.60    8.60
   8  -2  -5    8.40   10.00
   7  -2  -5   41.30    6.30
   6  -2  -5    0.10   25.70
   5  -2  -5   12.90    3.20
   4  -2  -5   68.49    4.40
   3  -2  -5    0.00    4.20
   2  -2  -5  408.66   10.40
   1  -2  -5 3041.40   58.09
   0  -2  -5 1433.66   25.90
  -1  -2  -5  104.69    5.10
  -2  -2  -5  673.93   47.40
  -3  -2  -5  475.65   12.40
  -4  -2  -5  211.48    9.00
  -5  -2  -5  222.88   33.50
  -6  -2  -5   88.19   10.20
  -7  -2  -5   54.79   10.10
  -8  -2  -5   67.09   24.10
   8  -1  -5   15.50    7.10
   7  -1  -5  102.29    8.70
   6  -1  -5   61.39    7.70
   5  -1  -5  555.84   14.00
   4  -1  -5    6.20    1.90
   3  -1  -5  427.96   24.30
   2  -1  -5 2502.25   36.00
   1  -1  -5   41.10    9.00
   0  -1  -5 4422.06   65.79
  -1  -1  -5 7295.07   96.49
  -2  -1  -5  223.48   19.30
  -3  -1  -5    3.10    2.60
  -4  -1  -5 1362.26   25.00
  -5  -1  -5   98.29   16.70
  -6  -1  -5   17.30    6.10
  -7  -1  -5  213.28   27.90
  -8  -1  -5  130.99  260.37
   8   0  -5    6.10    5.80
   7   0  -5    5.20    5.40
   6   0  -5   19.50   11.20
   5   0  -5  179.98    6.00
   4   0  -5   33.70   17.30
   3   0  -5    5.40    3.00
   2   0  -5 1270.57   22.90
   1   0  -5  519.35   19.60
   0   0  -5   69.39    3.10
  -1   0  -5  920.31   19.90
  -2   0  -5   61.49    9.60
  -3   0  -5   26.30    4.20
  -4   0  -5  175.28    8.90
  -5   0  -5  100.69   21.60
  -6   0  -5    8.00    6.00
  -7   0  -5   63.99  168.28
  -8   0  -5   45.00   15.40
   8   1  -5  325.77   14.70
   7   1  -5  198.78   16.30
   6   1  -5  202.88   14.30
   5   1  -5  966.80   16.90
   4   1  -5  353.26   12.40
   3   1  -5  425.56   12.40
   2   1  -5 1094.39   20.40
   1   1  -5  585.64   41.40
   0   1  -5  283.27   11.40
  -1   1  -5  843.12   19.20
  -2   1  -5  254.07   23.50
  -3   1  -5  209.18   10.10
  -4   1  -5  288.37   14.50
  -5   1  -5  110.49   21.20
  -6   1  -5  107.69   13.70
  -7   1  -5  184.98  477.25
   8   2  -5   15.20    5.10
   7   2  -5   93.59   12.10
   6   2  -5   16.80   27.50
   5   2  -5    3.50    2.60
   4   2  -5  123.59   15.00
   3   2  -5  214.58    8.80
   2   2  -5    8.60    1.70
   1   2  -5  716.93   46.90
   0   2  -5  371.86   14.90
  -1   2  -5  411.96   12.80
  -2   2  -5  223.08   21.90
  -3   2  -5   81.49    7.80
  -4   2  -5    0.00   12.00
  -5   2  -5   60.09   24.10
  -6   2  -5    3.40    6.40
  -7   2  -5    8.60   25.30
   8   3  -5   62.09    8.20
   7   3  -5    5.70   15.90
   6   3  -5  178.98    9.30
   5   3  -5  547.65   15.40
   4   3  -5   88.89   25.40
   3   3  -5  221.48    7.90
   2   3  -5  867.81   23.30
   1   3  -5  761.52   44.80
   0   3  -5  870.11   19.90
  -1   3  -5 1901.71   63.19
  -2   3  -5  804.42   35.80
  -3   3  -5   10.70    5.80
  -5   3  -5  199.28   44.10
  -6   3  -5    1.30    9.30
   8   4  -5   13.00    5.10
   7   4  -5  146.29   14.20
   6   4  -5    4.30    3.00
   5   4  -5  181.48    9.80
   4   4  -5   14.30   15.50
   3   4  -5  142.49    8.20
   2   4  -5  226.18   11.50
   1   4  -5   12.70    5.30
   0   4  -5  139.59    6.40
  -1   4  -5   20.10    8.10
  -2   4  -5    7.90    4.80
  -3   4  -5    8.60    5.40
  -4   4  -5   19.80   20.00
  -5   4  -5   87.59   33.20
   8   5  -5  472.95   16.30
   7   5  -5  394.96   19.80
   6   5  -5  186.08    9.80
   5   5  -5 1524.85   33.20
   4   5  -5 1354.26   40.60
   3   5  -5   98.79    7.60
   2   5  -5  419.46   28.20
   1   5  -5 1650.23   44.10
   0   5  -5   49.90    4.60
  -1   5  -5  424.56   33.80
  -2   5  -5  350.46   16.60
  -3   5  -5    7.50    5.90
  -4   5  -5    0.00   20.10
  -5   5  -5  200.98   30.90
   7   6  -5    0.00    8.90
   6   6  -5   33.40    5.20
   5   6  -5  193.38   14.50
   4   6  -5  104.69   17.50
   3   6  -5  110.29    8.30
   2   6  -5   22.70    6.00
   1   6  -5   82.79   14.00
   0   6  -5    9.80    4.60
  -1   6  -5  153.38   20.20
  -2   6  -5    4.90    5.60
  -3   6  -5    2.60    9.10
  -4   6  -5   65.69  254.97
   7   7  -5  349.96   29.20
   6   7  -5  243.48   11.70
   5   7  -5   39.10   10.80
   4   7  -5  327.17   14.50
   3   7  -5  141.19   12.50
   2   7  -5  124.89   27.20
   1   7  -5   51.69   15.20
   0   7  -5  157.58   12.70
  -1   7  -5  181.68   23.30
  -2   7  -5  127.09   10.20
  -3   7  -5    4.20   16.20
   6   8  -5   36.80    5.90
   5   8  -5  156.58   13.30
   4   8  -5  150.98   12.40
   3   8  -5   65.09    8.90
   2   8  -5  277.27   23.70
   1   8  -5  107.19   14.90
   0   8  -5   25.20    7.50
   4   9  -5  296.17   16.70
   3   9  -5    8.00    5.90
   2   9  -5   34.60   22.90
   1   9  -5  437.06   33.80
  -1 -13  -6  110.99   24.10
  -2 -13  -6   30.90    8.90
  -3 -13  -6  154.18   15.80
   1 -12  -6   45.30   12.90
   0 -12  -6    1.80    7.10
  -1 -12  -6  226.58   25.30
  -2 -12  -6    7.90    6.30
  -3 -12  -6   24.70    8.20
  -4 -12  -6  167.68   32.40
  -5 -12  -6   30.70   10.60
   3 -11  -6   42.30    8.70
   2 -11  -6  228.08   16.80
   1 -11  -6  409.66   18.00
   0 -11  -6  369.86   23.40
  -1 -11  -6  218.28   49.20
  -2 -11  -6  505.55   23.00
  -3 -11  -6  720.03   28.10
  -4 -11  -6  247.58   31.90
  -5 -11  -6   42.70    7.70
  -6 -11  -6  129.49   40.80
   4 -10  -6   50.59   11.60
   3 -10  -6    6.30    5.30
   2 -10  -6    7.30    7.90
   1 -10  -6   35.00    7.20
   0 -10  -6   41.30    5.50
  -1 -10  -6   45.40   13.90
  -2 -10  -6  187.78   12.50
  -3 -10  -6   51.79   16.40
  -4 -10  -6  150.08   16.90
  -5 -10  -6   62.69    8.10
  -6 -10  -6   35.80    7.00
  -7 -10  -6    8.20    6.70
   5  -9  -6    0.00   21.10
   4  -9  -6   33.40    8.50
   3  -9  -6  163.48   17.80
   2  -9  -6  567.94   29.90
   1  -9  -6  118.19   10.10
   0  -9  -6  121.19   18.90
  -1  -9  -6 1076.79   41.00
  -2  -9  -6  192.18   11.70
  -3  -9  -6  152.28   33.40
  -4  -9  -6 1137.49   31.50
  -5  -9  -6  105.99    7.00
  -6  -9  -6    1.50   11.20
  -7  -9  -6  324.67   20.10
   5  -8  -6    0.00   16.60
   4  -8  -6    9.40    5.00
   3  -8  -6  155.68   13.10
   2  -8  -6  325.97   16.60
   1  -8  -6  100.89    6.50
   0  -8  -6  498.55   14.50
  -1  -8  -6   19.10    2.90
  -2  -8  -6   85.39    6.70
  -3  -8  -6  265.27    7.90
  -4  -8  -6   43.80    4.60
  -5  -8  -6    1.30    3.50
  -6  -8  -6   21.70   14.90
  -7  -8  -6   53.59    9.90
   6  -7  -6    4.90   24.80
   5  -7  -6   24.00   12.00
   4  -7  -6   30.00    5.40
   3  -7  -6    9.70   11.60
   2  -7  -6  695.53   19.20
   1  -7  -6 2479.75   37.50
   0  -7  -6  488.75   25.60
  -1  -7  -6  339.77    9.30
  -2  -7  -6 1591.84   23.80
  -3  -7  -6  562.44   15.10
  -4  -7  -6  356.66   10.00
  -5  -7  -6  353.06   13.30
  -6  -7  -6  174.88   27.60
  -7  -7  -6   42.80    8.10
   6  -6  -6  115.59   20.10
   5  -6  -6   12.20    9.10
   4  -6  -6   11.30    3.80
   3  -6  -6  265.17   11.60
   2  -6  -6  354.16    9.80
   1  -6  -6  246.78    8.10
   0  -6  -6  708.43   23.30
  -1  -6  -6 1342.67   21.50
  -2  -6  -6   94.39    5.30
  -3  -6  -6    0.00   13.00
  -4  -6  -6  445.86   11.50
  -5  -6  -6    0.00    9.70
  -6  -6  -6   17.20    9.60
  -7  -6  -6  220.98   19.10
   7  -5  -6   34.20    9.20
   6  -5  -6    0.00   20.30
   5  -5  -6  343.87   17.30
   4  -5  -6  331.67   10.00
   3  -5  -6  112.69   14.00
   2  -5  -6 1230.88   18.40
   1  -5  -6 1373.16   22.00
   0  -5  -6  221.88   20.20
  -1  -5  -6 1291.47   20.90
  -2  -5  -6  308.37    9.50
  -3  -5  -6  306.27   28.30
  -4  -5  -6  574.24   13.70
  -5  -5  -6   33.60    9.70
  -6  -5  -6    3.10    9.50
  -7  -5  -6   81.89    6.50
   7  -4  -6   36.70   14.60
   6  -4  -6  108.89   17.20
   5  -4  -6  410.36   16.10
   4  -4  -6   44.80    4.30
   3  -4  -6  150.38   15.90
   2  -4  -6  463.75    8.90
   1  -4  -6  109.19    6.20
   0  -4  -6  227.88    9.10
  -1  -4  -6   97.59    5.00
  -2  -4  -6    0.00   29.50
  -3  -4  -6  311.47   20.80
  -4  -4  -6  189.68    7.90
  -5  -4  -6  124.79   26.20
  -6  -4  -6   37.40    6.60
  -7  -4  -6    3.40    4.50
  -8  -4  -6    4.90   11.70
   8  -3  -6  169.28   22.10
   7  -3  -6   97.99   11.30
   6  -3  -6    1.40   27.50
   5  -3  -6  172.48    8.50
   4  -3  -6  969.10   18.40
   3  -3  -6   55.49    9.00
   2  -3  -6   59.19    5.00
   1  -3  -6  879.01   18.10
   0  -3  -6  229.48   10.20
  -1  -3  -6   48.70    4.30
  -2  -3  -6 1182.68   35.50
  -3  -3  -6  647.64   14.70
  -4  -3  -6   59.09    6.10
  -5  -3  -6  496.25   27.00
  -6  -3  -6  135.19   13.10
  -7  -3  -6    3.60   15.00
   8  -2  -6   24.50    7.50
   7  -2  -6  102.89   11.80
   6  -2  -6  187.88   13.00
   5  -2  -6  155.88    6.80
   4  -2  -6  274.17    7.80
   3  -2  -6  667.73   21.70
   2  -2  -6  804.72   16.60
   1  -2  -6  194.38   16.10
   0  -2  -6  726.53   13.40
  -1  -2  -6  440.36   11.20
  -2  -2  -6   22.60    5.90
  -3  -2  -6   86.29    6.20
  -4  -2  -6 1338.47   28.90
  -5  -2  -6  363.06   21.20
  -6  -2  -6   11.00    5.70
  -7  -2  -6   96.79   19.30
  -8  -2  -6   80.29   26.90
   8  -1  -6   39.40    8.20
   7  -1  -6  484.85   19.70
   6  -1  -6   56.59    9.70
   5  -1  -6  135.69    6.50
   4  -1  -6  277.97   24.90
   3  -1  -6  807.62   19.40
   2  -1  -6   14.50    2.50
   1  -1  -6  541.05   34.90
   0  -1  -6 1057.19   21.70
  -1  -1  -6   10.10    2.40
  -2  -1  -6  893.21   28.20
  -3  -1  -6 1416.26   31.30
  -4  -1  -6   16.60    4.20
  -5  -1  -6   10.00   92.59
  -6  -1  -6    7.40    5.50
  -7  -1  -6   33.60   24.70
   8   0  -6  256.47   14.70
   7   0  -6  435.66   19.40
   6   0  -6  214.58   14.40
   5   0  -6 1362.36   24.10
   4   0  -6  563.44   29.30
   3   0  -6  152.98    7.30
   2   0  -6  612.94   14.10
   1   0  -6 1299.47   41.10
   0   0  -6    6.40    3.10
  -1   0  -6  547.85   13.00
  -2   0  -6  504.85   25.80
  -3   0  -6   72.79    6.90
  -4   0  -6  224.48   19.70
  -5   0  -6  528.85   52.29
  -6   0  -6   27.30    9.00
  -7   0  -6   96.69  234.78
   8   1  -6    8.60    5.10
   7   1  -6   70.29   15.50
   6   1  -6   17.00    5.80
   5   1  -6   20.00    3.50
   4   1  -6  227.48   22.40
   3   1  -6    7.20    2.80
   2   1  -6   18.60    4.10
   1   1  -6  677.03   38.90
   0   1  -6  159.28    9.20
  -1   1  -6  177.98    8.00
  -2   1  -6  135.09   18.60
  -3   1  -6  146.39    9.00
  -4   1  -6    0.00   12.70
  -5   1  -6   35.50   22.80
  -6   1  -6   22.00    9.30
  -7   1  -6    3.00   26.70
   8   2  -6   32.20    7.70
   7   2  -6  691.53   37.50
   6   2  -6  337.17   13.70
   5   2  -6   23.80    4.10
   4   2  -6  812.62   46.60
   3   2  -6  579.24   13.10
   2   2  -6  136.19   10.20
   1   2  -6  153.48   31.50
   0   2  -6  367.26   16.80
  -1   2  -6   98.49    9.10
  -2   2  -6   73.39   17.60
  -3   2  -6  349.87   16.20
  -4   2  -6   81.79   84.29
  -5   2  -6  114.99   21.10
  -6   2  -6   83.19   15.60
   8   3  -6   99.49   10.00
   7   3  -6   69.69    6.70
   6   3  -6   55.09    6.50
   5   3  -6  200.28   11.20
   4   3  -6   70.39   10.70
   3   3  -6  623.34   14.40
   2   3  -6  481.95   56.39
   1   3  -6    0.00   18.40
   0   3  -6  597.44   20.40
  -1   3  -6    0.00    8.90
  -2   3  -6   23.10    6.90
  -3   3  -6  313.07   18.10
  -4   3  -6  138.49   23.60
  -5   3  -6    0.00   32.90
  -6   3  -6   39.30   15.90
   8   4  -6  176.98   13.40
   7   4  -6  187.78   15.40
   6   4  -6   36.80    5.30
   5   4  -6  419.36   13.60
   4   4  -6  672.83   22.40
   3   4  -6  344.97   10.40
   2   4  -6  497.55   29.00
   1   4  -6  934.01   37.70
   0   4  -6  113.89    7.30
  -1   4  -6  135.99   31.70
  -2   4  -6  270.07   16.90
  -3   4  -6   20.80    7.50
  -4   4  -6   19.80   12.70
  -5   4  -6  295.47   34.20
   7   5  -6   75.99   10.70
   6   5  -6    8.00    4.20
   5   5  -6   12.30    6.00
   4   5  -6   17.50    8.50
   3   5  -6   17.20    3.80
   2   5  -6    0.00   16.20
   1   5  -6   81.59   12.90
   0   5  -6   23.30    4.00
  -1   5  -6    7.40   19.20
  -2   5  -6    5.10    5.40
  -3   5  -6   13.00    7.60
  -4   5  -6    0.00   21.30
   7   6  -6  506.05   24.00
   6   6  -6  584.64   18.10
   5   6  -6    0.00   10.60
   4   6  -6  407.16   17.70
   3   6  -6 1556.84   34.60
   2   6  -6  154.78   15.50
   1   6  -6   12.90    5.70
   0   6  -6  219.08   12.50
  -1   6  -6   32.80   10.70
  -2   6  -6   28.30    8.00
  -3   6  -6  199.88   23.30
   6   7  -6    9.60    4.40
   5   7  -6   51.39   10.50
   4   7  -6   41.30    5.70
   3   7  -6   89.69    9.30
   2   7  -6   28.50   10.80
   1   7  -6  302.17   19.00
   0   7  -6    4.20    7.30
  -1   7  -6   13.40  120.99
  -2   7  -6   44.30   16.30
   4   8  -6   11.80    6.80
   3   8  -6  124.19   11.80
   2   8  -6  150.58   30.20
   1   8  -6   56.99   19.80
   0   8  -6   46.70   10.20
  -2 -13  -7   66.19   12.70
  -3 -13  -7    2.00   17.80
   1 -12  -7  364.06   23.50
   0 -12  -7   18.30    8.90
  -1 -12  -7  197.88   29.50
  -2 -12  -7  643.44   43.40
  -3 -12  -7  249.08   29.50
  -4 -12  -7  207.68   59.89
  -5 -12  -7  222.88   17.70
   2 -11  -7    0.00   21.00
   1 -11  -7  235.08   15.60
   0 -11  -7   13.80   13.20
  -1 -11  -7   33.00   25.00
  -2 -11  -7  334.27   18.30
  -3 -11  -7   34.30   14.10
  -4 -11  -7   38.00   12.30
  -5 -11  -7   81.39   10.30
  -6 -11  -7   89.09   19.90
   4 -10  -7  285.77   34.20
   3 -10  -7   87.59   15.00
   2 -10  -7  144.19   27.40
   1 -10  -7  233.68   17.90
   0 -10  -7  117.39   16.40
  -1 -10  -7  709.83   33.70
  -2 -10  -7  207.48   12.50
  -3 -10  -7  217.38   26.20
  -4 -10  -7  438.06   19.20
  -5 -10  -7   95.49   10.70
  -6 -10  -7   52.89   20.00
  -7 -10  -7   41.50    9.30
   4  -9  -7   14.60    7.00
   3  -9  -7   10.30   12.20
   2  -9  -7   59.99   25.10
   1  -9  -7    1.80    4.40
   0  -9  -7   65.29    9.50
  -1  -9  -7   14.20    4.30
  -2  -9  -7   11.40    4.00
  -3  -9  -7    0.00    8.30
  -4  -9  -7    1.80    2.60
  -5  -9  -7   10.90    3.60
  -6  -9  -7    9.20    7.80
  -7  -9  -7   12.30    8.00
   5  -8  -7  295.77   29.40
   4  -8  -7  681.73   23.10
   3  -8  -7    7.60   17.40
   2  -8  -7   92.89   12.60
   1  -8  -7   56.99    5.60
   0  -8  -7   85.09   33.90
  -1  -8  -7  510.75   12.50
  -2  -8  -7 1925.21   29.00
  -3  -8  -7  718.13   24.60
  -4  -8  -7   74.79    6.20
  -5  -8  -7  858.11   27.10
  -6  -8  -7  311.67   17.20
  -7  -8  -7   15.30    7.40
   6  -7  -7    0.00   20.40
   5  -7  -7   21.50   12.70
   4  -7  -7   97.99    8.80
   3  -7  -7  179.88   17.90
   2  -7  -7  164.68    8.20
   1  -7  -7    6.20    2.80
   0  -7  -7   36.70    6.30
  -1  -7  -7  155.08    7.00
  -2  -7  -7   67.29    4.80
  -3  -7  -7    9.70   11.70
  -4  -7  -7  287.57   10.10
  -5  -7  -7  100.09   17.00
  -6  -7  -7    0.00   27.70
  -7  -7  -7   40.60    9.40
   6  -6  -7   85.19   16.60
   5  -6  -7   10.10    6.90
   4  -6  -7  653.23   18.20
   3  -6  -7  398.46   26.60
   2  -6  -7  122.39    6.00
   1  -6  -7 1372.46   23.10
   0  -6  -7  835.12   26.80
  -1  -6  -7  104.89    6.10
  -2  -6  -7 1565.64   29.30
  -3  -6  -7 1838.02   34.70
  -4  -6  -7   47.80    5.10
  -5  -6  -7   10.80    8.10
  -6  -6  -7    0.00   21.30
  -7  -6  -7   12.90   10.80
   7  -5  -7   22.10   10.40
   6  -5  -7    0.00   10.00
   5  -5  -7  256.37   11.90
   4  -5  -7  115.29    7.50
   3  -5  -7    4.50    8.70
   2  -5  -7  409.56   11.90
   1  -5  -7  422.66   10.30
   0  -5  -7  277.27   15.00
  -1  -5  -7   95.19    5.50
  -2  -5  -7  516.95   18.10
  -3  -5  -7  159.98   12.00
  -4  -5  -7   97.59    6.70
  -5  -5  -7  206.78   41.00
  -6  -5  -7    8.80    5.60
  -7  -5  -7   15.10    6.10
  -8  -5  -7   18.00  173.58
   7  -4  -7   67.19   12.70
   6  -4  -7  113.09   13.90
   5  -4  -7  461.05   16.90
   4  -4  -7 1005.50   19.30
   3  -4  -7   99.39   13.00
   2  -4  -7  131.69    7.50
   1  -4  -7  520.45   13.90
   0  -4  -7  185.28    9.80
  -1  -4  -7    2.40    2.30
  -2  -4  -7  446.46   25.10
  -3  -4  -7   65.49    5.70
  -4  -4  -7    6.70    3.00
  -5  -4  -7  475.05   34.00
  -6  -4  -7   25.00    7.70
  -7  -4  -7   11.00    7.00
  -8  -4  -7    2.60    9.60
   7  -3  -7  251.67   16.30
   6  -3  -7    0.00    9.00
   5  -3  -7    5.70    2.80
   4  -3  -7  637.64   17.40
   3  -3  -7  296.57   13.90
   2  -3  -7   10.60    2.80
   1  -3  -7  306.97   14.30
   0  -3  -7  515.25   11.50
  -1  -3  -7   13.80    2.80
  -2  -3  -7   66.19   17.40
  -3  -3  -7  315.07   10.80
  -4  -3  -7   32.30    5.20
  -5  -3  -7   27.80  101.59
  -6  -3  -7   72.29   11.50
  -7  -3  -7   20.50   13.80
   7  -2  -7  169.48   15.30
   6  -2  -7  147.79   23.90
   5  -2  -7    1.30    2.80
   4  -2  -7  823.32   37.80
   3  -2  -7 1031.40   25.10
   2  -2  -7   25.40    3.60
   1  -2  -7  361.86   34.00
   0  -2  -7 1969.00   33.50
  -1  -2  -7   72.09    5.50
  -2  -2  -7  466.45   37.80
  -3  -2  -7  493.15   14.80
  -4  -2  -7   73.29    7.50
  -5  -2  -7   21.40   94.29
  -6  -2  -7  379.96   27.20
  -7  -2  -7  191.68   37.10
   8  -1  -7  125.29   11.50
   7  -1  -7   87.19   20.00
   6  -1  -7   81.79    9.00
   5  -1  -7   48.80    5.20
   4  -1  -7  866.31   22.50
   3  -1  -7 1065.79   26.80
   2  -1  -7  884.91   14.10
   1  -1  -7  558.74   21.50
   0  -1  -7  110.49    6.30
  -1  -1  -7  409.66   12.20
  -2  -1  -7  836.72   22.00
  -3  -1  -7    5.70    3.50
  -4  -1  -7  150.38   33.70
  -5  -1  -7   91.59   28.80
  -6  -1  -7   71.89   13.90
  -7  -1  -7   37.00  186.68
   8   0  -7    2.70    5.80
   7   0  -7   54.79   19.00
   6   0  -7  160.28    9.90
   5   0  -7  961.90   21.50
   4   0  -7  744.63   29.60
   3   0  -7  453.15   13.40
   2   0  -7  152.18    6.00
   1   0  -7   28.00    8.80
   0   0  -7   37.30    5.70
  -1   0  -7   70.09    4.70
  -2   0  -7   16.60    9.30
  -3   0  -7    1.40    3.50
  -4   0  -7    6.90   20.10
  -5   0  -7   47.60   26.30
  -6   0  -7  177.18   21.80
   8   1  -7   21.00    6.40
   7   1  -7  460.55   34.10
   6   1  -7  389.66   12.90
   5   1  -7   78.79    6.60
   4   1  -7  527.75   17.20
   3   1  -7 1965.20   36.20
   2   1  -7   70.79    7.00
   1   1  -7  147.79   27.20
   0   1  -7  141.29   10.20
  -1   1  -7  311.47    9.70
  -2   1  -7  111.59   14.00
  -3   1  -7  630.24   22.90
  -4   1  -7    5.70  139.79
  -5   1  -7    5.70    9.10
  -6   1  -7  244.78   24.00
   7   2  -7    0.00   10.40
   6   2  -7   10.20    3.60
   5   2  -7   34.60    5.00
   4   2  -7   24.30   10.20
   3   2  -7  320.07   15.20
   2   2  -7   71.29   10.70
   1   2  -7  178.98   16.80
   0   2  -7  228.38   13.40
  -1   2  -7   25.20    7.10
  -2   2  -7   16.00    6.50
  -3   2  -7  290.67   17.40
  -4   2  -7  151.88   21.70
  -5   2  -7    2.40   11.50
   7   3  -7   46.50   17.70
   6   3  -7  254.67   12.20
   5   3  -7   21.70    5.80
   4   3  -7   45.50    5.60
   3   3  -7  552.64   18.80
   2   3  -7  263.67   29.80
   1   3  -7  124.89   13.70
   0   3  -7  328.47   18.00
  -1   3  -7  119.59   13.80
  -2   3  -7  119.59   11.70
  -3   3  -7  137.59   15.20
  -4   3  -7   65.59   22.00
  -5   3  -7   43.30   17.90
   7   4  -7   58.59   11.80
   6   4  -7    6.90    4.00
   5   4  -7   48.40    8.30
   4   4  -7    6.30    2.80
   3   4  -7   43.90    7.60
   2   4  -7  109.59   24.30
   1   4  -7   57.79   10.40
   0   4  -7   68.19    8.60
  -1   4  -7  245.48   19.10
  -2   4  -7    6.60    5.60
  -3   4  -7   10.50   10.90
  -4   4  -7   10.50   19.60
   6   5  -7  347.97   14.30
   5   5  -7   45.30   16.10
   4   5  -7  239.28    8.70
   3   5  -7  442.26   21.10
   2   5  -7   27.10   27.20
   1   5  -7    0.60    5.40
   0   5  -7  209.98   15.60
  -1   5  -7   52.29   10.30
  -2   5  -7   22.30    8.00
  -3   5  -7  125.29   19.20
   6   6  -7   51.39    7.30
   5   6  -7   28.20   12.20
   4   6  -7    8.10    5.80
   3   6  -7   58.99    7.90
   2   6  -7   10.50   12.90
   1   6  -7   65.09   10.50
  -1   6  -7    0.00   25.30
  -2   6  -7    0.00    8.20
   4   7  -7   88.39    9.80
   3   7  -7  148.69   17.00
   2   7  -7  341.27   62.59
   1   7  -7   25.30   14.60
   1 -12  -8   39.60   10.90
   0 -12  -8  197.68   26.70
  -1 -12  -8  124.39   41.60
  -2 -12  -8   63.09   11.80
  -3 -12  -8   48.10   35.10
  -4 -12  -8    0.00   13.00
   2 -11  -8    0.00   26.40
   1 -11  -8  631.64   23.90
   0 -11  -8  372.16   27.50
  -1 -11  -8   68.49   29.80
  -2 -11  -8  209.28   23.30
  -3 -11  -8  259.17   30.00
  -4 -11  -8   23.60    8.50
  -5 -11  -8   41.20    9.10
   3 -10  -8  150.08   19.50
   2 -10  -8    0.00   16.40
   1 -10  -8    3.80    3.90
   0 -10  -8  337.97   19.00
  -1 -10  -8   33.90    9.40
  -2 -10  -8   60.99    9.00
  -3 -10  -8  180.28   16.60
  -4 -10  -8    6.40    4.40
  -5 -10  -8   43.60    5.40
  -6 -10  -8  122.39   23.00
   4  -9  -8  241.28   16.70
   3  -9  -8  119.49   14.20
   2  -9  -8  177.68   21.80
   1  -9  -8  249.78   12.20
   0  -9  -8  136.69   23.30
  -1  -9  -8  196.68   10.00
  -2  -9  -8  215.08    7.90
  -3  -9  -8   13.50   13.60
  -4  -9  -8   39.60    5.40
  -5  -9  -8  548.55   18.70
  -6  -9  -8    5.10   13.40
  -7  -9  -8    2.10   10.90
   5  -8  -8    3.10   30.20
   4  -8  -8  122.69    9.80
   3  -8  -8   60.29   17.90
   2  -8  -8  226.48   10.40
   1  -8  -8   33.10    5.30
   0  -8  -8  118.79   11.70
  -1  -8  -8    8.40    2.90
  -2  -8  -8  109.19    7.00
  -3  -8  -8    1.70   15.70
  -4  -8  -8  201.98    9.30
  -5  -8  -8   28.10    7.30
  -6  -8  -8   35.60   18.10
  -7  -8  -8   16.90   10.40
   5  -7  -8   30.40    8.40
   4  -7  -8  402.46   15.40
   3  -7  -8  506.55   17.60
   2  -7  -8  108.09    6.40
   1  -7  -8  781.92   17.60
   0  -7  -8 2041.40   36.10
  -1  -7  -8  126.69    6.80
  -2  -7  -8    9.20    6.30
  -3  -7  -8  168.38   10.80
  -4  -7  -8    7.60    3.80
  -5  -7  -8   17.50    8.20
  -6  -7  -8    0.00   40.30
  -7  -7  -8  109.79    9.80
   6  -6  -8   64.49   25.60
   5  -6  -8    2.00    3.70
   4  -6  -8   17.40    3.20
   3  -6  -8   72.99    7.80
   2  -6  -8  158.48    9.70
   1  -6  -8   50.29    4.60
   0  -6  -8   11.20   13.40
  -1  -6  -8  109.99    6.00
  -2  -6  -8  864.81   23.80
  -3  -6  -8   75.89   10.50
  -4  -6  -8  498.65   15.40
  -5  -6  -8    0.00   14.70
  -6  -6  -8    2.10    7.00
  -7  -6  -8    1.60    5.40
   6  -5  -8  288.77   24.90
   5  -5  -8  677.33   23.60
   4  -5  -8  335.07   16.20
   3  -5  -8  516.25   31.90
   2  -5  -8  487.35   14.40
   1  -5  -8   16.20    6.70
   0  -5  -8   86.99   11.30
  -1  -5  -8  301.37   10.30
  -2  -5  -8    0.00    5.50
  -3  -5  -8   25.20    4.50
  -4  -5  -8   54.89    5.90
  -5  -5  -8  173.18   16.70
  -6  -5  -8  225.28   15.20
  -7  -5  -8  198.58   14.90
   7  -4  -8   97.59   13.70
   6  -4  -8   27.40    8.40
   5  -4  -8   15.50    5.20
   4  -4  -8  255.87   23.90
   3  -4  -8  170.38   11.70
   2  -4  -8  123.29    7.40
   1  -4  -8  358.76   14.60
   0  -4  -8  198.58    8.80
  -1  -4  -8  205.28    8.80
  -2  -4  -8   48.20   12.40
  -3  -4  -8  524.55   14.10
  -4  -4  -8  116.69    8.60
  -5  -4  -8   66.29   19.90
  -6  -4  -8  193.38   17.10
  -7  -4  -8    0.00   29.20
   6  -3  -8   97.49   24.30
   5  -3  -8   96.49    8.60
   4  -3  -8   49.30   18.20
   3  -3  -8  376.96   18.20
   2  -3  -8    9.80    2.80
   1  -3  -8    0.30   18.30
   0  -3  -8  673.63   16.70
  -1  -3  -8  145.09    9.20
  -2  -3  -8   49.50   13.90
  -3  -3  -8  145.89    8.40
  -4  -3  -8  148.39   10.90
  -5  -3  -8   71.29   20.80
  -6  -3  -8  448.56   25.80
  -7  -3  -8  158.78  179.38
   7  -2  -8    0.30   34.50
   6  -2  -8  257.77   14.00
   5  -2  -8    2.30    3.90
   4  -2  -8   88.09   18.60
   3  -2  -8  414.26   13.10
   2  -2  -8   13.40    2.80
   1  -2  -8   90.49    7.50
   0  -2  -8  216.98    9.20
  -1  -2  -8   73.79    6.30
  -2  -2  -8  171.98   11.00
  -3  -2  -8   69.89    6.70
  -4  -2  -8   35.40   14.70
  -5  -2  -8    0.00   23.10
  -6  -2  -8   50.69   11.30
  -7  -2  -8   40.50  166.18
   7  -1  -8    0.00   14.80
   6  -1  -8  262.67   10.70
   5  -1  -8  113.99   11.20
   4  -1  -8  137.89   20.70
   3  -1  -8  212.08   10.40
   2  -1  -8  752.12   14.10
   1  -1  -8   44.40   13.10
   0  -1  -8   25.30    3.40
  -1  -1  -8  757.02   19.50
  -2  -1  -8   87.39    9.80
  -3  -1  -8    7.40    4.10
  -4  -1  -8  140.79  192.08
  -5  -1  -8   36.70  195.38
  -6  -1  -8    4.80    8.80
   7   0  -8  327.67   34.90
   6   0  -8  475.15   15.30
   5   0  -8  161.18    8.80
   4   0  -8  238.18   12.60
   3   0  -8   27.90    3.30
   2   0  -8   67.39    5.80
   1   0  -8    0.00   12.30
   0   0  -8  259.97   13.00
  -1   0  -8  210.28    7.70
  -2   0  -8  242.98   17.30
  -3   0  -8  359.46   15.60
  -4   0  -8   10.90  134.19
  -5   0  -8    1.60   13.10
  -6   0  -8  309.57   30.60
   7   1  -8   12.80   14.90
   6   1  -8    4.50    4.20
   5   1  -8  155.88    9.20
   4   1  -8   15.10    6.40
   3   1  -8  225.28   11.30
   2   1  -8   81.29   11.10
   1   1  -8  749.13   35.30
   0   1  -8   71.59    9.20
  -1   1  -8   86.59   14.40
  -2   1  -8   19.10    5.20
  -3   1  -8   98.09   11.40
  -4   1  -8    4.40   18.40
  -5   1  -8  144.89   22.30
   7   2  -8   10.40    9.70
   6   2  -8  230.58   10.70
   5   2  -8   28.30    7.30
   4   2  -8   40.70    5.70
   3   2  -8   94.69   10.20
   2   2  -8  140.99   22.90
   1   2  -8   94.29   14.70
   0   2  -8  419.26   19.40
  -1   2  -8  864.71   40.40
  -2   2  -8  127.09   10.90
  -3   2  -8  248.68   16.60
  -4   2  -8  131.89   29.20
  -5   2  -8   12.80   14.00
   7   3  -8   74.89   11.60
   6   3  -8    2.20    4.30
   5   3  -8   47.50    9.60
   4   3  -8   19.90   11.70
   3   3  -8    1.20    4.00
   2   3  -8  145.69   30.00
   1   3  -8   16.80    7.40
   0   3  -8    3.80    4.60
  -1   3  -8  368.06   40.90
  -2   3  -8   30.60    8.90
  -3   3  -8   87.99   12.50
  -4   3  -8   30.80  178.18
   6   4  -8   15.00    4.90
   5   4  -8  210.78   19.40
   4   4  -8  178.78   16.60
   3   4  -8   41.70    7.90
   2   4  -8  238.58   34.60
   1   4  -8  262.67   16.20
   0   4  -8  187.08   15.70
  -1   4  -8  277.37   29.70
  -2   4  -8  270.57   16.40
  -3   4  -8   51.09   14.70
   5   5  -8    0.00   14.00
   4   5  -8  223.18   15.00
   3   5  -8  104.99   13.10
   2   5  -8    0.00   26.30
   1   5  -8  197.38   18.80
   0   5  -8   17.90    7.70
  -1   5  -8   65.69  177.38
  -2   5  -8   69.89   16.30
   4   6  -8   11.80    8.40
   3   6  -8   63.89   11.70
   2   6  -8  390.56   37.70
   1   6  -8    5.80    6.70
   0 -12  -9  625.44  477.65
  -1 -12  -9    9.50   43.80
  -2 -12  -9    1.30   13.40
  -3 -12  -9   83.69   43.00
   2 -11  -9   11.50    6.80
   1 -11  -9   21.30    6.60
   0 -11  -9  164.28   14.00
  -1 -11  -9   19.90    6.80
  -2 -11  -9   60.59    8.90
  -3 -11  -9   35.30   14.20
  -4 -11  -9   60.79   12.40
  -5 -11  -9    8.60    8.40
   3 -10  -9  254.47   27.20
   2 -10  -9  187.38   23.90
   1 -10  -9    3.90    4.70
   0 -10  -9  172.08   20.20
  -1 -10  -9  286.77   12.40
  -2 -10  -9   18.70    3.40
  -3 -10  -9   35.90   11.40
  -4 -10  -9   88.79    6.00
  -5 -10  -9   56.39   12.30
  -6 -10  -9   48.40   12.60
   4  -9  -9    8.70    6.50
   3  -9  -9    0.00   20.10
   2  -9  -9  124.39    8.80
   1  -9  -9   48.40    6.70
   0  -9  -9   31.90    7.50
  -1  -9  -9   75.09    9.20
  -2  -9  -9   48.20    5.30
  -3  -9  -9   32.40   15.20
  -4  -9  -9  216.98   11.00
  -5  -9  -9    0.00   12.00
  -6  -9  -9   16.50   19.00
   4  -8  -9   22.10    4.50
   3  -8  -9  222.68   15.60
   2  -8  -9   74.39    6.40
   1  -8  -9    8.60    3.60
   0  -8  -9  214.78   18.80
  -1  -8  -9  167.88   10.00
  -2  -8  -9  172.38   12.40
  -3  -8  -9  355.76   15.90
  -4  -8  -9  167.38   11.40
  -5  -8  -9   74.29   10.60
  -6  -8  -9  350.86   19.80
   5  -7  -9    5.00    6.20
   4  -7  -9    2.10    4.60
   3  -7  -9   99.39   17.80
   2  -7  -9    1.50    2.90
   1  -7  -9    4.60    3.30
   0  -7  -9    0.00    8.60
  -1  -7  -9   28.70    5.30
  -2  -7  -9    0.10   15.60
  -3  -7  -9    0.00   11.20
  -4  -7  -9   19.80    4.60
  -5  -7  -9    8.20    8.80
  -6  -7  -9   21.90   13.30
   5  -6  -9  102.89   11.20
   4  -6  -9   41.40    7.60
   3  -6  -9  293.57   26.40
   2  -6  -9  721.73   21.60
   1  -6  -9   95.59   32.90
   0  -6  -9  346.57   17.60
  -1  -6  -9  685.73   17.60
  -2  -6  -9  101.99   10.30
  -3  -6  -9  126.19   10.10
  -4  -6  -9  731.63   20.50
  -5  -6  -9    0.00    8.90
  -6  -6  -9   46.30    8.80
  -7  -6  -9   46.30   10.00
   6  -5  -9   22.10   21.20
   5  -5  -9   69.89    8.60
   4  -5  -9    0.00   13.40
   3  -5  -9   24.90   13.80
   2  -5  -9   26.40    5.10
   1  -5  -9   72.29    8.90
   0  -5  -9   16.70    4.70
  -1  -5  -9   29.20    5.20
  -2  -5  -9  101.29    9.10
  -3  -5  -9  161.08    9.70
  -4  -5  -9    8.40    4.10
  -5  -5  -9   79.19   25.90
  -6  -5  -9  121.89   13.10
   6  -4  -9   64.99   28.20
   5  -4  -9  283.37   15.00
   4  -4  -9    0.00   16.70
   3  -4  -9   23.30   18.60
   2  -4  -9  211.58   11.40
   1  -4  -9  149.88   11.60
   0  -4  -9    3.60    2.60
  -1  -4  -9  387.16   13.60
  -2  -4  -9  213.18   11.50
  -3  -4  -9    7.40    3.40
  -4  -4  -9  257.97   14.70
  -5  -4  -9  724.73   55.89
  -6  -4  -9   85.99   11.40
   6  -3  -9  258.57   25.30
   5  -3  -9   31.70    6.30
   4  -3  -9   24.40   10.10
   3  -3  -9   62.89    8.30
   2  -3  -9   84.19    7.60
   1  -3  -9   78.89   15.80
   0  -3  -9  267.77   10.30
  -1  -3  -9  320.97   11.10
  -2  -3  -9   54.89   10.60
  -3  -3  -9  165.38   11.90
  -4  -3  -9  174.88   15.00
  -5  -3  -9    6.60   14.80
  -6  -3  -9   18.60    7.90
   6  -2  -9   40.00   11.70
   5  -2  -9   10.70    5.10
   4  -2  -9   67.99   12.70
   3  -2  -9  116.89    8.90
   2  -2  -9  553.84   16.20
   1  -2  -9  166.98   15.70
   0  -2  -9   62.29    5.70
  -1  -2  -9 1229.28   28.10
  -2  -2  -9  249.58   14.60
  -3  -2  -9   23.60    4.70
  -4  -2  -9  539.35   44.10
  -6  -2  -9   25.00   10.40
   7  -1  -9    8.50   21.40
   6  -1  -9    2.00    5.30
   5  -1  -9  217.18   12.50
   4  -1  -9   74.89    9.60
   3  -1  -9    3.20    3.20
   2  -1  -9  330.17   10.20
   1  -1  -9  228.48   23.50
   0  -1  -9    3.80    3.60
  -1  -1  -9  159.08   10.10
  -2  -1  -9  371.96   27.00
  -3  -1  -9   36.10    6.10
  -4  -1  -9    7.20   19.70
  -5  -1  -9   32.70   10.60
   6   0  -9    6.70    4.80
   5   0  -9  271.37   13.60
   4   0  -9  518.15   20.10
   3   0  -9   19.10    3.40
   2   0  -9  203.18   12.50
   1   0  -9  420.36   34.90
   0   0  -9  158.58   13.00
  -1   0  -9   76.49   22.10
  -2   0  -9  674.43   19.70
  -3   0  -9   74.89    9.00
  -4   0  -9    1.50   19.60
  -5   0  -9  305.37   23.50
   6   1  -9  258.17   11.10
   5   1  -9  188.38   14.40
   4   1  -9    0.00   11.70
   3   1  -9   52.49    7.60
   2   1  -9  552.04   28.60
   1   1  -9  114.69   13.30
   0   1  -9   38.20    7.70
  -1   1  -9   81.99   17.30
  -2   1  -9    3.50    3.30
  -3   1  -9   66.39   10.30
  -4   1  -9  301.17   36.40
   6   2  -9   19.90    5.30
   5   2  -9   28.50    6.70
   4   2  -9  123.49   23.10
   3   2  -9    9.40    4.80
   2   2  -9    0.00   14.00
   1   2  -9   42.20   14.80
   0   2  -9   37.20    8.00
  -1   2  -9  113.89   24.40
  -2   2  -9  203.38   21.40
  -3   2  -9  339.77   21.00
  -4   2  -9  168.28   42.70
   6   3  -9    5.00    4.40
   5   3  -9  566.64   29.30
   4   3  -9  322.57   18.40
   3   3  -9   48.70    8.10
   2   3  -9   29.20   40.60
   1   3  -9  693.03   27.80
   0   3  -9   96.49   12.70
  -1   3  -9  196.98   36.40
  -2   3  -9  368.06   23.40
  -3   3  -9   12.30   14.40
   5   4  -9   14.70   18.20
   4   4  -9   23.00    7.10
   3   4  -9   10.10    5.10
   2   4  -9   18.70   26.00
   1   4  -9  248.18   18.90
   0   4  -9    9.90    8.70
  -2   4  -9  221.08   25.80
   3   5  -9   49.60    9.20
   2   5  -9   48.70   33.10
   1   5  -9  198.88   22.20
   0   5  -9   81.49   14.90
   1 -11 -10   29.30    7.60
   0 -11 -10  237.18   28.10
  -1 -11 -10  227.58   12.80
  -2 -11 -10    3.70    3.00
  -3 -11 -10  109.19   15.00
  -4 -11 -10  270.67   19.50
   2 -10 -10   11.50    6.20
   1 -10 -10   12.50    4.50
   0 -10 -10    9.80    7.20
  -1 -10 -10    7.20    4.30
  -2 -10 -10   12.80    4.90
  -3 -10 -10    0.00   21.30
  -4 -10 -10    4.40    5.60
  -5 -10 -10   67.89   32.10
   3  -9 -10    0.00   13.90
   2  -9 -10  178.68   10.70
   1  -9 -10    2.60    3.80
   0  -9 -10   61.79   15.80
  -1  -9 -10  274.97   12.90
  -2  -9 -10  350.86   20.30
  -3  -9 -10   18.10   12.40
  -4  -9 -10  209.18   13.90
  -5  -9 -10  352.26   26.70
   4  -8 -10   36.50    9.90
   3  -8 -10  123.49   13.60
   2  -8 -10    1.80    4.30
   1  -8 -10  197.18   11.90
   0  -8 -10    6.40   18.70
  -1  -8 -10   14.70    4.60
  -2  -8 -10  365.26   28.30
  -3  -8 -10   21.60   15.10
  -4  -8 -10    9.20    5.30
  -5  -8 -10  133.19   13.70
  -6  -8 -10    4.20    6.00
   4  -7 -10    9.00    5.70
   3  -7 -10  220.38   24.10
   2  -7 -10  423.86   20.30
   1  -7 -10  121.79   25.40
   0  -7 -10  283.17   16.10
  -1  -7 -10  767.72   25.30
  -2  -7 -10  259.37   36.00
  -3  -7 -10  122.29   16.30
  -4  -7 -10  518.35   18.40
  -5  -7 -10   23.90   15.00
  -6  -7 -10   89.59   12.20
   5  -6 -10   59.79   10.50
   4  -6 -10   29.00   10.30
   3  -6 -10    0.00   11.40
   2  -6 -10  273.87   14.30
   1  -6 -10   22.60   11.20
   0  -6 -10  155.88    8.80
  -1  -6 -10    8.50    3.80
  -2  -6 -10   23.20    7.90
  -3  -6 -10   12.60    4.40
  -4  -6 -10   17.80    5.70
  -5  -6 -10   16.60   13.30
  -6  -6 -10   24.00    8.20
   5  -5 -10  278.37   16.20
   4  -5 -10  267.37   25.60
   3  -5 -10   78.89   23.40
   2  -5 -10  262.67   14.00
   1  -5 -10  275.77   15.60
   0  -5 -10   53.69    8.10
  -1  -5 -10  106.39   10.50
  -2  -5 -10  736.43   26.10
  -3  -5 -10  181.98   13.80
  -4  -5 -10  112.19   15.20
  -5  -5 -10  617.94   35.40
  -6  -5 -10  131.99   14.60
   6  -4 -10   43.80   11.00
   5  -4 -10   70.29    9.30
   4  -4 -10    1.50   15.00
   3  -4 -10    0.20    4.60
   2  -4 -10   96.99    8.70
   1  -4 -10    3.70    5.80
   0  -4 -10   21.60    4.50
  -1  -4 -10    6.70    4.10
  -2  -4 -10  229.68   24.30
  -3  -4 -10    0.60    5.00
  -4  -4 -10  349.87   36.00
  -5  -4 -10   19.40   36.00
  -6  -4 -10   23.70    9.70
   6  -3 -10   28.30   12.30
   5  -3 -10   11.00    6.30
   4  -3 -10   30.30    9.90
   3  -3 -10  148.19   10.20
   2  -3 -10   86.19    7.70
   1  -3 -10  168.28   26.90
   0  -3 -10  361.96   14.90
  -1  -3 -10  393.16   22.60
  -2  -3 -10  611.14   26.20
  -3  -3 -10  691.83   24.00
  -4  -3 -10  400.56   25.10
  -5  -3 -10  171.98  216.58
   6  -2 -10   39.80    8.50
   5  -2 -10  205.98   13.70
   4  -2 -10   91.19   15.30
   3  -2 -10   30.40    6.20
   2  -2 -10  316.77   18.30
   1  -2 -10  330.97   20.20
   0  -2 -10   18.30    4.30
  -1  -2 -10   68.99   10.80
  -2  -2 -10  275.97   18.60
  -3  -2 -10   27.40    5.80
  -4  -2 -10   50.59   15.20
  -5  -2 -10  278.57   26.70
   6  -1 -10   99.49    9.30
   5  -1 -10   41.40    7.40
   4  -1 -10  284.37   37.30
   3  -1 -10   51.09    5.20
   2  -1 -10  337.67   24.80
   1  -1 -10  588.04   49.10
   0  -1 -10   39.70    8.90
  -1  -1 -10    0.00   54.29
  -2  -1 -10  554.14   19.80
  -3  -1 -10  316.97   16.10
  -4  -1 -10  133.39   19.30
  -5  -1 -10  101.79   13.10
   6   0 -10   16.70    6.20
   5   0 -10  131.19   13.60
   4   0 -10  272.87   25.00
   3   0 -10    0.50    2.40
   2   0 -10    0.00   16.00
   1   0 -10  264.37   30.40
   0   0 -10   58.29    9.70
  -1   0 -10   26.60  126.39
  -2   0 -10  125.79    7.00
  -3   0 -10   22.20    6.90
  -4   0 -10   47.80   13.20
   5   1 -10    2.70    3.30
   4   1 -10  184.08   20.00
   3   1 -10  113.19   11.40
   2   1 -10   49.40   18.90
   1   1 -10  195.58   29.70
   0   1 -10  649.34   32.20
  -1   1 -10   12.20  134.29
  -2   1 -10   36.10   13.00
  -3   1 -10   96.39   11.00
   5   2 -10   35.10   29.50
   4   2 -10   71.49   12.90
   3   2 -10   27.20    6.10
   2   2 -10  251.57   25.50
   1   2 -10  554.04   32.10
   0   2 -10   63.99   11.40
  -1   2 -10  193.08  280.67
  -2   2 -10  497.45   36.30
   4   3 -10    6.50    7.40
   3   3 -10  272.07   17.10
   2   3 -10  233.28   20.40
   1   3 -10   13.00    7.10
   0   3 -10   18.30   10.50
  -1   3 -10  122.59  246.88
   2   4 -10   62.39   18.00
   1   4 -10  519.35   33.20
  -1 -11 -11   17.80    6.50
  -2 -11 -11   31.80   10.10
   1 -10 -11  196.98   16.30
   0 -10 -11   31.90   22.50
  -1 -10 -11   81.49    8.90
  -2 -10 -11  400.86   22.70
  -3 -10 -11   69.09   18.80
   2  -9 -11   23.20    7.00
   1  -9 -11   79.49   10.30
   0  -9 -11    0.00   13.30
  -1  -9 -11   13.60    5.20
  -2  -9 -11  221.18   16.00
  -3  -9 -11  112.49   17.70
  -4  -9 -11    2.40    7.00
   3  -8 -11  108.19   29.70
   2  -8 -11   24.90    7.20
   1  -8 -11  361.26   24.50
   0  -8 -11  452.85   27.60
  -1  -8 -11  102.39   10.50
  -2  -8 -11  563.94   26.70
  -3  -8 -11  486.95   22.00
  -4  -8 -11  174.08   16.50
  -5  -8 -11  139.79   24.80
   4  -7 -11    3.80   13.30
   3  -7 -11   28.20   24.20
   2  -7 -11   68.69   10.40
   1  -7 -11    0.00   17.30
   0  -7 -11  304.87   19.50
  -1  -7 -11    8.90    4.40
  -2  -7 -11    6.20    8.70
  -3  -7 -11  213.18   15.00
  -4  -7 -11    6.10    5.80
  -5  -7 -11   25.70   14.30
   4  -6 -11  232.48   41.40
   3  -6 -11   23.50   24.30
   2  -6 -11  209.38   13.30
   1  -6 -11  679.93   43.20
   0  -6 -11  268.37   18.50
  -1  -6 -11  130.09   11.10
  -2  -6 -11  413.86   21.50
  -3  -6 -11  389.26   18.10
  -4  -6 -11   55.39   14.90
  -5  -6 -11  118.79   20.40
   4  -5 -11  128.79   26.90
   3  -5 -11   56.59    8.50
   2  -5 -11   30.60    5.80
   1  -5 -11    0.00    7.70
   0  -5 -11   14.70    4.90
  -1  -5 -11   14.90    5.00
  -2  -5 -11   69.29   12.00
  -3  -5 -11    5.60    5.60
  -4  -5 -11    5.80   13.10
  -5  -5 -11   70.99   17.50
   5  -4 -11    0.00   11.70
   4  -4 -11  384.46   30.90
   3  -4 -11  312.87   15.20
   2  -4 -11    6.00    4.90
   1  -4 -11  264.47   21.40
   0  -4 -11  729.43   22.00
  -1  -4 -11   39.50   11.00
  -2  -4 -11  335.57   27.40
  -3  -4 -11  447.16   19.30
  -4  -4 -11   35.00   15.70
  -5  -4 -11   28.10    9.50
   5  -3 -11   61.19   10.00
   4  -3 -11   29.90    9.50
   3  -3 -11    5.80    4.50
   2  -3 -11   72.39    9.60
   1  -3 -11    0.00   10.30
   0  -3 -11    3.80    4.50
  -1  -3 -11   15.80   10.60
  -2  -3 -11    0.00   25.00
  -3  -3 -11   27.80    8.20
  -4  -3 -11    0.00   19.30
   5  -2 -11   50.59    9.00
   4  -2 -11   77.69   22.30
   3  -2 -11  442.16   17.80
   2  -2 -11  496.35   30.30
   1  -2 -11  212.78   36.60
   0  -2 -11  524.55   27.30
  -1  -2 -11  386.96   40.60
  -2  -2 -11   79.79   10.90
  -3  -2 -11  219.68   14.90
  -4  -2 -11   52.09   16.90
   5  -1 -11    3.10    6.30
   4  -1 -11  287.87   18.30
   3  -1 -11  112.79   14.90
   2  -1 -11   24.80   20.00
   1  -1 -11  108.19   35.40
   0  -1 -11  114.89   13.60
  -1  -1 -11    0.00   32.20
  -2  -1 -11   71.49   20.20
  -3  -1 -11   55.29   10.00
   4   0 -11  219.48   46.60
   3   0 -11  375.66   23.80
   2   0 -11    7.70   15.70
   1   0 -11   41.80   13.60
   0   0 -11  355.26   21.90
  -1   0 -11    0.00  159.18
  -2   0 -11    0.00    8.60
  -3   0 -11    6.60    6.60
   4   1 -11    9.90    4.40
   3   1 -11  172.18   14.10
   2   1 -11  151.18   13.90
   1   1 -11   45.60   11.70
   0   1 -11   79.49   13.10
  -1   1 -11   61.79  219.18
  -2   1 -11   35.20   11.30
   3   2 -11   98.69    9.90
   2   2 -11  193.98   21.10
   1   2 -11    5.30    9.00
   0   2 -11   50.69   16.30
   1  -9 -12  115.89   30.20
   0  -9 -12   82.49  333.97
  -1  -9 -12    0.00    8.70
  -2  -9 -12  363.16   26.00
  -3  -9 -12  621.84   29.60
   2  -8 -12    0.00    6.00
   1  -8 -12   46.40   28.70
   0  -8 -12   27.70   16.60
  -1  -8 -12   91.99   10.70
  -2  -8 -12  159.68   20.50
  -3  -8 -12  159.08   13.60
   2  -7 -12  256.47   22.50
   1  -7 -12  229.98   23.70
   0  -7 -12  567.34   25.20
  -1  -7 -12  239.68   13.80
  -2  -7 -12   12.70   20.20
  -3  -7 -12  332.77   19.50
   3  -6 -12    1.80    6.70
   2  -6 -12  116.69   11.30
   1  -6 -12   87.39   19.80
   0  -6 -12    0.00    4.50
  -1  -6 -12  180.48   16.50
  -2  -6 -12    0.00   11.20
  -3  -6 -12    9.40    6.30
  -4  -6 -12  130.29   17.70
   3  -5 -12  411.06   22.90
   2  -5 -12   28.30    6.30
   1  -5 -12   30.60   12.60
   0  -5 -12  415.56   20.60
  -1  -5 -12    0.10    7.10
  -2  -5 -12   26.70   14.40
  -3  -5 -12  424.66   19.80
   3  -4 -12  113.29   11.30
   2  -4 -12    4.70    6.40
   1  -4 -12    0.00   16.40
   0  -4 -12   57.99    8.80
  -1  -4 -12   28.70   17.70
  -2  -4 -12   94.39   19.60
  -3  -4 -12   18.50    7.70
   4  -3 -12   71.19   12.40
   3  -3 -12  561.04   31.40
   2  -3 -12  454.55   28.30
   1  -3 -12    0.00   39.40
   0  -3 -12  350.66   18.40
  -1  -3 -12  567.94   25.20
  -2  -3 -12   17.50    9.20
  -3  -3 -12   47.40    9.30
   3  -2 -12  210.58   42.80
   2  -2 -12    0.00   17.20
   1  -2 -12   51.69   19.20
   0  -2 -12   43.50    9.00
  -1  -2 -12   26.10   22.10
  -2  -2 -12    0.00   14.40
   3  -1 -12  274.47   22.30
   2  -1 -12  225.28  340.27
   1  -1 -12  108.29   20.20
   0  -1 -12   18.60    7.90
  -1  -1 -12   15.90   27.30
   2   0 -12  143.49   16.40
   1   0 -12    7.00   16.20
   0   0 -12   28.50   11.90
   0  -7 -13    7.00    7.30
  -1  -7 -13   74.49   13.10
   1  -6 -13  151.38   19.40
   0  -6 -13   48.20   10.10
  -1  -6 -13   84.99   14.20
   1  -5 -13   64.99   17.00
   0  -5 -13   40.90   10.70
  -1  -5 -13   52.19  165.38
   1  -4 -13   83.99  199.78
   0  -4 -13  128.09   20.10
  -1  -4 -13    0.00  102.59
   1  -3 -13   26.00   10.50
   0  -3 -13   22.50    9.50
   0   0   0    0.00    0.00

_computing_structure_solution     'SHELXT 2014/5 (Sheldrick, 2014)'
;
_shelx_hkl_checksum              94407
_olex2_submission_special_instructions 'No special instructions were received'
loop_
_space_group_symop_operation_xyz
'x, y, z'
'-x, -y, -z'
loop_
_atom_site_label
_atom_site_type_symbol
_atom_site_fract_x
_atom_site_fract_y
_atom_site_fract_z
_atom_site_U_iso_or_equiv
_atom_site_adp_type
_atom_site_occupancy
_atom_site_site_symmetry_order
_atom_site_calc_flag
_atom_site_refinement_flags_posn
_atom_site_refinement_flags_adp
_atom_site_refinement_flags_occupancy
_atom_site_disorder_assembly
_atom_site_disorder_group
Cu1 Cu 1.00260(14) 0.76701(10) 0.76408(9) 0.0121(3) Uani 1 1 d . . . . .
Br2 Br 0.3200(3) 0.8074(2) 0.48935(19) 0.0265(4) Uani 0.5 1 d . . P . .
Br1 Br 0.3004(3) 0.4840(2) 0.1506(2) 0.0312(5) Uani 0.5 1 d . . P . .
O4 O 1.0589(8) 1.0272(6) 0.2742(6) 0.0162(12) Uani 1 1 d . . . . .
O7 O 0.9344(8) 0.4366(6) 0.1912(6) 0.0156(12) Uani 1 1 d . . . . .
O5 O 1.0499(8) 0.7316(6) -0.0401(5) 0.0170(12) Uani 1 1 d . . . . .
O8 O 0.6822(8) 0.4402(6) 0.2989(6) 0.0194(13) Uani 1 1 d . . . . .
H8 H 0.596968 0.464173 0.237091 0.029 Uiso 0.5 1 calc GR . P . .
O3 O 0.7680(8) 1.0850(6) 0.3048(6) 0.0187(12) Uani 1 1 d . . . . .
H3 H 0.738477 1.046677 0.381041 0.028 Uiso 0.5 1 d R . P . .
O1 O 0.9483(8) 0.8086(6) 0.5716(5) 0.0155(12) Uani 1 1 d . . . . .
O2 O 0.6987(8) 0.7302(6) 0.6057(6) 0.0187(12) Uani 1 1 d . . . . .
H2 H 0.730367 0.709883 0.688813 0.028 Uiso 0.5 1 calc GR . P . .
O6 O 0.7674(9) 0.7224(7) -0.0576(6) 0.0235(14) Uani 1 1 d . . . . .
H6 H 0.707226 0.673721 -0.002042 0.035 Uiso 0.5 1 calc GR . P . .
O11 O 0.6362(10) 0.3561(9) 0.6835(9) 0.0417(19) Uani 1 1 d . . . A 3
H11A H 0.677951 0.339258 0.613465 0.063 Uiso 1 1 d R . . A 3
H11B H 0.632721 0.276298 0.750025 0.063 Uiso 1 1 d R . . A 3
O12 O 0.4499(11) 1.0165(8) 0.3116(9) 0.054(3) Uani 1 1 d . . . . .
H12A H 0.464638 0.930308 0.373550 0.081 Uiso 1 1 d R . . . .
H12B H 0.339248 1.041368 0.273360 0.081 Uiso 1 1 d R . . . .
H12C H 0.543288 1.055958 0.292940 0.081 Uiso 1 1 d R . . . .
C4 C 0.9159(11) 0.8454(8) 0.1656(8) 0.0136(16) Uani 1 1 d . . . . .
H4 H 0.957153 0.914169 0.092619 0.016 Uiso 1 1 calc R . . . .
C1 C 0.8216(11) 0.7660(8) 0.5349(8) 0.0137(16) Uani 1 1 d . . . . .
C3 C 0.8903(11) 0.8614(8) 0.2884(8) 0.0118(15) Uani 1 1 d . . . . .
C8 C 0.9082(11) 0.9985(8) 0.2933(7) 0.0127(15) Uani 1 1 d . U . . .
C10 C 0.8059(12) 0.4924(9) 0.2474(8) 0.0163(17) Uani 1 1 d . . . . .
C9 C 0.8987(11) 0.7263(8) 0.0067(8) 0.0142(16) Uani 1 1 d . . . . .
C5 C 0.8820(11) 0.7301(8) 0.1473(8) 0.0128(15) Uani 1 1 d . . . . .
C2 C 0.8340(11) 0.7590(8) 0.3980(8) 0.0143(16) Uani 1 1 d . . . . .
C7 C 0.8003(11) 0.6424(8) 0.3805(8) 0.0139(16) Uani 1 1 d . . . . .
H7 H 0.760281 0.573201 0.453908 0.017 Uiso 1 1 calc R . . . .
C6 C 0.8250(12) 0.6269(8) 0.2557(8) 0.0149(16) Uani 1 1 d . . . . .
O9 O 0.4450(12) 0.6757(10) 0.9614(10) 0.034(2) Uani 0.75 1 d . . P B 1
H9A H 0.364599 0.649853 1.016800 0.052 Uiso 0.75 1 d R . P B 1
H9B H 0.396199 0.759193 0.896060 0.052 Uiso 0.75 1 d R . P B 1
O13 O 0.390(2) 0.9223(15) 0.1106(16) 0.039(4) Uani 0.5 1 d . . P . .
H13A H 0.405908 1.003067 0.053625 0.058 Uiso 0.5 1 d R . P . .
H13B H 0.343298 0.932877 0.181965 0.058 Uiso 0.5 1 d R . P . .
O10 O 0.409(4) 0.738(3) 0.042(3) 0.041(8) Uani 0.25 1 d . . P C 2
H10A H 0.374813 0.692620 0.121896 0.062 Uiso 0.25 1 d R . P C 2
H10B H 0.488973 0.779490 0.053186 0.062 Uiso 0.25 1 d R . P C 2
loop_
_atom_site_aniso_label
_atom_site_aniso_U_11
_atom_site_aniso_U_22
_atom_site_aniso_U_33
_atom_site_aniso_U_23
_atom_site_aniso_U_13
_atom_site_aniso_U_12
Cu1 0.0212(5) 0.0099(5) 0.0083(5) -0.0050(4) 0.0048(4) -0.0075(4)
Br2 0.0287(10) 0.0256(9) 0.0240(9) -0.0078(7) 0.0069(8) -0.0085(8)
Br1 0.0396(12) 0.0293(10) 0.0283(10) -0.0110(8) 0.0087(8) -0.0165(9)
O4 0.023(3) 0.014(3) 0.017(3) -0.008(2) 0.006(2) -0.011(2)
O7 0.027(3) 0.010(3) 0.014(3) -0.009(2) 0.012(2) -0.008(2)
O5 0.027(3) 0.018(3) 0.010(3) -0.007(2) 0.004(2) -0.012(3)
O8 0.023(3) 0.019(3) 0.021(3) -0.010(3) 0.006(3) -0.012(3)
O3 0.024(3) 0.012(3) 0.024(3) -0.010(2) 0.007(3) -0.006(2)
O1 0.023(3) 0.020(3) 0.009(3) -0.007(2) 0.004(2) -0.016(3)
O2 0.024(3) 0.025(3) 0.009(3) -0.007(2) 0.007(2) -0.011(3)
O6 0.033(4) 0.025(3) 0.020(3) -0.012(3) 0.006(3) -0.015(3)
O11 0.037(4) 0.048(5) 0.051(5) -0.029(4) 0.003(4) -0.014(4)
O12 0.028(4) 0.030(4) 0.069(6) 0.019(4) -0.004(4) -0.011(3)
C4 0.015(4) 0.016(4) 0.013(4) -0.007(3) 0.003(3) -0.007(3)
C1 0.024(4) 0.007(3) 0.012(4) -0.004(3) 0.007(3) -0.008(3)
C3 0.017(4) 0.012(4) 0.008(3) -0.006(3) 0.003(3) -0.005(3)
C8 0.018(3) 0.014(3) 0.007(3) -0.003(2) -0.003(2) -0.006(3)
C10 0.024(5) 0.020(4) 0.006(3) -0.005(3) 0.001(3) -0.009(4)
C9 0.024(4) 0.005(3) 0.012(4) -0.001(3) 0.002(3) -0.004(3)
C5 0.020(4) 0.011(4) 0.011(4) -0.009(3) 0.003(3) -0.003(3)
C2 0.021(4) 0.016(4) 0.012(4) -0.010(3) 0.008(3) -0.009(3)
C7 0.022(4) 0.012(4) 0.015(4) -0.009(3) 0.010(3) -0.012(3)
C6 0.026(5) 0.008(4) 0.011(4) -0.002(3) 0.003(3) -0.008(3)
O9 0.018(5) 0.037(5) 0.040(6) -0.004(5) 0.002(4) -0.013(4)
O13 0.033(8) 0.027(7) 0.038(8) -0.003(6) -0.006(7) 0.007(6)
O10 0.031(17) 0.036(17) 0.044(18) 0.003(14) -0.002(14) -0.020(14)
loop_
_atom_type_symbol
_atom_type_description
_atom_type_scat_dispersion_real
_atom_type_scat_dispersion_imag
_atom_type_scat_source
C C 0.0033 0.0016 'International Tables Vol C Tables 4.2.6.8 and 6.1.1.4'
H H 0.0000 0.0000 'International Tables Vol C Tables 4.2.6.8 and 6.1.1.4'
Br Br -0.2901 2.4595 'International Tables Vol C Tables 4.2.6.8 and 6.1.1.4'
Cu Cu 0.3201 1.2651 'International Tables Vol C Tables 4.2.6.8 and 6.1.1.4'
O O 0.0106 0.0060 'International Tables Vol C Tables 4.2.6.8 and 6.1.1.4'
loop_
_geom_angle_atom_site_label_1
_geom_angle_atom_site_label_2
_geom_angle_atom_site_label_3
_geom_angle
_geom_angle_site_symmetry_1
_geom_angle_site_symmetry_3
_geom_angle_publ_flag
O7 Cu1 O4 177.9(2) 2_766 2_776 ?
O7 Cu1 O5 91.2(2) 2_766 1_556 ?
O5 Cu1 O4 86.6(2) 1_556 2_776 ?
O1 Cu1 O4 91.4(2) . 2_776 ?
O1 Cu1 O7 90.7(2) . 2_766 ?
O1 Cu1 O5 177.6(3) . 1_556 ?
C8 O4 Cu1 103.3(5) . 2_776 ?
C10 O7 Cu1 120.0(5) . 2_766 ?
C9 O5 Cu1 104.2(5) . 1_554 ?
C10 O8 H8 109.5 . . ?
C8 O3 H3 106.7 . . ?
C1 O1 Cu1 119.7(5) . . ?
C1 O2 H2 109.5 . . ?
C9 O6 H6 109.5 . . ?
H11A O11 H11B 109.5 . . ?
H12A O12 H12B 104.5 . . ?
H12A O12 H12C 121.0 . . ?
H12B O12 H12C 134.0 . . ?
C3 C4 H4 119.6 . . ?
C3 C4 C5 120.9(7) . . ?
C5 C4 H4 119.6 . . ?
O1 C1 C2 114.1(7) . . ?
O2 C1 O1 124.9(7) . . ?
O2 C1 C2 121.0(7) . . ?
C4 C3 C8 117.3(7) . . ?
C4 C3 C2 120.2(7) . . ?
C2 C3 C8 122.3(6) . . ?
O4 C8 O3 122.6(7) . . ?
O4 C8 C3 118.5(7) . . ?
O3 C8 C3 118.6(7) . . ?
O7 C10 C6 113.5(7) . . ?
O8 C10 O7 125.6(8) . . ?
O8 C10 C6 120.8(7) . . ?
O5 C9 C5 116.4(7) . . ?
O6 C9 O5 123.6(7) . . ?
O6 C9 C5 120.0(7) . . ?
C4 C5 C9 117.7(7) . . ?
C4 C5 C6 119.7(7) . . ?
C6 C5 C9 122.5(7) . . ?
C3 C2 C1 121.5(7) . . ?
C7 C2 C1 119.2(7) . . ?
C7 C2 C3 119.2(7) . . ?
C2 C7 H7 119.7 . . ?
C2 C7 C6 120.5(7) . . ?
C6 C7 H7 119.7 . . ?
C5 C6 C10 122.0(7) . . ?
C7 C6 C10 118.3(7) . . ?
C7 C6 C5 119.5(7) . . ?
H9A O9 H9B 109.4 . . ?
H13A O13 H13B 109.5 . . ?
H10A O10 H10B 109.5 . . ?
loop_
_geom_bond_atom_site_label_1
_geom_bond_atom_site_label_2
_geom_bond_distance
_geom_bond_site_symmetry_2
_geom_bond_publ_flag
Cu1 O4 1.980(5) 2_776 ?
Cu1 O7 1.944(5) 2_766 ?
Cu1 O5 1.973(5) 1_556 ?
Cu1 O1 1.931(5) . ?
O4 C8 1.261(10) . ?
O7 C10 1.285(10) . ?
O5 C9 1.265(10) . ?
O8 H8 0.8400 . ?
O8 C10 1.236(10) . ?
O3 H3 0.8112 . ?
O3 C8 1.265(10) . ?
O1 C1 1.285(10) . ?
O2 H2 0.8400 . ?
O2 C1 1.243(9) . ?
O6 H6 0.8400 . ?
O6 C9 1.232(10) . ?
O11 H11A 0.8702 . ?
O11 H11B 0.8699 . ?
O12 H12A 0.8701 . ?
O12 H12B 0.8699 . ?
O12 H12C 0.8994 . ?
C4 H4 0.9500 . ?
C4 C3 1.382(10) . ?
C4 C5 1.390(11) . ?
C1 C2 1.481(10) . ?
C3 C8 1.510(10) . ?
C3 C2 1.400(10) . ?
C10 C6 1.501(11) . ?
C9 C5 1.509(10) . ?
C5 C6 1.400(10) . ?
C2 C7 1.399(10) . ?
C7 H7 0.9500 . ?
C7 C6 1.400(11) . ?
O9 H9A 0.8701 . ?
O9 H9B 0.8701 . ?
O13 H13A 0.8702 . ?
O13 H13B 0.8699 . ?
O10 H10A 0.8703 . ?
O10 H10B 0.8695 . ?
loop_
_geom_hbond_atom_site_label_D
_geom_hbond_atom_site_label_H
_geom_hbond_atom_site_label_A
_geom_hbond_distance_DH
_geom_hbond_distance_HA
_geom_hbond_distance_DA
_geom_hbond_angle_DHA
_geom_hbond_site_symmetry_A
_geom_hbond_publ_flag
O8 H8 Br1 0.84 2.38 3.159(6) 155.1 . yes
O3 H3 Br2 0.81 2.40 2.834(6) 114.5 2_676 yes
O2 H2 Br1 0.84 2.16 2.689(6) 120.6 2_666 yes
O6 H6 O9 0.84 2.04 2.628(11) 126.7 1_554 yes
O6 H6 O10 0.84 2.32 2.93(3) 130.1 . yes
O11 H11A Br2 0.87 2.21 2.935(8) 140.5 2_666 yes
O11 H11B O13 0.87 2.10 2.960(17) 172.2 2_666 yes
O12 H12A Br2 0.87 1.97 2.698(7) 139.8 . yes
O12 H12B O4 0.87 2.19 2.989(10) 152.7 1_455 yes
O12 H12B O6 0.87 2.58 3.090(10) 118.3 2_675 yes
O12 H12C O3 0.90 1.83 2.703(10) 161.5 . yes
O9 H9A Br1 0.87 1.95 2.703(9) 143.4 1_556 yes
O9 H9A O5 0.87 2.34 2.932(10) 125.7 1_456 yes
O9 H9B O3 0.87 2.25 3.065(11) 156.2 2_676 yes
O13 H13A O13 0.87 2.37 3.06(3) 136.7 2_675 yes
O13 H13B O12 0.87 2.15 2.756(19) 126.0 . yes
O10 H10A Br1 0.87 2.32 2.82(3) 116.3 . yes
O10 H10B O6 0.87 2.49 2.93(3) 112.2 . yes
O10 H10B O13 0.87 1.83 2.30(4) 111.8 . yes
