#------------------------------------------------------------------------------
#$Date: 2022-03-05 00:12:23 +0200 (Sat, 05 Mar 2022) $
#$Revision: 273364 $
#$URL: file:///home/coder/svn-repositories/cod/cif/7/70/94/7709444.cif $
#------------------------------------------------------------------------------
#
# This file is available in the Crystallography Open Database (COD),
# http://www.crystallography.net/
#
# All data on this site have been placed in the public domain by the
# contributors.
#
data_7709444
loop_
_publ_author_name
'Xue, Chaozhuang'
'Lin, Jian'
'Zhang, Yifan'
'Liu, Zhiyang'
'Li, Rui'
'Gong, Shuwen'
'Qu, Konggang'
_publ_section_title
;
 New crystalline 1D/2D/3D indium selenides directed by piperidine and
 auxiliary solvents.
;
_journal_issue                   8
_journal_name_full
'Dalton transactions (Cambridge, England : 2003)'
_journal_page_first              3248
_journal_page_last               3253
_journal_paper_doi               10.1039/d2dt00174h
_journal_volume                  51
_journal_year                    2022
_chemical_formula_sum            'C5 H0 In N Se3'
_chemical_formula_weight         425.76
_space_group_crystal_system      monoclinic
_space_group_IT_number           14
_space_group_name_Hall           '-P 2ybc'
_space_group_name_H-M_alt        'P 1 21/c 1'
_audit_creation_method           SHELXL-2014/7
_audit_update_record
;
2022-01-18 deposited with the CCDC.	2022-01-25 downloaded from the CCDC.
;
_cell_angle_alpha                90
_cell_angle_beta                 101.508(4)
_cell_angle_gamma                90
_cell_formula_units_Z            4
_cell_length_a                   10.4695(12)
_cell_length_b                   14.4546(15)
_cell_length_c                   7.2649(8)
_cell_measurement_reflns_used    2545
_cell_measurement_temperature    298(2)
_cell_measurement_theta_max      28.3225
_cell_measurement_theta_min      2.456
_cell_volume                     1077.3(2)
_computing_structure_refinement  'SHELXL-2014/7 (Sheldrick, 2014)'
_diffrn_ambient_temperature      298(2)
_diffrn_measured_fraction_theta_full 0.996
_diffrn_measured_fraction_theta_max 0.963
_diffrn_measurement_device_type  'CCD area detector'
_diffrn_measurement_method       'phi and omega scans'
_diffrn_radiation_type           MoK\a
_diffrn_radiation_wavelength     0.71073
_diffrn_reflns_av_R_equivalents  0.1122
_diffrn_reflns_av_unetI/netI     0.1295
_diffrn_reflns_Laue_measured_fraction_full 0.996
_diffrn_reflns_Laue_measured_fraction_max 0.963
_diffrn_reflns_limit_h_max       13
_diffrn_reflns_limit_h_min       -12
_diffrn_reflns_limit_k_max       19
_diffrn_reflns_limit_k_min       -18
_diffrn_reflns_limit_l_max       5
_diffrn_reflns_limit_l_min       -9
_diffrn_reflns_number            6122
_diffrn_reflns_point_group_measured_fraction_full 0.996
_diffrn_reflns_point_group_measured_fraction_max 0.963
_diffrn_reflns_theta_full        25.242
_diffrn_reflns_theta_max         28.302
_diffrn_reflns_theta_min         1.985
_exptl_absorpt_coefficient_mu    12.266
_exptl_absorpt_correction_type   multi-scan
_exptl_crystal_colour            brown
_exptl_crystal_density_diffrn    2.625
_exptl_crystal_description       block
_exptl_crystal_F_000             752
_exptl_crystal_size_max          0.11
_exptl_crystal_size_mid          0.10
_exptl_crystal_size_min          0.03
_exptl_transmission_factor_max   0.692
_exptl_transmission_factor_min   0.270
_refine_diff_density_max         2.911
_refine_diff_density_min         -5.111
_refine_diff_density_rms         0.583
_refine_ls_extinction_method     none
_refine_ls_goodness_of_fit_ref   1.055
_refine_ls_hydrogen_treatment    undef
_refine_ls_matrix_type           full
_refine_ls_number_parameters     91
_refine_ls_number_reflns         2586
_refine_ls_number_restraints     9
_refine_ls_restrained_S_all      1.054
_refine_ls_R_factor_all          0.1189
_refine_ls_R_factor_gt           0.0919
_refine_ls_shift/su_max          0.000
_refine_ls_shift/su_mean         0.000
_refine_ls_structure_factor_coef Fsqd
_refine_ls_weighting_details
'w=1/[\s^2^(Fo^2^)+(0.1496P)^2^] where P=(Fo^2^+2Fc^2^)/3'
_refine_ls_weighting_scheme      calc
_refine_ls_wR_factor_gt          0.2261
_refine_ls_wR_factor_ref         0.2482
_reflns_Friedel_coverage         0.000
_reflns_number_gt                1811
_reflns_number_total             2586
_reflns_threshold_expression     'I > 2\s(I)'
_cod_data_source_file            d2dt00174h2.cif
_cod_data_source_block           ISP-2
_cod_depositor_comments
'Adding full bibliography for 7709442--7709445.cif.'
_cod_original_sg_symbol_H-M      'P 21/c'
_cod_database_code               7709444
_shelx_shelxl_version_number     2014/7
_shelx_space_group_comment
;
The symmetry employed for this shelxl refinement is uniquely defined
by the following loop, which should always be used as a source of
symmetry information in preference to the above space-group names.
They are only intended as comments.
;
_shelx_res_file
;

    210424f_a_sq.res created by SHELXL-2014/7


TITL 210424f_a.res in P2(1)/c
REM Old TITL 210424f in P2(1)/c

REM SHELXT solution in P2(1)/c
REM R1 0.141,  Rweak 0.007,  Alpha 0.023,  Orientation as input
REM Formula found by SHELXT:  C5 Br3 In N

CELL  0.71073  10.4695  14.4546   7.2649   90.000  101.508   90.000
ZERR    4.000   0.0012   0.0015   0.0008    0.000    0.004    0.000
LATT  1
SYMM -X, 1/2+Y, 1/2-Z
SFAC In Se C H N
UNIT 4 12 20 0 4
LIST 6 ! automatically inserted. Change 6 to 4 for CHECKCIF!!
TEMP 25
L.S. 20 0    0
BOND $H
ACTA
DFIX 1.5 0.01 C1 C2
DFIX 1.5 0.01 C2 C3
DFIX 1.5 0.01 C3 C4
DFIX 1.5 0.01 C4 C5
FMAP 2
Simu 0.01 0.02 $In $Se
DELU 0.01 0.02 $In $Se
PLAN 20
ABIN
WGHT    0.149600
FVAR       0.36417
IN1   1    0.705317    0.726298    0.358206    11.00000    0.02713    0.02674 =
         0.01312   -0.00092    0.00942    0.00074
SE1   2    0.502049    0.822425    0.395964    11.00000    0.02610    0.04425 =
         0.03348   -0.00741    0.00371    0.00877
SE2   2    0.610318    0.913844    0.649451    11.00000    0.03968    0.02515 =
         0.01990    0.00166    0.01269    0.00353
SE3   2    0.841768    0.675602    0.674213    11.00000    0.02994    0.03203 =
         0.01773    0.00197    0.00794    0.00666
C1    3    0.797584    0.415023    0.901139    11.00000    0.06811    0.06975 =
         0.01794    0.00659    0.01857    0.02442
C2    3    0.917423    0.392823    0.825423    11.00000    0.03424    0.09874 =
         0.04262   -0.00214    0.01178    0.02647
C3    3    0.883834    0.345866    0.637326    11.00000    0.04472    0.07993 =
         0.04295   -0.01078    0.01699    0.03481
C5    3    0.666656    0.424777    0.570461    11.00000    0.03599    0.05928 =
         0.03402   -0.00147    0.01103    0.01598
C4    3    0.789513    0.403048    0.501085    11.00000    0.05815    0.06736 =
         0.02509   -0.01082    0.01711    0.00430
N1    5    0.701669    0.470456    0.759118    11.00000    0.02901    0.03968 =
         0.02991   -0.00196    0.01688    0.00566

HKLF 4

REM  210424f_a.res in P2(1)/c
REM R1 =  0.0919 for    1811 Fo > 4sig(Fo)  and  0.1189 for all    2586 data
REM     91 parameters refined using      9 restraints

END

WGHT      0.1499      0.0000

REM Highest difference peak  2.911,  deepest hole -5.111,  1-sigma level  0.583
Q1    1   0.7797  0.7365  0.2286  11.00000  0.05    2.91
Q2    1   0.6351  0.7257  0.4815  11.00000  0.05    2.21
Q3    1   0.6760  0.6398  0.4208  11.00000  0.05    1.96
Q4    1   0.7491  0.6363  0.2965  11.00000  0.05    1.93
Q5    1   0.7137  0.7761  0.4980  11.00000  0.05    1.88
Q6    1   0.6203  0.7008  0.3428  11.00000  0.05    1.83
Q7    1   0.5449  0.9216  0.7675  11.00000  0.05    1.76
Q8    1   0.6963  0.8960  0.6675  11.00000  0.05    1.74
Q9    1   0.7541  0.6809  0.8032  11.00000  0.05    1.72
Q10   1   0.6556  0.8139  0.3992  11.00000  0.05    1.64
Q11   1   0.6299  1.0005  0.5765  11.00000  0.05    1.64
Q12   1   0.6739  0.9055  0.5323  11.00000  0.05    1.63
Q13   1   0.7840  0.6943  0.3683  11.00000  0.05    1.54
Q14   1   0.6829  0.8450  0.6305  11.00000  0.05    1.54
Q15   1   0.9194  0.6629  0.5423  11.00000  0.05    1.51
Q16   1   0.6998  0.7219  0.5880  11.00000  0.05    1.48
Q17   1   0.8211  0.7220  0.5187  11.00000  0.05    1.47
Q18   1   0.5420  0.7386  0.3527  11.00000  0.05    1.43
Q19   1   0.8407  0.6283  0.5369  11.00000  0.05    1.43
Q20   1   0.8502  0.6777  0.4527  11.00000  0.05    1.42
;
_shelx_res_checksum              1491
_shelx_hkl_file
;
   0   0  -1   11.27    4.82
   0   0  -2 1092.98   81.87
   0   0  -3    8.59   10.89
   0   0  -4 9999.00  688.56
   0   0  -5   34.87   22.67
   0   0  -6 3112.22  229.94
   0   0  -7    6.09   29.68
   0   0  -8  412.60   60.41
   0   0  -9   21.54   43.98
   0  -1  -9   29.95   47.57
   0  -1  -8   93.53   43.13
   0  -1  -7   71.19   35.54
   0  -1  -6 2011.60  156.69
   0  -1  -5  357.91   44.28
   0  -1  -4 1007.83   82.71
   0  -1  -3  327.49   32.65
   0  -1  -2  991.25   74.19
   0  -1  -1  159.64   14.68
   0   1  -1  272.38   21.07
   0   1  -2 1462.70  104.40
   0   1  -2 1445.82   86.94
   0   1  -3  381.40   26.66
   0   1  -3  426.97   37.67
   0   1  -4 1130.58   90.07
   0   1  -5  349.31   42.67
   0   1  -6 2022.09  157.89
   0   1  -7   73.83   35.03
   0   1  -8   73.26   39.45
   0   1  -9   11.68   41.72
   0  -2  -9  742.77   94.49
   0  -2  -8  160.79   49.64
   0  -2  -7    6.73   28.69
   0  -2  -6  462.92   57.00
   0  -2  -5  308.46   39.76
   0  -2  -4 2257.90  166.07
   0  -2  -3   13.27    9.86
   0  -2  -2   96.35   14.85
   0   2   0 3114.64  213.46
   0   2   0 3147.73  183.81
   0   2  -1  288.76   21.00
   0   2  -1  252.82   18.35
   0   2  -2  119.87   11.67
   0   2  -2  136.22   14.63
   0   2  -3   18.01    6.68
   0   2  -3   10.67    9.63
   0   2  -4 2166.77  143.00
   0   2  -4 2613.63  175.04
   0   2  -5  281.80   40.73
   0   2  -6  416.19   51.88
   0   2  -7   11.30   28.37
   0   2  -8  130.91   44.63
   0   2  -9  623.02   81.33
   0  -3  -9  632.86   87.52
   0  -3  -8 1147.90  112.63
   0  -3  -7  414.80   61.52
   0  -3  -6 2047.46  161.10
   0  -3  -5 1273.98  104.92
   0  -3  -4  699.44   62.58
   0  -3  -2 6832.11  504.70
   0  -3  -2 7860.82  444.29
   0   3   1   34.06    5.42
   0   3   0    5.54    3.40
   0   3   0    1.70    3.38
   0   3  -1   42.04    7.12
   0   3  -1   39.74    6.87
   0   3  -2 5996.15  417.46
   0   3  -2 6227.55  359.20
   0   3  -3 1543.47   97.07
   0   3  -3 1610.39  114.68
   0   3  -4  751.54   61.23
   0   3  -4  683.22   48.10
   0   3  -5 1139.35   93.66
   0   3  -6 1832.49  144.47
   0   3  -7  343.28   54.67
   0   3  -8  870.14   91.21
   0   3  -9  469.65   72.59
   0  -4  -9  286.25   73.09
   0  -4  -8  264.30   62.73
   0  -4  -7  153.51   48.34
   0  -4  -6   -3.44   28.70
   0  -4  -5  290.40   41.65
   0  -4  -4   24.33   17.72
   0  -4  -3  427.59   44.96
   0  -4  -2   41.04    6.68
   0   4   2   32.75    7.28
   0   4   1 3624.25  213.42
   0   4   0  131.05   12.81
   0   4   0  104.15   11.61
   0   4  -1 3301.94  236.51
   0   4  -1 3612.63  205.33
   0   4  -2   54.41   10.16
   0   4  -2   44.80    9.58
   0   4  -3  403.75   34.12
   0   4  -3  330.86   29.02
   0   4  -4   20.02   13.03
   0   4  -4   17.76   10.76
   0   4  -5  230.84   35.70
   0   4  -6  -15.28   23.55
   0   4  -7   72.67   36.76
   0   4  -8  168.50   45.89
   0   4  -9  169.91   50.78
   0  -5  -9  782.89  108.96
   0  -5  -8  669.73   88.84
   0  -5  -7 2041.75  172.30
   0  -5  -6   -2.85   28.69
   0  -5  -5  480.31   57.74
   0  -5  -4  880.22   80.97
   0  -5  -3 7251.11  508.25
   0   5   2  340.74   24.41
   0   5   1  954.93   59.53
   0   5   0    6.02    5.65
   0   5   0    0.40    6.38
   0   5  -1 1041.58   74.26
   0   5  -1 1046.35   66.21
   0   5  -2  329.39   27.94
   0   5  -2  375.90   30.39
   0   5  -3 4340.48  265.55
   0   5  -3 4546.41  307.75
   0   5  -4  646.37   56.94
   0   5  -4  696.38   48.97
   0   5  -5  258.50   35.19
   0   5  -6  -20.23   19.88
   0   5  -7 1243.85  111.66
   0   5  -8  377.33   63.84
   0  -6  -8  695.80  102.55
   0  -6  -7   18.83   46.18
   0  -6  -6  532.49   71.50
   0  -6  -5  329.97   56.57
   0  -6  -4  432.17   57.06
   0  -6  -3   26.43   27.67
   0  -6  -3    5.25    7.28
   0   6   2    5.36    7.89
   0   6   1  140.93   14.90
   0   6   0  139.38   15.74
   0   6  -1  150.82   15.62
   0   6  -1  144.03   16.32
   0   6  -2    8.54    9.01
   0   6  -2   10.02    9.39
   0   6  -3    8.02    9.87
   0   6  -3   -3.22   11.07
   0   6  -4  278.27   31.32
   0   6  -4  249.86   28.66
   0   6  -5  176.34   29.07
   0   6  -6  261.67   42.92
   0   6  -7  -30.02   30.14
   0   6  -8  313.04   59.50
   0  -7  -8  458.43   91.58
   0  -7  -7  195.06   59.35
   0  -7  -6  235.20   56.36
   0  -7  -5  162.56   47.93
   0  -7  -4 1812.14  154.03
   0  -7  -3   24.39    7.55
   0   7   2    1.12    8.25
   0   7   1  102.72   14.78
   0   7   0    0.38    7.94
   0   7  -1  114.89   15.83
   0   7  -1  106.88   16.01
   0   7  -2   10.20   10.62
   0   7  -2   -2.63   10.72
   0   7  -3   24.55   13.83
   0   7  -3   28.69   13.18
   0   7  -4  904.09   73.94
   0   7  -4  954.15   67.16
   0   7  -5   52.66   20.70
   0   7  -6   86.33   30.97
   0   7  -7   34.90   35.53
   0   7  -8  171.36   47.98
   0  -8  -8  147.47   73.29
   0  -8  -7   76.45   57.61
   0  -8  -6   31.63   48.31
   0  -8  -5 5299.80  392.79
   0  -8  -4  469.52   67.41
   0  -8  -3  754.40   49.09
   0   8   2   20.33   10.86
   0   8   1 4847.21  287.93
   0   8   0 2010.96  124.63
   0   8  -1 5104.84  285.05
   0   8  -1 4387.93  325.98
   0   8  -2   28.44   13.44
   0   8  -2   39.77   13.19
   0   8  -3 1196.65   91.57
   0   8  -3 1231.89   83.67
   0   8  -4  215.40   31.44
   0   8  -4  242.32   29.16
   0   8  -5 2540.90  186.94
   0   8  -6  -24.08   23.07
   0   8  -7  -19.52   31.14
   0   8  -8   13.86   41.62
   0  -9  -8  710.89  108.48
   0  -9  -7  495.55   88.43
   0  -9  -6  163.74   58.29
   0  -9  -5 1218.22  118.45
   0  -9  -4 1301.80  111.03
   0  -9  -3   74.51   10.93
   0   9   2 1044.52   68.59
   0   9   1  659.16   47.54
   0   9   0    5.04   11.90
   0   9  -1  676.96   51.68
   0   9  -1  720.83   55.25
   0   9  -2 1109.14   80.61
   0   9  -2 1011.66   73.74
   0   9  -3  136.57   23.60
   0   9  -3  129.15   24.94
   0   9  -4  946.72   79.24
   0   9  -4 1029.26   74.71
   0   9  -5  742.26   59.22
   0   9  -5  630.14   63.59
   0   9  -6   36.80   25.91
   0   9  -7  132.56   43.08
   0   9  -8  187.83   52.90
   0 -10  -8   30.46   56.03
   0 -10  -7   11.29   46.27
   0 -10  -6   10.71   40.35
   0 -10  -5  739.70   79.90
   0 -10  -4   82.09   24.19
   0 -10  -3  175.23   15.54
   0  10   2    8.91   13.37
   0  10   1 2315.57  143.73
   0  10   0  440.01   37.22
   0  10  -1 2356.40  166.46
   0  10  -1 2342.08  148.35
   0  10  -2    7.59   15.26
   0  10  -2    6.34   13.56
   0  10  -3  383.12   38.40
   0  10  -3  327.31   39.36
   0  10  -4  107.06   25.07
   0  10  -4   88.11   25.93
   0  10  -5  602.96   59.00
   0  10  -5  609.66   56.60
   0  10  -6    8.64   24.20
   0  10  -7  -55.70   29.19
   0  10  -8  -66.35   31.07
   0 -11  -7  714.69   84.76
   0 -11  -6   -4.02   30.36
   0 -11  -5  727.05   71.27
   0 -11  -4   92.89   22.05
   0 -11  -3  511.35   34.57
   0  11   2   94.89   19.99
   0  11   1 1674.26  108.18
   0  11   0   11.68   16.02
   0  11  -1 1707.78  112.59
   0  11  -1 1673.52  123.04
   0  11  -2   84.34   19.84
   0  11  -2   71.66   23.06
   0  11  -3 1250.07   92.62
   0  11  -3 1308.62   99.29
   0  11  -4  131.54   26.20
   0  11  -4  109.56   29.28
   0  11  -5  778.82   65.97
   0  11  -5  718.68   70.37
   0  11  -6  -27.30   25.45
   0  11  -7  348.93   59.40
   0 -12  -7    3.96   30.18
   0 -12  -6  151.32   35.00
   0 -12  -5  386.52   43.87
   0 -12  -4  248.94   28.47
   0 -12  -3  161.80   14.24
   0  12   2  102.09   21.84
   0  12   1 1383.64   93.18
   0  12   0 2089.50  135.03
   0  12  -1 1402.67  104.50
   0  12  -1 1393.12   97.22
   0  12  -2  119.37   23.25
   0  12  -2  102.81   28.03
   0  12  -3  440.92   46.76
   0  12  -3  424.72   44.74
   0  12  -4  484.61   53.35
   0  12  -4  503.36   52.08
   0  12  -5  551.05   57.03
   0  12  -5  535.57   59.42
   0  12  -6  126.09   38.35
   0  12  -7  -47.58   29.42
   0 -13  -5   52.04   18.28
   0 -13  -3   17.92    6.88
   0  13   2  595.07   49.45
   0  13   1  185.55   27.74
   0  13   0   17.71   18.43
   0  13  -1  180.16   30.41
   0  13  -2  644.25   55.21
   0  13  -2  570.66   56.42
   0  13  -3   41.21   27.34
   0  13  -3   55.50   23.12
   0  13  -4  698.84   65.50
   0  13  -4  657.57   63.35
   0  13  -5   52.27   35.17
   0  13  -5   98.52   32.84
   0  13  -6  -27.94   26.76
   0 -14  -6    7.14   15.82
   0 -14  -5  185.22   24.12
   0  14   2   14.99   21.35
   0  14   1  893.95   69.68
   0  14   0  196.92   33.56
   0  14  -1  796.85   65.94
   0  14  -2   -6.89   23.87
   0  14  -2   24.40   17.72
   0  14  -3  193.77   33.78
   0  14  -3  208.37   41.13
   0  14  -4   -5.51   23.31
   0  14  -4   28.64   33.99
   0  14  -5  540.36   62.31
   0  14  -5  501.11   61.48
   0  14  -6  -22.60   31.64
   0 -15  -2   -3.74    5.65
   0  15   2   30.73   23.32
   0  15   1  100.96   27.15
   0  15   0    6.46   24.76
   0  15  -1   82.76   30.24
   0  15  -2   -0.19   24.68
   0  15  -2   13.30   19.87
   0  15  -3  245.98   37.35
   0  15  -3  233.43   42.78
   0  15  -4   65.52   36.94
   0  15  -4   95.23   31.77
   0  15  -5   -0.03   30.14
   0  15  -5  -20.21   34.46
   0 -16  -2    9.54    5.81
   0  16   1  245.44   40.11
   0  16   0  383.53   45.50
   0  16  -1  169.83   38.67
   0  16  -3    0.13   23.12
   0  16  -3  -19.24   32.79
   0  16  -4  182.98   49.97
   0  16  -4  231.83   42.26
   0  16  -5  -12.88   31.93
   0  16  -5  -69.06   36.27
   0 -17  -2   37.45    7.54
   0  17   1  189.97   38.86
   0  17   0    8.79   28.39
   0  17  -1  153.02   39.35
   0  17  -2  232.50   48.08
   0  17  -3  647.56   73.16
   0  17  -3  651.18   65.75
   0  17  -4   26.74   43.91
   0  17  -4   59.47   32.75
   0 -18  -2    5.42    5.37
   0 -18  -1    7.72    6.13
   0  18   0  104.12   37.23
   0  18  -1   68.01   32.66
   0  18  -2    7.16   35.60
   0  18  -3    0.44   40.41
   1  19   0  158.11   41.83
   1  19   1   32.46   34.48
   1  18  -3  266.42   55.50
   1  18  -2  131.77   42.82
   1  18  -1   79.94   37.22
   1  18   0   71.59   34.84
   1  18   1  103.62   36.85
   1  17  -4  149.54   52.06
   1  17  -3   -3.20   35.56
   1  17  -2   -8.60   30.89
   1  17  -1   20.93   31.30
   1  17   0  188.69   37.23
   1  17   1   49.62   31.10
   1  17   2   68.65   31.16
   1  16  -5  -18.27   31.92
   1  16  -5  -32.55   37.76
   1  16  -4    2.83   26.33
   1  16  -4  -28.71   34.34
   1  16  -3  939.08   84.00
   1  16  -3  902.16   79.67
   1  16  -2  256.79   45.58
   1  16  -1  217.64   40.59
   1  16   0  115.60   30.75
   1  16   1  449.15   49.56
   1  15  -5   92.28   36.84
   1  15  -5   71.84   40.77
   1  15  -4   50.22   38.33
   1  15  -4   82.26   29.73
   1  15  -3   -2.19   30.28
   1  15  -3    3.82   21.23
   1  15  -2  496.68   55.90
   1  15  -1  190.77   36.98
   1  15   0  193.58   34.29
   1  15   1   16.80   23.67
   1  15   2  402.31   44.13
   1  14  -6  187.09   48.95
   1  14  -5  223.43   42.47
   1  14  -5  177.85   44.29
   1  14  -4  248.76   36.44
   1  14  -4  155.15   41.84
   1  14  -3   34.85   31.29
   1  14  -3   41.19   22.63
   1  14  -2  650.73   59.03
   1  14  -2  718.44   64.31
   1  14  -1  570.96   53.69
   1  14   0    7.20   20.40
   1  14   1   91.51   26.43
   1  14   2   84.90   25.53
   1  14   3  283.72   34.23
   1  13  -7  -49.12   38.13
   1  13  -6   78.89   39.28
   1  13  -5  449.00   56.50
   1  13  -5  458.10   55.95
   1  13  -4  -18.48   27.14
   1  13  -4   -6.07   18.49
   1  13  -3   22.41   27.57
   1  13  -3   66.14   22.25
   1  13  -2    3.73   15.84
   1  13  -2    7.61   21.06
   1  13  -1  746.92   61.68
   1  13   0  196.12   31.81
   1  13   1 1242.54   87.32
   1  13   2  283.77   33.73
   1  13   3  153.55   26.12
  -1 -13  -4    9.27   11.71
   1  12  -6   23.30   29.80
   1  12  -5   61.14   31.83
   1  12  -5  106.48   32.08
   1  12  -4 1203.06   91.41
   1  12  -4 1127.88   95.17
   1  12  -3    4.39   20.88
   1  12  -3   15.60   17.73
   1  12  -2  911.51   73.61
   1  12  -2  955.10   73.68
   1  12  -1  384.73   41.02
   1  12   0  363.77   38.91
   1  12   1  120.01   23.69
   1  12   2  749.00   56.61
   1  12   3  716.07   54.28
  -1 -12  -4   19.88   15.22
  -1 -12  -5   94.43   26.89
  -1 -12  -6   21.76   27.37
   1  11  -7  -43.24   33.49
   1  11  -6   16.98   30.00
   1  11  -5  205.78   36.97
   1  11  -5  174.35   36.82
   1  11  -4    5.15   18.94
   1  11  -4  -16.65   21.49
   1  11  -3 1947.68  129.71
   1  11  -3 1884.36  140.91
   1  11  -2   31.14   15.50
   1  11  -2   46.95   21.69
   1  11  -1   72.74   20.03
   1  11  -1   74.87   17.09
   1  11   0  176.49   27.01
   1  11   1 3993.83  242.90
   1  11   2  152.91   22.81
   1  11   3  743.69   54.18
  -1 -11  -4    1.31   17.64
  -1 -11  -5  722.76   74.25
  -1 -11  -6   75.77   36.11
   1  10  -8  -53.64   39.42
   1  10  -7  -37.19   31.89
   1  10  -6  -19.38   25.09
   1  10  -5   52.42   25.74
   1  10  -5   38.12   24.26
   1  10  -4  261.33   36.67
   1  10  -4  269.09   35.35
   1  10  -3    6.54   18.45
   1  10  -3   25.79   16.23
   1  10  -2  123.23   23.32
   1  10  -2  128.57   20.84
   1  10  -1  427.69   37.80
   1  10  -1  433.69   39.49
   1  10   0  230.21   26.24
   1  10   1  612.77   47.21
   1  10   2  131.17   20.12
   1  10   3 1278.81   82.93
  -1 -10  -4   16.13   23.85
  -1 -10  -5  595.03   70.44
  -1 -10  -6   56.80   40.86
   1   9  -8  111.07   50.56
   1   9  -7  -56.57   29.91
   1   9  -6  230.46   41.34
   1   9  -5  898.92   68.92
   1   9  -5  848.68   77.20
   1   9  -4   25.21   19.88
   1   9  -4   42.44   19.32
   1   9  -3 1532.58  106.56
   1   9  -3 1650.58  117.91
   1   9  -2  256.94   26.52
   1   9  -2  217.63   27.48
   1   9  -1  589.67   46.67
   1   9  -1  574.30   45.33
   1   9   0  373.89   33.58
  -1  -9   0  388.16   32.04
   1   9   1 5229.92  311.91
   1   9   2  199.34   21.98
   1   9   3  112.77   17.05
  -1  -9  -4  388.16   56.33
  -1  -9  -5 2333.87  186.68
  -1  -9  -6   41.06   41.54
  -1  -9  -7  216.08   60.20
  -1  -9  -8   69.64   58.16
   1   8  -8  387.04   68.32
   1   8  -7  -46.88   30.88
   1   8  -6  244.15   43.47
   1   8  -5 1115.50   98.22
   1   8  -5 1325.46   86.84
   1   8  -4 1179.38   94.87
   1   8  -4 1281.91   86.30
   1   8  -3  254.62   28.78
   1   8  -3  258.68   29.04
   1   8  -2 2242.94  142.55
   1   8  -2 2280.91  159.65
   1   8  -1 1165.04   81.72
  -1  -8   1 1066.78   80.14
   1   8  -1 1127.38   75.10
  -1  -8   0  323.36   26.54
   1   8   0  292.07   28.13
   1   8   1  369.49   30.51
   1   8   2  650.75   45.35
  -1  -8  -4  137.60   39.17
  -1  -8  -5   55.57   39.13
  -1  -8  -6   97.93   45.47
  -1  -8  -7  546.93   80.04
  -1  -8  -8   65.77   58.57
   1   7  -8  309.79   61.79
   1   7  -7  -42.63   30.31
   1   7  -6   -0.73   26.31
   1   7  -5 1047.00   93.48
   1   7  -5 1243.04   80.62
   1   7  -4  102.71   21.23
   1   7  -4  106.91   21.91
   1   7  -3  210.18   24.88
   1   7  -3  188.53   25.13
   1   7  -2 1683.17  112.37
   1   7  -2 1861.78  126.27
   1   7  -1 2142.94  132.41
   1   7  -1 2118.16  148.78
  -1  -7   1 2137.27  150.70
   1   7   0  103.11   15.67
  -1  -7   0   83.78   11.78
   1   7   1 2092.64  127.75
   1   7   2 1921.60  116.96
  -1  -7  -4  537.26   64.24
  -1  -7  -5 2283.15  182.40
  -1  -7  -6  186.26   50.54
  -1  -7  -7    5.70   44.51
  -1  -7  -8  368.12   76.52
   1   6  -9  -20.23   40.85
   1   6  -8  242.30   55.96
   1   6  -7  851.28   86.66
   1   6  -6 1200.37  103.74
   1   6  -5  123.98   21.66
   1   6  -5   77.01   25.26
   1   6  -4  102.62   21.35
   1   6  -4  116.88   19.99
   1   6  -3 2007.86  141.92
   1   6  -3 1950.86  124.74
   1   6  -2 2701.67  166.22
   1   6  -2 2730.91  189.06
   1   6  -1 1457.88  103.02
   1   6  -1 1406.41   92.21
  -1  -6   1 1531.02  104.12
   1   6   0  528.69   37.21
  -1  -6   0  518.72   39.72
   1   6   1  467.21   33.12
   1   6   2   58.46   10.14
  -1  -6  -3 1113.53   95.20
  -1  -6  -4 1159.16  100.38
  -1  -6  -5   66.58   32.16
  -1  -6  -6 1020.12  100.84
  -1  -6  -7  305.97   63.00
  -1  -6  -8   63.94   54.77
   1   5  -9  245.58   59.07
   1   5  -8  439.33   64.77
   1   5  -7 1152.33  107.07
   1   5  -6  132.73   33.94
   1   5  -5   10.31   19.97
   1   5  -4  572.80   50.39
   1   5  -4  539.00   42.85
   1   5  -3  487.10   38.44
   1   5  -3  513.23   42.29
   1   5  -2  660.36   48.67
   1   5  -2  768.77   54.14
   1   5  -1   11.71    7.93
   1   5  -1    4.96    5.66
  -1  -5   1    4.65    4.10
   1   5   0  387.97   28.64
  -1  -5   0  407.08   30.52
   1   5   1  455.92   31.38
   1   5   3  144.78   14.49
  -1  -5  -3  159.97   28.83
  -1  -5  -4 1173.54   97.65
  -1  -5  -5   70.25   29.10
  -1  -5  -6   38.71   31.26
  -1  -5  -7   21.04   40.20
  -1  -5  -8  493.47   75.02
   1   4  -9  437.84   70.00
   1   4  -8  917.09   92.90
   1   4  -7 2675.04  206.60
   1   4  -6  861.51   83.03
   1   4  -5  104.55   26.55
   1   4  -4  861.76   58.54
   1   4  -4  852.96   70.63
   1   4  -3 6168.62  366.41
   1   4  -3 6215.05  426.16
   1   4  -2 3298.93  206.57
   1   4  -2 3609.88  238.36
   1   4  -1  806.13   55.07
   1   4  -1  734.07   50.07
   1   4   0   16.67    6.44
  -1  -4   0   19.96    4.58
   1   4   1 3840.63  226.36
  -1  -4  -2 2780.16  191.02
   1   4   2 2566.93  157.80
  -1  -4  -3  609.41   35.73
  -1  -4  -3  493.64   49.41
  -1  -4  -4  379.03   43.12
  -1  -4  -5   95.23   29.52
  -1  -4  -6  480.95   62.91
  -1  -4  -7   72.99   40.73
  -1  -4  -8  628.02   84.16
  -1  -4  -9  245.16   68.71
   1   3  -9  332.01   58.76
   1   3  -8  850.96   89.82
   1   3  -7  452.09   59.48
   1   3  -6  158.91   37.55
   1   3  -5   77.35   24.41
   1   3  -4 1194.90   77.33
   1   3  -4 1219.84   95.01
   1   3  -3  349.40   32.96
   1   3  -3  347.78   27.96
   1   3  -2 1915.46  127.89
   1   3  -2 1716.09  110.70
   1   3  -1 1076.75   69.65
   1   3  -1 1165.23   78.37
   1   3   0 2884.26  169.67
  -1  -3   0 2831.21  201.38
   1   3   1 2287.36  135.79
  -1  -3  -3  791.18   64.87
  -1  -3  -4    2.25   13.86
  -1  -3  -5  259.04   38.50
  -1  -3  -6  908.97   84.63
  -1  -3  -7  363.59   54.67
  -1  -3  -8   26.51   42.78
  -1  -3  -9  232.16   65.83
   1   2  -9   17.98   40.04
   1   2  -8  118.82   43.12
   1   2  -7  711.64   74.15
   1   2  -6  444.44   56.03
   1   2  -5  302.31   42.28
   1   2  -4   55.35   18.93
   1   2  -4   56.70   11.79
   1   2  -3 1606.39  115.33
   1   2  -3 1509.64   95.95
   1   2  -2  662.33   43.59
   1   2  -2  665.06   50.87
   1   2  -1  276.63   20.08
  -1  -2   0  105.65    9.58
   1   2   0  115.55   10.23
  -1  -2  -3   11.78   12.53
  -1  -2  -4  328.62   37.58
  -1  -2  -5 1193.22   99.15
  -1  -2  -6 2836.52  212.33
  -1  -2  -7  720.38   77.89
  -1  -2  -8 1067.62  106.78
  -1  -2  -9  295.94   66.35
   1   1  -9   93.71   46.26
   1   1  -8   43.64   33.27
   1   1  -7  172.29   40.66
   1   1  -6 1584.40  128.06
   1   1  -5  546.73   56.51
   1   1  -4 3387.72  242.60
   1   1  -3  535.02   37.70
   1   1  -3  581.49   48.63
   1   1  -2  200.85   17.46
   1   1  -2  224.99   23.02
   1   1  -1  420.19   28.70
   1   1  -1  444.46   32.84
  -1  -1   0 4015.95  272.57
   1   1   0 3740.01  227.96
  -1  -1  -1 1003.08   71.58
  -1  -1  -2 4473.88  309.22
  -1  -1  -3 1549.05  115.43
  -1  -1  -4 2938.66  212.05
  -1  -1  -5  133.07   30.23
  -1  -1  -6 3296.96  242.80
  -1  -1  -7  294.74   53.59
  -1  -1  -8  244.30   54.52
  -1  -1  -9  297.36   61.30
   1   0  -9   11.54   41.19
   1   0  -8  691.10   78.62
   1   0  -7   16.56   28.75
   1   0  -6  348.39   45.51
   1   0  -5   -4.38   15.49
   1   0  -4 4163.10  234.30
   1   0  -4 3748.05  279.73
   1   0  -3   12.24    6.56
   1   0  -3    5.60   10.41
   1   0  -2   38.49    9.39
   1   0  -2   49.99    7.05
   1   0  -1   -1.69    4.00
   1   0  -1   -0.32    2.93
  -1   0   0 2750.84  193.93
  -1   0  -1   28.10    5.37
  -1   0  -2  232.49   22.56
  -1   0  -3    0.54    9.93
  -1   0  -4  858.79   72.30
  -1   0  -5   -3.24   16.94
  -1   0  -6 1389.75  116.48
  -1   0  -7    2.74   31.00
  -1   0  -8  570.24   75.02
  -1   0  -9   18.59   43.91
   1  -1  -9  107.56   50.00
   1  -1  -8   18.69   34.13
   1  -1  -7  152.03   36.87
   1  -1  -6 1370.74  113.16
   1  -1  -5  441.25   48.65
   1  -1  -4 2382.19  173.85
   1  -1  -3  366.29   34.79
   1  -1  -2  151.62   17.43
   1  -1  -2  175.63   16.49
   1  -1  -1  525.41   35.47
  -1   1  -1 1677.13  117.43
   1  -1   1 1680.68  104.24
  -1   1  -1 1723.55  120.72
  -1   1  -2 5398.62  369.59
  -1   1  -3 1425.46  105.09
  -1   1  -4 2470.26  179.03
  -1   1  -5  113.92   26.71
  -1   1  -6 2978.01  221.10
  -1   1  -7  239.86   45.51
  -1   1  -8  171.37   49.28
  -1   1  -9  237.95   58.43
   1  -2  -9   60.98   49.76
   1  -2  -8  130.61   42.86
   1  -2  -7  727.05   75.16
   1  -2  -6  338.84   46.40
   1  -2  -5  198.52   31.73
   1  -2  -4   48.36   16.77
   1  -2  -3 1249.40   80.10
   1  -2  -3 1256.89   94.54
   1  -2  -2  896.63   54.27
   1  -2  -2  692.07   60.94
   1  -2  -1  409.55   28.19
   1  -2   0  119.55   10.51
  -1   2   0  127.63   10.78
  -1   2  -1  211.32   16.45
  -1   2  -1  198.64   15.54
  -1   2  -1  175.96   14.31
  -1   2  -2 2614.94  162.64
  -1   2  -2 2889.26  190.76
  -1   2  -3   37.20   12.08
  -1   2  -4  287.27   33.64
  -1   2  -5  861.27   74.55
  -1   2  -6 2178.60  167.21
  -1   2  -7  527.44   63.18
  -1   2  -8  750.06   81.94
  -1   2  -9  218.97   58.09
   1  -3  -9  403.92   76.33
   1  -3  -8 1000.11  101.28
   1  -3  -7  511.42   67.95
   1  -3  -6  101.59   31.93
   1  -3  -5   72.13   25.12
   1  -3  -4 1205.13   79.89
   1  -3  -4 1266.52   99.07
   1  -3  -3  460.19   35.33
   1  -3  -3  364.09   40.02
   1  -3  -2 2916.37  179.84
   1  -3  -1 1215.79   76.24
  -1   3   0 2647.34  194.22
  -1   3   0 3030.01  168.47
  -1   3  -1 2158.72  156.64
  -1   3  -1 2386.60  136.32
  -1   3  -2 1792.42  129.08
  -1   3  -2 1887.09  111.89
  -1   3  -3  975.55   70.51
  -1   3  -3  885.27   59.33
  -1   3  -4   11.32   13.38
  -1   3  -5  177.40   30.60
  -1   3  -6  567.02   62.20
  -1   3  -7  261.46   48.67
  -1   3  -8   29.07   39.61
  -1   3  -9  159.26   53.69
   1  -4  -9  688.22   99.59
   1  -4  -8 1043.61  109.39
   1  -4  -7 2927.67  228.41
   1  -4  -6  752.46   77.10
   1  -4  -5  250.15   40.28
   1  -4  -4 1120.49   77.64
   1  -4  -4 1123.99   94.24
   1  -4  -3 9802.55  679.18
   1  -4  -2 4586.17  279.65
   1  -4  -1  784.56   50.61
  -1   4   0   17.70    5.45
  -1   4   0   17.10    6.59
  -1   4  -1 3860.78  214.63
  -1   4  -1 3357.95  246.98
  -1   4  -2 2504.73  186.80
  -1   4  -2 2541.07  183.65
  -1   4  -2 2896.60  160.35
  -1   4  -3  548.63   38.57
  -1   4  -3  492.74   42.44
  -1   4  -4  314.80   27.49
  -1   4  -4  373.77   35.95
  -1   4  -5   60.65   22.44
  -1   4  -6  226.24   38.32
  -1   4  -7   42.94   33.87
  -1   4  -8  362.61   58.55
   1  -5  -9  413.31   90.59
   1  -5  -8  641.06   97.02
   1  -5  -7 1485.28  138.73
   1  -5  -6  225.99   51.93
   1  -5  -5   46.93   29.61
   1  -5  -4 1070.17   73.98
   1  -5  -4  900.80   91.85
   1  -5  -3 1178.63  105.63
   1  -5  -2  793.33   52.27
   1  -5  -1    1.94    5.13
  -1   5   0  387.10   29.63
  -1   5   0  444.21   32.57
  -1   5  -1  441.60   34.48
  -1   5  -1  439.48   32.38
  -1   5  -2  694.69   54.96
  -1   5  -2  833.65   52.75
  -1   5  -2  766.94   57.44
  -1   5  -3  177.05   21.28
  -1   5  -3  144.73   15.59
  -1   5  -3  163.09   21.45
  -1   5  -4  934.54   73.85
  -1   5  -4  946.53   64.44
  -1   5  -5   48.55   20.66
  -1   5  -6   -7.42   22.31
  -1   5  -7  -31.85   28.50
  -1   5  -8  217.18   51.81
   1  -6  -9   21.86   74.48
   1  -6  -8  441.38   92.00
   1  -6  -7 1357.90  138.13
   1  -6  -6 2264.10  191.77
   1  -6  -5  217.18   53.61
   1  -6  -4  225.70   52.36
   1  -6  -3 2472.33  154.06
   1  -6  -2 2778.72  171.11
  -1   6   1 1500.02   92.67
  -1   6   0  517.19   38.59
  -1   6   0  596.82   42.95
  -1   6  -1  457.46   34.36
  -1   6  -1  469.07   36.84
  -1   6  -2   71.63   14.46
  -1   6  -2   60.44   12.41
  -1   6  -3  857.34   59.42
  -1   6  -3  804.07   64.37
  -1   6  -4  752.93   55.02
  -1   6  -4  717.68   60.92
  -1   6  -5   38.94   18.57
  -1   6  -6  524.08   56.86
  -1   6  -7  136.13   39.52
  -1   6  -8   -7.84   32.26
   1  -7  -8  656.84  114.72
   1  -7  -7   79.41   56.80
   1  -7  -6  110.87   60.21
   1  -7  -5 2434.48  205.73
   1  -7  -4  241.80   54.82
   1  -7  -3  190.85   20.10
   1  -7  -2 1498.85   94.66
  -1   7   1 2153.29  131.26
  -1   7   0   98.47   14.70
  -1   7   0   86.05   13.75
  -1   7  -1 2100.40  127.23
  -1   7  -1 2003.19  143.86
  -1   7  -2 2097.03  126.49
  -1   7  -2 1905.97  141.67
  -1   7  -3  345.03   33.17
  -1   7  -3  322.77   32.02
  -1   7  -4  315.37   34.29
  -1   7  -4  324.18   34.93
  -1   7  -5 1268.32  100.19
  -1   7  -6   76.34   27.01
  -1   7  -7  -31.17   26.91
  -1   7  -8  129.26   45.82
   1  -8  -8  838.68  129.26
   1  -8  -7   65.78   64.36
   1  -8  -6  681.00  100.99
   1  -8  -5 2458.39  206.87
   1  -8  -4 2217.84  176.65
   1  -8  -3  219.08   20.89
   1  -8  -2 1777.66  111.38
  -1   8   1 1095.21   71.25
  -1   8   0  306.27   27.87
  -1   8  -1  352.86   32.41
  -1   8  -1  374.76   32.74
  -1   8  -2  663.40   52.85
  -1   8  -2  660.87   50.65
  -1   8  -3  855.17   68.63
  -1   8  -3  879.17   64.60
  -1   8  -4  123.65   22.71
  -1   8  -4   65.81   22.34
  -1   8  -5   15.92   19.40
  -1   8  -6   28.16   24.29
  -1   8  -7  170.28   40.86
  -1   8  -8  -17.36   33.76
   1  -9  -8  365.82   92.02
   1  -9  -7   -4.56   55.42
   1  -9  -6  446.67   76.63
   1  -9  -5 1434.71  132.00
   1  -9  -4   33.41   25.52
   1  -9  -3 1123.17   72.45
   1  -9  -2  177.35   17.46
  -1   9   1  544.80   41.20
  -1   9   0  386.51   33.58
  -1   9  -1 4983.19  284.07
  -1   9  -1 4442.36  324.85
  -1   9  -2  205.21   24.09
  -1   9  -2  187.13   27.54
  -1   9  -3  126.26   25.47
  -1   9  -3  143.92   24.17
  -1   9  -4  249.90   34.62
  -1   9  -4  258.20   31.90
  -1   9  -5 1436.04  113.16
  -1   9  -6  -11.28   21.09
  -1   9  -7   62.32   36.03
  -1   9  -8  -33.37   36.58
   1 -10  -8   66.84   55.50
   1 -10  -7   74.91   49.79
   1 -10  -6   -3.68   37.53
   1 -10  -5   38.69   31.48
   1 -10  -3   15.26    8.63
   1 -10  -2   74.91   11.73
  -1  10   1  359.69   31.59
  -1  10   0  236.67   27.67
  -1  10  -1  614.89   49.97
  -1  10  -1  594.93   48.03
  -1  10  -2  145.79   22.16
  -1  10  -2  138.54   25.42
  -1  10  -3 1352.62   96.57
  -1  10  -3 1393.31  104.73
  -1  10  -4    9.22   21.28
  -1  10  -4    9.47   18.60
  -1  10  -5  416.40   46.60
  -1  10  -6   15.59   24.46
  -1  10  -7  850.48   86.95
   1 -11  -7   54.66   41.97
   1 -11  -6   46.11   32.34
   1 -11  -5  185.90   31.99
   1 -11  -3 1046.34   67.62
   1 -11  -2   13.80    8.55
  -1  11   1   66.86   18.79
  -1  11   0  178.74   26.17
  -1  11  -1 3543.26  257.52
  -1  11  -1 3831.56  227.65
  -1  11  -2  175.74   29.88
  -1  11  -2  145.85   25.00
  -1  11  -3  755.92   63.81
  -1  11  -3  712.07   62.37
  -1  11  -4    2.76   19.65
  -1  11  -4   14.65   23.54
  -1  11  -5  649.71   62.70
  -1  11  -6   23.89   26.48
  -1  11  -7  110.38   39.70
   1 -12  -7   95.84   34.88
   1 -12  -6   32.03   24.34
   1 -12  -5   57.13   19.52
   1 -12  -3    0.47    7.63
   1 -12  -2  437.83   31.89
  -1  12   1  361.52   36.15
  -1  12   0  347.04   37.25
  -1  12  -1  131.03   23.15
  -1  12  -1  128.42   27.19
  -1  12  -2  687.98   59.48
  -1  12  -2  682.65   59.60
  -1  12  -3  760.95   65.22
  -1  12  -3  761.98   66.68
  -1  12  -4  -15.44   25.66
  -1  12  -4   18.51   22.00
  -1  12  -5   99.60   30.78
  -1  12  -6  -15.23   27.84
  -1  12  -7  198.91   50.20
   1 -13  -7   26.75   23.41
   1 -13  -6   57.28   21.47
   1 -13  -5  185.50   23.61
   1 -13  -3   21.41    8.79
   1 -13  -2    4.30    7.80
  -1  13   1  726.57   57.40
  -1  13   0  196.21   31.46
  -1  13  -1 1133.94   84.05
  -1  13  -2  266.04   35.16
  -1  13  -2  296.58   38.43
  -1  13  -3  124.21   26.52
  -1  13  -3   97.76   32.01
  -1  13  -4    4.97   30.91
  -1  13  -4   43.96   23.38
  -1  13  -5  674.37   68.94
  -1  13  -6   22.19   32.63
   1 -14  -6   78.06   18.82
   1 -14  -5   47.31   13.55
   1 -14  -3   14.72    7.87
   1 -14  -2  262.29   21.52
   1 -14  -1  204.36   19.20
  -1  14   0   26.68   23.43
  -1  14  -1   90.74   26.89
  -1  14  -2   68.69   24.19
  -1  14  -2   74.47   30.32
  -1  14  -3  264.68   46.10
  -1  14  -3  270.52   38.83
  -1  14  -4  113.93   32.00
  -1  14  -4   85.02   37.30
  -1  14  -5   48.33   39.14
  -1  14  -5   73.01   32.57
  -1  14  -6   23.25   32.28
   1 -15  -5   18.68    9.44
   1 -15  -3    4.03    7.37
   1 -15  -2  157.80   15.72
   1 -15  -1   53.42   10.94
  -1  15   0  169.93   31.95
  -1  15  -1    8.44   26.02
  -1  15  -2  401.22   52.03
  -1  15  -2  435.37   46.90
  -1  15  -3  238.37   38.15
  -1  15  -4  567.84   57.41
  -1  15  -4  355.14   56.80
  -1  15  -5   82.90   35.38
   1 -16  -5   -1.34    7.20
   1 -16  -2   85.64   11.67
   1 -16  -1   46.76    9.54
   1 -16   0   19.09    9.04
  -1  16  -1  444.98   52.18
  -1  16  -2   27.27   28.95
  -1  16  -3  286.60   52.64
  -1  16  -3  310.29   41.93
  -1  16  -4   88.65   44.01
  -1  16  -4  109.31   36.22
   1 -17  -2    3.08    6.71
   1 -17  -1    7.65    7.77
   1 -17   0   45.71   10.99
  -1  17  -2   30.27   35.55
  -1  17  -3    4.54   26.11
  -1  17  -3  -39.23   34.11
  -1  17  -4   40.90   32.95
   1 -18  -2   29.45    8.13
   1 -18  -1   11.29    7.77
   1 -18   0    4.10    7.32
   1 -18   1    4.28    9.70
   1 -18   2   21.49   12.49
   2  19   0   50.54   35.25
   2  18  -2  238.37   49.22
   2  18  -1   53.12   33.93
   2  18   0  158.06   39.40
   2  18   2  588.04   60.49
   2  17  -4  -27.33   35.23
   2  17  -3  179.49   47.32
   2  17  -2   75.66   32.63
   2  17  -1  194.31   39.68
   2  17   0   65.04   31.56
   2  17   2  159.17   36.64
   2  16  -5  -42.30   37.01
   2  16  -4  -24.01   36.13
   2  16  -3  235.18   48.32
   2  16  -2   -0.85   28.99
   2  16  -1   59.47   32.33
   2  16   0  258.25   42.24
   2  16   1  287.41   38.87
   2  16   2   27.59   26.59
   2  15  -5  314.47   56.49
   2  15  -4  193.50   46.85
   2  15  -3  186.25   42.49
   2  15  -2 1130.77   90.73
   2  15  -1 1117.36   86.84
   2  15   0 1099.73   84.03
   2  15   1    8.24   23.70
   2  15   2  239.74   36.28
  -2 -15  -5   44.65   20.99
   2  14  -6   41.26   39.72
   2  14  -5   67.30   32.59
   2  14  -5   62.57   38.06
   2  14  -4   -0.31   27.96
   2  14  -4   26.75   24.14
   2  14  -3    7.95   18.26
   2  14  -3   -3.92   25.79
   2  14  -2   17.86   25.41
   2  14  -2    8.85   16.45
   2  14  -1  323.18   42.29
   2  14   0  314.23   40.66
   2  14   1   76.79   26.38
   2  14   2  242.96   34.48
   2  14   3  227.20   32.37
   2  13  -7  118.60   52.84
   2  13  -6  111.56   43.82
   2  13  -5  341.19   50.48
   2  13  -5  373.19   52.90
   2  13  -4   11.98   29.69
   2  13  -4    3.82   20.94
   2  13  -3   87.07   31.75
   2  13  -3   89.47   22.53
   2  13  -2  821.43   67.37
   2  13  -2  869.41   69.69
   2  13  -1  806.45   65.21
   2  13   0   61.63   22.59
   2  13   1  103.85   24.89
   2  13   2  283.60   34.21
  -2 -13  -3  537.67   56.11
   2  13   3  624.70   49.64
   2  12  -7  -44.54   36.88
   2  12  -6  173.24   44.31
   2  12  -5  598.49   61.47
   2  12  -5  564.54   62.16
   2  12  -4  158.36   29.80
   2  12  -4  100.28   32.61
   2  12  -3  789.21   66.15
   2  12  -3  802.46   68.30
   2  12  -2  146.58   22.87
   2  12  -2  186.26   32.77
   2  12  -1   13.97   17.58
   2  12   0  206.67   30.71
   2  12   1 1190.84   83.62
  -2 -12  -2  100.81   23.12
   2  12   2  104.41   23.15
   2  12   3  629.16   49.10
   2  11  -7  -72.42   34.05
   2  11  -6  -10.58   29.08
   2  11  -5  132.76   33.78
   2  11  -5  165.79   35.70
   2  11  -4   15.92   23.91
   2  11  -4   28.03   19.89
   2  11  -3   12.72   22.21
   2  11  -3   11.80   15.84
   2  11  -2  115.80   19.84
   2  11  -2  132.50   27.83
   2  11  -1  665.06   54.97
   2  11   0   -3.31   16.02
  -2 -11  -1  318.27   32.75
   2  11   1  309.01   33.14
   2  11   2  112.46   22.35
  -2 -11  -2   84.46   20.78
  -2 -11  -3  101.63   21.46
   2  11   3  123.59   21.56
   2  10  -8  -38.45   41.86
   2  10  -7  -29.64   35.44
   2  10  -6   24.07   30.32
   2  10  -5  938.51   86.93
   2  10  -5 1071.73   79.88
   2  10  -4  153.53   31.05
   2  10  -4  154.64   27.69
   2  10  -3 1734.56  129.92
   2  10  -3 1815.33  120.62
   2  10  -2  326.04   36.00
   2  10  -2  271.48   29.25
   2  10  -1  145.36   20.81
   2  10  -1  182.83   25.41
   2  10   0  100.54   20.60
  -2 -10   0   83.87   15.61
   2  10   1 3072.87  190.12
  -2 -10  -1 3125.24  223.27
   2  10   2  424.73   36.15
   2  10   3 2750.55  162.18
  -2 -10  -3 2544.21  192.43
  -2 -10  -4    3.70   22.23
  -2 -10  -5  362.94   53.63
   2   9  -8  -34.98   40.96
   2   9  -7    7.02   33.28
   2   9  -6  -30.59   25.73
   2   9  -5    0.15   20.97
   2   9  -5    7.85   22.41
   2   9  -4   31.00   18.05
   2   9  -4   26.11   21.12
   2   9  -3    2.64   17.67
   2   9  -3   13.86   13.84
   2   9  -2  250.80   29.73
   2   9  -2  264.66   26.34
   2   9  -1   30.94   11.30
   2   9  -1   41.97   15.99
   2   9   0  139.41   20.89
  -2  -9   0  140.18   17.86
  -2  -9  -1    2.56    9.67
   2   9   2  397.31   33.68
   2   9   3  473.89   37.17
  -2  -9  -3  505.19   53.09
  -2  -9  -4  137.43   35.71
  -2  -9  -5   53.78   33.33
  -2  -9  -6   83.96   38.87
   2   8  -8   91.30   49.32
   2   8  -7    2.69   36.39
   2   8  -6  266.43   47.66
   2   8  -5  714.94   57.06
   2   8  -5  608.95   62.32
   2   8  -4  124.51   25.49
   2   8  -4  156.97   25.96
   2   8  -3  101.88   20.90
   2   8  -3  108.32   19.00
   2   8  -2   66.97   17.19
   2   8  -2   95.04   15.58
  -2  -8   1  248.78   22.75
   2   8  -1  283.63   27.41
   2   8  -1  274.61   24.65
  -2  -8   0  739.51   57.31
   2   8   0  777.27   54.44
   2   8   1  440.47   34.95
  -2  -8  -1  417.58   37.06
   2   8   2   35.48   12.01
   2   8   3    9.95   11.54
  -2  -8  -3   13.24   21.80
  -2  -8  -4 1033.37   92.57
  -2  -8  -5  288.80   50.05
  -2  -8  -6    8.80   34.72
  -2  -8  -7   80.68   49.22
  -2  -8  -8   62.77   52.80
   2   7  -8   80.89   46.93
   2   7  -7  351.39   60.50
   2   7  -6 1807.67  147.20
   2   7  -5 1024.12   95.63
   2   7  -5 1292.87   83.46
   2   7  -4  297.72   34.28
   2   7  -4  273.55   32.68
   2   7  -3  139.61   21.73
   2   7  -3  146.24   20.88
   2   7  -2 4953.27  300.16
   2   7  -2 5039.19  343.10
  -2  -7   1 2589.56  189.85
   2   7  -1 2670.30  164.92
   2   7  -1 2791.74  185.70
  -2  -7   0 3352.25  241.70
   2   7   0 3480.30  206.36
  -2  -7  -1   89.13   15.41
   2   7   1  106.68   15.72
   2   7   2  974.86   63.26
  -2  -7  -3 1404.75  106.57
   2   7   3 1201.18   80.54
  -2  -7  -4 1009.91   89.46
  -2  -7  -5  559.90   64.78
  -2  -7  -6  166.65   44.48
  -2  -7  -7  381.74   66.87
  -2  -7  -8   -7.81   48.41
   2   6  -9  118.67   49.75
   2   6  -8  -11.23   38.89
   2   6  -7  403.36   62.78
   2   6  -6   78.69   35.57
   2   6  -5   64.33   26.40
   2   6  -5  135.55   24.60
   2   6  -4    3.14   13.00
   2   6  -4   -4.59   13.99
   2   6  -3 1110.93   76.06
   2   6  -3 1108.60   83.53
   2   6  -2  821.36   57.19
   2   6  -2  696.79   53.41
  -2  -6   1  629.01   46.81
   2   6  -1  657.94   46.63
   2   6  -1  601.09   45.44
  -2  -6   0 1620.79  113.98
   2   6   0 1549.61   99.06
  -2  -6  -1 1730.45  126.74
   2   6   1 1764.21  107.71
  -2  -6  -2 3899.18  255.84
   2   6   2 3266.62  212.55
  -2  -6  -3  119.21   24.66
  -2  -6  -4 2931.51  215.81
  -2  -6  -5  668.64   67.96
  -2  -6  -6  132.93   41.05
  -2  -6  -7   19.68   39.29
   2   5  -9   33.45   43.40
   2   5  -8  154.35   48.64
   2   5  -7  446.21   64.69
   2   5  -6 3004.40  226.86
   2   5  -5  498.97   40.54
   2   5  -5  373.61   48.40
   2   5  -4  230.21   28.75
   2   5  -3 1327.75   96.65
   2   5  -3 1281.94   85.85
   2   5  -2 4662.01  278.91
   2   5  -2 4650.28  319.36
  -2  -5   1 1775.55  118.72
   2   5  -1 1732.48  115.34
   2   5  -1 1478.74  103.40
  -2  -5   0 2021.74  145.84
   2   5   0 2078.35  125.42
  -2  -5  -1  976.95   74.29
   2   5   1 1022.75   63.69
  -2  -5  -2 1459.76  114.27
   2   5   2 1635.65   94.47
  -2  -5  -3  844.80   70.79
   2   5   3  856.58   52.92
  -2  -5  -4 1126.43   93.04
  -2  -5  -5  285.86   45.33
  -2  -5  -6   14.91   31.38
  -2  -5  -7   35.82   38.70
  -2  -5  -8  107.60   51.34
   2   4  -9  127.66   44.54
   2   4  -8 1077.37  104.68
   2   4  -7 1843.42  151.81
   2   4  -6  126.42   37.32
   2   4  -5  -13.05   20.59
   2   4  -5   -0.68   13.09
   2   4  -4 1937.85  118.26
   2   4  -4 1777.80  139.40
   2   4  -3 2457.66  174.01
   2   4  -3 2428.59  150.92
   2   4  -2  451.03   37.20
   2   4  -2  552.20   39.83
  -2  -4   1   89.85   10.25
   2   4  -1   82.04    9.30
   2   4  -1   75.76   12.67
   2   4   0 1900.22  119.56
  -2  -4   0 2033.59  139.93
  -2  -4  -1 2422.86  157.44
  -2  -4  -1 2084.64  159.20
   2   4   1 2178.45  133.87
  -2  -4  -3  442.38   44.25
   2   4   3  513.95   30.85
  -2  -4  -4  408.26   45.18
  -2  -4  -5 1559.22  125.39
  -2  -4  -6  937.49   89.07
  -2  -4  -7   -1.94   33.61
  -2  -4  -8   17.56   45.51
   2   3  -9    9.35   39.71
   2   3  -8   97.92   41.70
   2   3  -7 1130.03  103.63
   2   3  -6   31.15   25.70
   2   3  -5 2392.46  178.73
   2   3  -5 2337.00  146.65
   2   3  -4  403.66   44.04
   2   3  -4  430.19   35.83
   2   3  -3 1578.99   98.33
   2   3  -3 1520.78  114.80
   2   3  -2  358.30   28.90
   2   3  -2  302.23   27.04
   2   3  -1 6129.98  391.02
   2   3  -1 7153.66  451.70
  -2  -3   0  534.39   37.03
   2   3   0  445.18   33.43
  -2  -3  -1    5.12    6.16
   2   3   1    8.21    5.85
  -2  -3  -1    4.07    5.93
   2   3   3 1253.79   75.31
  -2  -3  -3 1278.91   97.03
  -2  -3  -4   30.51   19.56
  -2  -3  -5  140.29   31.57
  -2  -3  -6 1152.22  101.76
  -2  -3  -7   78.57   39.15
  -2  -3  -8  381.89   69.33
   2   2  -9  251.04   51.70
   2   2  -8 1235.98  110.48
   2   2  -7  137.62   35.85
   2   2  -6  361.91   48.32
   2   2  -5  279.43   41.38
   2   2  -4 4408.04  300.63
   2   2  -4 4052.91  252.99
   2   2  -3  337.83   34.08
   2   2  -3  320.59   27.96
   2   2  -2 2014.98  123.44
   2   2  -2 2001.49  142.63
   2   2   0  462.55   32.25
   2   2   1  298.40   21.50
  -2  -2  -3 4393.03  307.06
  -2  -2  -4   37.81   18.96
  -2  -2  -5  182.85   34.17
  -2  -2  -6 2803.16  210.78
  -2  -2  -7 1262.22  113.27
  -2  -2  -8  243.41   57.59
   2   1  -9  115.02   45.24
   2   1  -8   10.00   30.07
   2   1  -7  667.73   71.02
   2   1  -6  488.79   54.01
   2   1  -5 2332.31  174.04
   2   1  -4  128.89   17.88
   2   1  -4  118.83   24.46
   2   1  -3   71.96   16.93
   2   1  -3   98.07   14.68
   2   1  -2   20.93    9.22
   2   1  -2   15.11    7.85
   2   1   0  594.20   40.18
  -2  -1  -1  316.24   24.96
  -2  -1  -1  295.76   23.70
   2   1   2   53.53    7.98
  -2  -1  -2   71.02   12.18
  -2  -1  -3  785.31   63.15
  -2  -1  -4 2002.24  148.34
  -2  -1  -5  962.29   83.65
  -2  -1  -6  139.14   36.57
  -2  -1  -7   37.21   31.95
  -2  -1  -8 2313.18  186.66
   2   0  -9   40.75   41.66
   2   0  -8  225.17   48.60
   2   0  -7    7.96   27.16
   2   0  -6 1651.19  130.06
   2   0  -5   -1.38   17.49
   2   0  -4  875.61   52.92
   2   0  -4  691.18   64.71
   2   0  -3   11.08    7.02
   2   0  -3    6.73    9.43
   2   0  -2   21.92    7.60
   2   0  -1   52.66   11.73
  -2   0   0 1518.48  108.26
   2   0   1   14.65    9.26
  -2   0  -1   10.96    4.74
  -2   0  -1   18.86    4.71
  -2   0  -2 1538.66  109.05
  -2   0  -3   -3.24   10.09
   2   0   3   14.14   13.82
  -2   0  -4  206.50   29.63
  -2   0  -5   -5.12   19.57
  -2   0  -6  956.89   87.73
  -2   0  -7  -27.62   29.66
  -2   0  -8   16.14   39.24
   2  -1  -9   90.49   46.20
   2  -1  -8   23.52   31.25
   2  -1  -7  601.16   66.18
   2  -1  -6  450.97   53.16
   2  -1  -5 1621.53  124.78
   2  -1  -4   68.47   10.82
   2  -1  -4   58.40   16.43
   2  -1  -3   67.72   12.67
   2  -1  -3   58.23   13.62
   2  -1  -2   28.13    9.11
   2  -1  -2   23.88   10.71
   2  -1  -1 3889.42  239.56
  -2   1   0 1060.72   70.66
  -2   1   0  940.24   67.23
   2  -1   0  909.38   63.33
  -2   1  -1  327.29   24.46
   2  -1   1  320.57   24.73
  -2   1  -1  310.21   25.30
   2  -1   2   82.65   12.31
  -2   1  -2  114.24   13.19
  -2   1  -2   92.48   12.62
  -2   1  -3  762.93   62.49
   2  -1   3  869.27   55.43
  -2   1  -4 1704.31  126.31
  -2   1  -5  750.10   67.90
  -2   1  -6  114.27   33.81
  -2   1  -7   43.80   33.29
  -2   1  -8 2083.34  170.61
   2  -2  -9  276.22   62.81
   2  -2  -8 1293.22  118.10
   2  -2  -7  129.81   38.32
   2  -2  -6  254.65   39.37
   2  -2  -5  167.87   30.33
   2  -2  -4 2806.21  167.41
   2  -2  -4 2552.32  193.25
   2  -2  -3  250.80   28.93
   2  -2  -3  258.27   24.92
   2  -2  -2 2071.49  131.47
   2  -2  -1 2386.23  148.89
  -2   2   0  596.97   43.64
   2  -2   0  629.80   41.83
  -2   2  -1  347.49   26.88
  -2   2  -1  340.24   26.32
   2  -2   1  339.15   25.53
  -2   2  -2 5565.81  391.91
  -2   2  -2 5567.37  380.59
   2  -2   3 4750.36  274.29
  -2   2  -3 4194.65  308.63
  -2   2  -4   33.63   13.99
   2  -2   4   35.52   14.72
  -2   2  -5   93.39   22.91
  -2   2  -6 1835.75  144.15
  -2   2  -7  837.61   82.27
  -2   2  -8  216.08   51.70
   2  -3  -9   31.73   45.23
   2  -3  -8  138.28   49.96
   2  -3  -7  878.61   87.68
   2  -3  -6   18.60   23.19
   2  -3  -5 1704.70  133.71
   2  -3  -4  363.23   40.18
   2  -3  -4  317.82   31.71
   2  -3  -3 1851.77  127.58
   2  -3  -3 2108.12  149.32
   2  -3  -2  483.37   38.04
   2  -3  -1 9181.66  556.47
   2  -3   0  545.83   38.89
  -2   3   0  595.56   41.55
   2  -3   1    7.52    6.62
  -2   3  -1    6.12    5.24
  -2   3  -1    8.59    5.06
  -2   3  -2 1040.42   76.03
   2  -3   2  990.23   67.67
  -2   3  -2 1096.02   75.59
  -2   3  -3 1411.88  102.34
  -2   3  -3 1410.33  103.50
   2  -3   3 1408.74   91.12
  -2   3  -4   28.68   14.53
   2  -3   4   28.91   13.76
  -2   3  -5   70.91   21.15
  -2   3  -6  629.26   64.56
  -2   3  -7    5.65   31.70
  -2   3  -8  244.93   51.36
   2  -4  -9  177.93   67.22
   2  -4  -8 1218.26  125.29
   2  -4  -7 1645.44  142.95
   2  -4  -6   84.82   32.89
   2  -4  -5    7.47   24.53
   2  -4  -4 2344.92  173.14
   2  -4  -4 2146.91  145.92
   2  -4  -3 4589.78  330.33
   2  -4  -2  674.21   48.08
   2  -4  -1   87.59   12.48
  -2   4   0 2028.34  142.47
   2  -4   0 2093.76  128.44
   2  -4   1 2038.79  129.18
  -2   4  -1 2096.20  143.43
  -2   4  -2 1936.08  134.15
  -2   4  -2 1754.26  135.72
   2  -4   2 2032.38  121.12
   2  -4   3  576.61   42.96
  -2   4  -3  526.26   43.65
  -2   4  -3  573.74   45.56
  -2   4  -4  384.33   36.06
   2  -4   4  350.04   33.62
  -2   4  -4  368.90   33.64
  -2   4  -5  929.26   77.63
  -2   4  -6  446.32   50.69
  -2   4  -7  -28.58   24.46
  -2   4  -8  -27.82   34.61
   2  -5  -9   78.48   71.25
   2  -5  -7  506.54   80.24
   2  -5  -6 3621.87  277.35
   2  -5  -5  603.09   75.40
   2  -5  -4  520.26   67.21
   2  -5  -4  389.29   47.16
   2  -5  -3 2164.75  139.53
   2  -5  -2 6123.75  373.62
   2  -5  -1 1691.40  106.81
   2  -5   0 2077.04  130.36
  -2   5   0 2093.92  144.90
   2  -5   1  996.05   65.68
  -2   5  -1  968.10   70.69
  -2   5  -2 1681.29  114.57
  -2   5  -2 1528.10  114.73
  -2   5  -3  794.48   65.19
  -2   5  -3  973.09   68.39
  -2   5  -4 1093.54   84.93
   2  -5   4 1126.83   78.83
  -2   5  -5  174.74   27.50
  -2   5  -6    4.84   20.45
  -2   5  -7  -18.08   23.13
  -2   5  -8   37.15   39.30
   2  -6  -9  331.08  105.15
   2  -6  -8   37.64   70.64
   2  -6  -7  587.43   91.95
   2  -6  -6  220.58   64.27
   2  -6  -5  231.47   56.69
   2  -6  -4    6.28   33.68
   2  -6  -4   17.22   23.08
   2  -6  -3 1588.01  104.27
   2  -6  -2  866.46   58.85
   2  -6  -1  608.39   42.97
   2  -6   0 1598.66  104.25
  -2   6   0 1669.29  115.33
  -2   6  -1 1718.46  123.41
   2  -6   1 1791.65  113.04
  -2   6  -2 3140.15  218.38
  -2   6  -3  108.36   17.17
  -2   6  -3   81.25   12.61
  -2   6  -4 2442.33  175.06
  -2   6  -5  489.98   48.75
  -2   6  -6   56.01   23.97
  -2   6  -7  -28.61   26.59
  -2   6  -8  508.61   65.58
   2  -7  -8  191.11   87.92
   2  -7  -7  815.82  120.36
   2  -7  -6 4295.03  338.51
   2  -7  -5 2239.37  193.82
   2  -7  -4  428.80   44.92
   2  -7  -4  563.05   67.22
   2  -7  -3  176.73   22.56
   2  -7  -2 5634.78  344.18
   2  -7  -1 2728.15  169.77
  -2   7   0 3405.35  238.02
   2  -7   0 3483.87  213.74
  -2   7  -1   86.36   14.28
  -2   7  -2  982.34   76.07
  -2   7  -2 1048.89   70.94
  -2   7  -3 1246.08   93.34
  -2   7  -4  846.92   68.96
  -2   7  -5  368.48   40.13
  -2   7  -6   68.85   25.65
  -2   7  -7  121.52   35.39
  -2   7  -8  -65.34   31.27
   2  -8  -8  358.37  100.59
   2  -8  -7  106.35   73.45
   2  -8  -6  668.80  103.08
   2  -8  -5  997.75  108.27
   2  -8  -4  192.63   26.19
   2  -8  -3  108.43   17.84
   2  -8  -2   76.96   14.31
   2  -8  -1  259.16   24.40
   2  -8   0  755.36   54.11
  -2   8  -1  410.90   34.86
  -2   8  -1  395.45   34.72
  -2   8  -2   40.19   14.23
  -2   8  -2   44.43   16.51
  -2   8  -3   12.68   13.05
  -2   8  -3    5.21   16.26
  -2   8  -4  797.75   65.99
  -2   8  -5  204.83   30.54
  -2   8  -6  -27.08   20.06
  -2   8  -7   -4.64   29.10
  -2   8  -8  -25.80   35.73
   2  -9  -8   98.18   78.10
   2  -9  -7  113.26   66.93
   2  -9  -6  -17.62   46.14
   2  -9  -5   27.28   33.68
   2  -9  -4   44.20   15.49
   2  -9  -3    3.17   10.91
   2  -9  -2  222.18   22.44
   2  -9  -1   31.83   12.34
   2  -9   0  114.33   18.37
  -2   9  -1    6.82   14.60
  -2   9  -1    4.32   10.46
  -2   9  -2  400.50   39.32
  -2   9  -2  395.41   37.78
  -2   9  -3  478.45   45.31
  -2   9  -3  528.46   48.16
  -2   9  -4  111.32   22.80
  -2   9  -5   45.37   20.60
  -2   9  -6   24.16   25.49
  -2   9  -7  341.83   50.02
   2 -10  -8   52.00   58.73
   2 -10  -7   90.16   53.50
   2 -10  -6   91.87   40.82
   2 -10  -5  880.63   78.64
   2 -10  -3 1395.59   90.52
   2 -10  -2  230.56   22.94
   2 -10  -1  129.67   19.05
   2 -10   0   54.74   15.24
  -2  10  -1 2862.83  210.36
  -2  10  -1 3133.51  187.07
  -2  10  -2  415.31   40.24
  -2  10  -2  393.58   38.46
  -2  10  -3 2814.20  209.99
  -2  10  -3 3087.70  189.58
  -2  10  -4    1.90   16.22
  -2  10  -5  261.35   34.40
   2 -10   5  137.50   37.73
  -2  10  -6   15.16   25.91
  -2  10  -7  504.11   63.35
   2 -11  -7    6.88   35.10
   2 -11  -6   16.29   25.76
   2 -11  -5  123.96   25.45
   2 -11  -3   10.02   11.79
   2 -11  -2   78.28   14.83
   2 -11  -1  444.96   35.06
   2 -11   0   -8.74   13.77
  -2  11  -1  294.36   32.92
  -2  11  -1  279.05   30.84
  -2  11  -2   75.19   25.32
  -2  11  -2   89.72   22.17
  -2  11  -3  143.40   25.46
  -2  11  -3  114.76   30.47
  -2  11  -4   13.70   18.91
   2 -11   5   88.05   35.65
  -2  11  -5   70.30   27.45
  -2  11  -6  -11.71   22.89
  -2  11  -7  298.45   50.12
   2 -12  -7   36.68   25.67
   2 -12  -6  134.54   27.33
   2 -12  -5  245.51   29.05
   2 -12  -3  460.29   34.90
   2 -12  -2  114.11   16.69
   2 -12  -1   -2.01   11.32
   2 -12   0   96.92   19.57
  -2  12  -1 1090.66   85.27
  -2  12  -2  103.17   24.30
  -2  12  -2   90.66   26.13
  -2  12  -3  684.41   61.92
  -2  12  -4  140.32   30.81
   2 -12   5  140.04   43.86
  -2  12  -5  257.05   39.86
  -2  12  -6   -5.72   28.35
   2 -13  -7   85.44   23.97
   2 -13  -6   50.31   18.93
   2 -13  -5  118.39   18.39
   2 -13  -3   55.51   12.46
   2 -13  -2  503.25   37.65
   2 -13  -1  431.13   34.68
   2 -13   0   20.75   15.07
   2 -13   1   41.24   19.86
  -2  13  -2  293.96   36.99
  -2  13  -3  657.43   61.78
  -2  13  -4   10.79   20.89
   2 -13   5   87.72   37.98
  -2  13  -5  205.41   36.50
  -2  13  -6  -34.22   24.47
   2 -14  -6   23.37   13.85
   2 -14  -5   11.45    9.60
   2 -14  -3    5.30    9.41
   2 -14  -2   11.68   10.74
   2 -14  -1  131.20   18.65
   2 -14   0  128.27   20.57
   2 -14   1   14.50   15.62
   2 -14   2   95.00   26.34
  -2  14  -2  206.89   31.98
   2 -14   3   83.58   31.05
  -2  14  -3  215.05   32.67
  -2  14  -4  565.72   60.31
   2 -14   5   51.43   36.39
  -2  14  -5  115.77   34.96
   2 -15  -5   35.22    9.03
   2 -15  -3   99.36   14.48
   2 -15  -2  480.88   35.78
   2 -15  -1  471.58   36.28
   2 -15   0  475.19   38.45
   2 -15   1   -6.20   15.10
   2 -15   2   55.54   24.59
  -2  15  -2  205.23   33.59
  -2  15  -3  547.82   56.16
   2 -15   5   10.42   33.55
  -2  15  -5   65.30   33.58
   2 -16  -5   -6.08    5.29
   2 -16  -3   97.15   14.13
   2 -16  -2    3.15    9.17
   2 -16  -1   11.91    9.67
   2 -16   0   79.78   16.10
   2 -16   1   67.31   18.45
   2 -16   2    9.62   18.91
   2 -16   3   -0.28   24.68
  -2  16  -3   47.00   28.43
  -2  16  -4  203.16   40.22
   2 -17  -3   61.03   11.41
   2 -17  -2   37.26   10.94
   2 -17  -1   71.41   13.49
   2 -17   0   12.64   12.23
   2 -17   1   20.57   14.53
   2 -17   2   32.91   18.85
   2 -17   3   -8.32   21.74
  -2  17  -3   82.79   31.89
   2 -18  -2   83.81   13.17
   2 -18  -1   16.69   10.25
   2 -18   0   33.69   12.75
   2 -18   1   -3.37   12.26
   2 -18   2   40.70   16.21
   3  18  -2  -17.29   31.81
   3  18  -1  129.36   38.70
   3  18   0   32.28   30.28
   3  18   1  181.62   40.72
   3  18   2   13.94   30.84
   3  17  -4   59.16   46.85
   3  17  -3   82.73   40.75
   3  17  -2   45.03   33.68
   3  17  -1   31.44   31.53
   3  17   0  155.02   37.65
   3  17   1  615.35   60.71
   3  17   2  268.55   41.75
   3  16  -5  183.72   53.88
   3  16  -4   41.83   36.60
   3  16  -3   39.32   32.01
   3  16  -2  385.92   49.05
   3  16  -1  332.65   44.20
   3  16   0  585.09   58.20
   3  16   1  352.21   45.07
   3  16   2  133.40   33.18
   3  15  -6   86.54   46.93
   3  15  -5  -20.26   36.16
   3  15  -4  156.76   46.38
   3  15  -3   46.31   33.51
   3  15  -2   19.66   28.02
   3  15  -1    8.91   25.70
   3  15   0   37.66   26.47
   3  15   1  177.21   32.37
   3  15   2   16.84   23.86
  -3 -15  -5  110.50   29.09
   3  14  -6  341.46   58.31
   3  14  -5  748.81   77.06
   3  14  -4  300.28   50.31
   3  14  -3  273.45   46.23
   3  14  -2  238.98   39.91
   3  14  -1 1598.59  113.22
   3  14   0 1471.07  104.23
   3  14   1   54.05   25.21
   3  14   2   24.60   22.65
  -3 -14  -4  378.73   47.05
  -3 -14  -5  140.25   31.18
   3  13  -6  -16.17   37.19
   3  13  -5   12.08   26.85
   3  13  -5   11.49   29.37
   3  13  -4  -13.31   24.17
   3  13  -3  236.89   41.40
   3  13  -2   46.99   26.76
   3  13  -1   30.14   23.55
   3  13   0  478.66   47.01
   3  13   1  101.48   26.19
   3  13   2  269.94   35.68
  -3 -13  -3   25.72   22.85
  -3 -13  -4  493.82   54.55
  -3 -13  -5   -1.49   24.28
  -3 -13  -6  220.17   37.59
   3  12  -7  -37.89   41.33
   3  12  -6  -43.06   29.61
   3  12  -6  -49.81   28.52
   3  12  -5   92.34   33.51
   3  12  -5  120.29   36.18
   3  12  -4  285.99   41.55
   3  12  -4  265.51   35.61
   3  12  -3  172.53   35.80
   3  12  -3  155.07   25.66
   3  12  -2   50.82   15.52
   3  12  -2   72.50   26.30
   3  12  -1   84.43   25.17
   3  12   0  521.67   47.62
   3  12   1  254.25   32.13
   3  12   2  289.11   32.93
  -3 -12  -2  260.90   34.52
  -3 -12  -3  201.45   33.54
  -3 -12  -4   -5.21   20.00
  -3 -12  -5   34.87   28.58
  -3 -12  -6    2.75   28.47
   3  11  -7  348.60   67.61
   3  11  -6  -14.40   27.80
   3  11  -6  -15.84   29.74
   3  11  -4   -3.54   21.06
   3  11  -4    8.39   17.58
   3  11  -3 2270.39  173.77
   3  11  -3 2607.89  162.23
   3  11  -2    8.00   17.88
   3  11  -2   -1.66   11.59
   3  11  -1  177.60   27.91
   3  11   0   91.38   21.13
   3  11   1 1758.85  116.18
  -3 -11  -1 1805.22  133.11
   3  11   2   28.92   17.63
  -3 -11  -2   19.21   17.24
  -3 -11  -3  384.60   44.49
   3  11   3  435.85   36.90
  -3 -11  -4   73.24   28.44
   3  10  -8  -53.66   43.50
   3  10  -7  -71.77   34.06
   3  10  -6   50.03   33.69
   3  10  -5  -34.50   23.02
   3  10  -5   -5.34   21.46
   3  10  -4   -5.96   21.47
   3  10  -4    4.26   16.48
   3  10  -3  175.61   30.28
   3  10  -3  181.23   24.52
   3  10  -2  202.91   31.13
   3  10  -2  198.52   22.14
   3  10  -1  194.71   27.86
  -3 -10   0   -0.10   10.68
   3  10   0   14.51   15.59
  -3 -10  -1  594.30   50.51
   3  10   1  600.45   47.70
   3  10   2  100.09   19.72
  -3 -10  -2   67.83   18.82
   3  10   3    0.88   14.85
  -3 -10  -3  -13.14   17.23
   3   9  -8  -11.85   45.50
   3   9  -7  375.05   66.96
   3   9  -6  -33.66   27.23
   3   9  -5 1095.73   77.96
   3   9  -5  832.32   83.72
   3   9  -4  227.38   32.32
   3   9  -4  237.17   35.84
   3   9  -3 1463.19  112.25
   3   9  -3 1608.68  106.34
   3   9  -2  106.33   22.36
   3   9  -2   87.34   15.45
   3   9  -1   13.21   14.67
   3   9  -1    8.86    9.29
  -3  -9   1    7.05    8.80
   3   9   0  969.77   69.43
  -3  -9   0 1025.85   75.42
   3   9   1  567.23   43.54
  -3  -9  -1  527.93   45.99
  -3  -9  -2  473.38   47.04
   3   9   2  548.78   41.06
  -3  -9  -2  496.83   44.95
  -3  -9  -3  577.45   54.73
   3   9   3  599.45   43.72
   3   8  -8  -29.78   40.63
   3   8  -7  549.55   75.30
   3   8  -6   64.77   33.83
   3   8  -5  542.02   64.04
   3   8  -5  801.60   60.62
   3   8  -4  762.48   66.76
   3   8  -4  815.56   64.04
   3   8  -3  765.56   61.99
   3   8  -3  829.90   63.44
   3   8  -2   35.62   11.23
   3   8  -2   49.89   17.25
   3   8  -1 1075.97   74.81
   3   8  -1  984.74   71.28
  -3  -8   1 1054.98   76.62
  -3  -8   0 2195.86  157.90
   3   8   0 2196.28  137.20
   3   8   1  330.97   29.33
  -3  -8  -1  301.59   29.12
   3   8   2  114.65   17.65
  -3  -8  -2  109.40   21.82
  -3  -8  -2   77.45   16.87
   3   8   3 1721.99  103.69
  -3  -8  -3 1602.65  127.18
  -3  -8  -4  315.54   44.23
   3   7  -8  403.54   66.55
   3   7  -7  171.76   50.49
   3   7  -6  272.84   48.59
   3   7  -5   -3.34   20.86
   3   7  -5    7.11   21.64
   3   7  -4  890.75   65.73
   3   7  -4  782.64   70.10
   3   7  -3  271.06   32.71
   3   7  -3  289.05   28.95
   3   7  -2   45.84   11.09
   3   7  -2   46.94   16.55
   3   7  -1  217.79   20.08
   3   7  -1  197.83   23.57
  -3  -7   1  233.94   20.74
   3   7   0   33.52   11.73
   3   7   1  290.71   26.04
  -3  -7  -1  273.18   27.02
  -3  -7  -2  278.07   30.21
  -3  -7  -2  291.06   33.80
   3   7   2  328.87   26.75
   3   7   3  171.71   18.21
  -3  -7  -3  145.12   27.54
  -3  -7  -4  729.26   68.49
  -3  -7  -5   50.53   27.80
  -3  -7  -6  440.22   60.48
   3   6  -9   50.19   44.78
   3   6  -8  302.46   60.25
   3   6  -7  163.75   47.46
   3   6  -6 2414.84  189.92
   3   6  -5  743.52   54.60
   3   6  -5  469.46   60.85
   3   6  -4 1446.68  123.75
   3   6  -4 1842.27  111.14
   3   6  -3   23.67   11.73
   3   6  -3    4.42   14.17
   3   6  -2 2786.77  192.20
   3   6  -2 2765.17  172.16
   3   6  -1 2549.14  163.18
   3   6  -1 2134.04  146.15
  -3  -6   1 2419.60  168.62
   3   6   0 6084.32  356.23
  -3  -6   0 5909.99  422.05
   3   6   1  719.51   48.82
  -3  -6  -1  695.31   55.12
  -3  -6  -2  323.73   30.24
   3   6   2  359.38   26.43
  -3  -6  -2  262.67   31.98
  -3  -6  -3  646.42   57.97
  -3  -6  -4 3128.70  227.66
  -3  -6  -5  261.54   45.10
  -3  -6  -6   -5.60   27.52
  -3  -6  -7  110.70   41.17
   3   5  -9   90.47   44.84
   3   5  -8   -3.83   36.68
   3   5  -7  275.01   50.67
   3   5  -6  444.25   61.78
   3   5  -5  105.54   24.91
   3   5  -5   64.95   28.79
   3   5  -4   80.13   23.19
   3   5  -4  126.22   22.55
   3   5  -3 1237.83   82.70
   3   5  -3 1178.08   90.64
   3   5  -2  475.31   40.92
   3   5  -2  555.64   40.38
   3   5  -1   63.24    8.85
  -3  -5   1   69.95   11.07
   3   5  -1   60.93   13.09
   3   5   0  103.72   14.65
  -3  -5   0  100.82   13.09
  -3  -5  -1 3744.66  267.58
   3   5   1 3791.37  225.03
  -3  -5  -2  475.05   40.93
  -3  -5  -3   14.36   14.20
   3   5   3   12.04    7.79
  -3  -5  -4  797.07   71.06
  -3  -5  -5 3829.73  277.49
  -3  -5  -6  880.54   84.99
  -3  -5  -7  506.52   68.65
  -3  -5  -8   75.34   42.77
   3   4  -9   29.27   35.36
   3   4  -8   56.33   38.69
   3   4  -7   23.05   33.03
   3   4  -6  478.54   61.80
   3   4  -5 1254.86  109.10
   3   4  -5 1386.35   91.02
   3   4  -4  563.60   44.08
   3   4  -4  440.67   51.10
   3   4  -3 1261.88  101.07
   3   4  -3 1442.05   90.34
   3   4  -2  349.74   32.35
   3   4  -2  419.47   32.38
   3   4  -1 1985.54  136.13
  -3  -4   0 2009.32  135.05
   3   4   0 1754.69  116.23
  -3  -4  -2    1.08    9.05
   3   4   2    5.05    6.74
  -3  -4  -2    3.70    8.80
   3   4   3  267.81   19.40
  -3  -4  -3  226.33   29.52
  -3  -4  -4  627.40   58.71
  -3  -4  -5  411.90   50.53
  -3  -4  -6   24.71   30.34
  -3  -4  -7   21.86   34.94
  -3  -4  -8  144.70   51.35
   3   3  -9  219.88   50.83
   3   3  -8 2265.26  179.82
   3   3  -7    3.80   29.04
   3   3  -6   27.10   27.92
   3   3  -5 1036.78   74.12
   3   3  -5 1071.70   92.25
   3   3  -4 6703.65  399.59
   3   3  -4 6706.60  468.34
   3   3  -3   -1.53   12.91
   3   3  -3    9.01   12.00
   3   3  -2 1041.49   71.52
   3   3  -2 1083.93   78.89
   3   3  -1   45.40    6.56
  -3  -3   1   41.08    8.56
   3   3  -1   57.45   12.54
   3   3   0 3129.94  198.62
  -3  -3   0 3459.90  233.43
   3   3   1 1508.07   93.63
  -3  -3  -2 1721.91  127.59
   3   3   2 1857.74  108.39
  -3  -3  -3  106.38   19.85
   3   3   3  103.58   11.65
  -3  -3  -4   44.20   19.98
  -3  -3  -5 2505.99  186.97
  -3  -3  -6 1783.26  142.96
  -3  -3  -7   24.03   34.62
  -3  -3  -8   50.30   41.73
   3   2  -9   13.75   32.34
   3   2  -8  123.12   40.77
   3   2  -7  972.18   89.04
   3   2  -6  477.91   54.11
   3   2  -5 2692.37  159.71
   3   2  -5 2425.71  188.87
   3   2  -4   16.28   15.83
   3   2  -4    5.34   12.79
   3   2  -3   61.39   17.63
   3   2  -3   31.85   12.93
   3   2  -2  224.35   22.98
   3   2  -2  258.29   25.84
   3   2  -1 5982.75  393.62
   3   2  -1 5526.57  342.28
   3   2   0  386.97   31.59
  -3  -2  -1 1826.76  123.30
  -3  -2  -1 1871.99  128.78
   3   2   1 1654.78  109.96
   3   2   2  632.04   43.67
  -3  -2  -2  657.05   51.32
  -3  -2  -2  717.92   53.16
  -3  -2  -3 2233.54  167.93
  -3  -2  -3 2368.59  164.83
  -3  -2  -4  123.48   23.45
  -3  -2  -5  473.25   52.63
  -3  -2  -6    1.85   27.39
  -3  -2  -7  114.75   40.79
  -3  -2  -8  555.04   76.48
   3   1  -9  420.58   65.17
   3   1  -8 1834.02  149.18
   3   1  -7   77.87   31.02
   3   1  -6   12.89   20.56
   3   1  -5 1527.57   93.32
   3   1  -5 1306.69  111.01
   3   1  -4 3203.66  246.78
   3   1  -4 3759.39  211.13
   3   1  -3  334.39   27.74
   3   1  -3  323.51   32.60
   3   1  -2  338.17   25.87
   3   1  -2  272.23   26.90
   3   1  -1  194.93   16.35
  -3  -1   0  289.74   24.15
  -3  -1  -1  170.35   16.68
  -3  -1  -1  193.52   14.78
   3   1   1  140.87   22.02
   3   1   2  621.09   48.36
  -3  -1  -2  769.41   55.63
  -3  -1  -2  745.06   53.65
  -3  -1  -3  146.31   19.88
   3   1   3  122.20   13.88
  -3  -1  -3  168.38   21.66
  -3  -1  -4  619.39   55.57
  -3  -1  -5  149.83   31.02
  -3  -1  -6   -2.06   26.27
  -3  -1  -7   70.66   32.84
  -3  -1  -8  273.54   55.99
  -3  -1  -8  157.26   40.02
   3   0  -9   21.49   38.42
   3   0  -8   47.21   31.52
   3   0  -7   16.74   26.66
   3   0  -6 1869.37  144.04
   3   0  -5   -6.51   12.26
   3   0  -5    2.12   16.13
   3   0  -4  417.40   31.21
   3   0  -4  361.48   38.73
   3   0  -3    7.53    8.50
   3   0  -2 3611.77  271.58
   3   0  -2 4275.46  245.45
   3   0  -1   18.03   12.17
  -3   0   0  323.48   24.80
  -3   0   0  311.96   21.53
   3   0   0  233.74   26.30
  -3   0  -1   16.22    5.01
  -3   0  -1    6.04    6.21
   3   0   1   20.81   13.57
  -3   0  -2 3214.51  232.08
   3   0   2 3438.87  206.58
  -3   0  -2 3113.75  224.32
  -3   0  -3   15.67   10.66
   3   0   3   -8.82   17.90
  -3   0  -3    0.57   10.60
  -3   0  -4  764.07   63.22
  -3   0  -4  763.87   63.57
  -3   0  -5    7.06   18.36
  -3   0  -6  223.38   40.33
  -3   0  -7  -30.22   27.60
   3  -1  -9  429.55   64.94
   3  -1  -8 1816.92  149.38
   3  -1  -7   86.93   33.29
   3  -1  -6   15.69   19.50
   3  -1  -5  827.25   70.90
   3  -1  -4 2488.80  179.91
   3  -1  -3  339.07   29.88
   3  -1  -3  328.97   32.46
   3  -1  -2  422.93   34.54
   3  -1  -1  257.95   26.89
  -3   1   0  289.03   21.92
  -3   1  -1  159.75   15.86
   3  -1   1  130.32   19.71
  -3   1  -1  170.87   14.18
   3  -1   2  663.09   53.66
  -3   1  -2  778.86   56.67
  -3   1  -2  759.65   54.66
   3  -1   3  223.63   30.47
  -3   1  -3  174.37   21.49
  -3   1  -3  154.24   21.42
  -3   1  -4  566.42   49.91
  -3   1  -4  557.21   49.48
  -3   1  -5  121.71   25.33
  -3   1  -5  140.22   27.60
  -3   1  -6   22.23   21.93
  -3   1  -6   -4.50   23.08
  -3   1  -7   49.18   26.74
  -3   1  -7   48.46   34.16
  -3   1  -8  221.42   52.80
   3  -2  -9   -1.09   38.16
   3  -2  -8  125.26   40.96
   3  -2  -7  756.81   77.83
   3  -2  -6  326.26   45.59
   3  -2  -5 1458.11  115.26
   3  -2  -4    5.26   13.08
   3  -2  -4    7.11   12.05
   3  -2  -3   13.91   14.37
   3  -2  -3   21.77   12.54
   3  -2  -2  244.46   27.35
   3  -2  -1 6152.56  377.33
   3  -2   0  519.37   39.13
  -3   2   0  521.92   37.80
  -3   2  -1 1971.92  134.15
   3  -2   1 1800.89  118.80
  -3   2  -1 1830.42  129.22
   3  -2   2  710.84   52.61
  -3   2  -2  760.68   55.26
  -3   2  -2  750.80   56.53
  -3   2  -3 2384.88  171.86
  -3   2  -3 2316.67  176.24
   3  -2   3 2630.17  156.51
  -3   2  -4  115.91   20.03
  -3   2  -4  116.31   20.66
  -3   2  -5  348.72   40.95
  -3   2  -5  362.15   38.70
  -3   2  -6   -4.59   20.63
  -3   2  -6   16.52   20.16
  -3   2  -7   44.46   30.86
  -3   2  -7   58.42   28.03
  -3   2  -8  401.23   64.61
   3  -3  -9  271.45   65.67
   3  -3  -8 2221.55  182.89
   3  -3  -7   14.87   28.84
   3  -3  -6   23.63   25.71
   3  -3  -5  656.96   64.46
   3  -3  -4 4615.22  297.85
   3  -3  -4 4981.38  341.85
   3  -3  -3   -7.74   16.13
   3  -3  -3   17.29   19.23
   3  -3  -2 1155.91   80.06
   3  -3  -1   51.87   13.18
   3  -3   0 3780.95  219.41
  -3   3   0 3298.90  242.02
  -3   3  -1 1698.91  121.09
  -3   3  -1 1773.08  125.34
   3  -3   1 1745.63  111.09
   3  -3   2 2109.32  134.59
  -3   3  -2 2206.20  148.56
  -3   3  -2 2050.71  152.08
   3  -3   3  126.64   19.74
  -3   3  -3   89.01   15.25
  -3   3  -3  112.82   17.56
  -3   3  -4   72.19   16.14
   3  -3   4   48.41   21.75
  -3   3  -4   61.34   15.12
  -3   3  -5 1551.06  121.46
  -3   3  -5 1629.76  121.65
  -3   3  -6 1007.01   82.25
  -3   3  -6  838.00   78.05
  -3   3  -7  -13.04   28.50
  -3   3  -8   -9.29   37.14
   3  -4  -9   21.32   57.73
   3  -4  -8   32.79   44.50
   3  -4  -7   -3.63   35.99
   3  -4  -6  414.21   58.23
   3  -4  -5 1180.69  106.65
   3  -4  -4  503.17   49.97
   3  -4  -4  630.28   64.85
   3  -4  -3 1738.55  117.87
   3  -4  -2  511.89   42.30
   3  -4  -1 2361.44  148.80
   3  -4   0 2087.50  128.62
  -3   4   0 1981.03  140.96
  -3   4  -1 2229.82  155.15
  -3   4  -1 2294.98  160.13
   3  -4   1 2186.56  140.76
  -3   4  -2    4.14    8.54
   3  -4   2    2.63   11.15
  -3   4  -2   -0.24    6.81
  -3   4  -3  281.30   27.56
   3  -4   3  277.54   28.71
  -3   4  -3  254.74   25.27
   3  -4   4  574.47   47.13
  -3   4  -4  491.74   44.20
  -3   4  -4  519.55   46.66
  -3   4  -5  234.12   29.91
  -3   4  -5  256.54   32.35
  -3   4  -6    0.00   19.58
  -3   4  -7  -29.08   22.76
  -3   4  -8   37.38   39.47
   3  -5  -9  138.23   73.67
   3  -5  -8  -26.38   47.61
   3  -5  -7  313.27   68.91
   3  -5  -6  564.42   79.91
   3  -5  -5  109.90   41.31
   3  -5  -4  187.89   36.55
   3  -5  -4  237.39   47.73
   3  -5  -3 1709.19  115.16
   3  -5  -2  663.95   50.17
   3  -5  -1   79.70   15.04
  -3   5   0  104.98   13.27
   3  -5   0  113.85   17.11
  -3   5  -1 3577.05  250.30
   3  -5   1 3702.04  225.64
  -3   5  -2  533.70   41.49
  -3   5  -2  470.77   39.51
   3  -5   2  505.07   39.99
   3  -5   3   11.77   15.07
  -3   5  -3   23.53   12.08
  -3   5  -3    8.39    8.24
   3  -5   4  720.74   57.57
  -3   5  -4  730.98   60.11
  -3   5  -5 2170.12  159.42
  -3   5  -6  407.62   47.97
  -3   5  -7  158.85   39.09
  -3   5  -8   -2.45   31.36
   3  -6  -8  473.13  101.55
   3  -6  -7  253.09   72.01
   3  -6  -6 3775.10  300.90
   3  -6  -5 1002.37  113.14
   3  -6  -4 2343.45  166.35
   3  -6  -4 2686.39  201.21
   3  -6  -3   20.06   17.37
   3  -6  -2 3475.23  216.47
   3  -6  -1 2516.34  157.91
  -3   6   0 5628.70  407.00
   3  -6   0 6292.51  365.23
  -3   6  -1  741.11   54.52
   3  -6   1  703.52   51.84
  -3   6  -2  387.66   33.22
   3  -6   2  358.78   34.26
   3  -6   3  784.19   61.36
  -3   6  -3  814.60   63.31
  -3   6  -4 2758.99  198.28
   3  -6   4 2809.33  180.76
  -3   6  -5  193.85   30.49
  -3   6  -6   -2.48   21.91
  -3   6  -7   29.65   31.17
  -3   6  -8  111.21   42.15
   3  -7  -8  338.24  102.06
   3  -7  -7  294.61   87.78
   3  -7  -6  716.07  105.96
   3  -7  -5   37.37   42.25
   3  -7  -4 1148.56   84.84
   3  -7  -3  353.22   35.37
   3  -7  -2   53.43   15.64
   3  -7  -1  237.52   24.79
  -3   7   0   40.82   11.84
   3  -7   0   21.64   11.83
   3  -7   1  271.86   29.01
  -3   7  -1  273.88   26.63
  -3   7  -2  355.18   32.72
  -3   7  -3  171.44   24.93
   3  -7   3  188.88   31.25
  -3   7  -4  733.63   60.22
   3  -7   4  696.02   59.83
  -3   7  -5   31.15   17.98
  -3   7  -6  229.98   35.44
  -3   7  -7  -17.08   24.61
   3  -8  -8   28.78   80.48
   3  -8  -7 1106.71  138.85
   3  -8  -6  276.94   71.81
   3  -8  -5  849.02   90.82
   3  -8  -4  986.67   73.07
   3  -8  -3  921.93   65.60
   3  -8  -2   56.83   16.14
   3  -8  -1 1082.07   73.67
   3  -8   0 2188.42  140.17
  -3   8  -1  284.03   28.05
   3  -8   1  309.43   31.32
  -3   8  -2   95.44   18.64
   3  -8   2  114.73   26.22
   3  -8   3 1964.42  130.22
  -3   8  -3 1777.02  136.05
  -3   8  -4  267.31   31.96
   3  -8   4  270.29   40.81
  -3   8  -5  112.15   24.87
  -3   8  -6  -10.10   22.11
  -3   8  -7  148.74   39.49
   3  -9  -8   65.01   72.12
   3  -9  -7  549.09   92.60
   3  -9  -6  -21.76   39.07
   3  -9  -5  910.47   84.04
   3  -9  -4  253.06   33.18
   3  -9  -3 1607.05  105.46
   3  -9  -2  107.12   18.99
   3  -9  -1    8.98   12.15
   3  -9   0  990.18   70.43
  -3   9  -1  523.46   44.30
   3  -9   1  534.84   46.13
  -3   9  -2  520.24   46.35
   3  -9   2  560.60   52.79
  -3   9  -3  652.96   57.66
   3  -9   3  691.25   64.02
  -3   9  -4  505.75   48.90
   3  -9   4  498.18   56.06
  -3   9  -5   13.82   20.37
  -3   9  -6  401.22   49.05
  -3   9  -7   92.68   33.32
   3 -10  -8    5.75   46.73
   3 -10  -7    2.20   37.60
   3 -10  -6   79.62   34.38
   3 -10  -5    8.36   17.03
   3 -10  -4    1.57   15.32
   3 -10  -3  172.38   24.02
   3 -10  -2  194.51   22.59
   3 -10  -1  145.13   22.06
   3 -10   0    0.45   14.41
   3 -10   1  596.80   53.50
  -3  10  -1  601.88   50.74
  -3  10  -2   70.30   20.18
   3 -10   2   75.46   31.11
  -3  10  -3   13.15   16.27
   3 -10   3  -16.60   30.14
  -3  10  -4   51.62   21.90
   3 -10   4   38.87   33.29
  -3  10  -5    6.27   20.89
  -3  10  -6  -29.23   22.70
  -3  10  -7    6.74   31.56
   3 -11  -7  441.54   59.05
   3 -11  -6    8.15   22.30
   3 -11  -5  864.11   69.81
   3 -11  -4   25.10   15.30
   3 -11  -3 1978.90  126.73
   3 -11  -2   -2.04   11.93
   3 -11  -1  160.09   23.73
   3 -11   0   47.54   20.39
  -3  11  -1 1643.35  121.07
   3 -11   1 1641.59  114.97
   3 -11   2    2.62   28.54
  -3  11  -2   20.18   18.12
  -3  11  -3  446.54   46.98
   3 -11   3  493.85   60.38
   3 -11   4   90.18   40.38
  -3  11  -4   53.96   21.96
  -3  11  -5   56.50   24.00
  -3  11  -6   49.19   28.07
   3 -12  -7   43.29   24.96
   3 -12  -6   -5.33   15.73
   3 -12  -4  208.29   25.22
   3 -12  -3  137.19   20.86
   3 -12  -2   54.26   16.59
   3 -12  -1   62.51   17.12
   3 -12   0  407.72   40.16
  -3  12  -1  220.09   28.48
   3 -12   1  201.29   35.71
  -3  12  -2  298.31   36.61
   3 -12   2  291.71   48.60
  -3  12  -3  245.12   35.37
   3 -12   3  231.57   52.06
   3 -12   4   24.39   39.54
  -3  12  -4   19.20   22.13
  -3  12  -5   22.00   25.06
  -3  12  -6    4.62   27.98
   3 -13  -6   16.74   14.23
   3 -13  -3  125.80   19.78
   3 -13  -2   28.92   14.77
   3 -13  -1    6.58   13.98
   3 -13   0  360.17   37.42
   3 -13   1   78.61   28.22
   3 -13   2  256.12   46.85
  -3  13  -2  264.47   35.95
   3 -13   3   39.39   41.87
  -3  13  -3   58.60   23.11
  -3  13  -4  610.16   58.40
   3 -13   4  485.27   68.71
  -3  13  -5    8.29   26.23
   3 -13   5   -6.05   35.43
  -3  13  -6  190.51   43.02
   3 -14  -6   59.40   13.88
   3 -14  -3  152.53   20.23
   3 -14  -2  133.31   20.46
   3 -14  -1  955.52   67.78
   3 -14   0  924.11   68.89
   3 -14   1    5.54   23.55
  -3  14  -2   14.55   19.97
   3 -14   2   -7.78   30.25
  -3  14  -3  884.69   74.90
   3 -14   3  791.97   82.98
  -3  14  -4  438.49   48.05
   3 -14   4  189.99   55.93
   3 -14   5   59.48   46.54
  -3  14  -5  169.47   36.20
   3 -15  -3   30.55   12.55
   3 -15  -2   20.58   13.58
   3 -15  -1   11.11   14.66
   3 -15   0   14.63   18.36
   3 -15   1   93.07   25.07
   3 -15   2  -11.73   24.72
  -3  15  -2   25.25   22.33
   3 -15   3  -27.91   30.80
  -3  15  -3   -4.45   21.88
  -3  15  -4  135.10   33.32
   3 -15   4   44.10   42.01
   3 -16  -3   32.13   12.30
   3 -16  -2  185.15   21.91
   3 -16  -1  157.79   22.33
   3 -16   0  398.11   37.47
   3 -16   1  148.14   28.99
   3 -16   2   55.43   27.98
  -3  16  -3   46.76   29.37
   3 -16   3   16.10   34.00
  -3  16  -4  315.39   43.92
   3 -16   4  108.13   47.67
   3 -17  -3   29.86   11.60
   3 -17  -2   32.58   13.10
   3 -17  -1   31.92   13.37
   3 -17   0   67.41   19.68
   3 -17   1  257.15   32.62
   3 -17   2   90.57   28.14
  -3  17  -3    8.43   28.43
   3 -17   3  -14.57   28.74
   3 -18  -2    4.71   10.73
   3 -18  -1   49.27   14.67
   3 -18   0   -6.10   14.17
   3 -18   1   38.05   19.11
   4  18  -1   52.25   34.76
   4  18   0  155.12   39.50
   4  18   1   43.36   30.63
   4  17  -3  190.98   48.02
   4  17  -2   -8.30   29.44
   4  17  -1   26.86   30.17
   4  17   0  106.33   35.03
   4  17   1  810.92   71.91
   4  17   2   10.47   30.34
   4  16  -5   -3.74   43.72
   4  16  -4  -34.20   35.11
   4  16  -3  -12.59   28.04
   4  16  -2   55.85   29.84
   4  16  -1   61.47   27.47
   4  16   0   29.30   26.99
   4  16   1  266.94   41.12
   4  16   2  233.96   39.55
   4  15  -5  196.79   51.81
   4  15  -4  -15.01   31.37
   4  15  -3   41.57   28.68
   4  15  -2   35.49   26.96
   4  15  -1  256.90   37.93
   4  15   0  185.53   35.27
   4  15   1  249.84   38.51
   4  15   2   14.86   23.64
   4  14  -6  -69.74   36.38
   4  14  -5   89.93   42.25
   4  14  -4   50.27   32.76
   4  14  -3  163.92   36.75
   4  14  -2   18.55   23.69
   4  14  -1  282.49   38.00
   4  14   0   20.28   22.87
   4  14   1  121.86   28.60
   4  14   2   87.38   28.05
  -4 -14  -5   -9.52   23.49
   4  13  -5  266.81   49.77
   4  13  -4  460.79   54.94
   4  13  -3  201.72   38.60
   4  13  -2  209.64   37.19
   4  13  -1  879.94   71.50
   4  13   0  669.22   57.68
   4  13   1   44.33   22.39
   4  13   2 1221.50   86.45
  -4 -13  -3  658.91   63.81
  -4 -13  -4   41.20   26.97
  -4 -13  -5   71.48   32.20
   4  12  -6  319.97   54.51
   4  12  -5   14.41   32.03
   4  12  -4   -9.81   26.90
   4  12  -3 1460.12  107.70
   4  12  -2  322.93   41.22
   4  12  -1   46.05   20.91
   4  12   0  317.25   35.43
   4  12   1  646.78   53.73
   4  12   2   32.60   20.99
  -4 -12  -2   46.43   21.59
  -4 -12  -3   42.22   21.55
  -4 -12  -4  259.98   38.40
  -4 -12  -5   34.85   30.52
  -4 -12  -6  238.80   45.43
   4  11  -6  -29.59   31.15
   4  11  -5  761.34   71.29
   4  11  -4  180.15   38.05
   4  11  -3   17.02   22.33
   4  11  -2  118.52   27.63
   4  11  -1  745.43   60.83
   4  11   0  144.87   26.12
   4  11   1   22.95   17.23
  -4 -11  -1   10.13   15.66
   4  11   2  182.92   26.03
  -4 -11  -2  154.83   27.49
  -4 -11  -3  536.95   53.20
  -4 -11  -4    3.10   22.79
  -4 -11  -5   66.41   31.95
  -4 -11  -6   32.79   34.68
   4  10  -8  -74.57   43.75
   4  10  -7  565.60   82.14
   4  10  -6  223.36   43.68
   4  10  -6   90.73   40.13
   4  10  -5  392.82   48.80
   4  10  -5  266.02   44.50
   4  10  -4   51.76   27.22
   4  10  -4   33.84   18.20
   4  10  -3 2740.67  211.49
   4  10  -3 3313.34  195.98
   4  10  -2  164.93   29.53
   4  10  -1   -1.97   16.28
  -4 -10   0  121.59   19.39
   4  10   0  135.42   23.72
  -4 -10  -1 2009.53  144.86
   4  10   1 1896.04  124.85
   4  10   2   12.02   16.07
  -4 -10  -2   11.61   15.59
  -4 -10  -3   37.05   20.56
  -4 -10  -4   56.91   26.01
  -4 -10  -5   97.58   31.89
  -4 -10  -6   25.36   31.44
   4   9  -8  -22.61   45.74
   4   9  -7  -44.28   37.41
   4   9  -6   58.17   30.50
   4   9  -6  -11.89   31.19
   4   9  -5  292.72   46.60
   4   9  -5  449.92   48.94
   4   9  -4  761.98   61.21
   4   9  -4  574.85   57.86
   4   9  -3  410.50   42.47
   4   9  -3  361.17   35.47
   4   9  -2  655.62   53.72
   4   9  -2  573.16   46.68
   4   9  -1 1273.62   92.33
  -4  -9   1 1462.23  100.99
  -4  -9   0  320.49   30.23
   4   9   0  328.25   31.78
  -4  -9  -1  618.56   52.25
   4   9   1  630.73   47.95
   4   9   2 1554.16   96.24
  -4  -9  -2 1391.96  111.74
  -4  -9  -3 1569.76  121.36
  -4  -9  -4    2.82   18.05
  -4  -9  -5   -2.04   26.11
  -4  -9  -6  258.20   49.37
  -4  -9  -7  216.92   52.68
   4   8  -8   14.43   43.85
   4   8  -7 1991.40  170.85
   4   8  -6  390.92   45.27
   4   8  -6  188.01   48.01
   4   8  -5    0.71   23.76
   4   8  -5   -9.39   22.27
   4   8  -4   71.68   20.42
   4   8  -4   95.55   27.49
   4   8  -3 2685.91  172.67
   4   8  -2  245.96   24.07
   4   8  -2  294.74   32.27
  -4  -8   1 1156.25   81.28
   4   8  -1 1026.36   75.59
   4   8   0   82.18   17.21
  -4  -8   0   84.86   14.96
  -4  -8  -1  459.11   40.51
   4   8   1  462.31   37.88
   4   8   2  253.33   25.12
  -4  -8  -2  224.21   26.67
  -4  -8  -3  640.95   56.30
  -4  -8  -4   53.48   22.37
  -4  -8  -5   16.19   26.56
  -4  -8  -6  588.15   70.26
  -4  -8  -7   55.78   37.21
   4   7  -8  240.64   58.88
   4   7  -7  386.71   66.76
   4   7  -6  339.32   62.48
   4   7  -6  627.35   54.74
   4   7  -5  279.97   47.87
   4   7  -5  500.11   47.91
   4   7  -4   45.35   22.65
   4   7  -4   24.51   18.16
   4   7  -3  566.93   48.33
   4   7  -3  612.59   52.34
   4   7  -2   19.31   16.06
  -4  -7   1 1282.24   91.43
   4   7  -1 1202.33   84.09
   4   7   0 1184.50   81.34
  -4  -7   0 1247.00   90.22
  -4  -7  -1   60.42   14.39
   4   7   1   70.29   15.15
  -4  -7  -2  639.36   56.24
   4   7   2  731.53   48.72
  -4  -7  -3 1131.03   89.63
  -4  -7  -4  249.95   35.60
  -4  -7  -5  123.16   31.58
  -4  -7  -6   74.71   33.49
  -4  -7  -7  279.20   57.43
   4   6  -9   61.11   40.01
   4   6  -8   -2.75   37.60
   4   6  -7  122.98   45.13
   4   6  -6   84.06   38.24
   4   6  -5   32.12   28.96
   4   6  -5  121.28   27.61
   4   6  -4  352.18   45.23
   4   6  -4  555.42   47.09
   4   6  -3  197.31   24.24
   4   6  -3  215.81   30.71
   4   6  -2   46.42   16.07
   4   6  -2   38.48    9.24
   4   6  -1   10.50   12.38
   4   6  -1    8.57    5.79
  -4  -6   1   20.74    8.87
   4   6   0  389.33   34.19
  -4  -6   0  412.70   33.96
   4   6   1  677.81   48.80
  -4  -6  -2  447.60   40.11
  -4  -6  -3  297.47   35.12
  -4  -6  -3  312.51   33.56
  -4  -6  -4  247.88   34.44
  -4  -6  -5  372.26   46.11
  -4  -6  -6  597.39   66.96
  -4  -6  -7  297.75   57.69
  -4  -6  -8  123.72   45.22
   4   5  -9  421.38   67.02
   4   5  -8  105.19   40.55
   4   5  -7   33.04   36.02
   4   5  -6 1296.60  116.59
   4   5  -5 2005.34  122.02
   4   5  -5 1597.30  143.10
   4   5  -4  619.71   48.76
   4   5  -4  402.28   52.41
   4   5  -3 2321.77  137.33
   4   5  -3 1882.35  150.68
   4   5  -2   85.91   12.29
   4   5  -2   82.16   19.85
  -4  -5   1  104.58   15.05
   4   5  -1  111.79   19.50
   4   5  -1  112.36   10.60
   4   5   0 1473.82  101.25
  -4  -5   0 1695.38  115.49
   4   5   1 4186.76  259.58
  -4  -5  -1 4498.54  308.62
   4   5   2  145.73   17.11
  -4  -5  -2  145.88   18.91
  -4  -5  -2   99.01   18.58
   4   5   3  237.10   20.44
  -4  -5  -3  218.61   27.16
  -4  -5  -3  183.04   27.75
  -4  -5  -4  705.43   66.96
  -4  -5  -4  850.12   69.94
  -4  -5  -5 1121.60   95.98
  -4  -5  -6   86.09   33.02
  -4  -5  -6  159.88   38.60
  -4  -5  -7  123.48   42.84
  -4  -5  -8  105.55   41.72
   4   4  -9   18.11   36.49
   4   4  -8  203.79   47.87
   4   4  -7  741.36   80.15
   4   4  -6    2.45   28.28
   4   4  -5  274.78   36.20
   4   4  -5  247.81   45.01
   4   4  -4  610.40   63.71
   4   4  -4  723.64   55.14
   4   4  -3  485.94   49.60
   4   4  -3  625.01   48.29
   4   4  -2   69.30   11.69
   4   4  -2   46.24   15.70
   4   4  -1  559.94   46.45
   4   4  -1  576.40   41.68
  -4  -4   1  651.43   47.11
   4   4   0  965.20   69.94
  -4  -4   0 1082.12   76.23
  -4  -4  -1  701.35   52.58
  -4  -4  -1  654.35   48.32
   4   4   1  642.33   47.25
  -4  -4  -2 1206.74   87.26
   4   4   2 1139.10   73.10
  -4  -4  -2 1096.44   83.85
  -4  -4  -3   33.66   14.21
   4   4   3   44.15   10.21
  -4  -4  -3   45.82   14.09
  -4  -4  -4  191.30   27.95
  -4  -4  -4  223.32   33.29
  -4  -4  -5 1535.01  135.83
  -4  -4  -5 1928.24  136.89
  -4  -4  -6 1068.68   96.37
  -4  -4  -7  842.75   86.40
  -4  -4  -8   17.75   31.00
   4   3  -9   66.47   39.73
   4   3  -8  719.07   79.29
   4   3  -7  365.02   54.46
   4   3  -6  480.08   55.69
   4   3  -5  388.15   39.75
   4   3  -5  370.96   48.12
   4   3  -4 3257.97  228.08
   4   3  -4 2990.58  193.25
   4   3  -3  785.64   59.88
   4   3  -3  852.28   69.01
   4   3  -2  416.04   37.70
   4   3  -2  388.28   35.80
   4   3  -1  108.85   19.22
  -4  -3   1  117.99   15.91
   4   3   0 2146.14  143.17
  -4  -3   0 2414.60  163.69
   4   3   1 3823.05  242.40
  -4  -3  -1 4312.49  274.49
  -4  -3  -1 3931.23  285.55
  -4  -3  -2  130.60   16.95
   4   3   2  127.39   17.12
  -4  -3  -2  123.19   17.47
  -4  -3  -3  295.42   31.42
  -4  -3  -3  294.33   30.21
  -4  -3  -4  509.45   48.50
  -4  -3  -4  427.23   45.06
  -4  -3  -5  726.90   64.99
  -4  -3  -5  563.40   59.85
  -4  -3  -6  138.38   35.63
  -4  -3  -6  182.35   39.04
  -4  -3  -7   10.80   26.78
  -4  -3  -7    3.90   33.62
  -4  -3  -8   20.72   35.44
   4   2  -9  226.44   47.54
   4   2  -8 1505.12  127.44
   4   2  -7   19.74   24.71
   4   2  -6  475.66   54.76
   4   2  -5  432.32   47.61
   4   2  -5  472.39   41.85
   4   2  -4 3444.97  245.78
   4   2  -4 3417.86  210.21
   4   2  -3  710.62   53.07
   4   2  -3  732.59   60.94
   4   2  -2 2406.56  169.88
   4   2  -2 2398.24  150.32
   4   2  -1  591.28   46.48
   4   2   0 1196.71   81.48
  -4  -2  -1  244.50   22.94
  -4  -2  -1  255.83   18.39
   4   2   1  175.72   24.86
  -4  -2  -2 1434.20   95.42
   4   2   2 1286.58   85.95
  -4  -2  -2 1281.94   99.31
  -4  -2  -3  723.19   56.51
  -4  -2  -3  689.50   58.14
  -4  -2  -4  128.74   22.77
  -4  -2  -4  139.74   25.43
  -4  -2  -5  -18.17   19.42
  -4  -2  -5   -7.50   16.96
  -4  -2  -6  162.24   37.04
  -4  -2  -6  124.93   33.88
  -4  -2  -7  291.60   49.87
  -4  -2  -7  518.42   61.91
  -4  -2  -8  -22.74   37.62
  -4  -2  -8    9.82   31.49
   4   1  -9  134.54   43.71
   4   1  -8  161.41   41.23
   4   1  -7  494.38   57.16
   4   1  -6  631.21   61.11
   4   1  -5  -10.07   14.13
   4   1  -5   11.52   17.53
   4   1  -4  -14.29   10.46
   4   1  -4   12.12   13.31
   4   1  -3   23.50   10.72
   4   1  -3   49.81   13.02
   4   1  -2 2132.46  161.19
   4   1  -2 2486.64  143.82
   4   1   0  112.97   23.00
  -4  -1   0  154.02   15.49
  -4  -1  -1    1.15    6.81
  -4  -1  -1    5.12    4.60
   4   1   1    4.36   15.31
  -4  -1  -2 5307.98  357.05
  -4  -1  -2 5130.68  369.95
  -4  -1  -3  118.83   18.78
   4   1   3   74.50   15.03
  -4  -1  -3  109.11   19.53
  -4  -1  -4  977.05   82.38
  -4  -1  -4 1099.36   82.33
  -4  -1  -5   98.97   24.22
  -4  -1  -5   91.86   25.15
  -4  -1  -6  238.16   39.66
  -4  -1  -6  292.72   44.34
  -4  -1  -7   50.80   28.86
  -4  -1  -7   81.79   33.13
  -4  -1  -8  666.73   78.41
  -4  -1  -8  618.31   73.00
   4   0  -9   14.37   33.11
   4   0  -8 2860.94  216.77
   4   0  -7    4.40   22.77
   4   0  -6 2922.94  214.28
   4   0  -5    2.47   14.72
   4   0  -5    1.40   12.63
   4   0  -4 2089.05  124.37
   4   0  -4 1907.17  145.67
   4   0  -3    2.44    7.97
   4   0  -2 5910.19  347.72
   4   0  -2 5321.73  385.02
   4   0  -1  -10.49    9.23
  -4   0   0    1.29    3.89
   4   0   0   -7.34   12.77
  -4   0   0   -0.12    6.26
  -4   0  -1   -2.58    6.58
  -4   0  -1    6.69    4.97
   4   0   1    3.43   14.30
  -4   0  -2 1505.52  117.75
   4   0   2 1772.44  113.49
  -4   0  -2 1533.69  112.78
  -4   0  -3    0.06   10.17
   4   0   3   -6.40   20.23
  -4   0  -3   17.50   10.30
  -4   0  -4  836.39   71.80
  -4   0  -4  947.31   71.90
  -4   0  -5  -11.84   15.72
  -4   0  -5  -11.32   17.30
  -4   0  -6   84.00   31.02
  -4   0  -6  130.90   29.22
  -4   0  -7  -20.93   26.40
  -4   0  -7   18.99   26.81
  -4   0  -8   66.24   34.42
  -4   0  -8   52.80   36.83
   4  -1  -9  121.62   43.11
   4  -1  -8  128.20   37.99
   4  -1  -7  392.95   50.63
   4  -1  -6  485.56   51.83
   4  -1  -5    3.17   15.43
   4  -1  -5  -16.27   10.22
   4  -1  -4    6.45   12.71
   4  -1  -3   45.58   13.21
   4  -1  -3   48.11   16.53
   4  -1  -2 3412.93  215.12
   4  -1  -1    3.65   13.32
   4  -1   0  121.98   22.68
  -4   1   0  160.95   13.60
  -4   1   0  185.08   18.43
   4  -1   1  -14.33   13.84
  -4   1  -1    6.37    5.29
  -4   1  -1   -4.70    6.55
  -4   1  -2 5155.03  363.39
  -4   1  -2 5364.42  351.26
   4  -1   2 4868.32  320.07
  -4   1  -3   98.62   17.27
  -4   1  -3  124.42   17.71
  -4   1  -4 1076.95   81.11
  -4   1  -4 1017.35   82.90
  -4   1  -5   79.34   23.43
  -4   1  -5   91.19   21.59
  -4   1  -6  250.85   40.43
  -4   1  -6  240.71   36.63
  -4   1  -7   39.86   32.10
  -4   1  -7   42.92   27.24
  -4   1  -8  598.53   75.21
   4  -2  -9  260.08   57.73
   4  -2  -8 1419.80  126.86
   4  -2  -7    7.89   25.56
   4  -2  -6  275.78   42.37
   4  -2  -5  281.73   38.19
   4  -2  -4 2561.52  162.57
   4  -2  -4 2488.44  184.68
   4  -2  -3  701.07   58.78
   4  -2  -3  899.03   69.35
   4  -2  -2 2590.53  166.31
   4  -2  -1  647.85   51.03
  -4   2   0 1490.51   98.73
   4  -2   0 1344.50   95.29
  -4   2  -1  219.16   18.80
   4  -2   1  177.53   26.55
  -4   2  -1  239.53   21.90
  -4   2  -2 1406.60   96.50
   4  -2   2 1262.77   93.15
  -4   2  -2 1378.96   99.91
   4  -2   3  873.88   65.38
  -4   2  -3  711.91   60.86
  -4   2  -3  723.29   59.14
  -4   2  -4  113.88   21.35
  -4   2  -4  146.14   22.80
  -4   2  -5   14.10   17.18
  -4   2  -5    4.09   17.43
  -4   2  -6  108.17   27.55
  -4   2  -6  112.70   28.30
  -4   2  -7  344.22   51.86
  -4   2  -8  -45.89   34.50
   4  -3  -9   54.03   47.31
   4  -3  -8 1028.68  107.14
   4  -3  -7  259.14   50.10
   4  -3  -6  360.56   52.15
   4  -3  -5  247.90   41.28
   4  -3  -5  242.22   33.43
   4  -3  -4 2412.41  182.75
   4  -3  -4 2457.36  159.54
   4  -3  -3  688.33   56.86
   4  -3  -2  375.33   38.55
   4  -3  -1  111.61   19.97
  -4   3   0 2237.24  155.27
   4  -3   0 2263.49  144.22
  -4   3  -1 3686.42  259.36
   4  -3   1 3735.79  236.55
  -4   3  -1 3935.70  269.18
  -4   3  -2  149.47   17.36
  -4   3  -2  127.08   18.20
   4  -3   2  180.61   25.80
  -4   3  -3  325.26   31.98
  -4   3  -3  338.15   32.22
   4  -3   3  381.93   39.62
  -4   3  -4  432.49   41.34
  -4   3  -4  479.28   42.30
  -4   3  -5  611.51   54.70
  -4   3  -5  551.83   52.54
  -4   3  -6  134.85   31.46
  -4   3  -7  -18.47   27.47
  -4   3  -8  -15.21   34.58
   4  -4  -9   47.11   62.25
   4  -4  -8  202.92   62.92
   4  -4  -7  576.35   74.31
   4  -4  -6   -0.36   28.55
   4  -4  -5  219.49   46.14
   4  -4  -5  231.43   35.89
   4  -4  -4  800.14   77.21
   4  -4  -4  565.32   58.86
   4  -4  -3  589.24   54.06
   4  -4  -2   66.36   21.64
   4  -4  -1  637.96   48.74
  -4   4   0 1082.03   76.36
   4  -4   0 1056.38   73.06
  -4   4  -1  721.50   53.86
   4  -4   1  701.11   53.64
  -4   4  -1  755.38   56.86
  -4   4  -2 1207.98   96.81
   4  -4   2 1282.90   89.70
  -4   4  -2 1443.30   95.36
  -4   4  -3   66.89   14.93
   4  -4   3   71.55   22.84
  -4   4  -3   51.03   13.54
  -4   4  -4  253.46   28.98
  -4   4  -4  202.72   25.72
  -4   4  -5 1562.01  118.95
  -4   4  -6  621.16   59.83
  -4   4  -7  454.50   54.56
  -4   4  -8  -44.10   32.71
   4  -5  -9  627.33  106.53
   4  -5  -8  112.42   64.84
   4  -5  -7   31.14   44.90
   4  -5  -6 1342.37  131.11
   4  -5  -5 2139.65  169.15
   4  -5  -5 1794.56  136.94
   4  -5  -4  788.26   80.58
   4  -5  -4  586.81   62.63
   4  -5  -3 2555.93  167.98
   4  -5  -2   95.24   22.13
   4  -5  -1  133.92   21.14
  -4   5   0 1622.28  115.34
   4  -5   0 1660.20  107.42
   4  -5   1 4521.33  272.91
  -4   5  -1 4269.89  301.57
  -4   5  -2  165.28   19.95
  -4   5  -2  121.56   17.78
   4  -5   2  143.54   23.04
   4  -5   3  219.78   31.79
  -4   5  -3  258.29   25.91
  -4   5  -3  205.00   23.88
   4  -5   4  802.97   68.07
  -4   5  -4  811.46   65.84
  -4   5  -5  794.16   68.03
  -4   5  -6   90.98   28.11
  -4   5  -7   79.67   32.04
  -4   5  -8   27.50   36.88
   4  -6  -9  164.69   92.55
   4  -6  -8  -39.16   64.42
   4  -6  -7  169.18   70.94
   4  -6  -6  192.09   62.93
   4  -6  -5  158.13   49.45
   4  -6  -4  501.88   56.29
   4  -6  -3  238.21   35.34
   4  -6  -2   58.27   19.23
   4  -6  -1   12.19   14.10
   4  -6   0  393.65   34.45
  -4   6   0  436.21   34.15
   4  -6   1  661.47   51.68
  -4   6  -1  701.18   52.51
   4  -6   2  491.01   43.32
  -4   6  -2  517.15   42.62
   4  -6   3  364.60   40.16
  -4   6  -3  383.26   35.48
  -4   6  -4  244.88   30.88
   4  -6   4  243.89   37.54
  -4   6  -5  361.00   39.26
  -4   6  -6  518.37   53.35
  -4   6  -7  128.99   37.01
   4  -7  -8  308.80   89.84
   4  -7  -7  717.65  106.68
   4  -7  -6  689.55   94.21
   4  -7  -5  476.83   66.36
   4  -7  -4   41.51   31.55
   4  -7  -3  723.99   58.96
   4  -7  -2   12.77   15.96
   4  -7  -1 1363.47   91.02
   4  -7   0 1152.17   80.28
  -4   7   0 1210.07   85.79
  -4   7  -1   58.63   13.77
   4  -7   1   49.19   18.17
   4  -7   2  680.93   56.26
  -4   7  -2  737.20   56.55
   4  -7   3 1243.27   92.48
  -4   7  -3 1297.00   95.68
   4  -7   4  249.28   39.15
  -4   7  -4  276.90   33.12
  -4   7  -5  113.56   25.87
  -4   7  -6   40.06   25.34
  -4   7  -7  182.62   40.71
   4  -8  -8  108.65   71.87
   4  -8  -7 2620.28  228.04
   4  -8  -6  349.15   64.71
   4  -8  -5    8.56   24.24
   4  -8  -4   87.84   28.35
   4  -8  -3 2891.22  184.94
   4  -8  -2  311.22   32.51
   4  -8  -1 1131.77   78.29
   4  -8   0   86.57   20.44
  -4   8  -1  460.03   38.72
   4  -8   1  440.09   40.51
  -4   8  -2  267.77   28.60
   4  -8   2  261.30   34.42
   4  -8   3  722.13   64.42
  -4   8  -3  756.15   61.99
  -4   8  -4  107.19   22.57
   4  -8   4   77.42   28.90
  -4   8  -5   46.23   22.22
  -4   8  -6  464.94   50.97
  -4   8  -7   15.94   30.92
   4  -9  -7   54.81   43.69
   4  -9  -6    6.36   29.84
   4  -9  -5  223.27   33.72
   4  -9  -4  690.84   59.51
   4  -9  -3  479.67   43.55
   4  -9  -2  729.77   55.67
   4  -9  -1 1418.19   95.95
   4  -9   0  336.01   35.21
   4  -9   1  625.59   54.10
  -4   9  -1  635.19   52.02
  -4   9  -2 1529.31  114.14
   4  -9   2 1570.04  110.73
  -4   9  -3 1684.62  126.17
   4  -9   3 1723.98  122.95
  -4   9  -4   14.45   18.80
   4  -9   4   -1.71   28.25
  -4   9  -5    2.75   20.55
  -4   9  -6  154.82   33.22
  -4   9  -7  103.36   37.33
   4 -10  -8   -0.81   41.44
   4 -10  -7  758.76   83.39
   4 -10  -6  105.01   31.41
   4 -10  -4   59.68   22.96
   4 -10  -3 3134.54  198.41
   4 -10  -2  185.16   26.74
   4 -10  -1    3.21   15.23
   4 -10   0  144.78   27.28
  -4  10  -1 1884.19  138.25
   4 -10   1 1948.09  131.40
   4 -10   2    5.07   27.04
  -4  10  -2    8.67   14.93
  -4  10  -3   52.80   19.17
   4 -10   3   38.88   32.72
   4 -10   4   74.70   33.69
  -4  10  -4   63.65   21.45
  -4  10  -5   93.57   26.24
  -4  10  -6   -7.95   25.68
   4 -11  -7   43.62   26.15
   4 -11  -6    5.06   15.76
   4 -11  -4  170.42   26.49
   4 -11  -3   23.48   18.08
   4 -11  -2  118.81   23.11
   4 -11  -1  722.90   55.89
   4 -11   0  133.87   28.30
   4 -11   1    1.16   25.08
  -4  11  -1   23.07   14.87
  -4  11  -2  167.19   27.39
   4 -11   2  228.22   44.39
   4 -11   3  634.40   67.19
  -4  11  -3  552.65   54.91
   4 -11   4  -10.33   34.51
  -4  11  -4   -7.52   17.46
  -4  11  -5   47.71   25.43
  -4  11  -6    2.21   27.12
   4 -12  -7  290.01   36.80
   4 -12  -6   65.68   17.78
   4 -12  -4   12.79   17.87
   4 -12  -3 1191.20   82.00
   4 -12  -2  296.52   32.80
   4 -12  -1   44.30   21.34
   4 -12   0  302.30   38.60
  -4  12  -1  618.36   55.84
   4 -12   1  645.92   61.50
  -4  12  -2   49.30   20.13
   4 -12   2   60.48   38.93
   4 -12   3  106.35   45.78
  -4  12  -3   59.68   24.56
   4 -12   4  367.40   56.58
  -4  12  -4  215.94   37.64
  -4  12  -5   35.26   26.35
  -4  12  -6  132.88   37.56
   4 -13  -6    2.22   11.23
   4 -13  -4  276.53   29.51
   4 -13  -3  156.97   23.74
   4 -13  -2  185.29   26.68
   4 -13  -1  741.18   57.76
   4 -13   0  575.54   51.82
   4 -13   1    2.60   29.76
   4 -13   2 1326.17  106.92
  -4  13  -2 1223.75  100.52
  -4  13  -3  696.05   67.07
   4 -13   3  780.82   83.29
   4 -13   4    5.56   42.48
  -4  13  -4   20.39   25.14
  -4  13  -5   55.17   29.40
   4 -14  -6   -7.39    8.41
   4 -14  -4   38.58   16.56
   4 -14  -3  132.23   21.18
   4 -14  -2   23.79   17.58
   4 -14  -1  232.54   31.70
   4 -14   0    4.73   21.04
   4 -14   1  124.44   37.18
   4 -14   2   85.00   44.15
  -4  14  -2   93.57   25.85
  -4  14  -3  267.81   37.97
   4 -14   3  247.88   61.63
  -4  14  -4    2.84   25.79
   4 -14   4   12.96   46.44
  -4  14  -5  -12.65   27.52
   4 -15  -3   11.07   13.88
   4 -15  -2   35.86   17.65
   4 -15  -1  159.09   25.19
   4 -15   0  142.30   30.71
   4 -15   1  221.82   41.81
  -4  15  -2   20.90   24.32
   4 -15   2  -24.42   32.89
   4 -15   3   -1.29   45.99
  -4  15  -3   46.62   26.58
   4 -15   4  102.42   56.98
  -4  15  -4  155.12   36.88
   4 -16  -3   -3.05   12.79
   4 -16  -2   63.60   18.37
   4 -16  -1   55.41   20.29
   4 -16   0   11.77   22.01
   4 -16   1  184.08   38.84
   4 -16   2  171.98   48.38
  -4  16  -3   -6.65   26.67
   4 -16   3  -37.63   43.66
   4 -17  -3   95.24   17.08
   4 -17  -2    3.33   12.31
   4 -17  -1   12.28   16.53
   4 -17   0   65.45   23.95
   4 -17   1  499.05   50.32
   4 -17   2  -10.02   33.64
   4 -18  -1   23.78   16.47
   5  17  -2   53.79   36.18
   5  17  -1  222.23   43.96
   5  17   0   22.21   28.80
   5  17   1   40.20   28.79
   5  16  -4  -32.66   31.63
   5  16  -3   59.42   38.34
   5  16  -2    1.55   31.20
   5  16  -1   54.71   31.32
   5  16   0   -4.20   25.52
   5  16   1  326.20   43.88
   5  15  -5  -28.16   39.84
   5  15  -4  146.08   42.84
   5  15  -3   59.02   32.91
   5  15  -2   91.88   34.11
   5  15  -1   -5.11   21.74
   5  15   0   68.54   26.47
   5  14  -6  136.51   47.44
   5  14  -5   16.69   40.46
   5  14  -4   52.68   37.83
   5  14  -3  -27.40   24.06
   5  14  -2   -9.82   22.95
   5  14  -1   55.30   27.37
   5  14   0   23.37   23.95
   5  14   1   30.09   23.00
   5  14   2  108.25   29.27
  -5 -14  -3   28.15   26.91
  -5 -14  -4   40.37   28.28
   5  13  -6  281.93   53.79
   5  13  -5  142.46   45.59
   5  13  -4  -45.38   30.09
   5  13  -3  772.37   72.46
   5  13  -2  512.11   54.48
   5  13  -1  679.67   61.60
   5  13   0  298.34   38.23
   5  13   1  385.07   41.87
   5  13   2   64.84   23.10
  -5 -13  -2   38.84   24.43
  -5 -13  -3  508.37   53.71
  -5 -13  -4   14.76   26.31
  -5 -13  -5   21.38   26.99
   5  12  -5  365.93   54.62
   5  12  -4  436.01   55.63
   5  12  -3   87.33   30.83
   5  12  -2   43.69   24.15
   5  12  -1  891.42   71.61
   5  12   0  305.18   36.71
   5  12   1  370.47   38.74
  -5 -12  -1  348.95   40.16
  -5 -12  -2  611.03   57.81
   5  12   2  591.88   50.84
  -5 -12  -3  927.77   80.95
  -5 -12  -4   15.12   24.76
  -5 -12  -5  390.04   53.92
   5  11  -6  121.19   42.53
   5  11  -5  232.13   45.06
   5  11  -4   -0.22   27.79
   5  11  -3  407.00   49.45
   5  11  -2  283.59   37.59
   5  11  -1  617.17   54.76
   5  11   0   40.30   20.10
  -5 -11   0   36.52   15.77
   5  11   1  214.27   29.80
  -5 -11  -1  269.40   32.20
   5  11   2   47.09   19.55
  -5 -11  -2   40.85   20.40
  -5 -11  -3  110.30   27.15
  -5 -11  -4   32.41   25.15
  -5 -11  -5   74.26   33.15
  -5 -11  -6    0.24   29.92
   5  10  -6  131.12   40.31
   5  10  -5  769.22   72.07
   5  10  -4  215.13   40.42
   5  10  -3  144.78   33.89
   5  10  -2    0.61   17.89
   5  10  -1 2119.56  139.84
   5  10   0  177.09   27.43
  -5 -10   0  159.79   23.95
  -5 -10  -1 1084.20   81.73
   5  10   1  957.92   71.96
  -5 -10  -2   26.05   18.19
   5  10   2   46.61   17.25
  -5 -10  -3 1475.17  115.89
  -5 -10  -4   24.59   23.18
  -5 -10  -5  844.19   80.27
  -5 -10  -6   18.23   34.35
   5   9  -6  490.01   57.57
   5   9  -5  671.33   65.64
   5   9  -4   51.56   29.53
   5   9  -3 1918.62  131.50
   5   9  -2  991.80   77.10
   5   9  -1 1732.93  120.75
  -5  -9   1 1903.99  133.10
   5   9   0  359.80   36.30
  -5  -9   0  359.46   34.39
   5   9   1  435.28   39.09
  -5  -9  -1  450.55   40.71
   5   9   2  218.77   25.80
  -5  -9  -2  191.12   26.60
  -5  -9  -3  762.65   65.70
  -5  -9  -4   48.23   22.10
  -5  -9  -5   57.75   28.65
  -5  -9  -6   -3.01   31.45
   5   8  -8   49.45   48.66
   5   8  -7  -45.27   38.32
   5   8  -5    1.60   22.37
   5   8  -5   64.26   30.22
   5   8  -4  549.40   56.72
   5   8  -3   83.36   27.62
   5   8  -2   19.01   19.98
   5   8  -1  394.39   39.67
  -5  -8   1  439.19   36.41
   5   8   0   59.91   18.63
  -5  -8   0   48.23   13.94
  -5  -8  -1   72.78   15.98
   5   8   1   67.50   18.58
   5   8   2  749.69   53.88
  -5  -8  -2  738.87   62.29
  -5  -8  -3  978.87   80.26
  -5  -8  -4   99.11   26.48
  -5  -8  -5   84.02   28.15
  -5  -8  -6  136.50   38.04
  -5  -8  -7  117.30   45.38
   5   7  -8   48.09   46.19
   5   7  -7 1511.35  139.05
   5   7  -6   47.28   29.92
   5   7  -6  -18.55   33.49
   5   7  -5   78.93   34.37
   5   7  -5  238.04   37.50
   5   7  -4  656.03   60.27
   5   7  -3 2911.71  187.39
   5   7  -2   87.48   22.31
  -5  -7   1 1097.02   80.47
   5   7  -1 1040.51   77.41
  -5  -7   0  356.01   31.43
   5   7   0  298.58   31.86
   5   7   1  745.09   55.36
  -5  -7  -1  768.33   60.67
   5   7   2  197.61   23.43
  -5  -7  -2  165.06   24.89
  -5  -7  -3 1113.69   88.81
  -5  -7  -4   68.72   21.12
  -5  -7  -5   -6.23   22.79
  -5  -7  -6  254.21   46.02
  -5  -7  -7  243.64   51.22
   5   6  -9  524.84   74.96
   5   6  -8  -16.94   36.30
   5   6  -7    7.14   38.91
   5   6  -6  507.27   52.76
   5   6  -6  415.28   65.73
   5   6  -4   19.31   19.21
   5   6  -4    8.05   21.69
   5   6  -3   70.59   15.95
   5   6  -3   92.30   24.12
   5   6  -2    2.83    6.56
   5   6  -2    3.88   17.18
   5   6  -1  468.20   44.08
  -5  -6   1  485.52   39.85
  -5  -6   0  477.93   38.84
   5   6   0  418.52   39.65
   5   6   1  361.62   33.36
  -5  -6  -1  388.10   35.11
   5   6   2  221.04   23.32
  -5  -6  -2  212.99   25.26
  -5  -6  -3   11.31   15.36
  -5  -6  -4  328.93   37.33
  -5  -6  -5  136.91   32.19
  -5  -6  -6   -0.90   25.46
  -5  -6  -7   -8.58   29.32
   5   5  -9   18.69   37.65
   5   5  -8  278.02   54.45
   5   5  -7   62.92   37.62
   5   5  -6    4.31   23.03
   5   5  -6   -7.49   30.65
   5   5  -5 1364.87   92.09
   5   5  -5 1134.58  108.93
   5   5  -4  584.78   49.68
   5   5  -4  381.49   50.91
   5   5  -3   91.89   22.89
   5   5  -3   81.92   19.00
   5   5  -2  117.24   23.88
   5   5  -2   91.27   12.72
   5   5  -1 1579.73  110.21
  -5  -5   1 1675.14  119.07
   5   5   0  310.60   34.26
  -5  -5   0  349.16   30.07
   5   5   1  139.34   21.62
  -5  -5  -1  150.83   20.50
  -5  -5  -2  515.21   43.85
   5   5   2  463.26   37.66
  -5  -5  -3   48.95   16.05
  -5  -5  -4   66.58   21.66
  -5  -5  -5   52.56   23.47
  -5  -5  -6  246.73   41.06
  -5  -5  -7  183.57   46.15
   5   4  -9 1202.87  111.83
   5   4  -8  328.05   57.45
   5   4  -7  296.53   50.48
   5   4  -6 1077.87   99.98
   5   4  -6 1123.13   83.58
   5   4  -5 4191.95  301.61
   5   4  -5 4097.45  256.06
   5   4  -4 1744.46  134.97
   5   4  -4 1675.49  114.95
   5   4  -3  790.76   59.96
   5   4  -3  641.47   61.52
   5   4  -2   29.90   17.10
   5   4  -2   44.61   10.17
  -5  -4   1   70.04   13.52
   5   4  -1   60.67   19.06
  -5  -4   0 2095.76  149.96
   5   4   0 2042.38  135.47
   5   4   1 1410.45   93.83
  -5  -4  -1 1382.49  103.86
   5   4   2  378.80   32.89
  -5  -4  -2  390.28   36.41
  -5  -4  -3  774.88   63.74
  -5  -4  -4  284.36   33.53
  -5  -4  -5  259.97   35.81
  -5  -4  -6  220.23   41.10
  -5  -4  -7  174.16   43.52
   5   3  -8  141.11   39.83
   5   3  -7   27.55   29.07
   5   3  -6   17.38   23.90
   5   3  -5 1041.72   89.79
   5   3  -5 1018.82   75.46
   5   3  -4  186.50   32.66
   5   3  -4  172.21   27.55
   5   3  -3    7.95   17.10
   5   3  -3    7.71   16.18
   5   3  -2  123.15   20.94
   5   3  -2  153.74   26.10
   5   3  -1 1619.88  112.44
  -5  -3   1 1709.38  121.93
   5   3   0   97.40   22.75
  -5  -3   0  123.37   16.19
  -5  -3  -1  177.04   20.76
   5   3   1  156.56   26.32
  -5  -3  -1  199.95   14.87
  -5  -3  -2  326.57   26.14
   5   3   2  280.63   29.78
  -5  -3  -2  286.98   29.51
  -5  -3  -3   25.98   12.41
  -5  -3  -3   20.21   13.29
  -5  -3  -4   33.93   18.04
  -5  -3  -4   33.93   17.13
  -5  -3  -5   22.48   19.85
  -5  -3  -5   24.81   19.96
  -5  -3  -6  151.49   33.24
  -5  -3  -7  280.11   47.81
  -5  -3  -8   10.85   32.57
   5   2  -9   55.76   37.48
   5   2  -8  258.14   46.80
   5   2  -7  213.49   38.19
   5   2  -6  341.20   44.89
   5   2  -5   47.13   22.03
   5   2  -5   47.91   19.90
   5   2  -4 1632.01  105.77
   5   2  -4 1580.15  122.03
   5   2  -3  144.46   23.00
   5   2  -3  124.49   21.72
   5   2  -2  139.62   18.88
   5   2  -2  178.22   24.56
   5   2  -1  139.23   14.54
   5   2  -1  196.54   27.14
  -5  -2   0 3876.83  265.30
   5   2   0 3577.03  231.78
   5   2   1   67.33   22.31
  -5  -2  -1  105.76   10.43
  -5  -2  -1  116.51   16.28
  -5  -2  -2  229.93   20.93
   5   2   2  210.56   28.91
  -5  -2  -2  224.91   25.65
  -5  -2  -3  814.06   69.38
  -5  -2  -3  922.29   66.89
  -5  -2  -4 2481.87  193.71
  -5  -2  -4 2778.70  188.76
  -5  -2  -5  160.08   29.29
  -5  -2  -5  176.70   31.37
  -5  -2  -6  102.86   28.85
  -5  -2  -6   99.61   31.30
  -5  -2  -7   50.39   27.69
  -5  -2  -8  152.71   39.93
   5   1  -9   34.52   35.00
   5   1  -8 1207.88  105.80
   5   1  -7  158.74   35.15
   5   1  -6 3516.25  254.36
   5   1  -5   -6.19   13.09
   5   1  -5    8.22   15.77
   5   1  -4  134.73   20.87
   5   1  -4  116.10   21.06
   5   1  -3  268.17   26.67
   5   1  -3  214.58   25.19
   5   1  -2 4591.49  315.66
   5   1   0  427.35   47.56
  -5  -1   0  537.77   40.16
  -5  -1  -1  119.68   16.89
  -5  -1  -1  105.72   11.38
   5   1   1  115.91   30.60
  -5  -1  -2 3786.05  279.36
  -5  -1  -2 4028.97  268.34
  -5  -1  -3  337.75   28.81
  -5  -1  -3  262.69   30.01
   5   1   3  267.01   31.24
  -5  -1  -4  188.83   26.87
  -5  -1  -4  166.76   25.70
  -5  -1  -5    0.50   19.42
  -5  -1  -5   -0.68   18.20
  -5  -1  -6  237.88   39.73
  -5  -1  -6  207.48   37.05
  -5  -1  -7  171.82   41.79
  -5  -1  -7  169.31   39.89
  -5  -1  -8   -1.54   30.29
   5   0  -9   12.79   34.98
   5   0  -8   16.61   29.79
   5   0  -7   13.33   22.75
   5   0  -6  108.94   27.71
   5   0  -5    4.99   14.15
   5   0  -5   10.80   12.62
   5   0  -4   28.38   14.10
   5   0  -4   -4.90   10.97
   5   0  -3   -5.37    7.37
   5   0  -2 1881.50  126.01
   5   0  -1  -11.75   15.17
   5   0   0 1845.18  127.05
  -5   0   0 1905.13  136.44
  -5   0  -1   -7.97    9.42
   5   0   1    0.74   19.60
  -5   0  -1    9.99    5.65
  -5   0  -2 2055.42  143.50
  -5   0  -3   -1.23   12.76
  -5   0  -3    9.17   10.15
   5   0   3   -6.99   25.42
  -5   0  -4 2403.74  183.79
  -5   0  -4 2575.40  178.28
  -5   0  -5    3.27   17.78
  -5   0  -5   -3.37   15.46
  -5   0  -6  134.16   31.72
  -5   0  -6  122.02   29.05
  -5   0  -7  -33.27   25.37
  -5   0  -7   -9.58   23.91
   5  -1  -9    8.87   33.22
   5  -1  -8 1159.40  103.88
   5  -1  -7   99.46   32.08
   5  -1  -6 2567.51  191.24
   5  -1  -5    3.05   13.60
   5  -1  -5   -7.05   11.56
   5  -1  -4  142.85   24.54
   5  -1  -3  335.03   34.19
   5  -1  -3  330.31   35.17
   5  -1  -2 8727.16  536.09
   5  -1  -1    9.59   16.99
  -5   1   0  547.16   41.41
  -5   1   0  515.65   36.23
   5  -1   0  392.02   43.51
   5  -1   1  105.18   26.95
  -5   1  -1  101.63   17.45
  -5   1  -1  122.40   13.00
   5  -1   2 3959.79  258.20
  -5   1  -2 3993.09  276.27
  -5   1  -2 4105.80  287.22
  -5   1  -3  322.00   29.83
  -5   1  -3  287.74   32.30
   5  -1   3  330.87   47.04
  -5   1  -4  182.01   27.60
  -5   1  -4  199.70   26.47
  -5   1  -5   24.71   18.50
  -5   1  -5    6.85   18.32
  -5   1  -6  216.16   37.44
  -5   1  -6  194.63   34.59
  -5   1  -7  156.38   36.56
  -5   1  -7  148.99   37.69
   5  -2  -9   26.48   39.34
   5  -2  -8  254.68   53.80
   5  -2  -7  130.45   36.21
   5  -2  -6  267.72   42.57
   5  -2  -5   20.48   19.58
   5  -2  -4 1334.93  111.51
   5  -2  -4 1532.57  100.68
   5  -2  -3  201.66   30.85
   5  -2  -2  213.83   30.96
   5  -2  -1  192.03   29.66
  -5   2   0 3702.84  239.18
   5  -2   0 3279.56  221.60
  -5   2  -1  105.17   16.79
   5  -2   1   87.40   26.03
  -5   2  -1   88.34   12.90
  -5   2  -2  247.80   23.99
  -5   2  -2  231.85   26.27
   5  -2   2  262.00   39.00
  -5   2  -3  851.06   73.77
   5  -2   3 1065.20   80.55
  -5   2  -3  910.20   71.19
  -5   2  -4 2589.24  195.96
  -5   2  -4 2752.12  190.32
  -5   2  -5  145.24   25.42
  -5   2  -5  161.52   26.38
  -5   2  -6   80.56   25.44
  -5   2  -6   68.90   25.57
  -5   2  -7    2.64   26.13
   5  -3  -9   16.44   43.75
   5  -3  -8  124.95   49.42
   5  -3  -7   13.04   28.69
   5  -3  -6   12.35   27.17
   5  -3  -5  796.77   75.13
   5  -3  -5  767.88   64.54
   5  -3  -4  133.56   29.72
   5  -3  -4  200.45   36.67
   5  -3  -3    8.97   21.49
   5  -3  -2  124.79   27.05
   5  -3  -1 1362.50   95.32
   5  -3   0  117.69   25.06
  -5   3   0  102.67   13.40
  -5   3  -1  168.09   17.15
   5  -3   1  157.22   28.33
  -5   3  -1  170.74   20.03
  -5   3  -2  282.18   29.55
  -5   3  -2  327.36   28.47
   5  -3   2  307.31   39.21
   5  -3   3   74.15   32.91
  -5   3  -3   18.90   12.97
  -5   3  -3   31.70   12.31
  -5   3  -4   30.41   15.90
  -5   3  -4   56.74   17.63
  -5   3  -5   43.73   20.39
  -5   3  -5   19.89   17.86
  -5   3  -6  148.26   31.24
  -5   3  -7  281.03   45.78
   5  -4  -9 1422.50  148.70
   5  -4  -8  352.45   71.52
   5  -4  -7  263.20   54.91
   5  -4  -6  872.50   92.81
   5  -4  -5 3572.25  267.07
   5  -4  -5 3536.54  230.92
   5  -4  -4 1837.04  138.08
   5  -4  -4 1468.85  116.65
   5  -4  -3  661.67   59.91
   5  -4  -2   23.92   19.40
   5  -4  -1   66.79   20.24
  -5   4   0 1972.28  135.14
   5  -4   0 1902.89  127.68
   5  -4   1 1263.04   91.21
  -5   4  -1 1351.99   93.34
  -5   4  -2  390.20   35.88
  -5   4  -2  437.33   35.48
   5  -4   2  383.41   43.31
   5  -4   3  914.67   76.12
  -5   4  -3  894.30   69.45
  -5   4  -4  255.56   31.56
  -5   4  -4  358.41   34.94
  -5   4  -5  283.76   35.50
  -5   4  -6  192.31   34.80
  -5   4  -7  135.92   36.07
   5  -5  -9   50.01   64.03
   5  -5  -8  252.11   74.69
   5  -5  -7   38.47   45.21
   5  -5  -6   30.85   44.03
   5  -5  -5 1211.48  102.55
   5  -5  -5 1348.81  123.27
   5  -5  -4  466.72   55.49
   5  -5  -3  108.11   28.99
   5  -5  -2  102.78   26.00
   5  -5  -1 1727.22  115.60
   5  -5   0  308.33   33.32
  -5   5   0  332.76   28.08
   5  -5   1  160.34   25.87
  -5   5  -1  126.88   16.69
  -5   5  -2  453.07   42.74
   5  -5   2  472.30   45.93
  -5   5  -2  568.19   42.62
  -5   5  -3   38.22   14.33
  -5   5  -3   72.08   17.28
   5  -5   3   54.64   27.65
  -5   5  -4   94.04   19.95
  -5   5  -5   72.25   22.80
  -5   5  -6  213.79   36.53
  -5   5  -7   86.62   32.55
   5  -6  -8   32.14   64.25
   5  -6  -7   34.37   49.85
   5  -6  -6  478.27   80.82
   5  -6  -5 1104.75   96.84
   5  -6  -5 1129.62  109.97
   5  -6  -4   -0.07   32.30
   5  -6  -3  146.95   33.48
   5  -6  -2   15.60   17.93
   5  -6  -1  468.58   40.80
   5  -6   0  403.19   38.00
  -5   6  -1  393.59   32.96
   5  -6   1  348.89   36.98
  -5   6  -2  232.90   24.74
   5  -6   2  206.79   31.75
   5  -6   3   -0.13   24.73
  -5   6  -3    9.83   13.33
  -5   6  -4  421.71   42.70
  -5   6  -5  140.98   26.68
  -5   6  -6    5.56   20.71
  -5   6  -7  -37.71   22.57
   5  -7  -8  119.92   70.01
   5  -7  -7 1764.57  169.03
   5  -7  -6   24.65   39.99
   5  -7  -5  181.95   45.80
   5  -7  -5  123.01   36.41
   5  -7  -4  543.84   60.09
   5  -7  -3 2502.36  165.40
   5  -7  -2  109.39   25.18
   5  -7  -1 1084.87   77.23
   5  -7   0  321.03   32.58
  -5   7  -1  776.15   57.61
   5  -7   1  696.61   57.79
  -5   7  -2  200.37   24.31
   5  -7   2  201.75   31.67
   5  -7   3 1134.10   90.62
  -5   7  -3 1287.43   93.10
  -5   7  -4   91.75   22.00
   5  -7   4   89.89   32.84
  -5   7  -5   -3.20   19.13
  -5   7  -6  200.94   34.76
  -5   7  -7  109.00   33.94
   5  -8  -8  132.24   64.31
   5  -8  -7   20.17   47.89
   5  -8  -6  644.85   76.73
   5  -8  -5   18.68   20.74
   5  -8  -5   30.48   36.37
   5  -8  -4  460.12   53.85
   5  -8  -3   69.06   26.57
   5  -8  -2   12.48   19.36
   5  -8  -1  405.77   39.23
   5  -8   0   52.83   20.28
  -5   8  -1   55.18   14.51
   5  -8   1   66.13   23.03
   5  -8   2  769.98   65.06
  -5   8  -2  795.80   62.78
   5  -8   3 1017.54   83.92
  -5   8  -3 1131.03   84.81
  -5   8  -4  119.24   25.63
   5  -8   4  121.42   35.02
  -5   8  -5  101.09   27.04
  -5   8  -6   92.74   30.53
  -5   8  -7   41.38   29.92
   5  -9  -8   29.26   49.10
   5  -9  -7 1058.36  104.66
   5  -9  -6  225.86   40.25
   5  -9  -5  449.93   53.98
   5  -9  -4   34.59   28.04
   5  -9  -3 1878.08  126.53
   5  -9  -2 1029.77   75.30
   5  -9  -1 1887.12  125.63
   5  -9   0  339.03   37.27
  -5   9  -1  452.99   40.13
   5  -9   1  444.89   45.42
  -5   9  -2  226.41   29.62
   5  -9   2  219.22   38.80
   5  -9   3  809.38   72.65
  -5   9  -3  852.57   69.42
   5  -9   4   57.18   32.25
  -5   9  -4   79.93   23.87
  -5   9  -5   46.76   24.39
  -5   9  -6    4.52   25.50
   5 -10  -7   52.57   31.09
   5 -10  -6   36.20   22.06
   5 -10  -4  191.76   33.10
   5 -10  -3  171.69   29.60
   5 -10  -2    1.08   19.38
   5 -10  -1 2224.04  146.27
   5 -10   0  205.20   32.91
   5 -10   1 1027.48   80.91
  -5  10  -1 1048.55   80.44
   5 -10   2   25.36   27.81
  -5  10  -2   39.84   19.55
  -5  10  -3 1571.31  121.01
   5 -10   3 1629.13  120.71
  -5  10  -4   13.74   21.29
   5 -10   4   -1.58   30.17
  -5  10  -5  838.19   74.02
  -5  10  -6   -5.85   26.31
   5 -11  -7  118.51   28.09
   5 -11  -6   24.72   16.94
   5 -11  -4    5.34   19.63
   5 -11  -3  330.73   37.12
   5 -11  -2  281.04   34.57
   5 -11  -1  642.95   54.98
   5 -11   0   22.79   24.50
  -5  11  -1  231.59   30.46
   5 -11   1  207.13   40.07
  -5  11  -2   40.02   19.43
   5 -11   2   64.51   34.26
  -5  11  -3  105.21   26.76
   5 -11   3  118.18   42.12
   5 -11   4    8.76   33.71
  -5  11  -4   37.45   24.08
  -5  11  -5   66.37   26.37
  -5  11  -6  -19.67   26.67
   5 -12  -7   -0.27   14.52
   5 -12  -6   57.30   16.20
   5 -12  -4  281.16   34.42
   5 -12  -3  111.19   24.87
   5 -12  -2   52.21   20.67
   5 -12  -1  880.64   69.13
   5 -12   0  309.29   41.65
   5 -12   1  313.74   43.98
  -5  12  -2  625.96   59.75
   5 -12   2  700.15   71.17
   5 -12   3  998.47   90.73
  -5  12  -3  866.94   78.53
  -5  12  -4   -7.03   23.21
   5 -12   4   74.27   40.66
  -5  12  -5  333.99   43.75
   5 -13  -6   40.76   12.72
   5 -13  -4   27.17   19.12
   5 -13  -3  609.86   50.68
   5 -13  -2  426.16   41.64
   5 -13  -1  633.97   56.01
   5 -13   0  260.37   37.80
   5 -13   1  411.38   54.29
   5 -13   2   54.87   42.02
  -5  13  -2   49.70   22.62
  -5  13  -3  531.26   54.11
   5 -13   3  547.43   71.59
   5 -13   4   29.30   43.70
  -5  13  -4   21.85   26.02
  -5  13  -5   10.42   27.49
   5 -14  -6   10.68    8.42
   5 -14  -4   50.74   19.43
   5 -14  -3   11.58   15.49
   5 -14  -2   22.92   20.37
   5 -14  -1   34.83   24.95
   5 -14   0    8.69   24.78
   5 -14   1   37.20   37.69
  -5  14  -2  108.70   29.59
   5 -14   2   98.78   48.80
   5 -14   3   59.26   51.39
  -5  14  -3   28.20   25.84
   5 -14   4   61.31   49.05
  -5  14  -4   41.85   28.66
   5 -15  -3   41.56   19.29
   5 -15  -2   94.44   24.38
   5 -15  -1    1.40   21.70
   5 -15   0   63.55   28.32
   5 -15   1  144.44   44.10
   5 -15   2  271.39   61.39
  -5  15  -3  105.03   33.21
   5 -16  -4   -2.71   14.05
   5 -16  -3   58.32   19.26
   5 -16  -2    9.16   18.38
   5 -16  -1   38.52   23.98
   5 -16   0    9.59   23.56
   5 -16   1  340.72   53.34
   5 -16   2  -10.00   45.01
   5 -16   3   14.64   55.31
  -5  16  -3   66.36   29.73
   5 -17  -3    5.88   15.20
   5 -17  -2   60.36   20.53
   5 -17  -1  213.70   32.61
   5 -17   0    7.80   26.11
   5 -17   1   13.43   33.68
   6  17  -1  136.95   39.40
   6  17   0  110.82   35.40
   6  17   1   11.36   27.81
   6  16  -3   13.36   37.49
   6  16  -2  157.15   38.66
   6  16  -1   17.36   26.94
   6  16   0  101.14   33.88
   6  16   1  198.82   38.70
   6  15  -5  221.18   57.16
   6  15  -4  160.20   51.55
   6  15  -3  119.13   44.26
   6  15  -2   70.55   35.80
   6  15  -1    4.90   27.54
   6  15   1   71.10   28.77
   6  14  -5   51.30   43.64
   6  14  -4  273.70   52.84
   6  14  -3  501.63   62.03
   6  14  -2   77.46   34.83
   6  14  -1   57.25   30.06
   6  14   0  374.90   44.91
   6  14   1  386.60   44.56
  -6 -14  -3  277.36   44.58
  -6 -14  -4    4.52   28.09
   6  13  -6  227.72   51.87
   6  13  -5  -15.17   37.53
   6  13  -4  394.69   58.93
   6  13  -3   29.04   30.56
   6  13  -2   44.58   30.61
   6  13  -1   17.29   25.79
   6  13   0   95.46   28.94
   6  13   1  288.40   37.65
  -6 -13  -2    4.82   23.29
  -6 -13  -3   17.66   24.82
  -6 -13  -4   13.74   24.74
   6  12  -6  -15.53   36.20
   6  12  -5  291.56   53.33
   6  12  -4   -4.53   31.93
   6  12  -3   -5.87   28.28
   6  12  -2   52.84   27.24
   6  12  -1  617.72   58.52
   6  12   0  158.94   30.82
  -6 -12  -1   93.87   25.51
   6  12   1  101.80   25.64
   6  12   2   23.20   20.54
  -6 -12  -2   15.35   21.87
  -6 -12  -3  352.60   42.92
  -6 -12  -4   21.86   24.18
  -6 -12  -5    6.03   27.21
   6  11  -6  121.34   42.02
   6  11  -5  396.61   57.82
   6  11  -4  135.78   41.67
   6  11  -3    0.42   28.19
   6  11  -2    8.65   22.80
   6  11  -1  887.33   72.88
  -6 -11   0   22.20   17.47
   6  11   0   27.22   21.21
   6  11   1  932.37   72.99
  -6 -11  -1 1052.61   82.08
  -6 -11  -2    7.08   19.32
   6  11   2    8.40   17.58
  -6 -11  -3  460.29   48.41
  -6 -11  -4    8.24   21.15
  -6 -11  -5 1267.79  110.26
   6  10  -6    3.01   32.31
   6  10  -5 1263.97   99.85
   6  10  -4   60.64   33.88
   6  10  -3    6.90   26.91
   6  10  -2  -20.97   21.54
  -6 -10   1 1511.93  109.76
   6  10  -1 1402.55  104.19
  -6 -10   0   36.39   17.23
   6  10   0   36.09   20.59
  -6 -10  -1  481.38   44.39
   6  10   1  403.85   41.57
   6  10   2   39.03   19.50
  -6 -10  -2   40.21   18.65
  -6 -10  -3  296.19   37.98
  -6 -10  -4   -5.48   20.71
  -6 -10  -5   76.28   32.07
   6   9  -6  552.69   63.40
   6   9  -5   55.28   31.13
   6   9  -4  856.66   77.52
   6   9  -3  104.14   31.63
   6   9  -2  287.74   42.75
   6   9  -1  349.83   42.47
  -6  -9   1  341.82   33.43
  -6  -9   0  180.85   26.11
   6   9   0  210.37   31.79
  -6  -9  -1 1021.29   78.26
   6   9   1  916.71   70.47
   6   9   2   89.91   21.06
  -6  -9  -2  121.66   24.05
  -6  -9  -3  177.95   28.15
  -6  -9  -4   36.78   20.58
  -6  -9  -5  874.92   81.34
  -6  -9  -6   45.25   32.01
   6   8  -6   39.07   32.65
   6   8  -5  177.84   39.90
   6   8  -4  484.00   53.68
   6   8  -3 1179.72   92.68
   6   8  -2   53.36   27.55
   6   8  -1 1284.34   95.71
  -6  -8   1 1333.06   98.45
   6   8   0 1028.74   76.62
  -6  -8   0 1019.94   79.92
   6   8   1  319.82   34.66
  -6  -8  -1  326.21   34.18
   6   8   2  122.59   22.48
  -6  -8  -2  140.82   24.84
  -6  -8  -3 1003.50   82.69
  -6  -8  -4   37.44   22.78
  -6  -8  -5   13.21   24.81
  -6  -8  -6    6.48   30.12
   6   7  -6   57.33   32.27
   6   7  -5   80.18   32.39
   6   7  -4 1427.09  106.09
   6   7  -3  516.91   55.24
   6   7  -2  129.93   29.38
  -6  -7   1   34.17   12.15
   6   7  -1   42.86   23.62
   6   7   0    7.31   17.50
  -6  -7   0   22.45   12.34
   6   7   1  341.13   35.92
  -6  -7  -1  382.28   36.30
   6   7   2   16.64   16.31
  -6  -7  -2   17.27   16.20
  -6  -7  -3   13.26   17.19
  -6  -7  -4  435.81   46.71
  -6  -7  -5  121.29   31.78
  -6  -7  -6   75.83   34.07
   6   6  -8  563.01   78.19
   6   6  -7  322.26   59.96
   6   6  -6   24.00   39.45
   6   6  -6   44.10   28.59
   6   6  -5   61.35   28.21
   6   6  -4 3683.91  234.10
   6   6  -3 1241.11   93.68
   6   6  -2 1013.21   81.51
  -6  -6   1  190.36   21.89
   6   6  -1  185.55   34.29
  -6  -6   0 2293.96  168.41
   6   6   0 2342.05  152.68
  -6  -6  -1  465.46   41.34
   6   6   1  458.76   42.29
   6   6   2 1896.99  120.11
  -6  -6  -2 1854.55  139.95
  -6  -6  -3  257.09   31.18
  -6  -6  -4    2.68   18.42
  -6  -6  -5    2.16   21.75
  -6  -6  -6  324.21   49.17
  -6  -6  -7   84.66   40.54
   6   5  -9  859.73   91.91
   6   5  -8  730.08   83.06
   6   5  -7   -9.46   34.27
   6   5  -6  262.44   40.23
   6   5  -6  217.31   50.48
   6   5  -5 3884.42  235.26
   6   5  -5 3583.05  276.45
   6   5  -4 1863.87  127.66
   6   5  -3  439.83   48.97
   6   5  -2   99.17   28.69
  -6  -5   1 1416.48  107.36
   6   5  -1 1474.61  105.42
   6   5   0  119.82   27.65
  -6  -5   0  148.46   19.42
  -6  -5  -1   99.72   17.58
   6   5   1   85.39   23.19
   6   5   2   16.90   14.99
  -6  -5  -2   41.16   15.10
  -6  -5  -3  138.77   24.96
  -6  -5  -4   31.76   18.82
  -6  -5  -5   24.29   21.06
  -6  -5  -6    0.54   22.72
  -6  -5  -7  -26.11   25.94
   6   4  -9  176.06   45.40
   6   4  -8   25.28   33.06
   6   4  -7   15.47   30.69
   6   4  -6  495.31   53.11
   6   4  -6  445.90   59.67
   6   4  -5   12.26   26.93
   6   4  -5   19.74   23.06
   6   4  -4   31.34   26.33
   6   4  -4   92.19   26.31
   6   4  -3  672.30   56.28
   6   4  -3  485.12   54.60
   6   4  -2  654.55   58.64
  -6  -4   1  465.34   42.93
   6   4  -1  549.56   54.23
   6   4   0  -10.23   19.88
  -6  -4   0    3.80    9.53
   6   4   1  969.56   73.07
  -6  -4  -1  879.70   72.62
  -6  -4  -2  276.52   31.39
   6   4   2  338.07   34.66
  -6  -4  -3   28.50   15.15
  -6  -4  -4   43.64   20.80
  -6  -4  -5   15.05   22.43
  -6  -4  -6   21.95   27.72
  -6  -4  -7   17.13   30.95
   6   3  -9  796.78   84.36
   6   3  -8   60.95   33.79
   6   3  -7  191.88   41.23
   6   3  -6 1076.23   97.31
   6   3  -6 1202.82   86.11
   6   3  -5 1478.00  118.08
   6   3  -5 1447.09  101.49
   6   3  -4 1140.76   87.16
   6   3  -4 1319.28  101.24
   6   3  -3  453.30   45.96
   6   3  -3  594.56   52.23
   6   3  -2  883.45   70.11
   6   3  -1  148.61   29.75
  -6  -3   1  164.74   21.77
  -6  -3   0 2515.90  190.66
   6   3   0 2777.47  176.85
  -6  -3  -1   16.70   11.56
   6   3   1  -12.84   22.80
  -6  -3  -2   76.90   17.48
   6   3   2   92.95   25.10
  -6  -3  -3  137.69   24.41
  -6  -3  -4 1394.58  110.21
  -6  -3  -5  326.67   41.51
  -6  -3  -6  262.12   41.42
  -6  -3  -7   10.00   25.94
   6   2  -9   72.97   37.64
   6   2  -8  303.74   50.40
   6   2  -7  227.34   40.76
   6   2  -6 1184.15   82.50
   6   2  -6 1016.91   91.98
   6   2  -5  944.61   82.79
   6   2  -5 1034.95   73.58
   6   2  -4  330.06   38.90
   6   2  -4  421.28   38.77
   6   2  -3 1171.85   97.97
   6   2  -3 1457.08   91.89
   6   2  -2  748.69   58.57
   6   2  -1  363.86   40.03
   6   2   0 1395.51  103.12
  -6  -2   0 1476.10  106.79
   6   2   1 3277.32  204.99
  -6  -2  -1 3039.16  227.37
   6   2   2  192.20   34.03
  -6  -2  -2  178.45   23.93
  -6  -2  -3   85.74   19.81
  -6  -2  -4  354.51   38.86
  -6  -2  -5  176.65   32.07
  -6  -2  -6   49.70   27.15
  -6  -2  -7   98.99   31.79
   6   1  -8   18.71   28.57
   6   1  -7  204.92   37.96
   6   1  -6   11.79   18.12
   6   1  -6   16.29   21.04
   6   1  -5   -0.62   14.19
   6   1  -5   -4.27   15.78
   6   1  -4    3.47   12.49
   6   1  -4    4.38   13.44
   6   1  -3  263.15   28.58
   6   1  -3  214.66   24.88
   6   1  -2   57.99   10.92
  -6  -1   0 1447.36  112.99
   6   1   0 1611.45  114.64
  -6  -1  -1  143.02   19.79
  -6  -1  -1  108.24   12.81
  -6  -1  -2  446.48   34.52
  -6  -1  -2  419.06   39.60
  -6  -1  -3  218.75   28.10
  -6  -1  -3  234.22   24.51
  -6  -1  -4 1428.00  112.25
  -6  -1  -5  266.07   35.24
  -6  -1  -6  438.47   51.77
  -6  -1  -7   -3.62   26.43
   6   0  -9   15.90   31.37
   6   0  -8 1158.73  102.75
   6   0  -7    5.93   24.54
   6   0  -6  777.84   74.97
   6   0  -6  946.98   65.70
   6   0  -5  -20.79   13.06
   6   0  -5    4.87   14.38
   6   0  -4   -0.59   11.62
   6   0  -4   -6.83   12.48
   6   0  -3   -2.69    9.59
   6   0  -2 2595.07  170.80
   6   0  -1  -16.46   16.03
   6   0   0 2209.88  144.01
  -6   0   0 1943.30  151.43
  -6   0  -1   -1.58    5.73
   6   0   1   -3.09   22.99
  -6   0  -1   -0.07   10.74
  -6   0  -3   10.79   10.84
  -6   0  -3   -2.90   14.93
  -6   0  -4  913.08   69.48
  -6   0  -4  827.87   73.29
  -6   0  -5    4.33   19.64
  -6   0  -5   10.14   18.81
  -6   0  -6  399.57   48.73
  -6   0  -7  -12.79   23.04
   6  -1  -9   71.99   42.29
   6  -1  -8   20.29   32.75
   6  -1  -7  152.09   33.84
   6  -1  -6   -1.42   17.05
   6  -1  -5    4.85   15.83
   6  -1  -5  -10.10   13.57
   6  -1  -4    3.31   20.55
   6  -1  -4    3.31   13.83
   6  -1  -3  351.06   37.89
   6  -1  -3  382.29   38.77
   6  -1  -2  126.17   27.67
   6  -1  -1  469.45   44.55
  -6   1   0 1502.85  108.18
   6  -1   0 1367.15  103.27
  -6   1  -1  111.58   18.04
  -6   1  -1  101.68   13.12
   6  -1   1  103.70   30.97
  -6   1  -2  456.27   42.15
   6  -1   2  498.12   57.23
  -6   1  -2  457.83   38.16
   6  -1   3  231.59   45.75
  -6   1  -3  245.95   25.74
  -6   1  -3  230.99   28.28
  -6   1  -4 1369.84  109.73
  -6   1  -4 1448.70  105.42
  -6   1  -5  313.25   36.50
  -6   1  -5  275.92   36.27
  -6   1  -6  484.99   51.82
  -6   1  -6  467.35   53.05
  -6   1  -7  -27.71   24.01
   6  -2  -9   66.20   46.35
   6  -2  -8  145.17   42.11
   6  -2  -7  169.96   37.69
   6  -2  -6  787.59   75.68
   6  -2  -5  759.90   70.58
   6  -2  -4  440.27   45.03
   6  -2  -4  363.96   44.66
   6  -2  -3 2014.81  136.72
   6  -2  -2  952.36   74.15
   6  -2  -1  385.20   40.08
   6  -2   0 1186.53   88.81
   6  -2   1 2456.33  180.39
  -6   2  -1 2729.70  187.53
  -6   2  -1 2968.20  197.34
  -6   2  -2  191.71   24.54
   6  -2   2  220.54   42.10
  -6   2  -2  192.06   21.28
  -6   2  -3   99.63   17.61
  -6   2  -3   93.57   20.47
   6  -2   3   90.31   40.11
  -6   2  -4  435.79   40.06
  -6   2  -4  367.99   40.09
  -6   2  -5  181.07   29.65
  -6   2  -5  160.19   30.05
  -6   2  -6   41.11   25.41
  -6   2  -6   37.79   24.43
  -6   2  -7  103.58   32.46
   6  -3  -9  834.75  102.92
   6  -3  -8   57.31   42.26
   6  -3  -7  139.84   42.43
   6  -3  -6  787.04   80.49
   6  -3  -5 1313.59   95.56
   6  -3  -5 1158.60  106.33
   6  -3  -4 1262.74  104.05
   6  -3  -4 1144.59   89.88
   6  -3  -3  502.00   51.60
   6  -3  -2  822.75   67.84
   6  -3  -1  156.28   31.08
   6  -3   0 2178.97  146.85
  -6   3  -1    8.62   13.70
   6  -3   1   39.77   26.39
  -6   3  -1   14.38    8.72
   6  -3   2  114.28   34.95
  -6   3  -2   89.37   16.39
  -6   3  -2   84.04   18.20
   6  -3   3  198.93   47.63
  -6   3  -3  154.46   22.76
  -6   3  -3  124.69   23.36
  -6   3  -4 1493.51  105.46
  -6   3  -4 1293.46  107.62
  -6   3  -5  307.08   39.77
  -6   3  -5  403.15   41.46
  -6   3  -6  247.49   37.87
  -6   3  -7  -24.27   27.50
   6  -4  -9  201.83   68.71
   6  -4  -8   36.39   45.86
   6  -4  -7    2.46   31.03
   6  -4  -6  358.53   59.75
   6  -4  -5   12.83   29.80
   6  -4  -5   -0.06   32.65
   6  -4  -4   45.56   32.63
   6  -4  -4   67.32   31.27
   6  -4  -3  586.19   57.73
   6  -4  -2  468.19   46.88
   6  -4  -1  422.89   42.98
   6  -4   0   14.07   19.47
  -6   4  -1  882.08   62.96
   6  -4   1  812.13   69.29
  -6   4  -2  272.37   30.91
  -6   4  -2  305.82   29.32
   6  -4   2  335.99   48.59
  -6   4  -3   23.65   14.91
   6  -4   3   73.73   37.06
  -6   4  -3   27.24   15.11
  -6   4  -4   37.24   17.83
  -6   4  -4   72.73   20.26
  -6   4  -5   10.85   18.15
  -6   4  -6   17.30   23.06
  -6   4  -7  -43.76   25.45
   6  -5  -9 1049.15  133.53
   6  -5  -8  766.94  101.38
   6  -5  -7   27.16   46.67
   6  -5  -6  184.64   54.41
   6  -5  -5 3465.29  229.75
   6  -5  -5 3379.25  260.24
   6  -5  -4 1654.77  122.98
   6  -5  -3  324.03   46.10
   6  -5  -2   76.45   26.03
   6  -5  -1 1235.86   88.90
   6  -5   0  100.56   25.26
  -6   5  -1   95.29   16.17
   6  -5   1   92.21   27.47
  -6   5  -2   27.42   16.15
   6  -5   2   37.51   26.79
  -6   5  -2   38.22   13.91
  -6   5  -3  113.80   22.45
   6  -5   3  213.69   46.58
  -6   5  -3  165.82   25.08
  -6   5  -4   49.84   19.96
  -6   5  -5   15.52   19.89
  -6   5  -6   -2.80   22.18
  -6   5  -7  -29.58   25.11
   6  -6  -8  632.94  103.71
   6  -6  -7  306.03   73.44
   6  -6  -6   23.23   41.98
   6  -6  -5   38.73   38.63
   6  -6  -5   34.70   30.77
   6  -6  -4 2972.44  200.76
   6  -6  -3  984.39   79.10
   6  -6  -2  791.82   66.07
   6  -6  -1  193.15   31.27
   6  -6   0 1995.74  133.80
   6  -6   1  432.01   43.76
  -6   6  -1  470.77   38.65
   6  -6   2 1818.34  133.77
  -6   6  -2 2045.81  138.99
  -6   6  -3  303.57   34.39
   6  -6   3  329.70   49.22
  -6   6  -4   12.15   16.25
  -6   6  -5    1.50   19.86
  -6   6  -6  296.24   40.99
   6  -7  -8  901.72  120.62
   6  -7  -7  272.96   62.50
   6  -7  -6   11.55   39.17
   6  -7  -5   50.28   28.13
   6  -7  -5   70.13   42.08
   6  -7  -4 1132.27   93.71
   6  -7  -3  386.01   48.57
   6  -7  -2   92.49   26.04
   6  -7  -1   30.88   19.88
   6  -7   0   24.87   21.41
  -6   7  -1  367.49   33.05
   6  -7   1  322.19   40.00
   6  -7   2    9.23   23.50
  -6   7  -2   17.03   15.38
  -6   7  -3   11.29   17.28
   6  -7   3   20.45   27.85
  -6   7  -4  511.41   48.54
  -6   7  -5  103.00   27.38
  -6   7  -6   19.77   24.43
   6  -8  -8   19.26   53.37
   6  -8  -7  990.58  102.89
   6  -8  -6  -10.92   21.92
   6  -8  -5  156.91   48.92
   6  -8  -4  351.72   51.61
   6  -8  -3  932.25   74.28
   6  -8  -2   45.24   23.03
   6  -8  -1 1204.73   86.25
   6  -8   0  895.49   69.66
   6  -8   1  285.59   38.50
  -6   8  -1  330.49   32.09
   6  -8   2  131.78   33.27
  -6   8  -2  124.54   22.09
  -6   8  -3 1159.79   86.49
   6  -8   3 1041.12   88.69
  -6   8  -4   51.74   20.34
  -6   8  -5    4.58   21.39
  -6   8  -6  -12.60   25.35
   6  -9  -8   20.98   40.34
   6  -9  -7   -2.80   30.13
   6  -9  -6  200.75   36.09
   6  -9  -5   23.34   36.67
   6  -9  -4  556.62   55.43
   6  -9  -3  100.95   31.29
   6  -9  -2  230.94   35.76
   6  -9  -1  347.05   39.64
   6  -9   0  194.09   31.41
  -6   9  -1  949.33   71.61
   6  -9   1  869.52   73.22
   6  -9   2   78.07   31.44
  -6   9  -2   94.51   22.45
   6  -9   3  198.85   42.49
  -6   9  -3  196.26   30.98
  -6   9  -4   31.71   22.21
  -6   9  -5  900.10   78.20
  -6   9  -6  -17.73   25.81
   6 -10  -7  101.62   28.47
   6 -10  -6   -1.74   14.72
   6 -10  -5  770.03   69.76
   6 -10  -4   27.64   30.18
   6 -10  -3    3.92   21.32
   6 -10  -2  -14.90   21.86
   6 -10  -1 1408.98  100.12
   6 -10   0   25.35   24.97
   6 -10   1  400.35   48.05
  -6  10  -1  433.83   41.20
   6 -10   2   56.21   32.30
  -6  10  -2   48.64   20.96
   6 -10   3  310.53   49.90
  -6  10  -3  348.50   40.07
  -6  10  -4    8.59   22.16
  -6  10  -5   52.91   25.62
   6 -11  -7   61.50   21.92
   6 -11  -6   14.00   12.91
   6 -11  -5  221.92   41.77
   6 -11  -4   91.30   30.67
   6 -11  -3    6.91   22.41
   6 -11  -2    0.68   22.29
   6 -11  -1  903.39   71.92
   6 -11   0   29.73   26.64
   6 -11   1  981.37   81.85
   6 -11   2  -13.99   30.51
  -6  11  -2    9.99   18.66
   6 -11   3  490.87   62.11
  -6  11  -3  521.79   50.50
  -6  11  -4   -4.72   22.71
  -6  11  -5 1171.24   98.71
   6 -12  -6   -6.78    8.98
   6 -12  -4   55.61   26.69
   6 -12  -3   -3.83   22.74
   6 -12  -2   56.51   26.13
   6 -12  -1  580.41   53.18
   6 -12   0  168.91   37.49
   6 -12   1   75.84   37.16
  -6  12  -2   22.52   22.16
   6 -12   2   43.92   38.39
   6 -12   3  645.60   74.00
  -6  12  -4   19.85   23.73
   6 -12   4   -3.47   38.26
  -6  12  -5   -2.96   26.86
   6 -13  -6   23.35   10.61
   6 -13  -4  262.51   35.11
   6 -13  -3   31.22   23.38
   6 -13  -2   44.83   25.03
   6 -13  -1    3.71   25.50
   6 -13   0  110.55   33.14
   6 -13   1  340.09   55.59
   6 -13   2   -5.93   39.95
   6 -13   3    0.72   41.75
  -6  13  -3   -1.30   22.13
   6 -13   4  -16.55   44.52
  -6  13  -4    4.11   26.46
   6 -14  -4  167.79   29.33
   6 -14  -3  327.10   38.18
   6 -14  -2   96.52   28.17
   6 -14  -1   68.72   29.10
   6 -14   0  339.26   49.38
   6 -14   1  430.33   59.67
  -6  14  -2  285.81   40.04
   6 -14   2  348.94   66.86
  -6  14  -3  258.80   41.95
   6 -14   3  236.01   61.58
   6 -14   4   -6.81   47.22
   6 -15  -4   81.89   23.34
   6 -15  -3   97.80   25.19
   6 -15  -2   99.97   28.01
   6 -15  -1   22.57   27.79
   6 -15   0   11.02   32.57
   6 -15   1   69.41   40.59
   6 -15   2   30.21   51.28
   6 -15   3    7.71   53.26
  -6  15  -3    5.77   25.00
   6 -16  -3   23.70   20.26
   6 -16  -2  211.23   33.26
   6 -16  -1   15.22   26.50
   6 -16   0   88.16   37.68
   6 -16   1  133.11   46.22
   6 -16   2  290.37   69.78
   7  16  -2   99.42   42.32
   7  16  -1   54.04   34.86
   7  16   0   57.62   33.23
   7  16   1   43.89   32.43
   7  15  -4   79.46   48.03
   7  15  -3  184.89   50.87
   7  15  -2  279.67   53.48
   7  15  -1   67.98   34.38
   7  15   0  105.99   34.84
   7  15   1  213.19   39.66
   7  14  -5  146.08   52.37
   7  14  -4  343.21   58.45
   7  14  -3  477.06   65.31
   7  14  -2  232.36   49.93
   7  14  -1   -4.22   27.98
   7  14   0   36.89   28.47
   7  14   1  322.12   43.17
  -7 -14  -3   77.97   32.25
   7  13  -6   53.83   44.54
   7  13  -5  -36.73   39.18
   7  13  -4  -34.55   39.01
   7  13  -3  173.51   47.63
   7  13  -1   17.12   28.08
   7  13   0    9.48   25.05
   7  13   1   94.31   29.40
  -7 -13  -2  399.43   49.23
  -7 -13  -3   76.56   29.75
   7  12  -6  -32.92   37.17
   7  12  -5  428.31   65.12
   7  12  -4   65.25   38.96
   7  12  -3  -22.00   29.74
   7  12  -2   -4.94   29.37
   7  12  -1  205.95   40.50
   7  12   0  123.58   31.90
  -7 -12  -1  219.41   36.38
   7  12   1  221.88   35.51
  -7 -12  -2   92.97   28.21
  -7 -12  -3    2.01   21.65
  -7 -12  -4   40.30   26.41
   7  11  -6  -10.10   33.51
   7  11  -5  900.78   86.74
   7  11  -4   -9.18   34.13
   7  11  -3   23.93   31.66
   7  11  -2   17.89   31.22
   7  11  -1  471.89   54.56
  -7 -11   0    0.12   18.42
   7  11   0    7.68   22.86
  -7 -11  -1  711.29   61.89
   7  11   1  654.44   58.72
  -7 -11  -2   49.93   23.35
  -7 -11  -3   53.59   24.84
  -7 -11  -4   15.92   25.02
   7  10  -6  -17.94   34.30
   7  10  -5  375.70   58.33
   7  10  -4   18.27   35.40
   7  10  -3  336.81   50.78
   7  10  -2   15.36   30.81
   7  10  -1  644.48   64.15
  -7 -10   1  645.87   55.75
   7  10   0   60.16   24.69
  -7 -10   0   38.34   19.16
   7  10   1  307.03   39.12
  -7 -10  -1  300.86   37.41
  -7 -10  -2   74.16   23.29
  -7 -10  -3   37.43   22.79
  -7 -10  -4   44.21   26.36
  -7 -10  -5  526.00   61.73
   7   9  -6  286.77   51.67
   7   9  -5  379.42   56.23
   7   9  -4  295.14   48.82
   7   9  -3  -14.54   29.22
   7   9  -2  307.24   46.35
  -7  -9   1  228.39   29.16
   7   9  -1  260.27   43.45
   7   9   0  248.30   39.12
  -7  -9   0  302.66   33.30
  -7  -9  -1  297.03   35.68
   7   9   1  308.13   37.92
  -7  -9  -2  175.61   28.07
   7   9   2  203.42   30.92
  -7  -9  -3   49.84   22.58
  -7  -9  -4  132.77   29.28
  -7  -9  -5   55.49   27.08
   7   8  -6  128.84   39.21
   7   8  -5  224.31   43.94
   7   8  -4  558.50   63.32
   7   8  -3  560.27   61.04
   7   8  -2  255.65   46.18
  -7  -8   1    6.58   14.03
   7   8  -1   -3.19   25.34
  -7  -8   0  203.62   27.72
   7   8   0  207.52   36.03
   7   8   1  657.90   56.16
  -7  -8  -1  617.26   56.26
  -7  -8  -2   10.58   16.32
   7   8   2   21.31   20.08
  -7  -8  -3  112.43   25.53
  -7  -8  -4   81.44   24.81
  -7  -8  -5  324.63   43.61
  -7  -8  -6   64.55   31.80
   7   7  -6    0.98   30.71
   7   7  -5   11.20   26.37
   7   7  -4  693.98   68.36
   7   7  -3  689.06   67.54
   7   7  -2 1865.05  136.34
  -7  -7   1  125.41   22.15
   7   7  -1  136.59   37.51
   7   7   0  357.08   44.86
  -7  -7   0  314.69   33.35
  -7  -7  -1  266.27   32.36
   7   7   1  268.76   35.79
  -7  -7  -2 1838.60  138.85
  -7  -7  -3  243.78   33.38
  -7  -7  -4    6.17   17.89
  -7  -7  -5    8.18   20.93
  -7  -7  -6  164.86   38.60
   7   6  -6  656.45   64.68
   7   6  -5  303.48   46.53
   7   6  -4 3115.27  203.99
   7   6  -3  864.26   75.92
   7   6  -2 2240.17  156.59
   7   6  -1  184.74   41.27
  -7  -6   1  142.67   23.19
  -7  -6   0  152.42   22.20
   7   6   0  165.85   35.10
   7   6   1  564.93   52.67
  -7  -6  -1  498.07   47.29
   7   6   2  296.12   35.51
  -7  -6  -2  311.21   35.21
  -7  -6  -3   35.44   17.67
  -7  -6  -4    7.33   18.90
  -7  -6  -5   67.61   25.57
  -7  -6  -6   11.02   25.59
   7   5  -6  224.33   39.29
   7   5  -5  800.25   69.79
   7   5  -4  452.09   52.40
   7   5  -3  425.66   52.05
   7   5  -2 1830.13  132.23
   7   5  -1 2328.81  163.71
  -7  -5   0  261.19   30.20
   7   5   0  345.33   48.35
  -7  -5  -1  337.21   35.76
   7   5   1  378.26   45.63
   7   5   2 1908.95  122.53
  -7  -5  -2 1730.26  136.88
  -7  -5  -3  948.12   78.92
  -7  -5  -4   26.16   19.42
  -7  -5  -5   30.18   24.16
  -7  -5  -6  223.86   42.95
   7   4  -6  139.47   33.18
   7   4  -5  306.70   42.25
   7   4  -4  755.82   64.59
   7   4  -3 1334.65   99.27
   7   4  -2   -2.32   24.12
  -7  -4   1  183.98   24.10
   7   4  -1  215.29   42.81
  -7  -4   0  953.22   81.40
   7   4   0 1161.70   92.85
   7   4   1  266.45   44.68
  -7  -4  -1  242.79   30.41
  -7  -4  -2   19.86   16.44
   7   4   2   37.43   24.00
  -7  -4  -3  515.75   48.98
  -7  -4  -4  172.32   30.36
  -7  -4  -5    3.41   21.80
  -7  -4  -6   13.42   23.64
   7   3  -9   35.16   34.82
   7   3  -8   57.43   33.26
   7   3  -7    0.44   26.14
   7   3  -6 1496.42  102.59
   7   3  -6 1335.65  115.09
   7   3  -5    7.37   21.10
   7   3  -5    1.19   23.04
   7   3  -4  329.43   40.51
   7   3  -3 1148.41   86.65
   7   3  -2  584.52   55.40
   7   3  -1  702.67   65.71
   7   3   0 1389.12  104.92
  -7  -3   0 1169.00   96.39
   7   3   1 1954.96  132.63
  -7  -3  -1 1609.03  132.45
  -7  -3  -2   39.76   16.58
   7   3   2   20.68   26.63
  -7  -3  -3  927.53   77.50
  -7  -3  -4  472.99   49.17
  -7  -3  -5  108.40   26.89
  -7  -3  -6   -6.09   21.31
  -7  -3  -7   65.59   34.48
   7   2  -9  287.65   51.46
   7   2  -8   20.35   29.86
   7   2  -7 1276.55  106.96
   7   2  -6  744.45   62.39
   7   2  -6  638.35   65.13
   7   2  -5   12.21   18.53
   7   2  -5   11.49   20.08
   7   2  -4  156.58   27.79
   7   2  -4  187.45   28.44
   7   2  -3 2015.92  133.29
   7   2  -2  205.60   31.49
   7   2  -1  203.57   35.33
   7   2   0  959.39   78.69
  -7  -2   0  817.26   69.56
   7   2   1  430.04   52.66
  -7  -2  -1  344.54   36.94
   7   2   2  174.68   39.72
  -7  -2  -2  135.60   25.03
  -7  -2  -3   92.66   22.08
  -7  -2  -4  397.52   43.04
  -7  -2  -5   39.19   24.23
  -7  -2  -7   -8.81   27.34
   7   1  -9   66.12   37.21
   7   1  -8  327.14   49.12
   7   1  -7   15.29   24.28
   7   1  -6  579.98   60.82
   7   1  -6  701.01   57.81
   7   1  -5  108.24   24.15
   7   1  -5   79.01   21.59
   7   1  -4  -14.56   14.54
   7   1  -4    2.22   11.89
   7   1  -3  525.68   46.25
   7   1  -2   30.34    9.81
  -7  -1   0  286.41   30.08
  -7  -1  -1 1211.33   93.67
  -7  -1  -2   82.95   21.65
   7   1   2  133.05   37.06
  -7  -1  -3  156.27   25.83
  -7  -1  -4  172.98   30.49
  -7  -1  -5  168.97   30.66
  -7  -1  -6    4.53   25.08
  -7  -1  -7    7.69   24.51
   7   0  -9    2.21   33.09
   7   0  -8  158.86   39.81
   7   0  -7   -4.86   23.28
   7   0  -6   85.61   25.26
   7   0  -6   94.79   26.37
   7   0  -5  -20.63   15.03
   7   0  -5   -8.79   13.49
   7   0  -4  245.19   29.93
   7   0  -4  193.29   26.97
   7   0  -3    0.72   10.81
   7   0  -2   -6.99   20.72
   7   0  -1   -4.94   21.28
  -7   0   0  382.13   38.52
   7   0   0  449.71   49.05
  -7   0  -1    9.71   12.49
   7   0   1  -22.36   26.25
  -7   0  -3   -2.22   15.26
  -7   0  -4   38.02   21.31
  -7   0  -5    0.54   20.97
  -7   0  -6 1028.14   92.04
  -7   0  -7  -14.36   27.23
   7  -1  -9   72.60   42.11
   7  -1  -8  300.84   53.11
   7  -1  -7    0.15   25.59
   7  -1  -6  542.41   47.54
   7  -1  -6  458.20   53.33
   7  -1  -5   83.58   21.90
   7  -1  -5  104.96   24.84
   7  -1  -4    3.94   15.22
   7  -1  -3  716.84   62.85
   7  -1  -2   95.90   28.50
   7  -1  -1   11.31   23.15
   7  -1   0  253.23   40.22
   7  -1   1 1352.73   99.03
  -7   1  -1 1191.50   93.67
  -7   1  -1 1097.97   85.77
  -7   1  -2   85.30   14.76
  -7   1  -2  103.09   20.51
   7  -1   2  112.14   41.47
  -7   1  -3  154.61   27.23
  -7   1  -4  148.50   26.59
  -7   1  -5  162.68   30.73
  -7   1  -6   17.97   26.06
   7  -2  -9  344.53   64.64
   7  -2  -8   11.85   33.98
   7  -2  -7  998.00   93.58
   7  -2  -6  498.47   48.59
   7  -2  -6  571.08   60.90
   7  -2  -5   15.10   21.41
   7  -2  -4  197.60   35.19
   7  -2  -4  277.50   41.22
   7  -2  -3 2752.68  182.27
   7  -2  -2  269.97   39.02
   7  -2  -1  247.28   39.38
   7  -2   0  683.89   63.31
  -7   2  -1  341.15   33.30
  -7   2  -1  313.26   27.44
   7  -2   1  292.68   45.95
  -7   2  -2  139.87   23.74
   7  -2   2  167.52   45.97
  -7   2  -2  108.24   18.61
  -7   2  -3   89.62   22.07
  -7   2  -3   85.39   17.91
  -7   2  -4  465.80   42.93
  -7   2  -4  387.89   44.61
  -7   2  -5   36.49   23.02
   7  -3  -9   23.73   49.07
   7  -3  -8   50.14   41.60
   7  -3  -7   19.74   33.01
   7  -3  -6 1064.12   97.64
   7  -3  -5   -1.30   23.58
   7  -3  -5   22.80   30.04
   7  -3  -4  353.67   48.02
   7  -3  -4  325.11   47.66
   7  -3  -3 1271.55   96.95
   7  -3  -2  569.07   55.76
   7  -3  -1  579.09   54.50
   7  -3   0  995.51   79.58
  -7   3  -1 1539.71  109.95
   7  -3   1 1421.92  114.61
  -7   3  -1 1692.98  118.39
   7  -3   2   53.17   37.25
  -7   3  -2   39.99   13.87
  -7   3  -2   38.36   16.78
  -7   3  -3  896.12   77.81
  -7   3  -3 1013.73   74.15
  -7   3  -4  425.30   48.12
  -7   3  -4  560.35   47.73
  -7   3  -5   98.69   27.13
  -7   3  -5  102.63   25.16
  -7   3  -6   -4.62   22.45
   7  -4  -8  272.23   65.38
   7  -4  -7  273.12   55.54
   7  -4  -6  104.69   41.83
   7  -4  -6  144.89   39.50
   7  -4  -5  270.52   49.85
   7  -4  -5  375.13   51.87
   7  -4  -4  733.98   68.41
   7  -4  -3 1065.88   86.30
   7  -4  -2   18.99   26.68
   7  -4  -1  190.63   33.80
   7  -4   0  842.89   71.84
  -7   4  -1  201.50   22.44
   7  -4   1  238.89   43.34
   7  -4   2   52.98   38.80
  -7   4  -2   12.94   12.75
  -7   4  -2   14.28   15.63
   7  -4   3  664.94   78.14
  -7   4  -3  581.07   52.43
  -7   4  -4  162.64   28.96
  -7   4  -4  226.65   30.70
  -7   4  -5   -1.15   19.94
   7  -5  -8   62.51   52.55
   7  -5  -7  149.35   50.80
   7  -5  -6  152.91   50.32
   7  -5  -5  639.06   77.81
   7  -5  -5  799.81   76.39
   7  -5  -4  345.86   53.18
   7  -5  -3  308.12   47.51
   7  -5  -2 1151.33   88.06
   7  -5  -1 1485.86  107.76
   7  -5   0  275.71   38.55
  -7   5  -1  310.03   29.18
   7  -5   1  307.05   46.17
  -7   5  -2 1563.76  129.77
  -7   5  -2 1863.56  124.81
   7  -5   2 1739.83  130.99
   7  -5   3 1238.36  105.80
  -7   5  -3 1153.62   90.50
  -7   5  -4   54.71   21.80
  -7   5  -5   -0.31   20.65
  -7   5  -6  130.91   33.98
   7  -6  -8 1421.98  148.31
   7  -6  -7  204.78   61.22
   7  -6  -6  466.91   69.19
   7  -6  -5  322.04   58.16
   7  -6  -4 2250.84  159.75
   7  -6  -3  577.56   60.41
   7  -6  -2 1456.19  105.56
   7  -6  -1  151.59   34.00
   7  -6   0  174.79   33.04
   7  -6   1  498.98   54.47
  -7   6  -1  503.11   41.71
  -7   6  -2  361.66   34.82
   7  -6   2  321.76   51.22
   7  -6   3   69.90   44.77
  -7   6  -3   44.32   19.36
  -7   6  -4   -0.46   18.15
  -7   6  -5   65.49   26.16
  -7   6  -6   -9.68   24.29
   7  -7  -8   -7.94   49.69
   7  -7  -7  183.51   50.58
   7  -7  -6    5.64   25.82
   7  -7  -5    4.97   21.78
   7  -7  -5   27.48   38.69
   7  -7  -4  504.65   57.58
   7  -7  -3  489.21   56.10
   7  -7  -2 1137.20   88.00
   7  -7  -1  146.35   30.56
   7  -7   0  289.46   41.10
  -7   7  -1  260.19   28.00
   7  -7   1  237.45   41.00
  -7   7  -2 2042.90  140.54
   7  -7   2 1835.15  138.93
   7  -7   3  298.49   54.33
  -7   7  -3  257.87   33.30
  -7   7  -4   -5.08   16.72
  -7   7  -5    8.77   23.03
  -7   7  -6  125.88   31.88
   7  -8  -8  142.46   54.18
   7  -8  -7   40.10   33.02
   7  -8  -6   37.77   24.23
   7  -8  -5  185.38   52.14
   7  -8  -4  336.25   51.68
   7  -8  -3  298.72   46.07
   7  -8  -2  194.69   37.33
   7  -8  -1    4.08   22.27
   7  -8   0  196.11   35.39
  -7   8  -1  630.23   50.51
   7  -8   1  553.73   57.80
   7  -8   2   33.48   32.89
  -7   8  -2   27.42   16.90
   7  -8   3  153.90   43.85
  -7   8  -3  144.30   27.94
  -7   8  -4   81.03   25.72
  -7   8  -5  323.23   41.67
  -7   8  -6   24.23   29.27
   7  -9  -7  201.91   41.27
   7  -9  -6   46.11   22.91
   7  -9  -5  197.46   41.66
   7  -9  -4  150.82   37.32
   7  -9  -3  -20.54   24.70
   7  -9  -2  246.67   36.26
   7  -9  -1  217.91   37.28
   7  -9   0  280.14   41.75
   7  -9   1  268.87   39.69
  -7   9  -1  290.15   30.97
   7  -9   2  206.26   42.95
  -7   9  -2  209.05   29.85
   7  -9   3   33.59   37.35
  -7   9  -3   67.88   21.65
  -7   9  -4  133.98   29.68
  -7   9  -5   47.06   27.71
   7 -10  -7   93.94   26.44
   7 -10  -6   -4.09   12.71
   7 -10  -5  221.39   47.04
   7 -10  -4    2.91   32.81
   7 -10  -3  231.55   40.76
   7 -10  -2    7.02   26.35
   7 -10  -1  504.89   51.91
   7 -10   0   36.73   28.79
   7 -10   1  293.10   46.18
  -7  10  -2   73.09   23.09
   7 -10   2   34.60   34.03
   7 -10   3   49.43   39.35
  -7  10  -3   34.96   23.19
  -7  10  -4   25.89   25.09
  -7  10  -5  496.30   55.29
   7 -11  -6   -1.30   10.65
   7 -11  -5  427.29   51.77
   7 -11  -4  -18.01   28.72
   7 -11  -3   50.05   26.55
   7 -11  -2   -7.26   23.13
   7 -11  -1  408.80   45.24
   7 -11   0    1.44   27.06
   7 -11   1  646.52   65.27
  -7  11  -2   57.93   23.88
   7 -11   2   80.30   39.47
  -7  11  -3   33.76   24.97
   7 -11   3   59.69   43.75
  -7  11  -4    2.41   25.01
   7 -12  -6   -3.73    8.35
   7 -12  -5  164.42   36.55
   7 -12  -4   41.73   28.26
   7 -12  -3   -1.67   25.96
   7 -12  -2   -2.68   26.84
   7 -12  -1  233.32   40.77
   7 -12   0  134.36   38.40
   7 -12   1  221.71   48.24
  -7  12  -2  100.11   27.28
   7 -12   2   81.67   42.87
  -7  12  -3    3.90   22.07
   7 -12   3    7.24   40.77
  -7  12  -4   27.82   28.17
   7 -13  -5  -21.53   21.51
   7 -13  -4  -17.59   25.82
   7 -13  -3  168.91   33.99
   7 -13  -2  286.69   42.52
   7 -13  -1   27.32   29.24
   7 -13   0    8.86   34.73
   7 -13   1  109.21   45.45
   7 -13   2  733.08   81.57
   7 -13   3   74.94   48.45
  -7  13  -3   76.28   30.71
   7 -14  -4  193.37   35.00
   7 -14  -3  322.04   41.33
   7 -14  -2  258.73   41.24
   7 -14  -1  -15.28   24.69
   7 -14   0   69.38   35.43
   7 -14   1  382.11   64.30
   7 -14   2   26.21   50.59
   7 -14   3   76.82   54.93
  -7  14  -3  102.38   32.91
   7 -15  -4   19.92   23.96
   7 -15  -3  144.24   32.76
   7 -15  -2  248.27   39.96
   7 -15  -1   59.93   33.71
   7 -15   0  116.46   43.53
   7 -15   1  221.79   58.95
   7 -15   2  551.38   82.01
   7 -16  -2   93.10   30.88
   7 -16  -1   74.35   33.59
   8  15  -2  238.20   55.88
   8  15  -1   26.12   35.95
   8  15   0   29.65   33.26
   8  14  -4  -16.35   43.58
   8  14  -3  -23.48   41.35
   8  14  -2   71.07   42.60
   8  14  -1    6.38   33.14
   8  14   0   91.96   35.49
   8  14   1   46.27   30.49
   8  13  -5  404.15   69.04
   8  13  -4    3.00   39.56
   8  13  -3  525.34   70.28
   8  13  -2  213.62   54.05
   8  13  -1   66.61   33.88
   8  13   0   88.11   32.74
   8  13   1  487.98   54.73
  -8 -13  -2   25.02   26.67
  -8 -13  -3   27.24   28.51
   8  12  -6   63.84   45.73
   8  12  -5  513.55   68.69
   8  12  -4  -55.51   38.65
   8  12  -3   82.41   47.11
   8  12  -2  418.10   63.62
   8  12  -1  116.86   40.81
   8  12   0  211.96   39.43
  -8 -12  -1   27.27   25.89
   8  12   1   33.15   28.43
  -8 -12  -2  224.12   38.61
  -8 -12  -3   40.22   24.52
   8  11  -6   86.53   45.48
   8  11  -5  479.04   69.11
   8  11  -4  -26.57   39.89
   8  11  -3  -12.48   38.57
   8  11  -2   -5.17   37.41
   8  11  -1  401.26   54.59
  -8 -11   0   14.07   20.99
   8  11   0   27.06   29.93
   8  11   1   76.28   29.03
  -8 -11  -2    6.60   23.81
  -8 -11  -3    9.43   22.83
  -8 -11  -4   -6.66   23.23
   8  10  -7  754.66   83.23
   8  10  -6   25.97   40.28
   8  10  -5 1281.96  109.77
   8  10  -4  -16.73   37.46
   8  10  -3  190.21   52.61
   8  10  -2  116.97   41.35
   8  10  -1  300.33   53.79
  -8 -10   1  277.08   34.57
   8  10   0   78.50   34.39
  -8 -10   0   76.27   21.11
  -8 -10  -1   29.87   22.49
   8  10   1   50.29   27.95
  -8 -10  -2   34.35   21.07
  -8 -10  -3    1.35   21.62
  -8 -10  -4   52.61   28.30
   8   9  -7   26.21   39.46
   8   9  -6  130.03   45.39
   8   9  -5 1157.42   99.83
   8   9  -4  376.53   61.59
   8   9  -3  216.80   49.34
   8   9  -2   10.54   36.83
  -8  -9   1  617.56   56.71
   8   9  -1  712.50   71.22
  -8  -9   0  266.98   33.38
   8   9   0  311.62   48.73
   8   9   1  541.20   54.85
  -8  -9  -1  500.66   51.12
  -8  -9  -2   25.02   19.19
  -8  -9  -3   -4.30   19.99
  -8  -9  -4   12.17   23.82
   8   8  -7  117.17   44.77
   8   8  -6   54.97   37.52
   8   8  -5  235.29   48.41
   8   8  -4   -4.19   33.85
   8   8  -3   48.21   38.99
   8   8  -2  480.27   62.99
  -8  -8   1    2.30   15.66
   8   8  -1  -11.51   33.73
   8   8   0  452.78   55.83
  -8  -8   0  417.86   41.88
  -8  -8  -1   29.40   20.01
   8   8   1    7.36   24.82
  -8  -8  -2  291.39   35.39
  -8  -8  -3   36.10   22.02
  -8  -8  -4  478.20   52.16
  -8  -8  -5   13.94   23.95
   8   7  -6  490.19   59.46
   8   7  -5  466.82   58.75
   8   7  -4  196.58   45.15
   8   7  -3 1036.78   91.93
   8   7  -2 1836.75  140.18
  -8  -7   1   45.90   17.97
   8   7  -1   45.93   39.77
  -8  -7   0   31.26   17.83
   8   7   0   17.62   32.90
   8   7   1 1094.99   84.87
  -8  -7  -1  932.09   81.64
  -8  -7  -2  443.89   44.85
  -8  -7  -3   45.09   21.77
  -8  -7  -4   37.24   24.07
  -8  -7  -5  159.07   35.68
   8   6  -6  164.25   39.40
   8   6  -5  149.06   35.65
   8   6  -4   -9.67   26.24
   8   6  -3  240.50   45.26
   8   6  -2  161.78   44.17
   8   6  -1 1201.82  104.68
  -8  -6   0  229.91   31.62
   8   6   0  326.80   55.55
   8   6   1   28.63   29.36
  -8  -6  -1   19.05   18.49
  -8  -6  -2  469.11   47.39
  -8  -6  -3  573.86   54.34
  -8  -6  -4  316.54   40.82
  -8  -6  -5   53.09   28.62
   8   5  -6  381.34   51.67
   8   5  -5  397.99   50.98
   8   5  -4  564.97   61.10
   8   5  -3  161.02   38.12
   8   5  -2 1912.12  143.35
   8   5  -1  865.22   88.61
   8   5   0   83.53   42.78
  -8  -5   0   85.12   20.21
   8   5   1  -26.42   27.91
  -8  -5  -1    8.91   17.06
  -8  -5  -2  473.38   49.90
   8   5   2  563.98   55.93
  -8  -5  -3   24.26   20.08
  -8  -5  -4   71.14   25.79
  -8  -5  -5   47.49   25.26
  -8  -5  -6   63.46   30.54
   8   4  -6  697.10   65.10
   8   4  -5  256.86   41.05
   8   4  -4   -1.86   26.10
   8   4  -3  326.84   45.67
   8   4  -2 1694.19  127.74
   8   4  -1 2649.69  186.98
  -8  -4   0  557.07   52.34
   8   4   0  674.15   76.48
   8   4   1  -26.89   32.62
  -8  -4  -1    5.33   15.28
  -8  -4  -2  500.32   53.66
   8   4   2  671.37   62.65
  -8  -4  -3 2140.07  162.38
  -8  -4  -4  509.83   51.85
  -8  -4  -5  198.93   34.41
  -8  -4  -6    4.74   27.31
   8   3  -6   12.49   25.96
   8   3  -5  281.04   40.65
   8   3  -4   89.76   29.38
   8   3  -3  488.17   53.15
   8   3  -2   22.85   26.57
   8   3  -1  767.47   74.03
  -8  -3   0   87.90   20.46
   8   3   0   96.98   43.16
   8   3   1  357.83   59.93
   8   3   2   18.25   34.09
  -8  -3  -2   31.53   18.48
  -8  -3  -3   57.22   21.70
  -8  -3  -4   29.99   20.66
  -8  -3  -5   71.89   28.84
  -8  -3  -6   28.54   29.30
   8   2  -6 1717.08  119.34
   8   2  -5  190.45   33.55
   8   2  -4   94.20   27.56
   8   2  -3   -9.10   17.15
   8   2  -2  575.88   54.22
   8   2  -1  170.73   34.81
   8   2   0   80.43   32.79
  -8  -2   0   72.07   17.63
  -8  -2  -1   22.15   15.57
   8   2   1   21.45   33.94
   8   2   2   25.96   36.23
  -8  -2  -2   40.05   20.80
  -8  -2  -3  359.84   40.60
  -8  -2  -4   64.88   25.50
  -8  -2  -5   14.16   22.09
   8   1  -8  436.97   56.49
   8   1  -7  155.66   35.99
   8   1  -6  386.67   48.87
   8   1  -6  481.53   48.76
   8   1  -5  -13.29   18.74
   8   1  -4 1610.33  109.18
   8   1  -3  579.61   51.60
   8   1  -2  150.89   29.57
  -8  -1   0 2199.47  162.96
  -8  -1  -1  350.45   36.15
  -8  -1  -2  293.41   38.13
   8   1   2  381.23   54.81
  -8  -1  -3   25.19   20.02
  -8  -1  -4   96.65   25.69
  -8  -1  -5   73.01   28.73
  -8  -1  -6  325.04   45.93
   8   0  -8   19.78   30.71
   8   0  -7   -3.84   24.22
   8   0  -6  319.45   40.97
   8   0  -6  283.41   40.17
   8   0  -5    0.12   15.22
   8   0  -5   -4.39   17.71
   8   0  -4   17.09   15.39
   8   0  -4   45.60   19.25
   8   0  -2  -19.98   24.61
   8   0  -1  -21.29   25.62
  -8   0   0  125.34   23.28
   8   0   0  175.92   42.96
   8   0   1    3.03   35.56
  -8   0  -1   11.56   15.13
   8   0   2  346.46   62.05
  -8   0  -3    0.94   16.76
  -8   0  -4  318.84   39.50
  -8   0  -5   -9.93   23.27
  -8   0  -6   67.15   31.55
   8  -1  -8  430.43   61.40
   8  -1  -7  154.80   38.16
   8  -1  -6  397.52   43.52
   8  -1  -6  354.18   46.28
   8  -1  -5   14.73   20.24
   8  -1  -5    7.29   17.42
   8  -1  -4 1432.59  111.48
   8  -1  -3  725.81   64.61
   8  -1  -2  172.33   35.09
   8  -1  -1  149.82   36.37
   8  -1   0 2602.23  179.87
  -8   1  -1  351.26   39.44
   8  -1   1  421.67   56.68
  -8   1  -2  251.19   35.19
   8  -1   2  383.25   56.62
  -8   1  -3   24.50   20.61
  -8   1  -4   90.73   27.74
  -8   1  -5   79.39   29.78
  -8   1  -6  337.25   48.10
   8  -2  -8   18.19   31.33
   8  -2  -6 1270.15  111.34
   8  -2  -6 1361.44   95.55
   8  -2  -5  167.36   33.43
   8  -2  -4  153.91   37.22
   8  -2  -4  100.54   28.09
   8  -2  -3    0.63   24.41
   8  -2  -2  661.11   62.75
   8  -2  -1  112.31   35.11
   8  -2   0   46.36   32.63
   8  -2   1  -12.59   31.80
  -8   2  -1    9.74   15.93
   8  -2   2   30.25   40.66
  -8   2  -2   42.73   19.33
  -8   2  -3  375.93   41.89
  -8   2  -4   64.46   24.84
  -8   2  -5    3.08   21.70
   8  -3  -8   69.04   44.19
   8  -3  -7  445.79   64.91
   8  -3  -6    5.60   30.48
   8  -3  -5  242.91   46.06
   8  -3  -5  342.38   49.97
   8  -3  -4   77.88   29.26
   8  -3  -4  180.88   41.23
   8  -3  -3  514.52   56.51
   8  -3  -2    5.84   24.75
   8  -3  -1  599.09   60.75
   8  -3   0   31.83   32.21
   8  -3   1  231.35   48.00
  -8   3  -1  208.40   23.24
  -8   3  -2   31.00   17.48
   8  -3   2   48.54   41.60
  -8   3  -3   33.17   19.29
  -8   3  -4   30.45   22.01
   8  -4  -8   24.95   43.93
   8  -4  -7  215.11   54.38
   8  -4  -6  551.24   74.91
   8  -4  -6  729.77   73.28
   8  -4  -5  213.11   47.19
   8  -4  -5  272.69   50.44
   8  -4  -4   29.66   35.30
   8  -4  -3  292.75   43.95
   8  -4  -2 1177.77   93.14
   8  -4  -1 1627.28  119.26
   8  -4   0  465.55   54.90
  -8   4  -1   -1.66   10.74
   8  -4   1   10.19   32.69
  -8   4  -2  466.98   49.23
  -8   4  -2  518.97   44.04
   8  -4   2  565.46   70.59
  -8   4  -3 1873.89  153.80
  -8   4  -3 2222.66  148.46
   8  -5  -8 1088.42  117.77
   8  -5  -7  114.56   50.66
   8  -5  -6  404.68   60.68
   8  -5  -6  257.15   57.00
   8  -5  -5  317.95   54.62
   8  -5  -5  447.65   60.12
   8  -5  -4  568.78   65.21
   8  -5  -3  119.74   35.27
   8  -5  -2 1039.37   83.79
   8  -5  -1  509.70   56.26
   8  -5   0   98.32   36.53
   8  -5   1    1.42   32.06
  -8   5  -1    2.21   11.93
   8  -5   2  468.43   65.49
  -8   5  -2  496.84   43.15
  -8   5  -3   11.82   18.38
  -8   5  -3   19.75   17.56
  -8   5  -4   54.92   22.36
  -8   5  -5   31.77   24.06
   8  -6  -8    8.90   49.04
   8  -6  -6  139.34   51.04
   8  -6  -6  103.57   39.56
   8  -6  -5  132.02   46.67
   8  -6  -5   77.31   31.25
   8  -6  -4    4.55   36.11
   8  -6  -3   96.25   37.36
   8  -6  -2   77.66   34.31
   8  -6  -1  715.53   66.69
   8  -6   0  220.16   42.44
  -8   6  -1    2.34   13.44
   8  -6   1   30.25   33.18
  -8   6  -2  465.98   44.35
   8  -6   2  529.01   67.73
  -8   6  -3  740.54   62.52
  -8   6  -4  331.93   39.57
   8  -7  -8  314.54   66.72
   8  -7  -7  158.89   49.17
   8  -7  -6  432.54   63.98
   8  -7  -6  199.38   45.70
   8  -7  -5  207.48   35.16
   8  -7  -5  372.35   56.34
   8  -7  -4  113.58   42.28
   8  -7  -3  598.72   59.77
   8  -7  -2 1011.20   81.63
   8  -7  -1   44.06   30.61
   8  -7   0   17.51   31.47
   8  -7   1  801.37   77.88
  -8   7  -1  924.23   67.98
   8  -7   2  500.17   65.36
  -8   7  -2  466.34   44.85
   8  -7   3   79.56   53.87
  -8   7  -3   43.66   21.19
  -8   7  -4   46.11   23.08
   8  -8  -7   33.53   33.47
   8  -8  -6   10.58   23.62
   8  -8  -5  240.09   56.76
   8  -8  -4   -9.30   34.65
   8  -8  -3   20.80   29.35
   8  -8  -2  292.63   44.43
   8  -8  -1    6.41   29.04
   8  -8   0  358.11   48.65
   8  -8   1   13.25   33.00
   8  -8   2  330.28   56.20
  -8   8  -2  321.30   36.32
  -8   8  -3   29.37   21.17
   8  -8   3   75.04   51.20
  -8   8  -4  555.19   55.39
  -8   8  -5  -21.85   24.12
   8  -9  -7   -0.73   22.19
   8  -9  -6   14.71   17.12
   8  -9  -5  661.12   70.06
   8  -9  -4  188.26   41.05
   8  -9  -3   89.23   36.59
   8  -9  -2   11.07   30.29
   8  -9  -1  503.29   52.09
   8  -9   0  239.90   44.75
   8  -9   1  469.47   57.50
   8  -9   2   47.20   41.68
  -8   9  -2   22.38   20.07
   8  -9   3   24.96   45.82
  -8   9  -3   -2.37   21.13
  -8   9  -4   15.01   25.45
   8 -10  -6   -1.27   14.03
   8 -10  -5  662.62   69.48
   8 -10  -4  -18.76   33.38
   8 -10  -3  105.98   36.16
   8 -10  -2   99.17   34.68
   8 -10  -1  249.10   41.40
   8 -10   0   57.80   31.19
   8 -10   1   -0.86   34.48
   8 -10   2   10.70   40.39
  -8  10  -2   33.47   21.43
   8 -10   3   45.68   48.07
  -8  10  -3   -2.54   22.39
  -8  10  -4   75.01   28.89
   8 -11  -6    5.60   11.90
   8 -11  -5  215.29   45.76
   8 -11  -4  -25.85   31.54
   8 -11  -3    3.94   30.86
   8 -11  -2   65.46   29.15
   8 -11  -1  370.96   48.61
   8 -11   0   24.69   33.31
   8 -11   1   80.39   42.13
  -8  11  -2    5.87   21.38
   8 -11   2  -10.01   39.04
   8 -11   3   20.96   44.87
  -8  11  -3    7.70   24.66
  -8  11  -4    3.63   26.50
   8 -12  -6    3.89    9.67
   8 -12  -5  180.13   37.85
   8 -12  -4  -10.63   27.46
   8 -12  -3   53.56   33.95
   8 -12  -2  536.55   57.52
   8 -12  -1   97.23   35.55
   8 -12   0  238.05   45.23
   8 -12   1   42.01   40.63
   8 -12   2  219.12   57.26
  -8  12  -2  236.08   34.62
  -8  12  -3   25.38   27.20
   8 -12   3   22.26   52.11
   8 -13  -5  104.92   34.35
   8 -13  -4    2.41   30.68
   8 -13  -3  351.48   47.82
   8 -13  -2  215.59   41.88
   8 -13  -1   83.74   36.47
   8 -13   0   85.94   38.39
   8 -13   1  474.56   65.93
   8 -13   3   18.70   47.82
   8 -14  -4  -16.59   28.36
   8 -14  -3    9.96   29.69
   8 -14  -2   96.83   35.13
   8 -14  -1   31.01   31.61
   8 -14   0  120.05   46.27
   8 -14   1   78.55   51.12
   8 -14   2  212.81   64.31
   8 -15  -2  197.47   41.62
   8 -15  -1   16.49   37.05
   8 -15   0   16.89   42.44
   9  14  -2  -73.68   38.23
   9  14  -1  -31.23   35.16
   9  14   0   68.43   38.45
   9  13  -3   31.59   48.00
   9  13  -2   30.69   50.01
   9  13  -1  101.49   43.12
   9  13   0  108.04   40.41
   9  12  -5   76.66   51.27
   9  12  -4  324.21   65.06
   9  12  -3  736.72   92.06
   9  12  -2   15.75   49.17
   9  12  -1  -14.31   40.55
   9  12   0  393.37   58.03
   9  12   1  478.51   59.68
  -9 -12  -2   18.20   27.68
   9  11  -6  -18.37   41.55
   9  11  -5  644.83   77.54
   9  11  -4  -37.36   43.88
   9  11  -3  -21.30   47.37
   9  11  -2    7.35   47.45
   9  11  -1  437.60   71.92
  -9 -11   0   11.84   23.70
   9  11   0    9.73   34.12
  -9 -11  -1  112.74   29.54
   9  11   1  101.91   35.88
  -9 -11  -2   41.05   24.16
  -9 -11  -3  186.67   36.03
   9  10  -6   -3.71   37.60
   9  10  -5  193.87   55.35
   9  10  -4   74.29   49.94
   9  10  -3 1082.29  108.00
   9  10  -2  -58.92   41.21
   9  10  -1   70.43   47.56
  -9 -10   1   50.61   23.19
   9  10   0   42.96   39.19
  -9 -10   0   71.13   24.50
   9  10   1  758.48   72.47
  -9 -10  -1  674.08   64.89
  -9 -10  -2    6.59   24.21
  -9 -10  -3   34.38   26.17
   9   9  -6  155.75   48.35
   9   9  -5 1114.67  101.07
   9   9  -3   74.03   48.34
   9   9  -2  238.11   59.16
   9   9  -1  325.86   65.28
  -9  -9   1  231.97   34.61
   9   9   0   19.47   38.96
  -9  -9   0   40.66   21.85
   9   9   1   17.31   30.67
  -9  -9  -1   23.52   22.09
  -9  -9  -2   64.66   26.18
  -9  -9  -3   52.37   25.97
  -9  -9  -4  141.56   33.72
   9   8  -7   69.37   41.14
   9   8  -6  139.98   44.61
   9   8  -5 1088.53   97.23
   9   8  -4  338.20   60.86
   9   8  -3 1244.41  109.84
   9   8  -2   13.61   46.83
   9   8  -1  478.34   72.94
  -9  -8   1  354.96   42.06
  -9  -8   0  402.47   45.81
   9   8   0  520.19   69.27
  -9  -8  -1  975.60   88.04
   9   8   1 1201.70   96.28
  -9  -8  -2    7.07   21.65
  -9  -8  -3    3.39   22.81
  -9  -8  -4   29.42   23.34
   9   7  -7   20.19   37.28
   9   7  -6   -6.77   33.70
   9   7  -5  485.58   63.58
   9   7  -4   65.94   37.91
   9   7  -3   32.70   42.34
   9   7  -2   14.51   43.20
   9   7  -1  150.42   51.71
   9   7   0  369.68   67.26
  -9  -7   0  253.13   34.24
  -9  -7  -1  137.43   26.55
   9   7   1  148.19   46.31
  -9  -7  -2   98.53   26.58
  -9  -7  -3   14.32   22.64
  -9  -7  -4  302.82   42.14
   9   6  -7  222.70   47.50
   9   6  -6   -0.38   32.17
   9   6  -5  -18.39   29.45
   9   6  -4   30.91   35.69
   9   6  -3  110.33   42.11
   9   6  -2   42.23   41.66
   9   6  -1   61.31   46.47
  -9  -6   0   43.97   20.37
   9   6   0    8.64   47.90
   9   6   1   57.71   39.52
  -9  -6  -1   54.65   20.47
  -9  -6  -2   95.39   24.45
  -9  -6  -3   67.07   24.29
  -9  -6  -4   11.28   20.98
  -9  -6  -5   53.14   29.29
   9   5  -7  681.15   69.98
   9   5  -6  153.02   39.62
   9   5  -5    4.03   26.11
   9   5  -4  -11.87   29.86
   9   5  -3  467.99   59.36
   9   5  -2   86.57   41.62
   9   5  -1  969.98   98.85
   9   5   0  412.60   72.95
  -9  -5   0  285.29   37.31
   9   5   1    3.84   41.12
  -9  -5  -1   41.80   20.66
  -9  -5  -2    8.86   18.98
  -9  -5  -3  453.58   49.31
  -9  -5  -4  382.52   46.99
  -9  -5  -5  300.44   42.74
   9   4  -7  282.45   45.67
   9   4  -6  243.61   42.72
   9   4  -5  577.72   61.44
   9   4  -4   -9.70   28.53
   9   4  -3   50.50   34.46
   9   4  -2  412.48   58.57
   9   4  -1 1481.54  125.41
  -9  -4   0    8.36   16.06
   9   4   0  -12.52   44.97
   9   4   1  576.55   76.55
  -9  -4  -2  159.55   29.28
  -9  -4  -3  146.25   31.31
  -9  -4  -4   16.51   21.43
  -9  -4  -5   17.35   24.67
   9   3  -6  672.76   65.03
   9   3  -5   38.41   28.36
   9   3  -4   -9.73   24.01
   9   3  -3   84.38   32.62
   9   3  -2 1243.06   99.86
   9   3  -1  304.37   55.25
   9   3   0  586.76   75.53
   9   3   1  607.62   77.11
  -9  -3  -2  467.90   49.18
  -9  -3  -3  177.79   33.27
  -9  -3  -4  212.83   37.05
  -9  -3  -5  370.38   47.63
   9   2  -6  130.41   33.11
   9   2  -5  -10.84   23.32
   9   2  -4  730.34   63.87
   9   2  -3   25.72   24.26
   9   2  -2  524.03   55.55
   9   2  -1  122.35   34.36
   9   2   0 1117.35   98.10
   9   2   1   62.48   41.86
  -9  -2  -1   27.80   18.76
   9   2   2  671.96   77.41
  -9  -2  -3   63.31   24.04
  -9  -2  -4   26.13   24.99
  -9  -2  -5   55.04   30.08
   9   1  -6  444.44   51.59
   9   1  -5   -2.89   21.16
   9   1  -4 1013.70   78.61
   9   1  -3  126.10   29.11
   9   1  -2  131.61   30.49
   9   1  -1  131.38   34.20
  -9  -1   0  143.20   26.61
   9   1   0  242.86   43.61
   9   1   1  364.35   55.12
   9   1   2  221.79   52.04
  -9  -1  -3   -2.10   19.54
  -9  -1  -4    8.73   24.72
  -9  -1  -5  103.10   33.24
   9   0  -6  123.72   33.06
   9   0  -5    2.99   21.54
   9   0  -4 3016.59  192.12
   9   0  -1  -15.75   32.17
   9   0   0 4971.49  327.43
  -9   0  -1   17.29   17.38
  -9   0  -2 1093.29   89.39
  -9   0  -3    9.80   20.19
  -9   0  -4  283.56   39.61
  -9   0  -5    8.53   27.56
   9  -1  -6  372.29   46.56
   9  -1  -5   -6.65   19.87
   9  -1  -3  133.99   35.27
   9  -1  -2   99.05   35.19
   9  -1  -1   91.00   37.25
   9  -1   0  135.22   41.84
   9  -1   1  318.79   57.76
  -9   1  -1  211.12   33.87
   9  -1   2  176.65   53.96
  -9   1  -2  108.72   27.07
  -9   1  -3   12.92   21.14
  -9   1  -4    5.20   24.25
  -9   1  -5   96.50   32.86
   9  -2  -8  242.41   53.12
   9  -2  -7    1.17   27.35
   9  -2  -6   59.55   27.23
   9  -2  -6   49.22   30.27
   9  -2  -5   -7.33   22.51
   9  -2  -4  970.40   81.91
   9  -2  -3   18.99   30.24
   9  -2  -2  520.62   58.00
   9  -2  -1  102.18   36.81
   9  -2   0  724.39   72.66
   9  -2   1   -9.50   35.23
  -9   2  -2  372.85   46.71
   9  -2   2  573.64   71.01
  -9   2  -3   48.86   21.74
  -9   2  -4   23.20   22.89
  -9   2  -5   47.01   27.33
   9  -3  -8   19.40   40.53
   9  -3  -7   74.49   40.43
   9  -3  -6  501.48   65.52
   9  -3  -5   58.83   31.73
   9  -3  -5   74.23   40.31
   9  -3  -4   59.65   30.64
   9  -3  -4   12.50   27.74
   9  -3  -3  132.20   36.35
   9  -3  -2 1098.11   88.51
   9  -3  -1  215.33   41.53
   9  -3   0  341.34   48.87
   9  -3   1  400.85   59.58
  -9   3  -2  493.56   54.96
   9  -3   2  674.08   80.33
  -9   3  -3  159.50   28.15
  -9   3  -4  181.71   33.13
   9  -4  -8  206.37   58.88
   9  -4  -7  265.23   57.13
   9  -4  -6  213.48   50.27
   9  -4  -5  717.96   71.42
   9  -4  -5  493.61   67.99
   9  -4  -4   67.98   34.15
   9  -4  -3   93.95   34.13
   9  -4  -2  300.06   43.96
   9  -4  -1  864.97   77.69
   9  -4   0   17.45   33.68
   9  -4   1  386.67   62.08
   9  -4   2  231.21   58.64
  -9   4  -3  118.76   27.66
   9  -5  -8   47.42   47.80
   9  -5  -7  543.77   76.89
   9  -5  -6   98.73   43.23
   9  -5  -6  135.75   51.44
   9  -5  -5    1.06   28.74
   9  -5  -5   48.78   38.80
   9  -5  -4   20.22   36.08
   9  -5  -3  336.47   50.18
   9  -5  -2   39.34   32.06
   9  -5  -1  532.09   56.63
   9  -5   0  328.81   53.66
   9  -5   1   94.05   43.47
   9  -5   2   36.34   47.13
   9  -6  -7  174.34   53.10
   9  -6  -6   24.05   31.88
   9  -6  -6   24.71   45.28
   9  -6  -5   -5.13   23.78
   9  -6  -5   54.45   43.93
   9  -6  -4   40.73   32.83
   9  -6  -3   74.73   34.18
   9  -6  -2   27.43   31.90
   9  -6  -1   50.25   34.31
   9  -6   0   70.61   34.34
   9  -6   1   68.54   43.03
  -9   6  -2   96.65   21.88
   9  -6   2  136.26   53.10
   9  -7  -7   -2.57   28.62
   9  -7  -6   -0.29   43.61
   9  -7  -6  -19.68   25.13
   9  -7  -5  502.15   66.78
   9  -7  -4   48.26   33.73
   9  -7  -3   34.71   31.26
   9  -7  -2    2.80   31.51
   9  -7  -1   95.71   37.54
   9  -7   0  227.34   47.52
   9  -7   1  132.15   46.38
   9  -7   2  119.56   49.86
  -9   7  -2   70.12   21.81
  -9   7  -3   -1.05   19.62
   9  -8  -7   30.44   25.17
   9  -8  -6  135.01   50.87
   9  -8  -6   25.90   23.78
   9  -8  -5  741.18   75.17
   9  -8  -4  134.96   42.68
   9  -8  -3  598.15   62.67
   9  -8  -2   22.62   28.96
   9  -8  -1  335.78   49.52
   9  -8   0  314.25   46.56
   9  -8   1  964.48   88.97
   9  -8   2  146.41   50.45
  -9   8  -3   -0.23   20.51
  -9   8  -4   14.02   24.95
   9  -9  -7   -0.38   21.62
   9  -9  -6   23.63   17.77
   9  -9  -5  596.88   68.30
   9  -9  -4  111.82   42.45
   9  -9  -3   15.56   34.56
   9  -9  -2  159.37   41.48
   9  -9  -1  234.02   45.52
   9  -9   0   34.54   35.50
   9  -9   1   25.07   36.33
   9  -9   2   63.96   47.76
  -9   9  -2   45.07   22.09
  -9   9  -3   53.84   24.97
  -9   9  -4  106.72   31.18
   9 -10  -6   -3.69   13.30
   9 -10  -5   71.78   39.42
   9 -10  -4   16.60   36.04
   9 -10  -3  550.43   61.05
   9 -10  -2    0.34   31.29
   9 -10  -1   50.94   33.06
   9 -10   0   39.19   38.13
   9 -10   1  547.15   66.61
   9 -10   2   19.68   46.10
  -9  10  -2   13.11   22.21
  -9  10  -3   32.57   22.87
   9 -11  -6   -7.64   10.57
   9 -11  -5  294.42   47.55
   9 -11  -4  -33.26   32.99
   9 -11  -3   39.79   35.59
   9 -11  -2   27.29   33.73
   9 -11  -1  308.73   51.90
   9 -11   0   30.64   38.00
   9 -11   1  107.11   48.24
   9 -11   2   79.02   50.66
  -9  11  -3  155.68   33.92
   9 -12  -5   17.61   33.42
   9 -12  -4  133.32   36.57
   9 -12  -3  409.68   52.88
   9 -12  -2   74.47   36.83
   9 -12  -1   -8.08   29.21
   9 -12   0  294.03   55.82
   9 -12   1  415.63   64.27
   9 -12   2   24.50   49.11
   9 -13  -4   32.81   34.97
   9 -13  -3   32.98   35.02
   9 -13  -2   98.55   36.08
   9 -13  -1   64.98   41.29
   9 -13   0   52.25   43.60
   9 -13   1    7.26   45.96
   9 -14  -2   10.47   30.18
   9 -14  -1  -12.40   36.41
   9 -14   0   45.59   43.77
  10  13  -2  -76.27   49.45
  10  13  -1  -28.97   46.26
  10  13   0   24.54   44.99
  10  12  -3   98.07   64.57
  10  12  -2   42.19   60.94
  10  12  -1   17.24   51.58
  10  12   0   15.08   41.28
 -10 -12  -1   46.59   29.38
  10  11  -4   65.59   55.75
  10  11  -3 1402.71  132.86
  10  11  -2  -80.71   45.29
  10  11  -1  437.79   82.19
 -10 -11   0   52.24   24.52
  10  11   0   61.87   50.49
 -10 -11  -1  550.25   57.18
 -10 -11  -2   19.49   25.68
  10  10  -5   66.62   50.26
  10  10  -4   -4.92   43.43
  10  10  -3  152.82   60.05
  10  10  -2  -23.39   49.49
  10  10  -1   97.97   62.02
 -10 -10   0   23.82   24.60
  10  10   0  -12.53   46.63
 -10 -10  -1   17.44   25.29
 -10 -10  -2   14.09   25.81
  10   9  -6  199.61   53.88
  10   9  -5   16.14   39.94
  10   9  -4  -12.97   41.22
  10   9  -3 1121.23  112.25
  10   9  -2  -11.22   53.76
  10   9  -1   85.69   63.80
  10   9   0  225.07   65.26
 -10  -9  -1  595.54   63.25
  10   9   1  752.41   79.12
 -10  -9  -2   -9.18   23.16
 -10  -9  -3  187.85   37.32
  10   8  -6  306.31   56.70
  10   8  -5  953.35   92.63
  10   8  -4   96.68   45.72
  10   8  -3  591.58   81.14
  10   8  -2  465.75   87.15
  10   8  -1  361.11   77.65
  10   8   0  -59.85   46.98
 -10  -8   0   12.76   18.86
  10   8   1  213.38   55.34
 -10  -8  -1  194.11   34.44
 -10  -8  -2    5.22   23.37
 -10  -8  -3   95.82   28.82
  10   7  -6   20.33   36.74
  10   7  -5   65.13   42.28
  10   7  -4   44.44   39.02
  10   7  -3  273.14   63.59
  10   7  -2  416.66   76.96
  10   7  -1   -4.08   56.09
  10   7   0  -67.04   45.64
 -10  -7   0   15.69   20.94
  10   7   1  312.73   64.01
 -10  -7  -1  205.99   33.92
 -10  -7  -2  252.89   36.53
 -10  -7  -3   14.12   22.77
  10   6  -7   59.22   37.22
  10   6  -6  629.76   70.88
  10   6  -5  271.61   51.44
  10   6  -4  117.97   41.29
  10   6  -3   62.86   46.76
  10   6  -2  342.23   73.59
  10   6  -1  361.62   80.07
 -10  -6   0  290.76   38.27
  10   6   0  414.42   81.22
  10   6   1   16.63   47.54
 -10  -6  -1   48.79   23.53
 -10  -6  -2  106.77   29.01
 -10  -6  -3   18.65   24.59
 -10  -6  -4   97.99   32.36
  10   5  -6   37.57   34.64
  10   5  -5   39.11   35.48
  10   5  -4    0.50   34.94
  10   5  -3  100.99   43.54
  10   5  -2   24.37   41.98
  10   5  -1   32.82   51.10
  10   5   0  -59.90   44.71
 -10  -5   0   16.59   18.51
 -10  -5  -1   25.53   22.20
  10   5   1  -51.08   45.77
 -10  -5  -2   55.30   25.11
 -10  -5  -3   29.13   22.59
 -10  -5  -4    6.77   23.23
  10   4  -7  632.24   69.88
  10   4  -6  141.61   40.65
  10   4  -5   58.79   32.61
  10   4  -4  -23.05   31.54
  10   4  -3  735.12   76.86
  10   4  -2  334.14   62.69
  10   4  -1  221.04   57.21
 -10  -4   0   86.18   24.28
  10   4   0  170.53   63.16
 -10  -4  -1   15.67   21.34
  10   4   1  -44.10   49.98
 -10  -4  -2   24.91   22.80
 -10  -4  -3   -6.23   20.90
 -10  -4  -4   71.78   28.89
  10   3  -7  135.97   38.86
  10   3  -6  386.07   54.88
  10   3  -5  -17.67   28.47
  10   3  -4  229.80   42.48
  10   3  -3  100.93   35.52
  10   3  -2 1484.83  118.63
  10   3  -1  119.31   42.83
 -10  -3   0    5.47   19.80
  10   3   0  -26.47   40.22
  10   3   1  492.46   76.81
 -10  -3  -2  810.72   72.89
 -10  -3  -3   85.64   29.67
 -10  -3  -4   45.44   26.73
  10   2  -7  137.68   39.66
  10   2  -6   15.27   31.51
  10   2  -5  261.02   44.34
  10   2  -4  314.83   46.74
  10   2  -3   58.49   30.22
  10   2  -2   46.47   30.53
  10   2  -1  453.59   61.12
  10   2   0  431.42   67.33
  10   2   1  371.95   67.81
 -10  -2  -2  109.09   27.26
 -10  -2  -3   13.42   24.23
 -10  -2  -4  194.20   39.42
 -10  -2  -5  130.41   34.96
  10   1  -7  -17.83   33.21
  10   1  -6  -10.24   28.77
  10   1  -5   17.26   27.32
  10   1  -4  504.07   53.23
  10   1  -3  151.22   33.21
  10   1  -2 1076.64   85.80
  10   1  -1  282.59   47.66
  10   1   0  612.76   69.37
  10   1   1  197.70   52.72
 -10  -1  -1   76.57   27.03
 -10  -1  -2 1096.44   91.40
 -10  -1  -3  200.35   36.41
 -10  -1  -4    9.53   24.04
 -10  -1  -5   -9.68   27.72
  10   0  -7  -19.23   32.37
  10   0  -6    3.99   28.57
  10   0  -5   12.89   24.71
  10   0  -4 1487.51  105.66
  10   0  -3   28.30   22.69
 -10   0  -1   -0.80   21.44
 -10   0  -2   20.78   20.65
 -10   0  -3    8.20   23.75
 -10   0  -4  265.15   41.99
 -10   0  -5  -10.27   28.45
  10  -1  -6    8.32   28.78
  10  -1  -5   36.42   26.00
  10  -1  -2 1190.13   98.83
  10  -1  -1  284.66   53.26
  10  -1   0  556.49   65.76
  10  -1   1  198.32   54.21
 -10   1  -2 1099.74   91.77
 -10   1  -3  151.76   33.01
 -10   1  -4   10.26   22.63
 -10   1  -5    5.16   27.86
  10  -2  -6   36.67   31.16
  10  -2  -4  370.05   50.99
  10  -2  -3   66.51   35.69
  10  -2  -2   22.89   33.09
  10  -2  -1  334.12   49.00
  10  -2   0  317.09   57.30
  10  -2   1  206.58   56.58
 -10   2  -2  147.09   31.45
 -10   2  -4  171.55   35.98
  10  -3  -4  292.95   52.14
  10  -3  -3  134.58   36.67
  10  -3  -2 1191.11   97.57
  10  -3  -1   71.26   38.08
  10  -3   0   18.44   32.44
  10  -3   1  364.30   65.42
  10  -3   2 1152.13  110.41
 -10   3  -3   90.52   27.97
 -10   3  -4   35.93   25.87
  10  -4  -5  100.00   45.70
  10  -4  -4   27.72   37.02
  10  -4  -3  673.10   68.04
  10  -4  -2  215.08   45.82
  10  -4  -1  136.24   42.53
  10  -4   0  100.93   41.35
  10  -4   1   45.35   45.66
  10  -4   2   74.54   50.50
 -10   4  -3   12.06   21.75
  10  -5  -7  388.94   67.72
  10  -5  -6   29.22   35.25
  10  -5  -6  104.48   51.99
  10  -5  -5   22.94   29.82
  10  -5  -5  100.70   46.41
  10  -5  -4   28.16   35.74
  10  -5  -3  132.73   42.00
  10  -5  -2   31.77   31.24
  10  -5  -1   62.23   37.42
  10  -5   0   22.17   37.74
  10  -5   1   50.16   44.90
  10  -5   2   80.98   53.14
  10  -6  -7   51.75   40.63
  10  -6  -6  719.31   80.05
  10  -6  -6  415.56   64.57
  10  -6  -5  357.79   62.65
  10  -6  -4  134.79   43.57
  10  -6  -3   43.63   37.95
  10  -6  -2  212.80   42.52
  10  -6  -1  216.91   44.47
  10  -6   0  333.68   56.68
  10  -6   1   52.09   44.58
  10  -6   2  212.07   61.23
  10  -7  -7   45.91   29.30
  10  -7  -6   12.22   47.47
  10  -7  -6    1.01   24.70
  10  -7  -5  115.32   50.03
  10  -7  -5   27.39   21.09
  10  -7  -4   16.57   37.60
  10  -7  -3  183.82   45.06
  10  -7  -2  221.17   43.45
  10  -7  -1   63.20   35.02
  10  -7   0   10.05   36.46
  10  -7   1  253.37   56.92
  10  -7   2  409.98   74.64
  10  -8  -6  221.65   59.32
  10  -8  -5  630.67   72.76
  10  -8  -4   76.63   42.22
  10  -8  -3  398.73   51.38
  10  -8  -2  244.13   47.29
  10  -8  -1  286.89   51.60
  10  -8   0   20.56   38.13
  10  -8   1  181.47   52.60
  10  -8   2   57.41   52.40
  10  -9  -6   14.58   14.58
  10  -9  -5   10.14   41.69
  10  -9  -4    9.99   35.86
  10  -9  -3  478.24   58.96
  10  -9  -2   16.19   29.42
  10  -9  -1   63.22   35.03
  10  -9   0   49.63   41.90
  10  -9   1  562.22   73.51
  10  -9   2   33.18   57.37
  10 -10  -5   38.22   39.94
  10 -10  -4   30.39   36.69
  10 -10  -3   39.09   38.36
  10 -10  -2   33.58   31.81
  10 -10  -1  100.88   38.32
  10 -10   0   37.76   41.52
  10 -10   1   28.24   48.00
  10 -10   2   83.98   54.20
  10 -11  -4   -0.93   36.33
  10 -11  -3  609.21   63.16
  10 -11  -2   -4.30   34.29
  10 -11  -1  315.86   55.14
  10 -11   0   99.97   42.61
  10 -11   1  508.31   71.74
  10 -11   2  -21.75   54.76
  10 -12  -3  120.28   42.45
  10 -12  -2   47.43   38.63
  10 -12  -1   52.28   40.53
  10 -12   0   32.73   44.63
  10 -12   1   51.47   49.88
  11  11  -3   16.48   60.56
  11  11  -2  -50.39   62.27
  11  11  -1  -16.92   60.40
  11  11   0  -96.20   48.32
  11  10  -4  -11.18   50.43
  11  10  -3  749.60  108.49
  11  10  -2  -16.16   60.44
  11  10  -1  333.27   88.26
 -11 -10   0   22.02   23.39
  11  10   0  -37.62   52.60
 -11 -10  -1  112.89   32.68
  11   9  -4  -16.50   51.26
  11   9  -3  294.53   80.77
  11   9  -2  -64.59   51.26
  11   9  -1  -96.25   54.87
  11   9   0  -87.60   55.86
 -11  -9   0    4.25   21.79
 -11  -9  -1   89.49   29.67
  11   8  -5   23.14   45.58
  11   8  -4   30.36   51.77
  11   8  -3   48.14   60.95
  11   8  -2  -70.00   50.06
 -11  -8   0  126.22   28.08
  11   8   0   46.82   67.88
 -11  -8  -1   33.37   26.34
 -11  -8  -2  -16.59   23.74
  11   7  -6  679.68   78.29
  11   7  -5  523.03   72.90
  11   7  -4  438.93   72.67
  11   7  -3  125.22   60.38
  11   7  -2  821.13  108.18
  11   7  -1  483.79  100.73
  11   7   0  642.95  104.02
 -11  -7   0  417.76   52.70
 -11  -7  -1  215.02   34.31
 -11  -7  -2    6.21   22.82
  11   6  -6   87.43   44.36
  11   6  -5   15.80   39.95
  11   6  -4    4.04   44.37
  11   6  -3  291.01   63.69
  11   6  -2   22.11   58.35
  11   6  -1    5.90   60.02
 -11  -6   0   82.91   25.46
 -11  -6  -1  121.61   31.33
  11   6   1  172.84   66.10
 -11  -6  -2   62.39   27.94
 -11  -6  -3    7.00   23.23
  11   5  -6  559.21   69.04
  11   5  -5  309.75   56.18
  11   5  -4  448.49   66.40
  11   5  -3    7.65   39.57
  11   5  -2  542.12   86.51
  11   5  -1  515.01   94.27
  11   5   0  824.08  113.56
 -11  -5  -1   17.63   21.58
  11   5   1  -45.37   51.57
 -11  -5  -2   10.37   24.01
 -11  -5  -3   15.65   26.14
  11   4  -6  163.81   45.12
  11   4  -5  -11.09   35.02
  11   4  -3  327.65   59.90
  11   4  -2  478.31   74.37
  11   4  -1   75.79   54.60
  11   4   0   57.68   61.31
  11   4   1  250.96   78.95
 -11  -4  -1  141.67   31.40
 -11  -4  -2  133.04   32.30
 -11  -4  -3   58.15   29.40
  11   3  -7   56.51   39.82
  11   3  -6  -24.09   33.14
  11   3  -5  555.36   62.51
  11   3  -4  120.19   40.72
  11   3  -3   67.11   37.40
  11   3  -2   27.22   40.59
  11   3  -1 1256.16  117.12
  11   3   0   60.93   55.58
  11   3   1  116.44   63.00
 -11  -3  -1   37.59   26.00
 -11  -3  -2   14.36   24.98
 -11  -3  -3    7.54   25.85
  11   2  -7    3.29   37.49
  11   2  -6  141.72   42.77
  11   2  -5   93.88   34.48
  11   2  -4  241.62   45.36
  11   2  -3  108.42   37.13
  11   2  -2  878.98   81.76
  11   2  -1  320.32   57.96
  11   2   0  158.42   55.67
  11   2   1   58.06   51.95
 -11  -2  -1   16.92   22.71
 -11  -2  -2  483.92   52.10
 -11  -2  -3  211.26   36.61
 -11  -2  -4  166.34   36.81
  11   1  -7   49.46   39.20
  11   1  -6    5.55   33.43
  11   1  -5  405.20   54.11
  11   1  -4  176.99   39.13
  11   1  -3   20.49   23.49
  11   1  -2  156.71   38.29
  11   1  -1  437.06   58.70
  11   1   0  331.16   59.50
  11   1   1  128.53   51.06
 -11  -1  -1   45.96   26.85
 -11  -1  -2   48.10   27.08
 -11  -1  -3   36.25   28.10
 -11  -1  -4  202.50   41.20
  11   0  -7  -18.32   35.59
  11   0  -6  -10.89   31.11
  11   0  -5    4.51   29.89
  11   0  -4   30.45   27.19
  11   0  -3    6.36   21.79
  11   0  -2  389.90   49.59
  11   0  -1   21.60   26.90
  11   0   0  499.66   64.00
  11   0   1   62.12   40.95
 -11   0  -2  419.21   50.14
 -11   0  -3    5.56   25.68
 -11   0  -4  166.75   38.30
  11  -1  -7   44.16   40.07
  11  -1  -6  -13.29   31.79
  11  -1  -5  381.97   50.54
  11  -1  -4  160.61   35.00
 -11   1  -3   23.99   27.18
 -11   1  -4  177.75   39.04
  11  -2  -7   -5.11   40.60
  11  -2  -6  106.58   38.05
  11  -2  -5   76.89   30.29
  11  -2  -3   76.02   39.23
  11  -2  -2  780.32   77.86
  11  -2  -1  256.80   53.71
  11  -2   0  125.55   47.82
  11  -2   1   67.89   48.59
 -11   2  -3  209.47   38.42
 -11   2  -4  142.07   36.32
  11  -3  -6    9.31   33.29
  11  -3  -4   64.88   40.36
  11  -3  -3   90.92   39.98
  11  -3  -2   77.26   38.38
  11  -3  -1  745.63   76.98
  11  -3   0   36.01   38.98
  11  -3   1  162.54   55.29
 -11   3  -3    5.71   26.28
  11  -4  -5  113.99   48.93
  11  -4  -4  211.23   49.21
  11  -4  -3  327.28   53.84
  11  -4  -2  367.04   51.69
  11  -4  -1   49.01   39.40
  11  -4   0   55.79   42.08
  11  -4   1  303.29   65.26
  11  -5  -5  325.40   61.62
  11  -5  -4  408.83   55.63
  11  -5  -3   34.26   32.28
  11  -5  -2  325.12   55.12
  11  -5  -1  274.38   52.99
  11  -5   0  509.80   66.81
  11  -5   1   94.69   48.97
  11  -6  -6  211.06   59.55
  11  -6  -5   48.44   37.68
  11  -6  -4   56.11   39.79
  11  -6  -3  229.72   46.38
  11  -6  -2   73.03   38.46
  11  -6  -1   61.21   39.10
  11  -6   0   95.61   46.31
  11  -6   1  211.67   57.85
  11  -7  -5  413.05   62.66
  11  -7  -4  324.98   57.44
  11  -7  -3  119.84   43.53
  11  -7  -2  416.70   53.50
  11  -7  -1  299.88   54.62
  11  -7   0  464.41   64.32
  11  -7   1  320.14   65.34
  11  -8  -5   58.20   44.99
  11  -8  -4   70.93   37.42
  11  -8  -3   84.55   36.37
  11  -8  -2   12.79   35.19
  11  -8  -1  147.58   45.38
  11  -8   0  152.24   48.18
  11  -8   1   66.36   48.23
  11  -8   2  134.74   60.18
  11  -9  -4   21.08   39.11
  11  -9  -3  113.53   42.52
  11  -9  -2    3.33   34.04
  11  -9  -1   26.51   38.55
  11  -9   0   26.46   42.55
  11  -9   1  120.70   55.79
  11 -10  -3  312.69   54.31
  11 -10  -2   41.26   37.21
  11 -10  -1  303.95   56.08
  11 -10   0    3.93   41.61
  11 -10   1  164.93   56.94
  11 -11  -1   67.46   42.77
  12   9  -3  112.48   69.82
  12   9  -2  -73.15   65.60
  12   9  -1  130.86   86.60
  12   9   0  -48.19   68.77
  12   8  -3  -78.41   61.35
  12   8  -2  -12.13   65.74
  12   8   0  199.03   88.68
  12   7  -4   97.48   57.88
  12   7  -3  -15.51   55.76
  12   7  -2   29.78   63.87
  12   7  -1  257.85   96.92
  12   7   0  142.28   89.70
 -12  -7  -1   15.23   26.70
  12   6  -5  201.81   55.58
  12   6  -4  523.51   78.47
  12   6  -3  376.23   78.40
  12   6  -2  102.70   63.66
  12   6  -1  169.92   83.62
  12   6   0 1226.36  143.89
 -12  -6  -1  219.09   36.60
  12   5  -5   36.19   43.69
  12   5  -4   52.88   46.59
  12   5  -3  147.94   59.64
  12   5  -2  112.13   62.03
  12   5  -1   27.54   68.05
  12   5   0  -58.29   66.46
 -12  -5  -1  267.40   41.58
  12   4  -5  304.01   58.48
  12   4  -4  421.58   63.49
  12   4  -3 1048.35  103.63
  12   4  -2    8.79   47.47
  12   4   0  492.77   97.85
 -12  -4  -1  406.68   49.62
 -12  -4  -2   56.34   27.19
  12   3  -6   86.44   46.38
  12   3  -5  196.88   50.80
  12   3  -4  200.74   46.12
  12   3  -3    2.76   38.33
  12   3  -2  439.87   71.30
  12   3  -1   64.86   52.83
  12   3   0   42.54   56.98
 -12  -3  -1  155.06   33.40
 -12  -3  -2  129.29   34.98
  12   2  -6  -28.42   33.62
  12   2  -5  337.38   55.71
  12   2  -4   85.22   39.81
  12   2  -3   97.86   41.03
  12   2  -2   41.73   39.94
  12   2  -1  669.20   84.10
  12   2   0   52.75   54.09
  12   2   1  426.90   81.70
 -12  -2  -2   26.93   28.31
  12   1  -6  262.70   53.10
  12   1  -5  133.22   42.06
  12   1  -4   66.11   34.59
  12   1  -3   55.96   33.91
  12   1  -2  397.40   56.66
  12   1  -1   78.90   43.09
  12   1   0  431.88   71.13
  12   1   1   71.38   50.07
 -12  -1  -2   28.32   28.84
  12   0  -6   63.00   39.79
  12   0  -5  -12.61   31.66
  12   0  -4   32.27   27.30
  12   0  -3   28.89   26.88
  12   0  -2  154.17   39.08
  12   0  -1   54.76   36.80
  12   0   0   72.70   40.91
  12   0   1   46.74   46.47
 -12   0  -2   -0.07   24.50
  12  -1  -6  203.12   48.78
  12  -1  -5  123.27   38.15
  12  -1  -4   82.15   32.43
  12  -1  -3   55.90   30.02
  12  -1   1   58.36   44.31
  12  -2  -6   -2.77   35.59
  12  -2  -5  266.80   45.96
  12  -2  -1  489.38   68.45
  12  -2   0   31.95   48.46
  12  -3  -6   67.46   39.69
  12  -3  -3   61.63   40.44
  12  -3  -2  362.43   57.89
  12  -3  -1   97.66   45.70
  12  -3   0   69.63   48.55
  12  -3   1  358.25   73.96
  12  -4  -4  399.45   60.72
  12  -4  -3  642.22   70.10
  12  -4  -2   59.57   40.08
  12  -4  -1  184.86   51.63
  12  -4   0  387.30   69.71
  12  -4   1  625.88   85.92
  12  -5  -5  121.66   49.80
  12  -5  -4  100.03   40.70
  12  -5  -3  168.67   45.58
  12  -5  -2  105.61   42.69
  12  -5  -1   48.14   40.78
  12  -5   0   80.08   47.73
  12  -5   1  502.20   79.48
  12  -6  -4  424.61   60.52
  12  -6  -3  181.52   47.31
  12  -6  -2   98.62   42.11
  12  -6  -1  124.41   46.24
  12  -6   0  671.93   80.49
  12  -7  -4  192.11   51.71
  12  -7  -3   28.44   33.41
  12  -7  -2   52.94   39.03
  12  -7  -1  202.34   51.71
  12  -7   0   63.45   45.06
  12  -7   1   60.35   52.54
  12  -8  -3   38.24   38.38
  12  -8  -2   57.82   39.45
  12  -8  -1   66.21   41.68
  12  -8   0  208.59   56.40
  13   6  -2   63.57   69.47
  13   6  -1   99.03   83.36
  13   5  -3  649.77   92.85
  13   5  -2  163.60   69.02
  13   5  -1   71.75   74.45
  13   5   0  151.48   83.84
  13   4  -3  100.18   57.20
  13   4  -2   76.21   56.61
  13   4   0   -3.09   69.19
  13   3  -4  415.75   67.76
  13   3  -3  368.88   66.21
  13   3  -2  101.92   56.74
  13   3  -1  110.44   65.22
  13   3   0  432.23   90.85
  13   2  -4   36.59   38.59
  13   2  -3    2.61   38.86
  13   2  -2  354.48   66.28
  13   2  -1  211.92   62.63
  13   2   0   67.86   58.54
  13   1  -4   58.87   38.40
  13   1  -3   38.65   37.00
  13   1  -2  248.56   52.93
  13   1  -1   74.25   45.32
  13   1   0  148.42   58.17
  13   0  -4   50.35   33.79
  13   0  -3   32.23   29.11
  13   0  -2  922.37   84.40
  13   0  -1   66.13   38.66
  13   0   0  341.81   64.93
  13  -1  -4  349.81   51.17
  13  -1  -3   36.21   30.28
  13  -1  -2  205.49   44.78
  13  -1  -1   65.57   38.44
  13  -1   0  124.45   46.43
  13  -2  -4   62.98   31.36
  13  -3  -2  134.28   48.53
  13  -3  -1   92.72   48.54
  13  -3   0  405.27   76.61
  13  -4  -3  159.89   47.89
  13  -4  -2  118.41   47.24
  13  -4  -1   87.06   46.44
  13  -4   0  142.80   55.79
  13  -5  -2  140.13   47.69
  13  -5  -1   66.17   40.15
   0   0   0    0.00    0.00

_computing_structure_solution     'SHELXT 2014/5 (Sheldrick, 2014)'
;
_shelx_hkl_checksum              40202
_shelx_fab_file
;
    0    0    2      0.00      0.00
    0    0    4      0.00      0.00
    0    0    6      0.00      0.00
    0    0    8      0.00      0.00
    0    1    9      0.00      0.00
    0    1    8      0.00      0.00
    0    1    7      0.00      0.00
    0    1    6      0.00      0.00
    0    1    5      0.00      0.00
    0    1    4      0.00      0.00
    0    1    3      0.00      0.00
    0    1    2      0.00      0.00
    0    1    1      0.00      0.00
    0    2    9      0.00      0.00
    0    2    8      0.00      0.00
    0    2    7      0.00      0.00
    0    2    6      0.00      0.00
    0    2    5      0.00      0.00
    0    2    4      0.00      0.00
    0    2    3      0.00      0.00
    0    2    2      0.00      0.00
    0    2    0      0.00      0.00
    0    2    1      0.00      0.00
    0    3    9      0.00      0.00
    0    3    8      0.00      0.00
    0    3    7      0.00      0.00
    0    3    6      0.00      0.00
    0    3    5      0.00      0.00
    0    3    4      0.00      0.00
    0    3    2      0.00      0.00
    0    3    1      0.00      0.00
    0    3    3      0.00      0.00
    0    4    9      0.00      0.00
    0    4    8      0.00      0.00
    0    4    7      0.00      0.00
    0    4    6      0.00      0.00
    0    4    5      0.00      0.00
    0    4    4      0.00      0.00
    0    4    3      0.00      0.00
    0    4    2      0.00      0.00
    0    4    1      0.00      0.00
    0    4    0      0.00      0.00
    0    5    9      0.00      0.00
    0    5    8      0.00      0.00
    0    5    7      0.00      0.00
    0    5    6      0.00      0.00
    0    5    5      0.00      0.00
    0    5    4      0.00      0.00
    0    5    3      0.00      0.00
    0    5    2      0.00      0.00
    0    5    1      0.00      0.00
    0    6    8      0.00      0.00
    0    6    7      0.00      0.00
    0    6    6      0.00      0.00
    0    6    5      0.00      0.00
    0    6    4      0.00      0.00
    0    6    3      0.00      0.00
    0    6    2      0.00      0.00
    0    6    1      0.00      0.00
    0    6    0      0.00      0.00
    0    7    8      0.00      0.00
    0    7    7      0.00      0.00
    0    7    6      0.00      0.00
    0    7    5      0.00      0.00
    0    7    4      0.00      0.00
    0    7    3      0.00      0.00
    0    7    2      0.00      0.00
    0    7    1      0.00      0.00
    0    8    8      0.00      0.00
    0    8    7      0.00      0.00
    0    8    6      0.00      0.00
    0    8    5      0.00      0.00
    0    8    4      0.00      0.00
    0    8    3      0.00      0.00
    0    8    2      0.00      0.00
    0    8    1      0.00      0.00
    0    8    0      0.00      0.00
    0    9    8      0.00      0.00
    0    9    7      0.00      0.00
    0    9    6      0.00      0.00
    0    9    5      0.00      0.00
    0    9    4      0.00      0.00
    0    9    3      0.00      0.00
    0    9    2      0.00      0.00
    0    9    1      0.00      0.00
    0   10    8      0.00      0.00
    0   10    7      0.00      0.00
    0   10    6      0.00      0.00
    0   10    5      0.00      0.00
    0   10    4      0.00      0.00
    0   10    3      0.00      0.00
    0   10    2      0.00      0.00
    0   10    1      0.00      0.00
    0   10    0      0.00      0.00
    0   11    7      0.00      0.00
    0   11    6      0.00      0.00
    0   11    5      0.00      0.00
    0   11    4      0.00      0.00
    0   11    3      0.00      0.00
    0   11    2      0.00      0.00
    0   11    1      0.00      0.00
    0   12    7      0.00      0.00
    0   12    6      0.00      0.00
    0   12    5      0.00      0.00
    0   12    4      0.00      0.00
    0   12    3      0.00      0.00
    0   12    2      0.00      0.00
    0   12    1      0.00      0.00
    0   12    0      0.00      0.00
    0   13    5      0.00      0.00
    0   13    3      0.00      0.00
    0   13    2      0.00      0.00
    0   13    1      0.00      0.00
    0   13    4      0.00      0.00
    0   13    6      0.00      0.00
    0   14    6      0.00      0.00
    0   14    5      0.00      0.00
    0   14    2      0.00      0.00
    0   14    1      0.00      0.00
    0   14    0      0.00      0.00
    0   14    3      0.00      0.00
    0   14    4      0.00      0.00
    0   15    2      0.00      0.00
    0   15    1      0.00      0.00
    0   15    3      0.00      0.00
    0   15    4      0.00      0.00
    0   15    5      0.00      0.00
    0   16    2      0.00      0.00
    0   16    1      0.00      0.00
    0   16    0      0.00      0.00
    0   16    3      0.00      0.00
    0   16    4      0.00      0.00
    0   16    5      0.00      0.00
    0   17    2      0.00      0.00
    0   17    1      0.00      0.00
    0   17    3      0.00      0.00
    0   17    4      0.00      0.00
    0   18    2      0.00      0.00
    0   18    1      0.00      0.00
    0   18    0      0.00      0.00
    0   18    3      0.00      0.00
    1   19    0      0.00      0.00
    1   19    1      0.00      0.00
   -1   18    3      0.00      0.00
   -1   18    2      0.00      0.00
   -1   18    1      0.00      0.00
    1   18    0      0.00      0.00
    1   18    1      0.00      0.00
   -1   17    4      0.00      0.00
   -1   17    3      0.00      0.00
   -1   17    2      0.00      0.00
   -1   17    1      0.00      0.00
    1   17    0      0.00      0.00
    1   17    1      0.00      0.00
    1   17    2      0.00      0.00
   -1   16    5      0.00      0.00
   -1   16    4      0.00      0.00
   -1   16    3      0.00      0.00
   -1   16    2      0.00      0.00
   -1   16    1      0.00      0.00
    1   16    0      0.00      0.00
    1   16    1      0.00      0.00
   -1   15    5      0.00      0.00
   -1   15    4      0.00      0.00
   -1   15    3      0.00      0.00
   -1   15    2      0.00      0.00
   -1   15    1      0.00      0.00
    1   15    0      0.00      0.00
    1   15    1      0.00      0.00
    1   15    2      0.00      0.00
   -1   14    6      0.00      0.00
   -1   14    5      0.00      0.00
   -1   14    4      0.00      0.00
   -1   14    3      0.00      0.00
   -1   14    2      0.00      0.00
   -1   14    1      0.00      0.00
    1   14    0      0.00      0.00
    1   14    1      0.00      0.00
    1   14    2      0.00      0.00
    1   14    3      0.00      0.00
   -1   13    7      0.00      0.00
   -1   13    6      0.00      0.00
   -1   13    5      0.00      0.00
   -1   13    4      0.00      0.00
   -1   13    3      0.00      0.00
   -1   13    2      0.00      0.00
   -1   13    1      0.00      0.00
    1   13    0      0.00      0.00
    1   13    1      0.00      0.00
    1   13    2      0.00      0.00
    1   13    3      0.00      0.00
    1   13    4      0.00      0.00
   -1   12    6      0.00      0.00
   -1   12    5      0.00      0.00
   -1   12    4      0.00      0.00
   -1   12    3      0.00      0.00
   -1   12    2      0.00      0.00
   -1   12    1      0.00      0.00
    1   12    0      0.00      0.00
    1   12    1      0.00      0.00
    1   12    2      0.00      0.00
    1   12    3      0.00      0.00
    1   12    4      0.00      0.00
    1   12    5      0.00      0.00
    1   12    6      0.00      0.00
   -1   11    7      0.00      0.00
   -1   11    6      0.00      0.00
   -1   11    5      0.00      0.00
   -1   11    4      0.00      0.00
   -1   11    3      0.00      0.00
   -1   11    2      0.00      0.00
   -1   11    1      0.00      0.00
    1   11    0      0.00      0.00
    1   11    1      0.00      0.00
    1   11    2      0.00      0.00
    1   11    3      0.00      0.00
    1   11    4      0.00      0.00
    1   11    5      0.00      0.00
    1   11    6      0.00      0.00
   -1   10    8      0.00      0.00
   -1   10    7      0.00      0.00
   -1   10    6      0.00      0.00
   -1   10    5      0.00      0.00
   -1   10    4      0.00      0.00
   -1   10    3      0.00      0.00
   -1   10    2      0.00      0.00
   -1   10    1      0.00      0.00
    1   10    0      0.00      0.00
    1   10    1      0.00      0.00
    1   10    2      0.00      0.00
    1   10    3      0.00      0.00
    1   10    4      0.00      0.00
    1   10    5      0.00      0.00
    1   10    6      0.00      0.00
   -1    9    8      0.00      0.00
   -1    9    7      0.00      0.00
   -1    9    6      0.00      0.00
   -1    9    5      0.00      0.00
   -1    9    4      0.00      0.00
   -1    9    3      0.00      0.00
   -1    9    2      0.00      0.00
   -1    9    1      0.00      0.00
    1    9    0      0.00      0.00
    1    9    1      0.00      0.00
    1    9    2      0.00      0.00
    1    9    3      0.00      0.00
    1    9    4      0.00      0.00
    1    9    5      0.00      0.00
    1    9    6      0.00      0.00
    1    9    7      0.00      0.00
    1    9    8      0.00      0.00
   -1    8    8      0.00      0.00
   -1    8    7      0.00      0.00
   -1    8    6      0.00      0.00
   -1    8    5      0.00      0.00
   -1    8    4      0.00      0.00
   -1    8    3      0.00      0.00
   -1    8    2      0.00      0.00
   -1    8    1      0.00      0.00
    1    8    0      0.00      0.00
    1    8    1      0.00      0.00
    1    8    2      0.00      0.00
    1    8    4      0.00      0.00
    1    8    5      0.00      0.00
    1    8    6      0.00      0.00
    1    8    7      0.00      0.00
    1    8    8      0.00      0.00
   -1    7    8      0.00      0.00
   -1    7    7      0.00      0.00
   -1    7    6      0.00      0.00
   -1    7    5      0.00      0.00
   -1    7    4      0.00      0.00
   -1    7    3      0.00      0.00
   -1    7    2      0.00      0.00
   -1    7    1      0.00      0.00
    1    7    0      0.00      0.00
    1    7    1      0.00      0.00
    1    7    2      0.00      0.00
    1    7    4      0.00      0.00
    1    7    5      0.00      0.00
    1    7    6      0.00      0.00
    1    7    7      0.00      0.00
    1    7    8      0.00      0.00
   -1    6    9      0.00      0.00
   -1    6    8      0.00      0.00
   -1    6    7      0.00      0.00
   -1    6    6      0.00      0.00
   -1    6    5      0.00      0.00
   -1    6    4      0.00      0.00
   -1    6    3      0.00      0.00
   -1    6    2      0.00      0.00
   -1    6    1      0.00      0.00
    1    6    0      0.00      0.00
    1    6    1      0.00      0.00
    1    6    2      0.00      0.00
    1    6    3      0.00      0.00
    1    6    4      0.00      0.00
    1    6    5      0.00      0.00
    1    6    6      0.00      0.00
    1    6    7      0.00      0.00
    1    6    8      0.00      0.00
   -1    5    9      0.00      0.00
   -1    5    8      0.00      0.00
   -1    5    7      0.00      0.00
   -1    5    6      0.00      0.00
   -1    5    5      0.00      0.00
   -1    5    4      0.00      0.00
   -1    5    3      0.00      0.00
   -1    5    2      0.00      0.00
   -1    5    1      0.00      0.00
    1    5    0      0.00      0.00
    1    5    1      0.00      0.00
    1    5    3      0.00      0.00
    1    5    4      0.00      0.00
    1    5    5      0.00      0.00
    1    5    6      0.00      0.00
    1    5    7      0.00      0.00
    1    5    8      0.00      0.00
   -1    4    9      0.00      0.00
   -1    4    8      0.00      0.00
   -1    4    7      0.00      0.00
   -1    4    6      0.00      0.00
   -1    4    5      0.00      0.00
   -1    4    4      0.00      0.00
   -1    4    3      0.00      0.00
   -1    4    2      0.00      0.00
   -1    4    1      0.00      0.00
    1    4    0      0.00      0.00
    1    4    1      0.00      0.00
    1    4    2      0.00      0.00
    1    4    3      0.00      0.00
    1    4    4      0.00      0.00
    1    4    5      0.00      0.00
    1    4    6      0.00      0.00
    1    4    7      0.00      0.00
    1    4    8      0.00      0.00
    1    4    9      0.00      0.00
   -1    3    9      0.00      0.00
   -1    3    8      0.00      0.00
   -1    3    7      0.00      0.00
   -1    3    6      0.00      0.00
   -1    3    5      0.00      0.00
   -1    3    4      0.00      0.00
   -1    3    3      0.00      0.00
   -1    3    2      0.00      0.00
   -1    3    1      0.00      0.00
    1    3    0      0.00      0.00
    1    3    1      0.00      0.00
    1    3    3      0.00      0.00
    1    3    4      0.00      0.00
    1    3    5      0.00      0.00
    1    3    6      0.00      0.00
    1    3    7      0.00      0.00
    1    3    8      0.00      0.00
    1    3    9      0.00      0.00
   -1    2    9      0.00      0.00
   -1    2    8      0.00      0.00
   -1    2    7      0.00      0.00
   -1    2    6      0.00      0.00
   -1    2    5      0.00      0.00
   -1    2    4      0.00      0.00
   -1    2    3      0.00      0.00
   -1    2    2      0.00      0.00
   -1    2    1      0.00      0.00
    1    2    0      0.00      0.00
    1    2    3      0.00      0.00
    1    2    4      0.00      0.00
    1    2    5      0.00      0.00
    1    2    6      0.00      0.00
    1    2    7      0.00      0.00
    1    2    8      0.00      0.00
    1    2    9      0.00      0.00
   -1    1    9      0.00      0.00
   -1    1    8      0.00      0.00
   -1    1    7      0.00      0.00
   -1    1    6      0.00      0.00
   -1    1    5      0.00      0.00
   -1    1    4      0.00      0.00
   -1    1    3      0.00      0.00
   -1    1    2      0.00      0.00
   -1    1    1      0.00      0.00
    1    1    0      0.00      0.00
    1    1    1      0.00      0.00
    1    1    2      0.00      0.00
    1    1    3      0.00      0.00
    1    1    4      0.00      0.00
    1    1    5      0.00      0.00
    1    1    6      0.00      0.00
    1    1    7      0.00      0.00
    1    1    8      0.00      0.00
    1    1    9      0.00      0.00
   -1    0    8      0.00      0.00
   -1    0    6      0.00      0.00
   -1    0    4      0.00      0.00
   -1    0    2      0.00      0.00
    1    0    0      0.00      0.00
    1    0    2      0.00      0.00
    1    0    4      0.00      0.00
    1    0    6      0.00      0.00
    1    0    8      0.00      0.00
    1    2    1      0.00      0.00
    1    2    2      0.00      0.00
    1    3    2      0.00      0.00
    1    5    2      0.00      0.00
    1    7    3      0.00      0.00
    1    8    3      0.00      0.00
    1   10    7      0.00      0.00
    1   11    7      0.00      0.00
   -1   12    7      0.00      0.00
    1   12    7      0.00      0.00
    1   13    5      0.00      0.00
    1   13    6      0.00      0.00
    1   14    4      0.00      0.00
    1   14    5      0.00      0.00
    1   14    6      0.00      0.00
    1   15    3      0.00      0.00
    1   15    4      0.00      0.00
    1   15    5      0.00      0.00
    1   16    2      0.00      0.00
    1   16    3      0.00      0.00
    1   16    4      0.00      0.00
    1   17    3      0.00      0.00
    1   17    4      0.00      0.00
    1   18    2      0.00      0.00
    2   19    0      0.00      0.00
   -2   18    2      0.00      0.00
   -2   18    1      0.00      0.00
    2   18    0      0.00      0.00
    2   18    2      0.00      0.00
   -2   17    4      0.00      0.00
   -2   17    3      0.00      0.00
   -2   17    2      0.00      0.00
   -2   17    1      0.00      0.00
    2   17    0      0.00      0.00
    2   17    2      0.00      0.00
   -2   16    5      0.00      0.00
   -2   16    4      0.00      0.00
   -2   16    3      0.00      0.00
   -2   16    2      0.00      0.00
   -2   16    1      0.00      0.00
    2   16    0      0.00      0.00
    2   16    1      0.00      0.00
    2   16    2      0.00      0.00
   -2   15    5      0.00      0.00
   -2   15    4      0.00      0.00
   -2   15    3      0.00      0.00
   -2   15    2      0.00      0.00
   -2   15    1      0.00      0.00
    2   15    0      0.00      0.00
    2   15    1      0.00      0.00
    2   15    2      0.00      0.00
    2   15    5      0.00      0.00
   -2   14    6      0.00      0.00
   -2   14    5      0.00      0.00
   -2   14    4      0.00      0.00
   -2   14    3      0.00      0.00
   -2   14    2      0.00      0.00
   -2   14    1      0.00      0.00
    2   14    0      0.00      0.00
    2   14    1      0.00      0.00
    2   14    2      0.00      0.00
    2   14    3      0.00      0.00
   -2   13    7      0.00      0.00
   -2   13    6      0.00      0.00
   -2   13    5      0.00      0.00
   -2   13    4      0.00      0.00
   -2   13    3      0.00      0.00
   -2   13    2      0.00      0.00
   -2   13    1      0.00      0.00
    2   13    0      0.00      0.00
    2   13    1      0.00      0.00
    2   13    2      0.00      0.00
    2   13    3      0.00      0.00
   -2   12    7      0.00      0.00
   -2   12    6      0.00      0.00
   -2   12    5      0.00      0.00
   -2   12    4      0.00      0.00
   -2   12    3      0.00      0.00
   -2   12    2      0.00      0.00
   -2   12    1      0.00      0.00
    2   12    0      0.00      0.00
    2   12    1      0.00      0.00
    2   12    2      0.00      0.00
    2   12    3      0.00      0.00
   -2   11    7      0.00      0.00
   -2   11    6      0.00      0.00
   -2   11    5      0.00      0.00
   -2   11    4      0.00      0.00
   -2   11    3      0.00      0.00
   -2   11    2      0.00      0.00
   -2   11    1      0.00      0.00
    2   11    0      0.00      0.00
    2   11    1      0.00      0.00
    2   11    2      0.00      0.00
    2   11    3      0.00      0.00
   -2   10    8      0.00      0.00
   -2   10    7      0.00      0.00
   -2   10    6      0.00      0.00
   -2   10    5      0.00      0.00
   -2   10    4      0.00      0.00
   -2   10    3      0.00      0.00
   -2   10    2      0.00      0.00
   -2   10    1      0.00      0.00
    2   10    0      0.00      0.00
    2   10    1      0.00      0.00
    2   10    2      0.00      0.00
    2   10    3      0.00      0.00
    2   10    4      0.00      0.00
    2   10    5      0.00      0.00
   -2    9    8      0.00      0.00
   -2    9    7      0.00      0.00
   -2    9    6      0.00      0.00
   -2    9    5      0.00      0.00
   -2    9    4      0.00      0.00
   -2    9    3      0.00      0.00
   -2    9    2      0.00      0.00
   -2    9    1      0.00      0.00
    2    9    0      0.00      0.00
    2    9    1      0.00      0.00
    2    9    2      0.00      0.00
    2    9    3      0.00      0.00
    2    9    4      0.00      0.00
    2    9    5      0.00      0.00
    2    9    6      0.00      0.00
   -2    8    8      0.00      0.00
   -2    8    7      0.00      0.00
   -2    8    6      0.00      0.00
   -2    8    5      0.00      0.00
   -2    8    4      0.00      0.00
   -2    8    3      0.00      0.00
   -2    8    2      0.00      0.00
   -2    8    1      0.00      0.00
    2    8    0      0.00      0.00
    2    8    1      0.00      0.00
    2    8    2      0.00      0.00
    2    8    3      0.00      0.00
    2    8    4      0.00      0.00
    2    8    5      0.00      0.00
    2    8    6      0.00      0.00
    2    8    7      0.00      0.00
    2    8    8      0.00      0.00
   -2    7    8      0.00      0.00
   -2    7    7      0.00      0.00
   -2    7    6      0.00      0.00
   -2    7    5      0.00      0.00
   -2    7    4      0.00      0.00
   -2    7    3      0.00      0.00
   -2    7    2      0.00      0.00
   -2    7    1      0.00      0.00
    2    7    0      0.00      0.00
    2    7    1      0.00      0.00
    2    7    2      0.00      0.00
    2    7    3      0.00      0.00
    2    7    4      0.00      0.00
    2    7    5      0.00      0.00
    2    7    6      0.00      0.00
    2    7    7      0.00      0.00
    2    7    8      0.00      0.00
   -2    6    9      0.00      0.00
   -2    6    8      0.00      0.00
   -2    6    7      0.00      0.00
   -2    6    6      0.00      0.00
   -2    6    5      0.00      0.00
   -2    6    4      0.00      0.00
   -2    6    3      0.00      0.00
   -2    6    2      0.00      0.00
   -2    6    1      0.00      0.00
    2    6    0      0.00      0.00
    2    6    1      0.00      0.00
    2    6    2      0.00      0.00
    2    6    3      0.00      0.00
    2    6    4      0.00      0.00
    2    6    5      0.00      0.00
    2    6    6      0.00      0.00
    2    6    7      0.00      0.00
   -2    5    9      0.00      0.00
   -2    5    8      0.00      0.00
   -2    5    7      0.00      0.00
   -2    5    6      0.00      0.00
   -2    5    5      0.00      0.00
   -2    5    4      0.00      0.00
   -2    5    3      0.00      0.00
   -2    5    2      0.00      0.00
   -2    5    1      0.00      0.00
    2    5    0      0.00      0.00
    2    5    1      0.00      0.00
    2    5    2      0.00      0.00
    2    5    3      0.00      0.00
    2    5    4      0.00      0.00
    2    5    5      0.00      0.00
    2    5    6      0.00      0.00
    2    5    7      0.00      0.00
    2    5    8      0.00      0.00
   -2    4    9      0.00      0.00
   -2    4    8      0.00      0.00
   -2    4    7      0.00      0.00
   -2    4    6      0.00      0.00
   -2    4    5      0.00      0.00
   -2    4    4      0.00      0.00
   -2    4    3      0.00      0.00
   -2    4    2      0.00      0.00
   -2    4    1      0.00      0.00
    2    4    0      0.00      0.00
    2    4    1      0.00      0.00
    2    4    3      0.00      0.00
    2    4    4      0.00      0.00
    2    4    5      0.00      0.00
    2    4    6      0.00      0.00
    2    4    7      0.00      0.00
    2    4    8      0.00      0.00
   -2    3    9      0.00      0.00
   -2    3    8      0.00      0.00
   -2    3    7      0.00      0.00
   -2    3    6      0.00      0.00
   -2    3    5      0.00      0.00
   -2    3    4      0.00      0.00
   -2    3    3      0.00      0.00
   -2    3    2      0.00      0.00
   -2    3    1      0.00      0.00
    2    3    0      0.00      0.00
    2    3    1      0.00      0.00
    2    3    3      0.00      0.00
    2    3    4      0.00      0.00
    2    3    5      0.00      0.00
    2    3    6      0.00      0.00
    2    3    7      0.00      0.00
    2    3    8      0.00      0.00
   -2    2    9      0.00      0.00
   -2    2    8      0.00      0.00
   -2    2    7      0.00      0.00
   -2    2    6      0.00      0.00
   -2    2    5      0.00      0.00
   -2    2    4      0.00      0.00
   -2    2    3      0.00      0.00
   -2    2    2      0.00      0.00
    2    2    0      0.00      0.00
    2    2    1      0.00      0.00
    2    2    3      0.00      0.00
    2    2    4      0.00      0.00
    2    2    5      0.00      0.00
    2    2    6      0.00      0.00
    2    2    7      0.00      0.00
    2    2    8      0.00      0.00
   -2    1    9      0.00      0.00
   -2    1    8      0.00      0.00
   -2    1    7      0.00      0.00
   -2    1    6      0.00      0.00
   -2    1    5      0.00      0.00
   -2    1    4      0.00      0.00
   -2    1    3      0.00      0.00
   -2    1    2      0.00      0.00
    2    1    0      0.00      0.00
    2    1    1      0.00      0.00
    2    1    2      0.00      0.00
    2    1    3      0.00      0.00
    2    1    4      0.00      0.00
    2    1    5      0.00      0.00
    2    1    6      0.00      0.00
    2    1    7      0.00      0.00
    2    1    8      0.00      0.00
   -2    0    8      0.00      0.00
   -2    0    6      0.00      0.00
   -2    0    4      0.00      0.00
   -2    0    2      0.00      0.00
    2    0    0      0.00      0.00
    2    0    2      0.00      0.00
    2    0    4      0.00      0.00
    2    0    6      0.00      0.00
    2    0    8      0.00      0.00
   -2    1    1      0.00      0.00
   -2    2    1      0.00      0.00
    2    2    2      0.00      0.00
    2    3    2      0.00      0.00
    2    4    2      0.00      0.00
    2    6    8      0.00      0.00
    2    9    7      0.00      0.00
    2   10    6      0.00      0.00
    2   10    7      0.00      0.00
    2   11    4      0.00      0.00
    2   11    5      0.00      0.00
    2   11    6      0.00      0.00
    2   11    7      0.00      0.00
    2   12    4      0.00      0.00
    2   12    5      0.00      0.00
    2   12    6      0.00      0.00
    2   13    4      0.00      0.00
    2   13    5      0.00      0.00
    2   13    6      0.00      0.00
    2   14    4      0.00      0.00
    2   14    5      0.00      0.00
    2   15    3      0.00      0.00
    2   16    3      0.00      0.00
    2   16    4      0.00      0.00
    2   17    1      0.00      0.00
    2   17    3      0.00      0.00
    2   18    1      0.00      0.00
   -3   18    2      0.00      0.00
   -3   18    1      0.00      0.00
    3   18    0      0.00      0.00
    3   18    1      0.00      0.00
    3   18    2      0.00      0.00
   -3   17    4      0.00      0.00
   -3   17    3      0.00      0.00
   -3   17    2      0.00      0.00
   -3   17    1      0.00      0.00
    3   17    0      0.00      0.00
    3   17    1      0.00      0.00
    3   17    2      0.00      0.00
   -3   16    5      0.00      0.00
   -3   16    4      0.00      0.00
   -3   16    3      0.00      0.00
   -3   16    2      0.00      0.00
   -3   16    1      0.00      0.00
    3   16    0      0.00      0.00
    3   16    1      0.00      0.00
    3   16    2      0.00      0.00
   -3   15    6      0.00      0.00
   -3   15    5      0.00      0.00
   -3   15    4      0.00      0.00
   -3   15    3      0.00      0.00
   -3   15    2      0.00      0.00
   -3   15    1      0.00      0.00
    3   15    0      0.00      0.00
    3   15    1      0.00      0.00
    3   15    2      0.00      0.00
    3   15    5      0.00      0.00
   -3   14    6      0.00      0.00
   -3   14    5      0.00      0.00
   -3   14    4      0.00      0.00
   -3   14    3      0.00      0.00
   -3   14    2      0.00      0.00
   -3   14    1      0.00      0.00
    3   14    0      0.00      0.00
    3   14    1      0.00      0.00
    3   14    2      0.00      0.00
    3   14    4      0.00      0.00
    3   14    5      0.00      0.00
   -3   13    6      0.00      0.00
   -3   13    5      0.00      0.00
   -3   13    4      0.00      0.00
   -3   13    3      0.00      0.00
   -3   13    2      0.00      0.00
   -3   13    1      0.00      0.00
    3   13    0      0.00      0.00
    3   13    1      0.00      0.00
    3   13    2      0.00      0.00
    3   13    3      0.00      0.00
    3   13    4      0.00      0.00
    3   13    5      0.00      0.00
    3   13    6      0.00      0.00
   -3   12    7      0.00      0.00
   -3   12    6      0.00      0.00
   -3   12    5      0.00      0.00
   -3   12    4      0.00      0.00
   -3   12    3      0.00      0.00
   -3   12    2      0.00      0.00
   -3   12    1      0.00      0.00
    3   12    0      0.00      0.00
    3   12    1      0.00      0.00
    3   12    2      0.00      0.00
    3   12    3      0.00      0.00
    3   12    4      0.00      0.00
    3   12    5      0.00      0.00
    3   12    6      0.00      0.00
   -3   11    7      0.00      0.00
   -3   11    6      0.00      0.00
   -3   11    4      0.00      0.00
   -3   11    3      0.00      0.00
   -3   11    2      0.00      0.00
   -3   11    1      0.00      0.00
    3   11    0      0.00      0.00
    3   11    1      0.00      0.00
    3   11    2      0.00      0.00
    3   11    3      0.00      0.00
    3   11    4      0.00      0.00
   -3   10    8      0.00      0.00
   -3   10    7      0.00      0.00
   -3   10    6      0.00      0.00
   -3   10    5      0.00      0.00
   -3   10    4      0.00      0.00
   -3   10    3      0.00      0.00
   -3   10    2      0.00      0.00
   -3   10    1      0.00      0.00
    3   10    0      0.00      0.00
    3   10    1      0.00      0.00
    3   10    2      0.00      0.00
    3   10    3      0.00      0.00
   -3    9    8      0.00      0.00
   -3    9    7      0.00      0.00
   -3    9    6      0.00      0.00
   -3    9    5      0.00      0.00
   -3    9    4      0.00      0.00
   -3    9    3      0.00      0.00
   -3    9    2      0.00      0.00
   -3    9    1      0.00      0.00
    3    9    0      0.00      0.00
    3    9    1      0.00      0.00
    3    9    2      0.00      0.00
    3    9    3      0.00      0.00
   -3    8    8      0.00      0.00
   -3    8    7      0.00      0.00
   -3    8    6      0.00      0.00
   -3    8    5      0.00      0.00
   -3    8    4      0.00      0.00
   -3    8    3      0.00      0.00
   -3    8    2      0.00      0.00
   -3    8    1      0.00      0.00
    3    8    0      0.00      0.00
    3    8    1      0.00      0.00
    3    8    2      0.00      0.00
    3    8    3      0.00      0.00
    3    8    4      0.00      0.00
   -3    7    8      0.00      0.00
   -3    7    7      0.00      0.00
   -3    7    6      0.00      0.00
   -3    7    5      0.00      0.00
   -3    7    4      0.00      0.00
   -3    7    3      0.00      0.00
   -3    7    2      0.00      0.00
   -3    7    1      0.00      0.00
    3    7    0      0.00      0.00
    3    7    1      0.00      0.00
    3    7    2      0.00      0.00
    3    7    3      0.00      0.00
    3    7    4      0.00      0.00
    3    7    5      0.00      0.00
    3    7    6      0.00      0.00
   -3    6    9      0.00      0.00
   -3    6    8      0.00      0.00
   -3    6    7      0.00      0.00
   -3    6    6      0.00      0.00
   -3    6    5      0.00      0.00
   -3    6    4      0.00      0.00
   -3    6    3      0.00      0.00
   -3    6    2      0.00      0.00
   -3    6    1      0.00      0.00
    3    6    0      0.00      0.00
    3    6    1      0.00      0.00
    3    6    2      0.00      0.00
    3    6    3      0.00      0.00
    3    6    4      0.00      0.00
    3    6    5      0.00      0.00
    3    6    6      0.00      0.00
    3    6    7      0.00      0.00
   -3    5    9      0.00      0.00
   -3    5    8      0.00      0.00
   -3    5    7      0.00      0.00
   -3    5    6      0.00      0.00
   -3    5    5      0.00      0.00
   -3    5    4      0.00      0.00
   -3    5    3      0.00      0.00
   -3    5    2      0.00      0.00
   -3    5    1      0.00      0.00
    3    5    0      0.00      0.00
    3    5    1      0.00      0.00
    3    5    2      0.00      0.00
    3    5    3      0.00      0.00
    3    5    4      0.00      0.00
    3    5    5      0.00      0.00
    3    5    6      0.00      0.00
    3    5    7      0.00      0.00
    3    5    8      0.00      0.00
   -3    4    9      0.00      0.00
   -3    4    8      0.00      0.00
   -3    4    7      0.00      0.00
   -3    4    6      0.00      0.00
   -3    4    5      0.00      0.00
   -3    4    4      0.00      0.00
   -3    4    3      0.00      0.00
   -3    4    2      0.00      0.00
   -3    4    1      0.00      0.00
    3    4    0      0.00      0.00
    3    4    2      0.00      0.00
    3    4    3      0.00      0.00
    3    4    4      0.00      0.00
    3    4    5      0.00      0.00
    3    4    6      0.00      0.00
    3    4    7      0.00      0.00
    3    4    8      0.00      0.00
   -3    3    9      0.00      0.00
   -3    3    8      0.00      0.00
   -3    3    7      0.00      0.00
   -3    3    6      0.00      0.00
   -3    3    5      0.00      0.00
   -3    3    4      0.00      0.00
   -3    3    3      0.00      0.00
   -3    3    2      0.00      0.00
   -3    3    1      0.00      0.00
    3    3    0      0.00      0.00
    3    3    1      0.00      0.00
    3    3    2      0.00      0.00
    3    3    3      0.00      0.00
    3    3    4      0.00      0.00
    3    3    5      0.00      0.00
    3    3    6      0.00      0.00
    3    3    7      0.00      0.00
    3    3    8      0.00      0.00
   -3    2    9      0.00      0.00
   -3    2    8      0.00      0.00
   -3    2    7      0.00      0.00
   -3    2    6      0.00      0.00
   -3    2    5      0.00      0.00
   -3    2    4      0.00      0.00
   -3    2    3      0.00      0.00
   -3    2    2      0.00      0.00
   -3    2    1      0.00      0.00
    3    2    0      0.00      0.00
    3    2    1      0.00      0.00
    3    2    2      0.00      0.00
    3    2    3      0.00      0.00
    3    2    4      0.00      0.00
    3    2    5      0.00      0.00
    3    2    6      0.00      0.00
    3    2    7      0.00      0.00
    3    2    8      0.00      0.00
   -3    1    9      0.00      0.00
   -3    1    8      0.00      0.00
   -3    1    7      0.00      0.00
   -3    1    6      0.00      0.00
   -3    1    5      0.00      0.00
   -3    1    4      0.00      0.00
   -3    1    3      0.00      0.00
   -3    1    2      0.00      0.00
   -3    1    1      0.00      0.00
    3    1    0      0.00      0.00
    3    1    1      0.00      0.00
    3    1    2      0.00      0.00
    3    1    3      0.00      0.00
    3    1    4      0.00      0.00
    3    1    5      0.00      0.00
    3    1    6      0.00      0.00
    3    1    7      0.00      0.00
    3    1    8      0.00      0.00
   -3    0    8      0.00      0.00
   -3    0    6      0.00      0.00
   -3    0    4      0.00      0.00
   -3    0    2      0.00      0.00
    3    0    0      0.00      0.00
    3    0    2      0.00      0.00
    3    0    4      0.00      0.00
    3    0    6      0.00      0.00
    3    4    1      0.00      0.00
    3    6    8      0.00      0.00
    3    7    7      0.00      0.00
    3    8    5      0.00      0.00
    3    8    6      0.00      0.00
    3    8    7      0.00      0.00
    3    9    4      0.00      0.00
    3    9    5      0.00      0.00
    3    9    6      0.00      0.00
    3    9    7      0.00      0.00
    3   10    4      0.00      0.00
    3   10    5      0.00      0.00
    3   10    6      0.00      0.00
    3   10    7      0.00      0.00
   -3   11    5      0.00      0.00
    3   11    5      0.00      0.00
    3   11    6      0.00      0.00
    3   14    3      0.00      0.00
    3   15    3      0.00      0.00
    3   15    4      0.00      0.00
    3   16    3      0.00      0.00
    3   16    4      0.00      0.00
    3   17    3      0.00      0.00
   -4   18    1      0.00      0.00
    4   18    0      0.00      0.00
    4   18    1      0.00      0.00
   -4   17    3      0.00      0.00
   -4   17    2      0.00      0.00
   -4   17    1      0.00      0.00
    4   17    0      0.00      0.00
    4   17    1      0.00      0.00
    4   17    2      0.00      0.00
   -4   16    5      0.00      0.00
   -4   16    4      0.00      0.00
   -4   16    3      0.00      0.00
   -4   16    2      0.00      0.00
   -4   16    1      0.00      0.00
    4   16    0      0.00      0.00
    4   16    1      0.00      0.00
    4   16    2      0.00      0.00
   -4   15    5      0.00      0.00
   -4   15    4      0.00      0.00
   -4   15    3      0.00      0.00
   -4   15    2      0.00      0.00
   -4   15    1      0.00      0.00
    4   15    0      0.00      0.00
    4   15    1      0.00      0.00
    4   15    2      0.00      0.00
   -4   14    6      0.00      0.00
   -4   14    5      0.00      0.00
   -4   14    4      0.00      0.00
   -4   14    3      0.00      0.00
   -4   14    2      0.00      0.00
   -4   14    1      0.00      0.00
    4   14    0      0.00      0.00
    4   14    1      0.00      0.00
    4   14    2      0.00      0.00
    4   14    5      0.00      0.00
   -4   13    5      0.00      0.00
   -4   13    4      0.00      0.00
   -4   13    3      0.00      0.00
   -4   13    2      0.00      0.00
   -4   13    1      0.00      0.00
    4   13    0      0.00      0.00
    4   13    1      0.00      0.00
    4   13    2      0.00      0.00
    4   13    3      0.00      0.00
    4   13    4      0.00      0.00
    4   13    5      0.00      0.00
   -4   12    6      0.00      0.00
   -4   12    5      0.00      0.00
   -4   12    4      0.00      0.00
   -4   12    3      0.00      0.00
   -4   12    2      0.00      0.00
   -4   12    1      0.00      0.00
    4   12    0      0.00      0.00
    4   12    1      0.00      0.00
    4   12    2      0.00      0.00
    4   12    3      0.00      0.00
    4   12    4      0.00      0.00
    4   12    5      0.00      0.00
    4   12    6      0.00      0.00
   -4   11    6      0.00      0.00
   -4   11    5      0.00      0.00
   -4   11    4      0.00      0.00
   -4   11    3      0.00      0.00
   -4   11    2      0.00      0.00
   -4   11    1      0.00      0.00
    4   11    0      0.00      0.00
    4   11    1      0.00      0.00
    4   11    2      0.00      0.00
    4   11    3      0.00      0.00
    4   11    4      0.00      0.00
    4   11    5      0.00      0.00
    4   11    6      0.00      0.00
   -4   10    8      0.00      0.00
   -4   10    7      0.00      0.00
   -4   10    6      0.00      0.00
   -4   10    5      0.00      0.00
   -4   10    4      0.00      0.00
   -4   10    3      0.00      0.00
   -4   10    2      0.00      0.00
   -4   10    1      0.00      0.00
    4   10    0      0.00      0.00
    4   10    1      0.00      0.00
    4   10    2      0.00      0.00
    4   10    3      0.00      0.00
    4   10    4      0.00      0.00
    4   10    5      0.00      0.00
    4   10    6      0.00      0.00
   -4    9    8      0.00      0.00
   -4    9    7      0.00      0.00
   -4    9    6      0.00      0.00
   -4    9    5      0.00      0.00
   -4    9    4      0.00      0.00
   -4    9    3      0.00      0.00
   -4    9    2      0.00      0.00
   -4    9    1      0.00      0.00
    4    9    0      0.00      0.00
    4    9    1      0.00      0.00
    4    9    2      0.00      0.00
    4    9    3      0.00      0.00
    4    9    4      0.00      0.00
    4    9    5      0.00      0.00
    4    9    6      0.00      0.00
    4    9    7      0.00      0.00
   -4    8    8      0.00      0.00
   -4    8    7      0.00      0.00
   -4    8    6      0.00      0.00
   -4    8    5      0.00      0.00
   -4    8    4      0.00      0.00
   -4    8    3      0.00      0.00
   -4    8    2      0.00      0.00
   -4    8    1      0.00      0.00
    4    8    0      0.00      0.00
    4    8    1      0.00      0.00
    4    8    2      0.00      0.00
    4    8    3      0.00      0.00
    4    8    4      0.00      0.00
    4    8    5      0.00      0.00
    4    8    6      0.00      0.00
    4    8    7      0.00      0.00
   -4    7    8      0.00      0.00
   -4    7    7      0.00      0.00
   -4    7    6      0.00      0.00
   -4    7    5      0.00      0.00
   -4    7    4      0.00      0.00
   -4    7    3      0.00      0.00
   -4    7    2      0.00      0.00
   -4    7    1      0.00      0.00
    4    7    0      0.00      0.00
    4    7    1      0.00      0.00
    4    7    2      0.00      0.00
    4    7    3      0.00      0.00
    4    7    4      0.00      0.00
    4    7    5      0.00      0.00
    4    7    6      0.00      0.00
    4    7    7      0.00      0.00
   -4    6    9      0.00      0.00
   -4    6    8      0.00      0.00
   -4    6    7      0.00      0.00
   -4    6    6      0.00      0.00
   -4    6    5      0.00      0.00
   -4    6    4      0.00      0.00
   -4    6    3      0.00      0.00
   -4    6    2      0.00      0.00
   -4    6    1      0.00      0.00
    4    6    0      0.00      0.00
    4    6    1      0.00      0.00
    4    6    2      0.00      0.00
    4    6    3      0.00      0.00
    4    6    4      0.00      0.00
    4    6    5      0.00      0.00
    4    6    6      0.00      0.00
    4    6    7      0.00      0.00
    4    6    8      0.00      0.00
   -4    5    9      0.00      0.00
   -4    5    8      0.00      0.00
   -4    5    7      0.00      0.00
   -4    5    6      0.00      0.00
   -4    5    5      0.00      0.00
   -4    5    4      0.00      0.00
   -4    5    3      0.00      0.00
   -4    5    2      0.00      0.00
   -4    5    1      0.00      0.00
    4    5    0      0.00      0.00
    4    5    1      0.00      0.00
    4    5    2      0.00      0.00
    4    5    3      0.00      0.00
    4    5    4      0.00      0.00
    4    5    5      0.00      0.00
    4    5    6      0.00      0.00
    4    5    7      0.00      0.00
    4    5    8      0.00      0.00
   -4    4    9      0.00      0.00
   -4    4    8      0.00      0.00
   -4    4    7      0.00      0.00
   -4    4    6      0.00      0.00
   -4    4    5      0.00      0.00
   -4    4    4      0.00      0.00
   -4    4    3      0.00      0.00
   -4    4    2      0.00      0.00
   -4    4    1      0.00      0.00
    4    4    0      0.00      0.00
    4    4    1      0.00      0.00
    4    4    2      0.00      0.00
    4    4    3      0.00      0.00
    4    4    4      0.00      0.00
    4    4    5      0.00      0.00
    4    4    6      0.00      0.00
    4    4    7      0.00      0.00
    4    4    8      0.00      0.00
   -4    3    9      0.00      0.00
   -4    3    8      0.00      0.00
   -4    3    7      0.00      0.00
   -4    3    6      0.00      0.00
   -4    3    5      0.00      0.00
   -4    3    4      0.00      0.00
   -4    3    3      0.00      0.00
   -4    3    2      0.00      0.00
   -4    3    1      0.00      0.00
    4    3    0      0.00      0.00
    4    3    1      0.00      0.00
    4    3    2      0.00      0.00
    4    3    3      0.00      0.00
    4    3    4      0.00      0.00
    4    3    5      0.00      0.00
    4    3    6      0.00      0.00
    4    3    7      0.00      0.00
    4    3    8      0.00      0.00
   -4    2    9      0.00      0.00
   -4    2    8      0.00      0.00
   -4    2    7      0.00      0.00
   -4    2    6      0.00      0.00
   -4    2    5      0.00      0.00
   -4    2    4      0.00      0.00
   -4    2    3      0.00      0.00
   -4    2    2      0.00      0.00
   -4    2    1      0.00      0.00
    4    2    0      0.00      0.00
    4    2    1      0.00      0.00
    4    2    2      0.00      0.00
    4    2    3      0.00      0.00
    4    2    4      0.00      0.00
    4    2    5      0.00      0.00
    4    2    6      0.00      0.00
    4    2    7      0.00      0.00
    4    2    8      0.00      0.00
   -4    1    9      0.00      0.00
   -4    1    8      0.00      0.00
   -4    1    7      0.00      0.00
   -4    1    6      0.00      0.00
   -4    1    5      0.00      0.00
   -4    1    4      0.00      0.00
   -4    1    3      0.00      0.00
   -4    1    2      0.00      0.00
    4    1    0      0.00      0.00
    4    1    1      0.00      0.00
    4    1    2      0.00      0.00
    4    1    3      0.00      0.00
    4    1    4      0.00      0.00
    4    1    5      0.00      0.00
    4    1    6      0.00      0.00
    4    1    7      0.00      0.00
    4    1    8      0.00      0.00
   -4    0    8      0.00      0.00
   -4    0    6      0.00      0.00
   -4    0    4      0.00      0.00
   -4    0    2      0.00      0.00
    4    0    0      0.00      0.00
    4    0    2      0.00      0.00
    4    0    4      0.00      0.00
    4    0    6      0.00      0.00
    4    0    8      0.00      0.00
   -4    1    1      0.00      0.00
   -4   11    7      0.00      0.00
   -4   12    7      0.00      0.00
   -4   13    6      0.00      0.00
    4   14    3      0.00      0.00
    4   14    4      0.00      0.00
    4   15    3      0.00      0.00
    4   15    4      0.00      0.00
    4   16    3      0.00      0.00
   -5   17    2      0.00      0.00
   -5   17    1      0.00      0.00
    5   17    0      0.00      0.00
    5   17    1      0.00      0.00
   -5   16    4      0.00      0.00
   -5   16    3      0.00      0.00
   -5   16    2      0.00      0.00
   -5   16    1      0.00      0.00
    5   16    0      0.00      0.00
    5   16    1      0.00      0.00
   -5   15    5      0.00      0.00
   -5   15    4      0.00      0.00
   -5   15    3      0.00      0.00
   -5   15    2      0.00      0.00
   -5   15    1      0.00      0.00
    5   15    0      0.00      0.00
   -5   14    6      0.00      0.00
   -5   14    5      0.00      0.00
   -5   14    4      0.00      0.00
   -5   14    3      0.00      0.00
   -5   14    2      0.00      0.00
   -5   14    1      0.00      0.00
    5   14    0      0.00      0.00
    5   14    1      0.00      0.00
    5   14    2      0.00      0.00
    5   14    3      0.00      0.00
    5   14    4      0.00      0.00
   -5   13    6      0.00      0.00
   -5   13    5      0.00      0.00
   -5   13    4      0.00      0.00
   -5   13    3      0.00      0.00
   -5   13    2      0.00      0.00
   -5   13    1      0.00      0.00
    5   13    0      0.00      0.00
    5   13    1      0.00      0.00
    5   13    2      0.00      0.00
    5   13    3      0.00      0.00
    5   13    4      0.00      0.00
    5   13    5      0.00      0.00
   -5   12    5      0.00      0.00
   -5   12    4      0.00      0.00
   -5   12    3      0.00      0.00
   -5   12    2      0.00      0.00
   -5   12    1      0.00      0.00
    5   12    0      0.00      0.00
    5   12    1      0.00      0.00
    5   12    2      0.00      0.00
    5   12    3      0.00      0.00
    5   12    4      0.00      0.00
    5   12    5      0.00      0.00
   -5   11    6      0.00      0.00
   -5   11    5      0.00      0.00
   -5   11    4      0.00      0.00
   -5   11    3      0.00      0.00
   -5   11    2      0.00      0.00
   -5   11    1      0.00      0.00
    5   11    0      0.00      0.00
    5   11    1      0.00      0.00
    5   11    2      0.00      0.00
    5   11    3      0.00      0.00
    5   11    4      0.00      0.00
    5   11    5      0.00      0.00
    5   11    6      0.00      0.00
   -5   10    6      0.00      0.00
   -5   10    5      0.00      0.00
   -5   10    4      0.00      0.00
   -5   10    3      0.00      0.00
   -5   10    2      0.00      0.00
   -5   10    1      0.00      0.00
    5   10    0      0.00      0.00
    5   10    1      0.00      0.00
    5   10    2      0.00      0.00
    5   10    3      0.00      0.00
    5   10    4      0.00      0.00
    5   10    5      0.00      0.00
    5   10    6      0.00      0.00
   -5    9    6      0.00      0.00
   -5    9    5      0.00      0.00
   -5    9    4      0.00      0.00
   -5    9    3      0.00      0.00
   -5    9    2      0.00      0.00
   -5    9    1      0.00      0.00
    5    9    0      0.00      0.00
    5    9    1      0.00      0.00
    5    9    2      0.00      0.00
    5    9    3      0.00      0.00
    5    9    4      0.00      0.00
    5    9    5      0.00      0.00
    5    9    6      0.00      0.00
   -5    8    8      0.00      0.00
   -5    8    7      0.00      0.00
   -5    8    5      0.00      0.00
   -5    8    4      0.00      0.00
   -5    8    3      0.00      0.00
   -5    8    2      0.00      0.00
   -5    8    1      0.00      0.00
    5    8    0      0.00      0.00
    5    8    1      0.00      0.00
    5    8    2      0.00      0.00
    5    8    3      0.00      0.00
    5    8    4      0.00      0.00
    5    8    5      0.00      0.00
    5    8    6      0.00      0.00
    5    8    7      0.00      0.00
   -5    7    8      0.00      0.00
   -5    7    7      0.00      0.00
   -5    7    6      0.00      0.00
   -5    7    5      0.00      0.00
   -5    7    4      0.00      0.00
   -5    7    3      0.00      0.00
   -5    7    2      0.00      0.00
   -5    7    1      0.00      0.00
    5    7    0      0.00      0.00
    5    7    1      0.00      0.00
    5    7    2      0.00      0.00
    5    7    3      0.00      0.00
    5    7    4      0.00      0.00
    5    7    5      0.00      0.00
    5    7    6      0.00      0.00
    5    7    7      0.00      0.00
   -5    6    9      0.00      0.00
   -5    6    8      0.00      0.00
   -5    6    7      0.00      0.00
   -5    6    6      0.00      0.00
   -5    6    4      0.00      0.00
   -5    6    3      0.00      0.00
   -5    6    2      0.00      0.00
   -5    6    1      0.00      0.00
    5    6    0      0.00      0.00
    5    6    1      0.00      0.00
    5    6    2      0.00      0.00
    5    6    3      0.00      0.00
    5    6    4      0.00      0.00
    5    6    5      0.00      0.00
    5    6    6      0.00      0.00
    5    6    7      0.00      0.00
   -5    5    9      0.00      0.00
   -5    5    8      0.00      0.00
   -5    5    7      0.00      0.00
   -5    5    6      0.00      0.00
   -5    5    5      0.00      0.00
   -5    5    4      0.00      0.00
   -5    5    3      0.00      0.00
   -5    5    2      0.00      0.00
   -5    5    1      0.00      0.00
    5    5    0      0.00      0.00
    5    5    1      0.00      0.00
    5    5    2      0.00      0.00
    5    5    3      0.00      0.00
    5    5    4      0.00      0.00
    5    5    5      0.00      0.00
    5    5    6      0.00      0.00
    5    5    7      0.00      0.00
   -5    4    9      0.00      0.00
   -5    4    8      0.00      0.00
   -5    4    7      0.00      0.00
   -5    4    6      0.00      0.00
   -5    4    5      0.00      0.00
   -5    4    4      0.00      0.00
   -5    4    3      0.00      0.00
   -5    4    2      0.00      0.00
   -5    4    1      0.00      0.00
    5    4    0      0.00      0.00
    5    4    1      0.00      0.00
    5    4    2      0.00      0.00
    5    4    3      0.00      0.00
    5    4    4      0.00      0.00
    5    4    5      0.00      0.00
    5    4    6      0.00      0.00
    5    4    7      0.00      0.00
   -5    3    8      0.00      0.00
   -5    3    7      0.00      0.00
   -5    3    6      0.00      0.00
   -5    3    5      0.00      0.00
   -5    3    4      0.00      0.00
   -5    3    3      0.00      0.00
   -5    3    2      0.00      0.00
   -5    3    1      0.00      0.00
    5    3    0      0.00      0.00
    5    3    1      0.00      0.00
    5    3    2      0.00      0.00
    5    3    3      0.00      0.00
    5    3    4      0.00      0.00
    5    3    5      0.00      0.00
    5    3    6      0.00      0.00
    5    3    7      0.00      0.00
    5    3    8      0.00      0.00
   -5    2    9      0.00      0.00
   -5    2    8      0.00      0.00
   -5    2    7      0.00      0.00
   -5    2    6      0.00      0.00
   -5    2    5      0.00      0.00
   -5    2    4      0.00      0.00
   -5    2    3      0.00      0.00
   -5    2    2      0.00      0.00
   -5    2    1      0.00      0.00
    5    2    0      0.00      0.00
    5    2    1      0.00      0.00
    5    2    2      0.00      0.00
    5    2    3      0.00      0.00
    5    2    4      0.00      0.00
    5    2    5      0.00      0.00
    5    2    6      0.00      0.00
    5    2    7      0.00      0.00
    5    2    8      0.00      0.00
   -5    1    9      0.00      0.00
   -5    1    8      0.00      0.00
   -5    1    7      0.00      0.00
   -5    1    6      0.00      0.00
   -5    1    5      0.00      0.00
   -5    1    4      0.00      0.00
   -5    1    3      0.00      0.00
   -5    1    2      0.00      0.00
    5    1    0      0.00      0.00
    5    1    1      0.00      0.00
    5    1    2      0.00      0.00
    5    1    3      0.00      0.00
    5    1    4      0.00      0.00
    5    1    5      0.00      0.00
    5    1    6      0.00      0.00
    5    1    7      0.00      0.00
    5    1    8      0.00      0.00
   -5    0    8      0.00      0.00
   -5    0    6      0.00      0.00
   -5    0    4      0.00      0.00
   -5    0    2      0.00      0.00
    5    0    0      0.00      0.00
    5    0    2      0.00      0.00
    5    0    4      0.00      0.00
    5    0    6      0.00      0.00
   -5    1    1      0.00      0.00
   -5    3    9      0.00      0.00
   -5    6    5      0.00      0.00
   -5    8    6      0.00      0.00
   -5    9    8      0.00      0.00
   -5    9    7      0.00      0.00
   -5   10    7      0.00      0.00
   -5   11    7      0.00      0.00
   -5   12    7      0.00      0.00
   -5   12    6      0.00      0.00
    5   15    1      0.00      0.00
    5   15    2      0.00      0.00
    5   15    3      0.00      0.00
    5   16    2      0.00      0.00
    5   16    3      0.00      0.00
   -5   17    3      0.00      0.00
   -6   17    1      0.00      0.00
    6   17    0      0.00      0.00
    6   17    1      0.00      0.00
   -6   16    3      0.00      0.00
   -6   16    2      0.00      0.00
   -6   16    1      0.00      0.00
    6   16    0      0.00      0.00
    6   16    1      0.00      0.00
   -6   15    5      0.00      0.00
   -6   15    4      0.00      0.00
   -6   15    3      0.00      0.00
   -6   15    2      0.00      0.00
   -6   15    1      0.00      0.00
    6   15    1      0.00      0.00
   -6   14    5      0.00      0.00
   -6   14    4      0.00      0.00
   -6   14    3      0.00      0.00
   -6   14    2      0.00      0.00
   -6   14    1      0.00      0.00
    6   14    0      0.00      0.00
    6   14    1      0.00      0.00
    6   14    3      0.00      0.00
    6   14    4      0.00      0.00
   -6   13    6      0.00      0.00
   -6   13    5      0.00      0.00
   -6   13    4      0.00      0.00
   -6   13    3      0.00      0.00
   -6   13    2      0.00      0.00
   -6   13    1      0.00      0.00
    6   13    0      0.00      0.00
    6   13    1      0.00      0.00
    6   13    2      0.00      0.00
    6   13    3      0.00      0.00
    6   13    4      0.00      0.00
   -6   12    6      0.00      0.00
   -6   12    5      0.00      0.00
   -6   12    4      0.00      0.00
   -6   12    3      0.00      0.00
   -6   12    2      0.00      0.00
   -6   12    1      0.00      0.00
    6   12    0      0.00      0.00
    6   12    1      0.00      0.00
    6   12    2      0.00      0.00
    6   12    3      0.00      0.00
    6   12    4      0.00      0.00
    6   12    5      0.00      0.00
   -6   11    6      0.00      0.00
   -6   11    5      0.00      0.00
   -6   11    4      0.00      0.00
   -6   11    3      0.00      0.00
   -6   11    2      0.00      0.00
   -6   11    1      0.00      0.00
    6   11    0      0.00      0.00
    6   11    1      0.00      0.00
    6   11    2      0.00      0.00
    6   11    3      0.00      0.00
    6   11    4      0.00      0.00
    6   11    5      0.00      0.00
   -6   10    6      0.00      0.00
   -6   10    5      0.00      0.00
   -6   10    4      0.00      0.00
   -6   10    3      0.00      0.00
   -6   10    2      0.00      0.00
   -6   10    1      0.00      0.00
    6   10    0      0.00      0.00
    6   10    1      0.00      0.00
    6   10    2      0.00      0.00
    6   10    3      0.00      0.00
    6   10    4      0.00      0.00
    6   10    5      0.00      0.00
   -6    9    6      0.00      0.00
   -6    9    5      0.00      0.00
   -6    9    4      0.00      0.00
   -6    9    3      0.00      0.00
   -6    9    2      0.00      0.00
   -6    9    1      0.00      0.00
    6    9    0      0.00      0.00
    6    9    1      0.00      0.00
    6    9    2      0.00      0.00
    6    9    3      0.00      0.00
    6    9    4      0.00      0.00
    6    9    5      0.00      0.00
    6    9    6      0.00      0.00
   -6    8    6      0.00      0.00
   -6    8    5      0.00      0.00
   -6    8    4      0.00      0.00
   -6    8    3      0.00      0.00
   -6    8    2      0.00      0.00
   -6    8    1      0.00      0.00
    6    8    0      0.00      0.00
    6    8    1      0.00      0.00
    6    8    2      0.00      0.00
    6    8    3      0.00      0.00
    6    8    4      0.00      0.00
    6    8    5      0.00      0.00
    6    8    6      0.00      0.00
   -6    7    6      0.00      0.00
   -6    7    5      0.00      0.00
   -6    7    4      0.00      0.00
   -6    7    3      0.00      0.00
   -6    7    2      0.00      0.00
   -6    7    1      0.00      0.00
    6    7    0      0.00      0.00
    6    7    1      0.00      0.00
    6    7    2      0.00      0.00
    6    7    3      0.00      0.00
    6    7    4      0.00      0.00
    6    7    5      0.00      0.00
    6    7    6      0.00      0.00
   -6    6    8      0.00      0.00
   -6    6    7      0.00      0.00
   -6    6    6      0.00      0.00
   -6    6    5      0.00      0.00
   -6    6    4      0.00      0.00
   -6    6    3      0.00      0.00
   -6    6    2      0.00      0.00
   -6    6    1      0.00      0.00
    6    6    0      0.00      0.00
    6    6    1      0.00      0.00
    6    6    2      0.00      0.00
    6    6    3      0.00      0.00
    6    6    4      0.00      0.00
    6    6    5      0.00      0.00
    6    6    6      0.00      0.00
    6    6    7      0.00      0.00
   -6    5    9      0.00      0.00
   -6    5    8      0.00      0.00
   -6    5    7      0.00      0.00
   -6    5    6      0.00      0.00
   -6    5    5      0.00      0.00
   -6    5    4      0.00      0.00
   -6    5    3      0.00      0.00
   -6    5    2      0.00      0.00
   -6    5    1      0.00      0.00
    6    5    0      0.00      0.00
    6    5    1      0.00      0.00
    6    5    2      0.00      0.00
    6    5    3      0.00      0.00
    6    5    4      0.00      0.00
    6    5    5      0.00      0.00
    6    5    6      0.00      0.00
    6    5    7      0.00      0.00
   -6    4    9      0.00      0.00
   -6    4    8      0.00      0.00
   -6    4    7      0.00      0.00
   -6    4    6      0.00      0.00
   -6    4    5      0.00      0.00
   -6    4    4      0.00      0.00
   -6    4    3      0.00      0.00
   -6    4    2      0.00      0.00
   -6    4    1      0.00      0.00
    6    4    0      0.00      0.00
    6    4    1      0.00      0.00
    6    4    2      0.00      0.00
    6    4    3      0.00      0.00
    6    4    4      0.00      0.00
    6    4    5      0.00      0.00
    6    4    6      0.00      0.00
    6    4    7      0.00      0.00
   -6    3    9      0.00      0.00
   -6    3    8      0.00      0.00
   -6    3    7      0.00      0.00
   -6    3    6      0.00      0.00
   -6    3    5      0.00      0.00
   -6    3    4      0.00      0.00
   -6    3    3      0.00      0.00
   -6    3    2      0.00      0.00
   -6    3    1      0.00      0.00
    6    3    0      0.00      0.00
    6    3    1      0.00      0.00
    6    3    2      0.00      0.00
    6    3    3      0.00      0.00
    6    3    4      0.00      0.00
    6    3    5      0.00      0.00
    6    3    6      0.00      0.00
    6    3    7      0.00      0.00
   -6    2    9      0.00      0.00
   -6    2    8      0.00      0.00
   -6    2    7      0.00      0.00
   -6    2    6      0.00      0.00
   -6    2    5      0.00      0.00
   -6    2    4      0.00      0.00
   -6    2    3      0.00      0.00
   -6    2    2      0.00      0.00
   -6    2    1      0.00      0.00
    6    2    0      0.00      0.00
    6    2    1      0.00      0.00
    6    2    2      0.00      0.00
    6    2    3      0.00      0.00
    6    2    4      0.00      0.00
    6    2    5      0.00      0.00
    6    2    6      0.00      0.00
    6    2    7      0.00      0.00
   -6    1    8      0.00      0.00
   -6    1    7      0.00      0.00
   -6    1    6      0.00      0.00
   -6    1    5      0.00      0.00
   -6    1    4      0.00      0.00
   -6    1    3      0.00      0.00
   -6    1    2      0.00      0.00
    6    1    0      0.00      0.00
    6    1    1      0.00      0.00
    6    1    2      0.00      0.00
    6    1    3      0.00      0.00
    6    1    4      0.00      0.00
    6    1    5      0.00      0.00
    6    1    6      0.00      0.00
    6    1    7      0.00      0.00
   -6    0    8      0.00      0.00
   -6    0    6      0.00      0.00
   -6    0    4      0.00      0.00
   -6    0    2      0.00      0.00
    6    0    0      0.00      0.00
    6    0    4      0.00      0.00
    6    0    6      0.00      0.00
   -6    1    9      0.00      0.00
   -6    1    1      0.00      0.00
   -6    7    8      0.00      0.00
   -6    7    7      0.00      0.00
   -6    8    8      0.00      0.00
   -6    8    7      0.00      0.00
   -6    9    8      0.00      0.00
   -6    9    7      0.00      0.00
   -6   10    7      0.00      0.00
   -6   11    7      0.00      0.00
    6   14    2      0.00      0.00
    6   15    0      0.00      0.00
    6   15    2      0.00      0.00
    6   15    3      0.00      0.00
    6   16    2      0.00      0.00
   -7   16    2      0.00      0.00
   -7   16    1      0.00      0.00
    7   16    0      0.00      0.00
    7   16    1      0.00      0.00
   -7   15    4      0.00      0.00
   -7   15    3      0.00      0.00
   -7   15    2      0.00      0.00
   -7   15    1      0.00      0.00
    7   15    0      0.00      0.00
    7   15    1      0.00      0.00
   -7   14    5      0.00      0.00
   -7   14    4      0.00      0.00
   -7   14    3      0.00      0.00
   -7   14    2      0.00      0.00
   -7   14    1      0.00      0.00
    7   14    0      0.00      0.00
    7   14    1      0.00      0.00
    7   14    3      0.00      0.00
   -7   13    6      0.00      0.00
   -7   13    5      0.00      0.00
   -7   13    4      0.00      0.00
   -7   13    3      0.00      0.00
   -7   13    1      0.00      0.00
    7   13    0      0.00      0.00
    7   13    1      0.00      0.00
    7   13    2      0.00      0.00
    7   13    3      0.00      0.00
   -7   12    6      0.00      0.00
   -7   12    5      0.00      0.00
   -7   12    4      0.00      0.00
   -7   12    3      0.00      0.00
   -7   12    2      0.00      0.00
   -7   12    1      0.00      0.00
    7   12    0      0.00      0.00
    7   12    1      0.00      0.00
    7   12    2      0.00      0.00
    7   12    3      0.00      0.00
    7   12    4      0.00      0.00
   -7   11    6      0.00      0.00
   -7   11    5      0.00      0.00
   -7   11    4      0.00      0.00
   -7   11    3      0.00      0.00
   -7   11    2      0.00      0.00
   -7   11    1      0.00      0.00
    7   11    0      0.00      0.00
    7   11    1      0.00      0.00
    7   11    2      0.00      0.00
    7   11    3      0.00      0.00
    7   11    4      0.00      0.00
   -7   10    6      0.00      0.00
   -7   10    5      0.00      0.00
   -7   10    4      0.00      0.00
   -7   10    3      0.00      0.00
   -7   10    2      0.00      0.00
   -7   10    1      0.00      0.00
    7   10    0      0.00      0.00
    7   10    1      0.00      0.00
    7   10    2      0.00      0.00
    7   10    3      0.00      0.00
    7   10    4      0.00      0.00
    7   10    5      0.00      0.00
   -7    9    6      0.00      0.00
   -7    9    5      0.00      0.00
   -7    9    4      0.00      0.00
   -7    9    3      0.00      0.00
   -7    9    2      0.00      0.00
   -7    9    1      0.00      0.00
    7    9    0      0.00      0.00
    7    9    1      0.00      0.00
    7    9    2      0.00      0.00
    7    9    3      0.00      0.00
    7    9    4      0.00      0.00
    7    9    5      0.00      0.00
   -7    8    6      0.00      0.00
   -7    8    5      0.00      0.00
   -7    8    4      0.00      0.00
   -7    8    3      0.00      0.00
   -7    8    2      0.00      0.00
   -7    8    1      0.00      0.00
    7    8    0      0.00      0.00
    7    8    1      0.00      0.00
    7    8    2      0.00      0.00
    7    8    3      0.00      0.00
    7    8    4      0.00      0.00
    7    8    5      0.00      0.00
    7    8    6      0.00      0.00
   -7    7    6      0.00      0.00
   -7    7    5      0.00      0.00
   -7    7    4      0.00      0.00
   -7    7    3      0.00      0.00
   -7    7    2      0.00      0.00
   -7    7    1      0.00      0.00
    7    7    0      0.00      0.00
    7    7    1      0.00      0.00
    7    7    2      0.00      0.00
    7    7    3      0.00      0.00
    7    7    4      0.00      0.00
    7    7    5      0.00      0.00
    7    7    6      0.00      0.00
   -7    6    6      0.00      0.00
   -7    6    5      0.00      0.00
   -7    6    4      0.00      0.00
   -7    6    3      0.00      0.00
   -7    6    2      0.00      0.00
   -7    6    1      0.00      0.00
    7    6    0      0.00      0.00
    7    6    1      0.00      0.00
    7    6    2      0.00      0.00
    7    6    3      0.00      0.00
    7    6    4      0.00      0.00
    7    6    5      0.00      0.00
    7    6    6      0.00      0.00
   -7    5    6      0.00      0.00
   -7    5    5      0.00      0.00
   -7    5    4      0.00      0.00
   -7    5    3      0.00      0.00
   -7    5    2      0.00      0.00
   -7    5    1      0.00      0.00
    7    5    0      0.00      0.00
    7    5    1      0.00      0.00
    7    5    2      0.00      0.00
    7    5    3      0.00      0.00
    7    5    4      0.00      0.00
    7    5    5      0.00      0.00
    7    5    6      0.00      0.00
   -7    4    6      0.00      0.00
   -7    4    5      0.00      0.00
   -7    4    4      0.00      0.00
   -7    4    3      0.00      0.00
   -7    4    2      0.00      0.00
   -7    4    1      0.00      0.00
    7    4    0      0.00      0.00
    7    4    1      0.00      0.00
    7    4    2      0.00      0.00
    7    4    3      0.00      0.00
    7    4    4      0.00      0.00
    7    4    5      0.00      0.00
    7    4    6      0.00      0.00
   -7    3    9      0.00      0.00
   -7    3    8      0.00      0.00
   -7    3    7      0.00      0.00
   -7    3    6      0.00      0.00
   -7    3    5      0.00      0.00
   -7    3    4      0.00      0.00
   -7    3    3      0.00      0.00
   -7    3    2      0.00      0.00
   -7    3    1      0.00      0.00
    7    3    0      0.00      0.00
    7    3    1      0.00      0.00
    7    3    2      0.00      0.00
    7    3    3      0.00      0.00
    7    3    4      0.00      0.00
    7    3    5      0.00      0.00
    7    3    6      0.00      0.00
    7    3    7      0.00      0.00
   -7    2    9      0.00      0.00
   -7    2    8      0.00      0.00
   -7    2    7      0.00      0.00
   -7    2    6      0.00      0.00
   -7    2    5      0.00      0.00
   -7    2    4      0.00      0.00
   -7    2    3      0.00      0.00
   -7    2    2      0.00      0.00
   -7    2    1      0.00      0.00
    7    2    0      0.00      0.00
    7    2    1      0.00      0.00
    7    2    2      0.00      0.00
    7    2    3      0.00      0.00
    7    2    4      0.00      0.00
    7    2    5      0.00      0.00
    7    2    7      0.00      0.00
   -7    1    9      0.00      0.00
   -7    1    8      0.00      0.00
   -7    1    7      0.00      0.00
   -7    1    6      0.00      0.00
   -7    1    5      0.00      0.00
   -7    1    4      0.00      0.00
   -7    1    3      0.00      0.00
   -7    1    2      0.00      0.00
    7    1    0      0.00      0.00
    7    1    1      0.00      0.00
    7    1    2      0.00      0.00
    7    1    3      0.00      0.00
    7    1    4      0.00      0.00
    7    1    5      0.00      0.00
    7    1    6      0.00      0.00
    7    1    7      0.00      0.00
   -7    0    8      0.00      0.00
   -7    0    6      0.00      0.00
   -7    0    4      0.00      0.00
   -7    0    2      0.00      0.00
    7    0    0      0.00      0.00
    7    0    4      0.00      0.00
    7    0    6      0.00      0.00
   -7    1    1      0.00      0.00
   -7    4    8      0.00      0.00
   -7    4    7      0.00      0.00
   -7    5    8      0.00      0.00
   -7    5    7      0.00      0.00
   -7    6    8      0.00      0.00
   -7    6    7      0.00      0.00
   -7    7    8      0.00      0.00
   -7    7    7      0.00      0.00
   -7    8    8      0.00      0.00
   -7    8    7      0.00      0.00
   -7    9    7      0.00      0.00
   -7   10    7      0.00      0.00
   -7   13    2      0.00      0.00
    7   14    2      0.00      0.00
    7   15    2      0.00      0.00
   -8   15    2      0.00      0.00
   -8   15    1      0.00      0.00
    8   15    0      0.00      0.00
   -8   14    4      0.00      0.00
   -8   14    3      0.00      0.00
   -8   14    2      0.00      0.00
   -8   14    1      0.00      0.00
    8   14    0      0.00      0.00
    8   14    1      0.00      0.00
   -8   13    5      0.00      0.00
   -8   13    4      0.00      0.00
   -8   13    3      0.00      0.00
   -8   13    2      0.00      0.00
   -8   13    1      0.00      0.00
    8   13    0      0.00      0.00
    8   13    1      0.00      0.00
    8   13    2      0.00      0.00
    8   13    3      0.00      0.00
   -8   12    6      0.00      0.00
   -8   12    5      0.00      0.00
   -8   12    4      0.00      0.00
   -8   12    3      0.00      0.00
   -8   12    2      0.00      0.00
   -8   12    1      0.00      0.00
    8   12    0      0.00      0.00
    8   12    1      0.00      0.00
    8   12    2      0.00      0.00
    8   12    3      0.00      0.00
   -8   11    6      0.00      0.00
   -8   11    5      0.00      0.00
   -8   11    4      0.00      0.00
   -8   11    3      0.00      0.00
   -8   11    2      0.00      0.00
   -8   11    1      0.00      0.00
    8   11    0      0.00      0.00
    8   11    1      0.00      0.00
    8   11    2      0.00      0.00
    8   11    3      0.00      0.00
    8   11    4      0.00      0.00
   -8   10    7      0.00      0.00
   -8   10    6      0.00      0.00
   -8   10    5      0.00      0.00
   -8   10    4      0.00      0.00
   -8   10    3      0.00      0.00
   -8   10    2      0.00      0.00
   -8   10    1      0.00      0.00
    8   10    0      0.00      0.00
    8   10    1      0.00      0.00
    8   10    2      0.00      0.00
    8   10    3      0.00      0.00
    8   10    4      0.00      0.00
   -8    9    7      0.00      0.00
   -8    9    6      0.00      0.00
   -8    9    5      0.00      0.00
   -8    9    4      0.00      0.00
   -8    9    3      0.00      0.00
   -8    9    2      0.00      0.00
   -8    9    1      0.00      0.00
    8    9    0      0.00      0.00
    8    9    1      0.00      0.00
    8    9    2      0.00      0.00
    8    9    3      0.00      0.00
    8    9    4      0.00      0.00
   -8    8    7      0.00      0.00
   -8    8    6      0.00      0.00
   -8    8    5      0.00      0.00
   -8    8    4      0.00      0.00
   -8    8    3      0.00      0.00
   -8    8    2      0.00      0.00
   -8    8    1      0.00      0.00
    8    8    0      0.00      0.00
    8    8    1      0.00      0.00
    8    8    2      0.00      0.00
    8    8    3      0.00      0.00
    8    8    4      0.00      0.00
    8    8    5      0.00      0.00
   -8    7    6      0.00      0.00
   -8    7    5      0.00      0.00
   -8    7    4      0.00      0.00
   -8    7    3      0.00      0.00
   -8    7    2      0.00      0.00
   -8    7    1      0.00      0.00
    8    7    0      0.00      0.00
    8    7    1      0.00      0.00
    8    7    2      0.00      0.00
    8    7    3      0.00      0.00
    8    7    4      0.00      0.00
    8    7    5      0.00      0.00
   -8    6    6      0.00      0.00
   -8    6    5      0.00      0.00
   -8    6    4      0.00      0.00
   -8    6    3      0.00      0.00
   -8    6    2      0.00      0.00
   -8    6    1      0.00      0.00
    8    6    0      0.00      0.00
    8    6    1      0.00      0.00
    8    6    2      0.00      0.00
    8    6    3      0.00      0.00
    8    6    4      0.00      0.00
    8    6    5      0.00      0.00
   -8    5    6      0.00      0.00
   -8    5    5      0.00      0.00
   -8    5    4      0.00      0.00
   -8    5    3      0.00      0.00
   -8    5    2      0.00      0.00
   -8    5    1      0.00      0.00
    8    5    0      0.00      0.00
    8    5    1      0.00      0.00
    8    5    2      0.00      0.00
    8    5    3      0.00      0.00
    8    5    4      0.00      0.00
    8    5    5      0.00      0.00
    8    5    6      0.00      0.00
   -8    4    6      0.00      0.00
   -8    4    5      0.00      0.00
   -8    4    4      0.00      0.00
   -8    4    3      0.00      0.00
   -8    4    2      0.00      0.00
   -8    4    1      0.00      0.00
    8    4    0      0.00      0.00
    8    4    1      0.00      0.00
    8    4    2      0.00      0.00
    8    4    3      0.00      0.00
    8    4    4      0.00      0.00
    8    4    5      0.00      0.00
    8    4    6      0.00      0.00
   -8    3    6      0.00      0.00
   -8    3    5      0.00      0.00
   -8    3    4      0.00      0.00
   -8    3    3      0.00      0.00
   -8    3    2      0.00      0.00
   -8    3    1      0.00      0.00
    8    3    0      0.00      0.00
    8    3    1      0.00      0.00
    8    3    2      0.00      0.00
    8    3    3      0.00      0.00
    8    3    4      0.00      0.00
    8    3    5      0.00      0.00
    8    3    6      0.00      0.00
   -8    2    6      0.00      0.00
   -8    2    5      0.00      0.00
   -8    2    4      0.00      0.00
   -8    2    3      0.00      0.00
   -8    2    2      0.00      0.00
   -8    2    1      0.00      0.00
    8    2    0      0.00      0.00
    8    2    1      0.00      0.00
    8    2    2      0.00      0.00
    8    2    3      0.00      0.00
    8    2    4      0.00      0.00
    8    2    5      0.00      0.00
   -8    1    8      0.00      0.00
   -8    1    7      0.00      0.00
   -8    1    6      0.00      0.00
   -8    1    5      0.00      0.00
   -8    1    4      0.00      0.00
   -8    1    3      0.00      0.00
   -8    1    2      0.00      0.00
    8    1    0      0.00      0.00
    8    1    1      0.00      0.00
    8    1    2      0.00      0.00
    8    1    3      0.00      0.00
    8    1    4      0.00      0.00
    8    1    5      0.00      0.00
    8    1    6      0.00      0.00
   -8    0    8      0.00      0.00
   -8    0    6      0.00      0.00
   -8    0    4      0.00      0.00
   -8    0    2      0.00      0.00
    8    0    0      0.00      0.00
    8    0    2      0.00      0.00
    8    0    4      0.00      0.00
    8    0    6      0.00      0.00
   -8    1    1      0.00      0.00
   -8    2    8      0.00      0.00
   -8    3    8      0.00      0.00
   -8    3    7      0.00      0.00
   -8    4    8      0.00      0.00
   -8    4    7      0.00      0.00
   -8    5    8      0.00      0.00
   -8    5    7      0.00      0.00
   -8    6    8      0.00      0.00
   -8    7    8      0.00      0.00
   -8    7    7      0.00      0.00
    8   14    2      0.00      0.00
   -9   14    2      0.00      0.00
   -9   14    1      0.00      0.00
    9   14    0      0.00      0.00
   -9   13    3      0.00      0.00
   -9   13    2      0.00      0.00
   -9   13    1      0.00      0.00
    9   13    0      0.00      0.00
   -9   12    5      0.00      0.00
   -9   12    4      0.00      0.00
   -9   12    3      0.00      0.00
   -9   12    2      0.00      0.00
   -9   12    1      0.00      0.00
    9   12    0      0.00      0.00
    9   12    1      0.00      0.00
    9   12    2      0.00      0.00
   -9   11    6      0.00      0.00
   -9   11    5      0.00      0.00
   -9   11    4      0.00      0.00
   -9   11    3      0.00      0.00
   -9   11    2      0.00      0.00
   -9   11    1      0.00      0.00
    9   11    0      0.00      0.00
    9   11    1      0.00      0.00
    9   11    2      0.00      0.00
    9   11    3      0.00      0.00
   -9   10    6      0.00      0.00
   -9   10    5      0.00      0.00
   -9   10    4      0.00      0.00
   -9   10    3      0.00      0.00
   -9   10    2      0.00      0.00
   -9   10    1      0.00      0.00
    9   10    0      0.00      0.00
    9   10    1      0.00      0.00
    9   10    2      0.00      0.00
    9   10    3      0.00      0.00
   -9    9    6      0.00      0.00
   -9    9    5      0.00      0.00
   -9    9    3      0.00      0.00
   -9    9    2      0.00      0.00
   -9    9    1      0.00      0.00
    9    9    0      0.00      0.00
    9    9    1      0.00      0.00
    9    9    2      0.00      0.00
    9    9    3      0.00      0.00
    9    9    4      0.00      0.00
   -9    8    7      0.00      0.00
   -9    8    6      0.00      0.00
   -9    8    5      0.00      0.00
   -9    8    4      0.00      0.00
   -9    8    3      0.00      0.00
   -9    8    2      0.00      0.00
   -9    8    1      0.00      0.00
    9    8    0      0.00      0.00
    9    8    1      0.00      0.00
    9    8    2      0.00      0.00
    9    8    3      0.00      0.00
    9    8    4      0.00      0.00
   -9    7    7      0.00      0.00
   -9    7    6      0.00      0.00
   -9    7    5      0.00      0.00
   -9    7    4      0.00      0.00
   -9    7    3      0.00      0.00
   -9    7    2      0.00      0.00
   -9    7    1      0.00      0.00
    9    7    0      0.00      0.00
    9    7    1      0.00      0.00
    9    7    2      0.00      0.00
    9    7    3      0.00      0.00
    9    7    4      0.00      0.00
   -9    6    7      0.00      0.00
   -9    6    6      0.00      0.00
   -9    6    5      0.00      0.00
   -9    6    4      0.00      0.00
   -9    6    3      0.00      0.00
   -9    6    2      0.00      0.00
   -9    6    1      0.00      0.00
    9    6    0      0.00      0.00
    9    6    1      0.00      0.00
    9    6    2      0.00      0.00
    9    6    3      0.00      0.00
    9    6    4      0.00      0.00
    9    6    5      0.00      0.00
   -9    5    7      0.00      0.00
   -9    5    6      0.00      0.00
   -9    5    5      0.00      0.00
   -9    5    4      0.00      0.00
   -9    5    3      0.00      0.00
   -9    5    2      0.00      0.00
   -9    5    1      0.00      0.00
    9    5    0      0.00      0.00
    9    5    1      0.00      0.00
    9    5    2      0.00      0.00
    9    5    3      0.00      0.00
    9    5    4      0.00      0.00
    9    5    5      0.00      0.00
   -9    4    7      0.00      0.00
   -9    4    6      0.00      0.00
   -9    4    5      0.00      0.00
   -9    4    4      0.00      0.00
   -9    4    3      0.00      0.00
   -9    4    2      0.00      0.00
   -9    4    1      0.00      0.00
    9    4    0      0.00      0.00
    9    4    1      0.00      0.00
    9    4    2      0.00      0.00
    9    4    3      0.00      0.00
    9    4    4      0.00      0.00
    9    4    5      0.00      0.00
   -9    3    6      0.00      0.00
   -9    3    5      0.00      0.00
   -9    3    4      0.00      0.00
   -9    3    3      0.00      0.00
   -9    3    2      0.00      0.00
   -9    3    1      0.00      0.00
    9    3    0      0.00      0.00
    9    3    1      0.00      0.00
    9    3    2      0.00      0.00
    9    3    3      0.00      0.00
    9    3    4      0.00      0.00
    9    3    5      0.00      0.00
   -9    2    6      0.00      0.00
   -9    2    5      0.00      0.00
   -9    2    4      0.00      0.00
   -9    2    3      0.00      0.00
   -9    2    2      0.00      0.00
   -9    2    1      0.00      0.00
    9    2    0      0.00      0.00
    9    2    1      0.00      0.00
    9    2    2      0.00      0.00
    9    2    3      0.00      0.00
    9    2    4      0.00      0.00
    9    2    5      0.00      0.00
   -9    1    6      0.00      0.00
   -9    1    5      0.00      0.00
   -9    1    4      0.00      0.00
   -9    1    3      0.00      0.00
   -9    1    2      0.00      0.00
   -9    1    1      0.00      0.00
    9    1    0      0.00      0.00
    9    1    1      0.00      0.00
    9    1    2      0.00      0.00
    9    1    3      0.00      0.00
    9    1    4      0.00      0.00
    9    1    5      0.00      0.00
   -9    0    6      0.00      0.00
   -9    0    4      0.00      0.00
    9    0    0      0.00      0.00
    9    0    2      0.00      0.00
    9    0    4      0.00      0.00
   -9    2    8      0.00      0.00
   -9    2    7      0.00      0.00
   -9    3    8      0.00      0.00
   -9    3    7      0.00      0.00
   -9    4    8      0.00      0.00
   -9    5    8      0.00      0.00
   -9    9    7      0.00      0.00
   -9    9    4      0.00      0.00
   -9   13    4      0.00      0.00
    9   13    1      0.00      0.00
  -10   13    2      0.00      0.00
  -10   13    1      0.00      0.00
   10   13    0      0.00      0.00
  -10   12    3      0.00      0.00
  -10   12    2      0.00      0.00
  -10   12    1      0.00      0.00
   10   12    0      0.00      0.00
   10   12    1      0.00      0.00
  -10   11    4      0.00      0.00
  -10   11    3      0.00      0.00
  -10   11    2      0.00      0.00
  -10   11    1      0.00      0.00
   10   11    0      0.00      0.00
   10   11    1      0.00      0.00
   10   11    2      0.00      0.00
  -10   10    5      0.00      0.00
  -10   10    4      0.00      0.00
  -10   10    3      0.00      0.00
  -10   10    2      0.00      0.00
  -10   10    1      0.00      0.00
   10   10    0      0.00      0.00
   10   10    1      0.00      0.00
   10   10    2      0.00      0.00
  -10    9    6      0.00      0.00
  -10    9    5      0.00      0.00
  -10    9    4      0.00      0.00
  -10    9    3      0.00      0.00
  -10    9    2      0.00      0.00
  -10    9    1      0.00      0.00
   10    9    0      0.00      0.00
   10    9    1      0.00      0.00
   10    9    2      0.00      0.00
   10    9    3      0.00      0.00
  -10    8    6      0.00      0.00
  -10    8    5      0.00      0.00
  -10    8    4      0.00      0.00
  -10    8    3      0.00      0.00
  -10    8    2      0.00      0.00
  -10    8    1      0.00      0.00
   10    8    0      0.00      0.00
   10    8    1      0.00      0.00
   10    8    2      0.00      0.00
   10    8    3      0.00      0.00
  -10    7    6      0.00      0.00
  -10    7    5      0.00      0.00
  -10    7    4      0.00      0.00
  -10    7    3      0.00      0.00
  -10    7    2      0.00      0.00
  -10    7    1      0.00      0.00
   10    7    0      0.00      0.00
   10    7    1      0.00      0.00
   10    7    2      0.00      0.00
   10    7    3      0.00      0.00
  -10    6    7      0.00      0.00
  -10    6    6      0.00      0.00
  -10    6    5      0.00      0.00
  -10    6    4      0.00      0.00
  -10    6    3      0.00      0.00
  -10    6    2      0.00      0.00
  -10    6    1      0.00      0.00
   10    6    0      0.00      0.00
   10    6    1      0.00      0.00
   10    6    2      0.00      0.00
   10    6    3      0.00      0.00
   10    6    4      0.00      0.00
  -10    5    6      0.00      0.00
  -10    5    5      0.00      0.00
  -10    5    4      0.00      0.00
  -10    5    3      0.00      0.00
  -10    5    2      0.00      0.00
  -10    5    1      0.00      0.00
   10    5    0      0.00      0.00
   10    5    1      0.00      0.00
   10    5    2      0.00      0.00
   10    5    3      0.00      0.00
   10    5    4      0.00      0.00
  -10    4    7      0.00      0.00
  -10    4    6      0.00      0.00
  -10    4    5      0.00      0.00
  -10    4    4      0.00      0.00
  -10    4    3      0.00      0.00
  -10    4    2      0.00      0.00
  -10    4    1      0.00      0.00
   10    4    0      0.00      0.00
   10    4    1      0.00      0.00
   10    4    2      0.00      0.00
   10    4    3      0.00      0.00
   10    4    4      0.00      0.00
  -10    3    7      0.00      0.00
  -10    3    6      0.00      0.00
  -10    3    5      0.00      0.00
  -10    3    4      0.00      0.00
  -10    3    3      0.00      0.00
  -10    3    2      0.00      0.00
  -10    3    1      0.00      0.00
   10    3    0      0.00      0.00
   10    3    1      0.00      0.00
   10    3    2      0.00      0.00
   10    3    3      0.00      0.00
   10    3    4      0.00      0.00
  -10    2    7      0.00      0.00
  -10    2    6      0.00      0.00
  -10    2    5      0.00      0.00
  -10    2    4      0.00      0.00
  -10    2    3      0.00      0.00
  -10    2    2      0.00      0.00
  -10    2    1      0.00      0.00
   10    2    0      0.00      0.00
   10    2    1      0.00      0.00
   10    2    2      0.00      0.00
   10    2    3      0.00      0.00
   10    2    4      0.00      0.00
   10    2    5      0.00      0.00
  -10    1    7      0.00      0.00
  -10    1    6      0.00      0.00
  -10    1    5      0.00      0.00
  -10    1    4      0.00      0.00
  -10    1    3      0.00      0.00
  -10    1    2      0.00      0.00
  -10    1    1      0.00      0.00
   10    1    0      0.00      0.00
   10    1    1      0.00      0.00
   10    1    2      0.00      0.00
   10    1    3      0.00      0.00
   10    1    4      0.00      0.00
   10    1    5      0.00      0.00
  -10    0    6      0.00      0.00
  -10    0    4      0.00      0.00
   10    0    2      0.00      0.00
   10    0    4      0.00      0.00
  -10    5    7      0.00      0.00
  -10    7    7      0.00      0.00
  -11   11    3      0.00      0.00
  -11   11    2      0.00      0.00
  -11   11    1      0.00      0.00
   11   11    0      0.00      0.00
  -11   10    4      0.00      0.00
  -11   10    3      0.00      0.00
  -11   10    2      0.00      0.00
  -11   10    1      0.00      0.00
   11   10    0      0.00      0.00
   11   10    1      0.00      0.00
  -11    9    4      0.00      0.00
  -11    9    3      0.00      0.00
  -11    9    2      0.00      0.00
  -11    9    1      0.00      0.00
   11    9    0      0.00      0.00
   11    9    1      0.00      0.00
  -11    8    5      0.00      0.00
  -11    8    4      0.00      0.00
  -11    8    3      0.00      0.00
  -11    8    2      0.00      0.00
   11    8    0      0.00      0.00
   11    8    1      0.00      0.00
   11    8    2      0.00      0.00
  -11    7    6      0.00      0.00
  -11    7    5      0.00      0.00
  -11    7    4      0.00      0.00
  -11    7    3      0.00      0.00
  -11    7    2      0.00      0.00
  -11    7    1      0.00      0.00
   11    7    0      0.00      0.00
   11    7    1      0.00      0.00
   11    7    2      0.00      0.00
  -11    6    6      0.00      0.00
  -11    6    5      0.00      0.00
  -11    6    4      0.00      0.00
  -11    6    3      0.00      0.00
  -11    6    2      0.00      0.00
  -11    6    1      0.00      0.00
   11    6    0      0.00      0.00
   11    6    1      0.00      0.00
   11    6    2      0.00      0.00
   11    6    3      0.00      0.00
  -11    5    6      0.00      0.00
  -11    5    5      0.00      0.00
  -11    5    4      0.00      0.00
  -11    5    3      0.00      0.00
  -11    5    2      0.00      0.00
  -11    5    1      0.00      0.00
   11    5    0      0.00      0.00
   11    5    1      0.00      0.00
   11    5    2      0.00      0.00
   11    5    3      0.00      0.00
  -11    4    6      0.00      0.00
  -11    4    5      0.00      0.00
  -11    4    3      0.00      0.00
  -11    4    2      0.00      0.00
  -11    4    1      0.00      0.00
   11    4    0      0.00      0.00
   11    4    1      0.00      0.00
   11    4    2      0.00      0.00
   11    4    3      0.00      0.00
  -11    3    7      0.00      0.00
  -11    3    6      0.00      0.00
  -11    3    5      0.00      0.00
  -11    3    4      0.00      0.00
  -11    3    3      0.00      0.00
  -11    3    2      0.00      0.00
  -11    3    1      0.00      0.00
   11    3    0      0.00      0.00
   11    3    1      0.00      0.00
   11    3    2      0.00      0.00
   11    3    3      0.00      0.00
  -11    2    7      0.00      0.00
  -11    2    6      0.00      0.00
  -11    2    5      0.00      0.00
  -11    2    4      0.00      0.00
  -11    2    3      0.00      0.00
  -11    2    2      0.00      0.00
  -11    2    1      0.00      0.00
   11    2    0      0.00      0.00
   11    2    1      0.00      0.00
   11    2    2      0.00      0.00
   11    2    3      0.00      0.00
   11    2    4      0.00      0.00
  -11    1    7      0.00      0.00
  -11    1    6      0.00      0.00
  -11    1    5      0.00      0.00
  -11    1    4      0.00      0.00
  -11    1    3      0.00      0.00
  -11    1    2      0.00      0.00
  -11    1    1      0.00      0.00
   11    1    0      0.00      0.00
   11    1    1      0.00      0.00
   11    1    2      0.00      0.00
   11    1    3      0.00      0.00
   11    1    4      0.00      0.00
  -11    0    6      0.00      0.00
  -11    0    4      0.00      0.00
  -11    0    2      0.00      0.00
   11    0    0      0.00      0.00
   11    0    2      0.00      0.00
   11    0    4      0.00      0.00
  -11    4    4      0.00      0.00
  -11    8    1      0.00      0.00
  -12    9    3      0.00      0.00
  -12    9    2      0.00      0.00
  -12    9    1      0.00      0.00
   12    9    0      0.00      0.00
  -12    8    3      0.00      0.00
  -12    8    2      0.00      0.00
   12    8    0      0.00      0.00
  -12    7    4      0.00      0.00
  -12    7    3      0.00      0.00
  -12    7    2      0.00      0.00
  -12    7    1      0.00      0.00
   12    7    0      0.00      0.00
   12    7    1      0.00      0.00
  -12    6    5      0.00      0.00
  -12    6    4      0.00      0.00
  -12    6    3      0.00      0.00
  -12    6    2      0.00      0.00
  -12    6    1      0.00      0.00
   12    6    0      0.00      0.00
   12    6    1      0.00      0.00
  -12    5    5      0.00      0.00
  -12    5    4      0.00      0.00
  -12    5    3      0.00      0.00
  -12    5    2      0.00      0.00
  -12    5    1      0.00      0.00
   12    5    0      0.00      0.00
   12    5    1      0.00      0.00
  -12    4    5      0.00      0.00
  -12    4    4      0.00      0.00
  -12    4    3      0.00      0.00
  -12    4    2      0.00      0.00
   12    4    0      0.00      0.00
   12    4    1      0.00      0.00
   12    4    2      0.00      0.00
  -12    3    6      0.00      0.00
  -12    3    5      0.00      0.00
  -12    3    4      0.00      0.00
  -12    3    3      0.00      0.00
  -12    3    2      0.00      0.00
  -12    3    1      0.00      0.00
   12    3    0      0.00      0.00
   12    3    1      0.00      0.00
   12    3    2      0.00      0.00
  -12    2    6      0.00      0.00
  -12    2    5      0.00      0.00
  -12    2    4      0.00      0.00
  -12    2    3      0.00      0.00
  -12    2    2      0.00      0.00
  -12    2    1      0.00      0.00
   12    2    0      0.00      0.00
   12    2    1      0.00      0.00
   12    2    2      0.00      0.00
  -12    1    6      0.00      0.00
  -12    1    5      0.00      0.00
  -12    1    4      0.00      0.00
  -12    1    3      0.00      0.00
  -12    1    2      0.00      0.00
  -12    1    1      0.00      0.00
   12    1    0      0.00      0.00
   12    1    1      0.00      0.00
   12    1    2      0.00      0.00
  -12    0    6      0.00      0.00
  -12    0    4      0.00      0.00
  -12    0    2      0.00      0.00
   12    0    0      0.00      0.00
   12    0    2      0.00      0.00
  -12    4    1      0.00      0.00
  -12    8    1      0.00      0.00
  -13    6    2      0.00      0.00
  -13    6    1      0.00      0.00
  -13    5    3      0.00      0.00
  -13    5    2      0.00      0.00
  -13    5    1      0.00      0.00
   13    5    0      0.00      0.00
  -13    4    3      0.00      0.00
  -13    4    2      0.00      0.00
   13    4    0      0.00      0.00
  -13    3    4      0.00      0.00
  -13    3    3      0.00      0.00
  -13    3    2      0.00      0.00
  -13    3    1      0.00      0.00
   13    3    0      0.00      0.00
  -13    2    4      0.00      0.00
  -13    2    3      0.00      0.00
  -13    2    2      0.00      0.00
  -13    2    1      0.00      0.00
   13    2    0      0.00      0.00
  -13    1    4      0.00      0.00
  -13    1    3      0.00      0.00
  -13    1    2      0.00      0.00
  -13    1    1      0.00      0.00
   13    1    0      0.00      0.00
  -13    0    4      0.00      0.00
  -13    0    2      0.00      0.00
   13    0    0      0.00      0.00
  -13    4    1      0.00      0.00
    0    0    0      0.00      0.00
# SQUEEZE RESULTS (Version = 141217)
# Note: Data are Listed for all Voids in the P1 Unit Cell
# i.e. Centre of Gravity, Solvent Accessible Volume,
# Recovered number of Electrons in the Void and
# Details about the Squeezed Material
loop_
  _platon_squeeze_void_nr
  _platon_squeeze_void_average_x
  _platon_squeeze_void_average_y
  _platon_squeeze_void_average_z
  _platon_squeeze_void_volume
  _platon_squeeze_void_count_electrons
  _platon_squeeze_void_content
_platon_squeeze_void_probe_radius                  1.20
_platon_squeeze_details
)
TITL 210424f_a.res in P2(1)/c
CELL   10.4695   14.4546    7.2649     90.00    101.51     90.00
SPGR P21/c
# Solvent Accessible Volume =         0
# Electrons Found in S.A.V. =         0
# Note: Atoms in Void are Labelled as Cxxx and Qxxx for all Others
Q101 0.779 0.741 0.222 !       3.55 eA-3
Q102 0.379 0.203 0.152 !       2.95 eA-3
Q103 0.215 0.204 0.120 !       2.82 eA-3
Q104 0.370 1.004 0.406 !       2.67 eA-3
Q105 0.631 0.784 0.965 !       2.66 eA-3
Q106 0.319 0.144 0.068 !       2.63 eA-3
Q107 0.783 0.751 0.374 !       2.55 eA-3
Q108 0.239 0.363 0.690 !       2.53 eA-3
Q109 0.466 0.416 0.749 !       2.31 eA-3
Q110 0.712 0.703 0.130 !       2.27 eA-3
Q111 0.848 0.875 0.027 !       2.25 eA-3
Q112 0.272 0.312 0.221 !       2.22 eA-3
Q113 0.594 0.675 0.226 !       2.18 eA-3
Q114 0.700 0.611 0.157 !       2.17 eA-3
Q115 0.931 0.649 0.571 !       2.12 eA-3
Q116 0.712 0.718 0.600 !       2.03 eA-3
Q117 0.341 0.315 0.090 !       2.01 eA-3
Q118 0.881 0.730 0.128 !       2.01 eA-3
Q119 0.285 0.266 0.005 !       2.01 eA-3
Q120 0.559 0.829 0.187 !       2.00 eA-3
Q121 0.187 0.406 0.258 !       2.00 eA-3
Q122 0.374 0.249 0.160 !       2.00 eA-3
Q123 0.414 0.358 0.091 !       1.86 eA-3
Q124 0.697 0.672 0.214 !       1.84 eA-3
Q125 0.646 0.904 0.447 !       1.77 eA-3
Q126 0.153 0.125 0.121 !       1.73 eA-3
Q127 0.405 0.783 0.375 !       1.73 eA-3
Q128 0.633 0.596 0.024 !       1.73 eA-3
Q129 0.591 1.001 0.720 !       1.72 eA-3
Q130 0.148 0.168 0.073 !       1.71 eA-3
Q131 0.312 0.450 0.403 !       1.63 eA-3
Q132 0.882 0.664 0.556 !       1.61 eA-3
Q133 0.630 0.707 0.866 !       1.60 eA-3
Q134 0.217 0.922 0.499 !       1.60 eA-3
Q135 0.147 0.405 0.405 !       1.59 eA-3
Q136 0.768 0.913 0.185 !       1.57 eA-3
Q137 0.693 0.595 0.033 !       1.57 eA-3
Q138 0.937 0.827 0.189 !       1.54 eA-3
Q139 0.316 0.779 0.278 !       1.54 eA-3
Q140 0.490 0.434 0.873 !       1.52 eA-3
Q141 0.471 0.407 0.192 !       1.51 eA-3
Q142 0.623 0.672 0.029 !       1.50 eA-3
Q143 0.685 0.566 0.153 !       1.48 eA-3
Q144 0.673 0.820 0.631 !       1.48 eA-3
Q145 0.467 0.334 0.213 !       1.47 eA-3
Q146 0.531 0.267 0.402 !       1.47 eA-3
Q147 0.464 0.233 0.159 !       1.46 eA-3
Q148 0.480 0.473 0.841 !       1.45 eA-3
Q149 0.713 0.867 0.100 !       1.44 eA-3
Q150 0.626 0.027 0.974 !       1.44 eA-3
Q151 0.473 0.689 0.652 !       1.43 eA-3
Q152 0.870 0.048 0.594 !       1.42 eA-3
Q153 0.138 0.267 0.666 !       1.42 eA-3
Q154 0.651 0.189 0.369 !       1.41 eA-3
Q155 0.968 0.173 0.063 !       1.41 eA-3
Q156 0.102 0.154 0.372 !       1.41 eA-3
Q157 0.249 0.309 0.501 !       1.40 eA-3
Q158 0.159 0.287 0.456 !       1.38 eA-3
Q159 0.387 0.624 0.412 !       1.37 eA-3
Q160 0.448 0.564 0.282 !       1.37 eA-3
Q161 0.159 0.780 0.344 !       1.36 eA-3
Q162 0.145 0.469 0.622 !       1.36 eA-3
Q163 0.400 0.139 0.006 !       1.34 eA-3
Q164 0.966 0.357 0.187 !       1.34 eA-3
Q165 0.055 0.364 0.181 !       1.34 eA-3
Q166 0.340 0.862 0.679 !       1.34 eA-3
Q167 0.508 0.668 0.156 !       1.32 eA-3
Q168 0.184 0.859 0.441 !       1.31 eA-3
Q169 0.185 0.421 0.160 !       1.30 eA-3
Q170 0.748 0.982 0.400 !       1.30 eA-3
Q171 0.496 0.592 0.003 !       1.29 eA-3
Q172 0.031 0.974 0.681 !       1.28 eA-3
Q173 0.435 0.705 0.013 !       1.28 eA-3
Q174 0.570 0.172 0.086 !       1.28 eA-3
Q175 0.878 0.575 0.469 !       1.27 eA-3
Q176 0.303 0.731 0.182 !       1.26 eA-3
Q177 0.185 0.329 0.091 !       1.26 eA-3
Q178 0.938 0.112 0.465 !       1.25 eA-3
Q179 0.624 0.915 0.892 !       1.25 eA-3
Q180 0.433 0.936 0.403 !       1.25 eA-3
Q181 0.161 0.782 0.817 !       1.25 eA-3
Q182 0.408 0.807 0.626 !       1.24 eA-3
Q183 0.058 0.297 0.087 !       1.23 eA-3
Q184 0.749 0.377 0.037 !       1.22 eA-3
Q185 0.121 0.549 0.033 !       1.21 eA-3
Q186 0.401 0.830 0.246 !       1.20 eA-3
Q187 0.962 0.391 0.282 !       1.20 eA-3
Q188 0.500 0.908 0.129 !       1.20 eA-3
Q189 0.059 0.129 0.086 !       1.20 eA-3
Q190 0.637 0.164 0.152 !       1.19 eA-3
Q191 0.563 0.951 0.092 !       1.18 eA-3
Q192 0.526 0.895 0.622 !       1.18 eA-3
Q193 0.958 0.450 0.187 !       1.17 eA-3
Q194 0.502 0.392 0.308 !       1.17 eA-3
Q195 0.370 0.528 0.186 !       1.16 eA-3
Q196 0.271 0.457 0.256 !       1.15 eA-3
Q197 0.374 0.536 0.026 !       1.15 eA-3
Q198 0.155 0.751 0.066 !       1.15 eA-3
Q199 0.406 0.860 0.377 !       1.14 eA-3
)
;
_shelx_fab_checksum              45145
loop_
_space_group_symop_operation_xyz
'x, y, z'
'-x, y+1/2, -z+1/2'
'-x, -y, -z'
'x, -y-1/2, z-1/2'
loop_
_atom_site_label
_atom_site_type_symbol
_atom_site_fract_x
_atom_site_fract_y
_atom_site_fract_z
_atom_site_U_iso_or_equiv
_atom_site_adp_type
_atom_site_occupancy
_atom_site_site_symmetry_order
_atom_site_calc_flag
_atom_site_refinement_flags_posn
_atom_site_refinement_flags_adp
_atom_site_refinement_flags_occupancy
_atom_site_disorder_assembly
_atom_site_disorder_group
In1 In 0.70532(9) 0.72630(6) 0.35821(12) 0.0216(3) Uani 1 1 d . U . . .
Se1 Se 0.50205(15) 0.82242(11) 0.3960(2) 0.0349(4) Uani 1 1 d . U . . .
Se2 Se 0.61032(15) 0.91384(9) 0.6495(2) 0.0273(4) Uani 1 1 d . U . . .
Se3 Se 0.84177(14) 0.67560(10) 0.6742(2) 0.0261(4) Uani 1 1 d . U . . .
C1 C 0.7976(17) 0.4150(13) 0.901(2) 0.051(5) Uani 1 1 d D . . . .
C2 C 0.9174(15) 0.3928(15) 0.825(2) 0.058(6) Uani 1 1 d D . . . .
C3 C 0.8838(17) 0.3459(13) 0.637(2) 0.055(5) Uani 1 1 d D . . . .
C5 C 0.6667(15) 0.4248(12) 0.570(2) 0.043(4) Uani 1 1 d D . . . .
C4 C 0.7895(14) 0.4030(12) 0.501(2) 0.049(5) Uani 1 1 d D . . . .
N1 N 0.7017(12) 0.4705(9) 0.7591(18) 0.031(3) Uani 1 1 d . . . . .
loop_
_atom_site_aniso_label
_atom_site_aniso_U_11
_atom_site_aniso_U_22
_atom_site_aniso_U_33
_atom_site_aniso_U_23
_atom_site_aniso_U_13
_atom_site_aniso_U_12
In1 0.0271(6) 0.0267(5) 0.0131(5) -0.0009(3) 0.0094(3) 0.0007(4)
Se1 0.0261(8) 0.0443(9) 0.0335(10) -0.0074(7) 0.0037(6) 0.0088(6)
Se2 0.0397(9) 0.0251(7) 0.0199(8) 0.0017(5) 0.0127(6) 0.0035(6)
Se3 0.0299(8) 0.0320(8) 0.0177(8) 0.0020(5) 0.0079(5) 0.0067(6)
C1 0.068(13) 0.070(12) 0.018(9) 0.007(8) 0.019(8) 0.024(10)
C2 0.034(10) 0.099(16) 0.043(12) -0.002(11) 0.012(8) 0.026(10)
C3 0.045(11) 0.080(14) 0.043(11) -0.011(10) 0.017(8) 0.035(10)
C5 0.036(9) 0.059(10) 0.034(10) -0.001(8) 0.011(7) 0.016(8)
C4 0.058(12) 0.067(12) 0.025(10) -0.011(9) 0.017(8) 0.004(9)
N1 0.029(7) 0.040(7) 0.030(7) -0.002(5) 0.017(5) 0.006(5)
loop_
_atom_type_symbol
_atom_type_description
_atom_type_scat_dispersion_real
_atom_type_scat_dispersion_imag
_atom_type_scat_source
In In -0.7276 1.3100 'International Tables Vol C Tables 4.2.6.8 and 6.1.1.4'
Se Se -0.0929 2.2259 'International Tables Vol C Tables 4.2.6.8 and 6.1.1.4'
C C 0.0033 0.0016 'International Tables Vol C Tables 4.2.6.8 and 6.1.1.4'
H H 0.0000 0.0000 'International Tables Vol C Tables 4.2.6.8 and 6.1.1.4'
N N 0.0061 0.0033 'International Tables Vol C Tables 4.2.6.8 and 6.1.1.4'
loop_
_geom_angle_atom_site_label_1
_geom_angle_atom_site_label_2
_geom_angle_atom_site_label_3
_geom_angle
_geom_angle_site_symmetry_1
_geom_angle_site_symmetry_3
_geom_angle_publ_flag
Se3 In1 Se3 110.87(6) . 4_575 ?
Se3 In1 Se1 112.37(6) . . ?
Se3 In1 Se1 108.15(6) 4_575 . ?
Se3 In1 Se2 112.32(6) . 4_575 ?
Se3 In1 Se2 108.27(5) 4_575 4_575 ?
Se1 In1 Se2 104.55(6) . 4_575 ?
Se2 Se1 In1 96.06(7) . . ?
Se1 Se2 In1 94.98(6) . 4_576 ?
In1 Se3 In1 92.29(5) . 4_576 ?
C2 C1 N1 110.6(13) . . ?
C1 C2 C3 111.6(14) . . ?
C4 C3 C2 110.8(13) . . ?
N1 C5 C4 109.2(13) . . ?
C3 C4 C5 112.8(13) . . ?
C5 N1 C1 113.4(12) . . ?
loop_
_geom_bond_atom_site_label_1
_geom_bond_atom_site_label_2
_geom_bond_distance
_geom_bond_site_symmetry_2
_geom_bond_publ_flag
In1 Se3 2.5573(16) . ?
In1 Se3 2.5691(17) 4_575 ?
In1 Se1 2.6015(18) . ?
In1 Se2 2.6059(16) 4_575 ?
Se1 Se2 2.364(2) . ?
Se2 In1 2.6059(16) 4_576 ?
Se3 In1 2.5691(17) 4_576 ?
C1 C2 1.502(9) . ?
C1 N1 1.52(2) . ?
C2 C3 1.503(9) . ?
C3 C4 1.499(9) . ?
C5 N1 1.50(2) . ?
C5 C4 1.505(9) . ?
