#------------------------------------------------------------------------------
#$Date: 2022-02-24 01:53:01 +0200 (Thu, 24 Feb 2022) $
#$Revision: 273137 $
#$URL: file:///home/coder/svn-repositories/cod/cif/7/70/96/7709600.cif $
#------------------------------------------------------------------------------
#
# This file is available in the Crystallography Open Database (COD),
# http://www.crystallography.net/
#
# All data on this site have been placed in the public domain by the
# contributors.
#
data_7709600
loop_
_publ_author_name
'Tang, Chunlan'
'Xing, Wen-Hao'
'Wang, Naizheng'
'Tang, Jian'
'Lin, Zheshuai'
'Wu, Jieyun'
'Yin, Wenlong'
'Bin, Kang'
_publ_section_title
;
 The synthesis and structure-property relation analysis of metal
 chalcohalide crystals Cs2InPS4X2 (X = Cl, Br) with mixed anions
;
_journal_name_full               'Dalton Transactions'
_journal_paper_doi               10.1039/D2DT00078D
_journal_year                    2022
_chemical_formula_moiety         'Cl2 Cs2 In P S4'
_chemical_formula_sum            'Cl2 Cs2 In P S4'
_chemical_formula_weight         610.75
_space_group_crystal_system      monoclinic
_space_group_IT_number           14
_space_group_name_Hall           '-P 2yn'
_space_group_name_H-M_alt        'P 1 21/n 1'
_atom_sites_solution_primary     dual
_audit_creation_date             2021-03-14
_audit_creation_method
;
Olex2 1.2
(compiled 2018.05.29 svn.r3508 for OlexSys, GUI svn.r5506)
;
_cell_angle_alpha                90
_cell_angle_beta                 95.978(4)
_cell_angle_gamma                90
_cell_formula_units_Z            4
_cell_length_a                   9.5832(4)
_cell_length_b                   7.7966(3)
_cell_length_c                   16.4343(6)
_cell_measurement_reflns_used    7999
_cell_measurement_temperature    295.03(10)
_cell_measurement_theta_max      26.3250
_cell_measurement_theta_min      3.3480
_cell_volume                     1221.23(8)
_computing_cell_refinement       'CrysAlisPro 1.171.39.44a (Rigaku OD, 2018)'
_computing_data_collection       'CrysAlisPro 1.171.39.44a (Rigaku OD, 2018)'
_computing_data_reduction        'CrysAlisPro 1.171.39.44a (Rigaku OD, 2018)'
_computing_molecular_graphics    'Olex2 (Dolomanov et al., 2009)'
_computing_publication_material  'Olex2 (Dolomanov et al., 2009)'
_computing_structure_refinement  'ShelXL (Sheldrick, 2015)'
_computing_structure_solution    'ShelXT (Sheldrick, 2015)'
_diffrn_ambient_environment      air
_diffrn_ambient_temperature      295.03(10)
_diffrn_detector                 'CCD plate'
_diffrn_detector_type            HyPix
_diffrn_measured_fraction_theta_full 0.998
_diffrn_measured_fraction_theta_max 0.998
_diffrn_measurement_details
;
List of Runs (angles in degrees, time in seconds):

  # Type    Start    End  Width  t~exp~   \w     \q     \k     \f   Frames
--------------------------------------------------------------------------
  1  \w    -13.00  41.00   0.50    4.00    --    9.62 -99.00-180.00  108
  2  \w    -28.00  -2.00   0.50    4.00    --   -8.52 -19.00   0.00   52
  3  \w    -78.00  -3.00   0.50    4.00    --   -8.52 -37.00   0.00  150
  4  \w    -80.00 -12.00   0.50    4.00    --   -8.52 -37.00 120.00  136
  5  \w     -4.00  77.00   0.50    4.00    --    9.62  57.00   0.00  162
  6  \w    -58.00  14.00   0.50    4.00    --    9.62 -19.00-150.00  144
  7  \w     -5.00  22.00   0.50    4.00    --   -8.52 -99.00-150.00   54
  8  \w    -24.00  23.00   0.50    4.00    --   -8.52 -99.00 -90.00   94
;
_diffrn_measurement_device       'four-circle diffractometer'
_diffrn_measurement_device_type  'XtaLAB Synergy, Dualflex, HyPix'
_diffrn_measurement_method       '\w scans'
_diffrn_orient_matrix_type
'CrysAlisPro convention (1999,Acta A55,543-557)'
_diffrn_orient_matrix_UB_11      -0.0402724000
_diffrn_orient_matrix_UB_12      -0.0031976000
_diffrn_orient_matrix_UB_13      0.0337984000
_diffrn_orient_matrix_UB_21      -0.0017439000
_diffrn_orient_matrix_UB_22      0.0909111000
_diffrn_orient_matrix_UB_23      0.0010760000
_diffrn_orient_matrix_UB_31      -0.0625633000
_diffrn_orient_matrix_UB_32      -0.0005299000
_diffrn_orient_matrix_UB_33      -0.0272030000
_diffrn_radiation_monochromator  mirror
_diffrn_radiation_probe          x-ray
_diffrn_radiation_type           MoK\a
_diffrn_radiation_wavelength     0.71073
_diffrn_reflns_av_R_equivalents  0.0310
_diffrn_reflns_av_unetI/netI     0.0192
_diffrn_reflns_Laue_measured_fraction_full 0.998
_diffrn_reflns_Laue_measured_fraction_max 0.998
_diffrn_reflns_limit_h_max       11
_diffrn_reflns_limit_h_min       -11
_diffrn_reflns_limit_k_max       9
_diffrn_reflns_limit_k_min       -9
_diffrn_reflns_limit_l_max       20
_diffrn_reflns_limit_l_min       -20
_diffrn_reflns_number            15197
_diffrn_reflns_point_group_measured_fraction_full 0.998
_diffrn_reflns_point_group_measured_fraction_max 0.998
_diffrn_reflns_theta_full        25.242
_diffrn_reflns_theta_max         26.356
_diffrn_reflns_theta_min         3.376
_diffrn_source                   'micro-focus sealed X-ray tube'
_diffrn_source_type              'PhotonJet (Mo) X-ray Source'
_exptl_absorpt_coefficient_mu    9.002
_exptl_absorpt_correction_T_max  1.00000
_exptl_absorpt_correction_T_min  0.83331
_exptl_absorpt_correction_type   multi-scan
_exptl_absorpt_process_details
;
CrysAlisPro 1.171.39.44a (Rigaku Oxford Diffraction, 2018)
Empirical absorption correction using spherical harmonics,
 implemented in SCALE3 ABSPACK scaling algorithm.
;
_exptl_crystal_colour            'clear light colourless'
_exptl_crystal_colour_lustre     clear
_exptl_crystal_colour_modifier   light
_exptl_crystal_colour_primary    colourless
_exptl_crystal_density_diffrn    3.322
_exptl_crystal_description       block
_exptl_crystal_F_000             1088
_exptl_crystal_size_max          0.12
_exptl_crystal_size_mid          0.1
_exptl_crystal_size_min          0.06
_refine_diff_density_max         1.290
_refine_diff_density_min         -0.763
_refine_diff_density_rms         0.111
_refine_ls_extinction_method     none
_refine_ls_goodness_of_fit_ref   1.113
_refine_ls_hydrogen_treatment    undef
_refine_ls_matrix_type           full
_refine_ls_number_parameters     91
_refine_ls_number_reflns         2494
_refine_ls_number_restraints     0
_refine_ls_restrained_S_all      1.113
_refine_ls_R_factor_all          0.0255
_refine_ls_R_factor_gt           0.0221
_refine_ls_shift/su_max          0.001
_refine_ls_shift/su_mean         0.000
_refine_ls_structure_factor_coef Fsqd
_refine_ls_weighting_details
'w=1/[\s^2^(Fo^2^)+(0.0123P)^2^+3.6403P] where P=(Fo^2^+2Fc^2^)/3'
_refine_ls_weighting_scheme      calc
_refine_ls_wR_factor_gt          0.0501
_refine_ls_wR_factor_ref         0.0511
_reflns_Friedel_coverage         0.000
_reflns_number_gt                2210
_reflns_number_total             2494
_reflns_threshold_expression     'I > 2\s(I)'
_cod_data_source_file            d2dt00078d2.cif
_cod_data_source_block           Cs2Cl2InPS4
_cod_original_cell_volume        1221.24(8)
_cod_database_code               7709600
_shelx_shelxl_version_number     2014/7
_chemical_oxdiff_formula         InPSCsCl
_chemical_oxdiff_usercomment     'hemisphere  0.75  0.5 4s RT'
_shelx_space_group_comment
;
The symmetry employed for this shelxl refinement is uniquely defined
by the following loop, which should always be used as a source of
symmetry information in preference to the above space-group names.
They are only intended as comments.
;
_shelx_estimated_absorpt_t_max   0.614
_shelx_estimated_absorpt_t_min   0.411
_reflns_odcompleteness_completeness 82.44
_reflns_odcompleteness_iscentric 1
_reflns_odcompleteness_theta     28.22
_olex2_refinement_description
;
;
_shelx_res_file
;
    exp_7938.res created by SHELXL-2014/7

TITL exp_7938_a.res in P2(1)/n
REM Old TITL exp_7938 in P2(1)/n
REM SHELXT solution in P2(1)/n
REM R1 0.088, Rweak 0.001, Alpha 0.006, Orientation as input
REM Formula found by SHELXT: P Cl6 In2 Cs
CELL 0.71073 9.583204 7.796614 16.434332 90 95.9781 90
ZERR 4 0.000371 0.000311 0.000621 0 0.0037 0
LATT 1
SYMM 0.5-X,0.5+Y,0.5-Z
SFAC Cl Cs In P S
UNIT 8 8 4 4 16

L.S. 4 0 0
PLAN  20
SIZE 0.12 0.1 0.06
list 4
fmap 2 53
acta
REM <olex2.extras>
REM <HklSrc "%.\\exp_7938.hkl">
REM </olex2.extras>

WGHT    0.012300    3.640300
FVAR       0.33364
IN    3    0.688304    0.497986    0.445491    11.00000    0.02098    0.02593 =
         0.01879   -0.00164    0.00065    0.00034
CS1   2    0.861020    0.003839    0.589540    11.00000    0.04053    0.03440 =
         0.03862    0.00383    0.01345    0.00857
CS2   2    1.075801    0.506929    0.772782    11.00000    0.04128    0.03375 =
         0.03916   -0.00215    0.00531    0.00233
P     4    0.635157    0.409300    0.638735    11.00000    0.02174    0.02189 =
         0.01741    0.00087    0.00005    0.00211
S1    5    0.537059    0.270839    0.541771    11.00000    0.02723    0.02434 =
         0.02273   -0.00407   -0.00101   -0.00016
CL1   1    0.838279    0.255999    0.403261    11.00000    0.03241    0.03136 =
         0.03832    0.00048    0.00776    0.00995
CL2   1    0.828815    0.736684    0.392432    11.00000    0.03454    0.03139 =
         0.03753    0.00324    0.00887   -0.00604
S2    5    0.724865    0.275166    0.731780    11.00000    0.03786    0.02909 =
         0.02309    0.00495   -0.00309    0.00653
S4    5    0.477902    0.561429    0.677397    11.00000    0.02720    0.03754 =
         0.02509   -0.01091   -0.00238    0.00879
S3    5    0.787726    0.548749    0.588050    11.00000    0.02813    0.04117 =
         0.02083   -0.00013   -0.00024   -0.01201
HKLF 4

REM  exp_7938_a.res in P2(1)/n
REM R1 =  0.0221 for    2210 Fo > 4sig(Fo)  and  0.0255 for all    2494 data
REM     91 parameters refined using      0 restraints

END

WGHT      0.0123      3.6424

REM Highest difference peak  1.290,  deepest hole -0.763,  1-sigma level  0.111
Q1    1   0.7861 -0.0249  0.5742  11.00000  0.05    1.29
Q2    1   1.0664  0.4855  0.8123  11.00000  0.05    0.84
Q3    1   1.1524  0.5222  0.7860  11.00000  0.05    0.75
Q4    1   0.4558  0.4984  0.7445  11.00000  0.05    0.71
Q5    1   0.9083  0.4938  0.6195  11.00000  0.05    0.61
Q6    1   0.3938  0.5017  0.6596  11.00000  0.05    0.60
Q7    1   0.7225 -0.0033  0.4749  11.00000  0.05    0.58
Q8    1   0.9351 -0.0006  0.6659  11.00000  0.05    0.56
Q9    1   0.7496  0.4984  0.5221  11.00000  0.05    0.55
Q10   1   1.1429  0.5102  0.8928  11.00000  0.05    0.53
Q11   1   0.9792  0.5126  0.7047  11.00000  0.05    0.47
Q12   1   0.6267  0.5812  0.6374  11.00000  0.05    0.42
Q13   1   0.4583  0.2823  0.4598  11.00000  0.05    0.39
Q14   1   0.4830  0.4331  0.6815  11.00000  0.05    0.36
Q15   1   0.8795  0.0146  0.5612  11.00000  0.05    0.36
Q16   1   0.8122  0.0018  0.5038  11.00000  0.05    0.35
Q17   1   1.0500  0.5850  0.7592  11.00000  0.05    0.35
Q18   1   0.5573  0.4871  0.6585  11.00000  0.05    0.34
Q19   1   1.1116  0.5959  0.7668  11.00000  0.05    0.33
Q20   1   0.6983  0.4015  0.6991  11.00000  0.05    0.33
;
_shelx_res_checksum              50803
_shelx_hkl_file
;
   0   0  -3-0.33781 0.92108   1
   0   0   3-0.42004 0.67153   8
   0   0  -4 174.681 9.75197   1
   0   0   4 167.091 8.03445   8
   0   0  -5-0.56741 1.54703   1
   0   0   5 0.34478 1.15132   8
   0   0  -6 19395.5 493.020   8
   0   0  -6 19438.8 498.144   1
   0   0   6 19379.3 493.348   3
   0   0  -7 1.94654 2.20050   8
   0   0  -7-0.78011 2.71153   7
   0   0  -7 1.60922 2.05233   1
   0   0   7 1.55594 2.44948   3
   0   0  -8 709.390 31.2129   1
   0   0  -8 683.093 30.2848   7
   0   0   8 685.924 26.8618   3
   0   0  -8 712.750 26.4961   8
   0   0   9-0.72497 2.79549   5
   0   0  -9-1.04065 2.24324   1
   0   0  -9-1.00332 2.55900   7
   0   0  -9-1.87015 2.24858   8
   0   0   9 1.34721 2.51497   3
   0   0  10 36.9635 6.07818   5
   0   0 -10 46.3618 7.63978   1
   0   0 -10 41.4206 5.80644   8
   0   0 -10 23.3016 5.84143   7
   0   0  10 47.1591 6.32418   3
   0   0 -11 0.75461 2.99957   8
   0   0 -11-2.56193 3.02501   1
   0   0  11-2.64851 3.90017   5
   0   0  11 4.10174 3.70941   3
   0   0  11-2.82467 4.30551   4
   0   0 -11-2.43290 4.22818   7
   0   0  12 83.2645 11.6924   4
   0   0 -12 80.4718 8.53918   8
   0   0 -12 70.7282 10.3322   7
   0   0  12 89.9592 9.73789   3
   0   0 -12 77.3691 10.7852   1
   0   0  12 77.1032 9.51153   5
   0   0  13-5.01706 5.58474   4
   0   0  13-1.03990 4.36988   5
   0   0 -13-2.60298 3.01623   8
   0   0 -13 4.62366 3.63964   1
   0   0 -13 1.45991 4.22231   7
   0   0  13-4.80018 4.43864   3
   0   0  14 8.89942 5.37315   5
   0   0 -14 11.0049 6.07204   7
   0   0  14 25.2046 7.96054   4
   0   0 -14 15.0970 6.47746   1
   0   0  14 11.3420 5.17652   3
   0   0 -14 16.6349 4.89201   8
   0   0  15-2.20576 4.98692   3
   0   0 -15 3.94916 3.56148   8
   0   0  15-3.85743 4.91937   4
   0   0 -15-5.42258 5.51024   1
   0   0  15-1.18753 4.28362   5
   0   0 -16 630.914 38.3478   1
   0   0  16 597.773 31.6783   5
   0   0  16 628.058 31.2184   3
   0   0 -16 607.848 29.6055   8
   0   0  16 623.822 39.1572   4
   0   0 -17 6.15902 6.56371   1
   0   0  17 1.22165 5.26656   3
   0   0  17-2.15805 7.78373   4
   0   0  17-3.99684 6.02379   5
   0   0  18 322.587 22.9869   5
   0   0  18 334.193 29.0886   4
   0   0 -18 313.371 27.5642   1
   0   0  18 324.860 22.1513   3
   0   0 -19-6.96558 7.42374   1
   0   0  19 4.79354 7.66322   4
   0   0  20 62.7008 14.7417   4
   0   0 -20 50.0919 8.86319   6
   0   1  -2 229.936 9.64628   4
   0  -1   2 206.589 7.26361   5
   0   1   2 221.743 8.36215   2
   0   1   2 202.061 7.74581   3
   0  -1  -2 197.232 8.72678   6
   0  -1  -2 218.786 9.70013   8
   0  -1  -2 209.271 8.95326   7
   0   1   2 176.009 8.65818   7
   0  -1  -3 1112.41 33.8631   1
   0  -1  -3 1120.95 34.9185   8
   0  -1  -3 1105.46 33.8439   6
   0   1   3 1136.81 32.2050   3
   0  -1   3 1102.48 31.8371   5
   0   1  -3 1135.09 35.2246   4
   0  -1  -3 1104.46 34.7635   7
   0   1  -4 0.50729 1.62227   4
   0  -1   4 2.62725 1.34059   5
   0   1   4 1.92520 1.42815   3
   0  -1  -4 0.84397 1.15110   1
   0  -1  -4 0.94798 1.70998   7
   0   1   5 5.67337 2.02356   3
   0   1  -5 2.01581 1.83358   1
   0   1  -5 0.62965 2.01446   4
   0  -1   5 1.36087 1.31400   5
   0  -1  -5 3.17614 1.69409   1
   0  -1  -5 8.36495 2.13387   3
   0  -1  -5 2.90443 1.85868   7
   0  -1   5 3.17473 1.03688   8
   0   1   6 139.196 8.40709   3
   0   1  -6 138.700 11.0930   1
   0  -1   6 143.885 8.54370   5
   0  -1   6 122.512 6.60088   8
   0  -1  -6 137.995 8.35260   3
   0  -1  -6 151.896 10.8040   7
   0  -1  -6 152.857 10.5213   1
   0   1  -7 1725.86 57.1115   1
   0  -1   7 1562.64 50.0369   5
   0  -1   7 1657.08 47.4496   8
   0  -1  -7 1629.05 52.9740   8
   0  -1  -7 1660.58 55.0719   7
   0  -1  -7 1684.86 54.7542   1
   0   1   7 1615.94 50.4134   3
   0   1  -8 22.3584 5.31837   1
   0   1   8 33.7762 4.82624   3
   0  -1  -8 22.8081 5.24618   7
   0  -1  -8 21.7004 4.70706   1
   0  -1  -8 27.8171 4.78119   8
   0   1   8 28.2446 5.10908   1
   0  -1   8 26.9148 4.43283   5
   0   1   9 9327.53 250.141   3
   0  -1  -9 9124.08 252.941   8
   0   1  -9 9470.50 259.309   1
   0  -1  -9 9578.57 257.533   7
   0  -1   9 9169.47 250.136   5
   0  -1  -9 9568.88 256.718   1
   0  -1  10 879.388 34.5825   5
   0  -1 -10 986.132 40.5083   1
   0  -1 -10 987.801 41.0103   7
   0  -1 -10 895.112 36.6405   8
   0   1 -10 932.795 41.5721   1
   0   1  10 868.507 34.1938   3
   0   1  10 951.441 39.3288   1
   0  -1  10 976.841 42.3523   4
   0  -1  11 557.383 30.5899   4
   0   1  11 469.777 22.9141   3
   0  -1 -11 457.221 26.8671   1
   0  -1  11 469.965 23.0650   5
   0   1  11 481.194 26.7795   1
   0  -1 -11 483.763 24.6688   8
   0  -1 -11 486.574 27.6087   7
   0   1 -11 517.023 29.5891   1
   0  -1 -12 222.868 18.3072   1
   0  -1  12 250.648 20.5135   4
   0  -1 -12 187.348 15.1029   8
   0  -1 -12 243.093 19.2101   7
   0  -1  12 201.896 14.8135   5
   0   1 -12 229.300 19.3491   1
   0   1  12 194.577 14.2871   3
   0   1  12 227.123 17.8717   1
   0  -1 -13 1945.43 66.4227   8
   0  -1  13 1851.41 73.1796   4
   0  -1 -13 1911.93 71.7636   1
   0   1 -13 1891.15 73.5986   1
   0  -1  13 1883.52 64.2336   5
   0   1  13 1869.99 63.7248   3
   0  -1  13 1876.04 64.7983   3
   0  -1 -13 1973.02 72.0108   7
   0   1 -14 19.2680 6.76256   1
   0  -1  14 19.6152 7.09549   4
   0  -1  14 10.8481 5.13417   3
   0   1  14 19.5604 5.82153   3
   0  -1 -14 14.1534 6.25951   7
   0   1 -14 12.3557 6.83099   7
   0  -1 -14 5.67726 3.96095   8
   0   1  14 18.2910 6.65803   5
   0  -1  14 14.3233 5.32180   5
   0  -1 -14 12.9183 6.23560   1
   0  -1  15 1350.15 51.5920   5
   0  -1 -15 1333.33 52.6606   8
   0  -1 -15 1472.48 60.6130   7
   0   1 -15 1303.51 60.5256   1
   0   1 -15 1396.83 59.7025   7
   0   1  15 1323.99 50.6420   3
   0  -1 -15 1417.34 60.4790   1
   0   1  15 1316.07 53.6307   5
   0  -1  15 1263.78 59.8181   4
   0  -1  15 1409.57 53.0291   3
   0   1  16 116.573 16.5931   4
   0   1  16 114.747 12.3134   3
   0  -1  16 119.155 16.3490   4
   0  -1 -16 127.930 12.8616   6
   0  -1  16 113.072 12.5923   5
   0   1  16 155.281 15.6429   5
   0  -1 -16 138.557 13.9445   8
   0   1 -16 110.605 15.8138   1
   0  -1  16 124.883 13.3459   3
   0  -1 -16 95.3244 14.4082   1
   0  -1  17 484.810 27.8055   3
   0   1 -17 439.605 33.1919   1
   0  -1 -17 468.357 26.6554   6
   0   1  17 428.284 33.0291   4
   0  -1  17 432.953 26.1460   5
   0   1  17 439.698 25.5020   3
   0  -1 -17 429.455 26.2681   8
   0   1  17 452.416 28.4998   5
   0  -1 -17 485.929 33.5211   1
   0  -1  17 423.748 32.5232   4
   0  -1 -18 2.13941 5.05201   1
   0  -1  18 4.47353 6.46878   4
   0  -1 -18 7.74591 4.82019   6
   0  -1  18-1.29029 5.27733   5
   0  -1 -18 4.02518 4.29010   8
   0   1  18-1.19721 4.47011   3
   0   1  18 2.33745 5.96178   4
   0   1 -18 2.28889 6.61952   1
   0   1 -19 319.451 29.6231   1
   0  -1  19 286.548 21.9107   5
   0  -1 -19 329.026 23.2180   8
   0  -1 -19 356.225 23.8312   6
   0   1  19 343.979 30.4354   4
   0  -1 -19 340.528 29.1317   1
   0  -1  19 302.253 28.2408   4
   0  -1 -20 26.6278 7.53989   6
   0   1 -20 17.6963 8.45788   1
   0  -1 -20 33.4716 11.7631   1
   0  -1  20 24.4131 9.71702   4
   0   1  20 5.14814 8.61131   4
   0  -2   0 19975.5 516.807   6
   0   2  -1 19.5442 2.96893   4
   0   2  -1 15.2690 2.91732   6
   0  -2   1 24.7575 3.22377   6
   0  -2  -1 26.0047 3.47781   6
   0  -2   2 0.77624 1.12287   6
   0  -2  -2 0.86561 1.10430   6
   0   2   3 0.36854 1.42105   2
   0  -2  -3 0.39205 1.19510   7
   0  -2  -3 0.55074 1.98643   8
   0   2  -3-0.49466 1.65181   4
   0   2  -3 0.22928 0.85601   5
   0  -2  -3 0.46230 1.26047   6
   0   2  -4 168.423 7.94161   5
   0  -2  -4 183.814 11.5281   8
   0   2  -4 160.957 10.7272   4
   0   2   4 159.955 9.35924   1
   0  -2   4 161.396 7.56711   5
   0  -2  -4 161.078 9.95548   6
   0   2   4 176.176 9.32209   2
   0   2   4 170.996 8.60532   3
   0  -2  -4 162.509 8.61506   3
   0  -2  -4 159.842 9.76905   7
   0   2   4 159.576 9.84329   6
   0   2   5 34.6565 4.45913   1
   0  -2  -5 46.5820 5.46173   7
   0  -2  -5 41.0589 4.22724   3
   0  -2  -5 35.2913 5.25560   8
   0   2  -5 39.0306 5.66243   4
   0   2   5 45.1319 4.26116   3
   0   2   5 35.1331 4.05546   2
   0  -2   5 30.2402 3.32548   5
   0   2  -5 40.0082 3.86191   5
   0  -2  -6 4951.58 137.212   1
   0  -2  -6 4942.53 133.939   3
   0   2  -6 5060.78 132.700   5
   0   2   6 4915.63 133.130   3
   0   2   6 4877.76 136.625   1
   0  -2   6 4682.72 132.246   5
   0  -2  -6 5131.64 138.823   7
   0  -2  -7 9.68867 3.13657   1
   0  -2  -7 3.15021 2.03223   3
   0   2   7 5.68500 2.56924   1
   0  -2   7 13.5024 2.88393   5
   0   2  -7 5.32551 1.96845   5
   0   2   7 10.7061 2.77173   3
   0  -2  -7 4.94481 2.86988   7
   0   2  -7 8.11868 3.39345   1
   0  -2   7 7.17303 1.24353   8
   0  -2  -8 1882.85 65.7277   8
   0  -2  -8 2043.57 65.8970   1
   0   2   8 2065.47 60.7895   3
   0   2   8 2020.78 64.9019   1
   0   2  -8 2008.81 70.1137   1
   0  -2  -8 2017.73 61.4177   3
   0  -2  -8 2023.51 64.1123   6
   0  -2   8 1949.43 60.0495   5
   0  -2  -8 2097.83 67.3878   7
   0   2  -9 504.091 28.3371   1
   0  -2  -9 484.406 25.4349   7
   0  -2  -9 496.890 23.2775   6
   0  -2  -9 453.589 20.9312   3
   0  -2   9 470.611 26.1926   4
   0  -2  -9 498.284 25.1438   1
   0   2   9 469.696 20.5892   3
   0  -2  -9 479.052 24.9428   8
   0  -2   9 475.711 20.7721   5
   0  -2  10 165.406 11.3782   5
   0   2 -10 188.498 16.7581   1
   0  -2 -10 173.386 14.5106   1
   0  -2  10 166.903 15.3718   4
   0   2  10 142.391 12.9658   1
   0  -2 -10 151.564 14.1247   7
   0   2  10 172.406 11.6082   3
   0  -2 -10 158.097 12.4299   6
   0  -2 -10 144.128 13.1937   8
   0  -2 -11 7.80487 3.56801   8
   0   2 -11 8.41353 5.05263   7
   0   2  11 7.90096 4.21673   1
   0  -2 -11 5.01317 3.42054   7
   0  -2 -11 1.21733 2.87848   1
   0  -2 -11 12.2755 4.27216   6
   0   2 -11 4.50169 4.09416   1
   0  -2  11 7.07754 5.10778   4
   0  -2  11 7.99153 3.77446   5
   0   2  11 4.96631 3.13780   3
   0   2 -12 285.725 22.7589   1
   0   2 -12 270.494 20.3049   7
   0  -2 -12 293.351 18.7006   6
   0  -2 -12 259.026 20.0840   1
   0   2  12 285.396 16.5563   3
   0   2  12 291.148 20.4629   1
   0  -2  12 269.139 21.6285   4
   0  -2  12 272.450 16.5974   5
   0  -2 -12 289.264 21.2823   7
   0  -2 -12 261.583 19.2133   8
   0   2  13 248.391 15.8435   3
   0   2 -13 213.330 19.0908   7
   0  -2 -13 232.351 18.2827   8
   0  -2  13 228.447 15.6519   5
   0  -2 -13 260.435 20.8180   7
   0  -2 -13 237.469 19.9734   1
   0  -2  13 197.515 19.6534   4
   0  -2 -13 259.077 17.9518   6
   0   2  13 221.330 18.7173   1
   0   2 -13 233.934 21.6529   1
   0  -2 -14 650.446 31.1951   6
   0  -2 -14 568.333 31.4817   8
   0   2  14 629.125 28.3586   3
   0   2 -14 638.621 35.2402   7
   0  -2 -14 590.815 34.4231   7
   0  -2  14 591.605 36.1606   4
   0   2  14 600.603 33.7875   1
   0  -2  14 606.955 28.3942   5
   0  -2 -14 577.343 34.1098   1
   0   2 -14 648.132 38.2346   1
   0  -2 -15 3.60888 4.78125   6
   0   2  15 0.93961 4.24842   3
   0  -2 -15 1.38071 4.61061   8
   0   2 -15 8.21695 5.71185   7
   0  -2 -15 3.41460 4.93738   1
   0   2  15-3.06935 5.33400   1
   0  -2  15-3.80799 4.85602   4
   0  -2  15 0.99794 3.72580   5
   0   2 -15 4.02171 5.48265   1
   0  -2 -16 16.4447 6.60396   1
   0   2 -16 19.1531 7.68746   1
   0  -2 -16 23.1281 7.25279   8
   0  -2  16 16.9800 5.89198   5
   0  -2  16 16.6536 6.06450   3
   0  -2 -16 10.1136 4.73880   6
   0   2  16 16.8045 5.49026   3
   0  -2  16 24.2871 8.28819   4
   0   2  17 15.4745 5.98026   3
   0  -2 -17 17.9930 7.09230   8
   0   2 -17 24.7048 9.69034   1
   0  -2 -17 29.1827 9.38564   1
   0  -2  17 17.1470 7.74123   4
   0  -2  17 7.85511 5.42353   5
   0  -2 -17 14.5591 5.86051   6
   0  -2 -18 78.6814 11.3135   6
   0   2  18 86.8951 10.4845   3
   0  -2  18 67.6779 13.2022   4
   0   2 -18 78.4128 14.8040   1
   0  -2 -18 86.7361 14.3585   1
   0  -2  18 74.2513 10.6056   5
   0   2 -19 7.55695 8.05849   1
   0  -2  19 14.1312 9.08575   4
   0   2  19 2.53507 8.10989   4
   0  -2 -19 21.4842 7.31134   6
   0  -2 -19 13.0902 7.58813   1
   0   3   0 2.78004 1.93563   6
   0  -3   0 6.46186 2.26778   6
   0  -3  -1 88.2043 7.56380   6
   0  -3   1 70.2523 6.87144   6
   0   3  -1 87.9042 7.46915   4
   0  -3   2 151.438 10.2174   6
   0   3   2 134.945 8.02745   7
   0  -3  -2 152.688 10.5456   6
   0   3  -2 157.610 10.4544   4
   0   3  -3 2203.27 65.9648   4
   0  -3  -3 2185.31 67.2410   8
   0   3   3 2216.11 63.3014   7
   0  -3  -3 2256.46 66.3428   6
   0  -3  -3 2128.04 62.8914   3
   0   3  -3 1996.19 60.2896   5
   0  -3  -4 36.7106 5.27357   6
   0   3  -4 27.4314 4.33877   6
   0  -3  -4 32.6416 4.46727   2
   0   3  -4 34.7207 3.71070   5
   0  -3  -4 23.7987 3.54318   3
   0   3  -4 28.2495 4.87744   4
   0   3   4 28.2712 4.24533   7
   0   3   4 37.6521 4.76986   2
   0  -3  -4 33.4976 5.49274   8
   0   3  -5 23.2720 4.14327   6
   0   3   5 29.4244 4.50111   2
   0  -3  -5 22.5504 4.79494   8
   0   3   5 33.5990 4.64860   1
   0   3  -5 31.5491 3.68138   5
   0  -3  -6 583.745 27.1165   8
   0  -3  -6 590.298 22.2362   3
   0   3  -6 592.114 23.7548   6
   0   3   6 547.248 22.9647   2
   0   3  -6 508.269 20.0424   5
   0   3   6 568.455 23.8612   1
   0  -3  -6 549.683 24.4437   7
   0  -3   6 551.821 19.5993   5
   0  -3  -7 967.305 33.4586   3
   0  -3   7 936.431 30.4558   5
   0   3  -7 939.323 31.5101   5
   0  -3  -7 936.487 36.6761   7
   0   3   7 964.533 32.8812   3
   0   3   7 950.356 34.2132   2
   0   3   7 908.536 35.1638   1
   0  -3   8 7.67312 3.81152   4
   0  -3   8 2.54305 2.20314   5
   0   3   8 6.11581 2.78718   3
   0  -3  -8 2.53318 2.36709   3
   0   3  -8 4.45988 2.19198   5
   0   3   8 7.38455 3.30169   2
   0  -3  -8 5.26965 2.81023   6
   0  -3  -8 3.73576 3.24800   7
   0  -3   9 6890.34 199.274   4
   0  -3   9 6823.93 186.481   5
   0   3   9 7040.43 188.920   3
   0  -3  -9 6778.49 189.983   3
   0   3   9 7039.69 190.823   2
   0  -3  -9 7063.39 195.082   6
   0  -3  -9 7228.28 197.129   7
   0  -3 -10 17.9708 4.75261   6
   0   3  10 21.9682 4.93493   2
   0  -3  10 24.2472 6.52012   4
   0  -3 -10 25.6101 6.35892   8
   0  -3  10 28.2822 4.60640   5
   0   3  10 40.8151 6.98085   1
   0  -3 -10 22.2625 4.67440   3
   0   3  10 18.8385 4.37949   3
   0  -3 -10 21.7042 5.85745   7
   0  -3  11 116.469 9.37719   5
   0   3  11 140.519 11.5570   2
   0  -3 -11 142.064 12.8903   6
   0   3  11 130.033 10.3415   3
   0  -3 -11 127.609 13.6014   8
   0  -3  11 152.639 15.5943   4
   0   3  11 118.942 12.3333   1
   0  -3 -11 105.972 12.6216   7
   0  -3 -12 74.7210 10.6438   8
   0   3  12 62.6265 8.35855   2
   0  -3  12 67.4198 11.4206   4
   0   3 -12 75.4732 12.2279   1
   0   3  12 73.4809 10.2600   1
   0   3 -12 84.5609 11.0927   7
   0  -3  12 77.0704 7.93273   5
   0  -3 -12 77.0081 10.9798   7
   0  -3 -12 83.1318 10.3874   6
   0   3  12 69.2309 7.83635   3
   0   3  13 1558.56 53.3646   3
   0   3  13 1568.79 60.9912   1
   0  -3 -13 1565.02 58.7946   6
   0  -3  13 1669.86 66.7672   4
   0   3 -13 1468.48 66.7665   1
   0  -3  13 1614.07 52.9653   5
   0   3 -13 1517.50 61.2805   7
   0  -3 -13 1552.92 62.3412   7
   0  -3 -13 1597.34 62.4860   8
   0   3  14 5.10546 4.18250   3
   0  -3 -14 2.50118 4.17610   6
   0  -3  14 0.82249 3.80241   5
   0  -3  14-1.85445 5.36290   4
   0   3 -14-4.54532 5.46475   7
   0   3 -14 2.00810 5.47512   1
   0   3  14 4.35093 4.84301   1
   0  -3 -14 3.11708 4.50716   7
   0  -3 -14 1.49384 4.77599   8
   0  -3  15 1435.84 50.7326   5
   0  -3 -15 1407.64 56.0040   6
   0   3  15 1426.64 51.0237   3
   0   3 -15 1397.54 65.5764   1
   0  -3  15 1322.43 62.8471   4
   0  -3 -15 1422.57 59.6516   8
   0   3  15 1481.06 60.1013   1
   0   3 -15 1464.96 60.8848   7
   0   3 -16 366.319 30.6515   1
   0  -3 -16 350.781 23.6775   6
   0  -3  16 306.900 19.2779   5
   0  -3  16 342.880 28.5903   4
   0   3  16 315.644 19.5835   3
   0  -3  17 366.073 30.5635   4
   0   3  17 387.454 22.2548   3
   0  -3 -17 371.769 25.2455   6
   0   3 -17 387.909 32.3617   1
   0  -3 -18 5.96998 5.38526   6
   0  -3  18 11.5777 7.06009   4
   0   3 -18 2.50689 5.40567   1
   0  -3 -19 517.704 31.3933   6
   0  -3  19 491.968 37.1821   4
   0   3 -19 467.020 37.4293   1
   0  -4   0 28873.4 751.577   6
   0  -4  -1 814.526 32.1103   8
   0   4  -1 752.942 31.0539   4
   0   4   1 774.710 25.8142   7
   0  -4  -1 765.692 31.9483   6
   0  -4   1 848.280 32.6630   6
   0  -4  -2 288.389 17.4755   8
   0  -4   2 305.592 17.2191   6
   0   4  -2 308.294 17.2749   4
   0   4   2 305.415 13.8559   7
   0  -4  -3 2.57574 2.34157   6
   0   4  -3 1.82408 1.75921   5
   0  -4   3 2.35272 2.61937   6
   0  -4  -3 2.51521 2.34824   3
   0   4   3 2.15313 1.72183   7
   0  -4  -3 1.81115 3.02446   8
   0  -4  -4 253.845 14.0419   3
   0   4   4 248.420 14.0169   7
   0  -4  -4 267.070 17.3512   8
   0   4  -4 255.791 12.3728   5
   0  -4  -4 239.032 15.7592   6
   0   4   5 424.768 19.9599   1
   0   4  -5 407.453 17.2179   5
   0  -4  -5 462.005 24.4481   8
   0  -4  -5 416.298 22.3148   6
   0  -4  -5 421.802 19.3255   3
   0  -4  -6 10482.1 283.006   8
   0   4  -6 10025.6 270.591   5
   0  -4   6 9939.81 279.592   4
   0  -4  -6 10465.8 273.777   3
   0   4   6 10488.4 278.959   6
   0   4   6 10370.6 275.635   1
   0  -4  -7 12.9369 5.55529   8
   0  -4   7 8.64941 4.42340   4
   0  -4   7 4.20403 1.46413   8
   0   4   7 4.57889 3.20890   2
   0   4  -7 7.84481 2.79876   5
   0  -4  -7 3.21359 2.70331   3
   0   4   7 2.39082 2.55079   1
   0  -4  -8 526.245 29.4314   8
   0  -4   8 534.817 28.9543   4
   0   4  -8 601.584 22.5796   5
   0  -4  -8 539.843 23.9754   3
   0   4   8 537.670 24.9580   2
   0   4  -9 107.842 10.2331   6
   0  -4   9 101.928 12.5041   4
   0   4  -9 98.0330 8.21939   5
   0  -4  -9 105.909 11.5209   6
   0   4   9 116.117 10.5042   2
   0   4  10 3.41513 3.58785   2
   0  -4  10 2.36227 2.36709   5
   0   4 -10 0.90144 2.88249   6
   0   4  10 3.11312 3.60708   1
   0  -4 -10 8.07157 4.15931   6
   0  -4  10-1.40870 4.07415   4
   0  -4  11-1.04920 2.31741   5
   0   4 -11 4.49185 4.78698   4
   0   4  11 1.13107 3.93119   1
   0  -4 -11-1.20727 3.68018   6
   0  -4 -11 1.46300 4.67738   8
   0  -4 -11-1.25526 3.42248   7
   0   4  11 1.78220 3.54171   2
   0  -4  11-3.04206 3.59150   4
   0   4  11-0.73695 3.17700   3
   0   4 -11-0.93991 2.86517   6
   0  -4  12 4.91076 4.73751   4
   0   4 -12 6.86539 4.33656   6
   0   4  12 12.2351 4.80437   2
   0  -4  12 5.64448 3.31500   5
   0  -4 -12 12.6283 4.71839   6
   0   4 -12 9.57201 6.70593   4
   0   4  12 2.33749 3.01020   3
   0   4  12 12.2659 5.15732   1
   0  -4 -12 13.5693 5.39639   7
   0  -4 -12 13.7927 6.27043   8
   0   4 -12 3.85528 4.11286   7
   0  -4 -13 268.530 21.0438   7
   0   4  13 277.894 18.2039   2
   0  -4  13 254.539 22.9562   4
   0  -4 -13 285.710 17.7046   3
   0  -4 -13 245.035 21.5620   8
   0   4  13 248.279 16.0802   3
   0   4 -13 264.895 20.5953   7
   0   4 -13 232.164 17.0278   6
   0  -4  13 234.586 13.8506   5
   0   4  13 277.382 20.4021   1
   0   4 -13 286.460 23.2875   4
   0  -4 -13 254.674 19.7310   6
   0  -4 -14 48.2694 8.88973   6
   0  -4  14 48.4883 6.48415   5
   0   4  14 40.4400 7.56392   2
   0   4  14 55.4874 9.76273   1
   0   4  14 34.8531 6.44608   3
   0  -4  14 54.1980 11.3066   4
   0   4 -14 38.8748 8.60059   7
   0  -4  15 15.1156 4.56172   5
   0   4 -15 15.9971 6.55709   7
   0   4  15 19.4845 5.06982   3
   0   4  15 16.9087 6.47371   1
   0   4  15 23.7942 6.00520   2
   0  -4  15 15.8455 7.88448   4
   0  -4 -15 12.9393 6.05686   6
   0   4  16 358.813 22.3184   2
   0  -4  16 380.394 30.1560   4
   0   4  16 337.333 20.0792   3
   0  -4 -16 356.115 25.0272   6
   0   4  17 105.123 12.5187   2
   0  -4  17 114.246 17.2690   4
   0  -4 -17 90.2408 12.8115   6
   0  -4  18 501.586 36.5478   4
   0  -4 -18 492.115 30.9181   6
   0  -5   0-0.88213 2.40513   8
   0  -5   0 1.01030 2.17769   6
   0   5   0-0.92297 2.95083   4
   0   5   1 8.34246 2.33182   7
   0  -5  -1 7.59452 4.09387   8
   0  -5  -1 3.06195 2.78487   6
   0  -5   1 7.34529 3.04888   8
   0  -5   1 0.99672 2.54430   6
   0  -5   2 6.94922 3.45056   6
   0   5   2 1.93835 1.86878   7
   0  -5  -2 4.06649 3.25041   8
   0   5  -2 0.89900 3.00219   6
   0  -5   2-0.75220 2.51202   8
   0  -5  -2-0.90983 2.77365   2
   0  -5  -2 1.03594 3.15804   6
   0   5   2 0.93723 2.39054   6
   0  -5  -3 2190.88 72.7694   6
   0  -5  -3 2161.14 73.0035   8
   0  -5  -3 2085.39 69.6140   2
   0   5  -3 2099.30 69.8493   6
   0   5   3 2179.94 65.0972   7
   0   5   3 2075.12 70.6961   6
   0  -5   3 2212.07 67.2431   8
   0  -5   3 2160.88 71.6535   6
   0   5  -3 2236.24 65.8976   5
   0   5   4 148.998 12.7776   6
   0  -5  -4 112.478 12.5687   8
   0   5   4 54.7170 6.67765   7
   0  -5  -4 59.3136 7.96969   2
   0  -5  -4 138.663 12.6326   6
   0   5   5 31.9653 6.49287   6
   0  -5  -5 35.2007 7.53615   8
   0  -5  -5 23.6564 5.80331   6
   0   5  -5 33.1177 4.86503   5
   0   5  -5 35.2183 6.14747   6
   0  -5  -5 28.9220 5.77072   2
   0  -5   5 34.8046 4.71333   8
   0   5   6 36.5710 6.76343   6
   0   5  -6 34.6478 4.80370   5
   0  -5  -6 39.7430 7.85380   8
   0  -5   6 21.8095 5.80074   4
   0  -5   6 26.6569 4.02147   8
   0  -5  -6 31.2921 6.74716   6
   0   5  -6 28.4935 5.79332   6
   0   5   7 95.1878 11.0939   6
   0  -5  -7 113.294 12.9174   8
   0  -5   7 102.544 6.84666   8
   0   5  -7 97.7668 8.10123   5
   0  -5   7 89.0102 11.2458   4
   0   5  -7 90.2097 9.74127   6
   0  -5   8 2.67134 1.58931   8
   0  -5   8 6.47812 5.15007   4
   0   5  -8 3.39947 2.94220   5
   0   5  -8 0.96069 3.20896   6
   0  -5  -8 7.10612 4.54447   8
   0   5   9 2676.96 85.4169   1
   0   5  -9 2575.66 84.9193   6
   0  -5  -9 2865.79 94.2232   8
   0   5  -9 2728.00 78.9580   5
   0  -5   9 2598.65 90.8142   4
   0   5 -10 714.191 27.4772   5
   0   5  10 745.020 32.8491   2
   0   5 -10 733.718 32.8881   6
   0  -5 -10 719.498 36.1415   6
   0  -5  10 702.628 37.2524   4
   0   5 -10 712.240 37.7184   4
   0   5  10 718.686 33.1431   1
   0   5 -10 712.042 40.5188   1
   0  -5 -11 426.876 22.8267   3
   0   5  11 457.548 24.5166   2
   0   5 -11 453.832 32.4621   1
   0   5 -11 416.132 23.7606   6
   0  -5 -11 464.743 27.8245   6
   0  -5  11 445.559 29.3323   4
   0   5  11 398.933 24.3448   1
   0   5 -11 497.570 30.4381   4
   0   5 -12 197.584 21.1982   1
   0   5 -12 156.943 13.9389   6
   0   5  12 169.706 15.5926   1
   0  -5  12 144.178 17.3562   4
   0  -5 -12 179.618 17.1093   6
   0   5 -12 179.139 16.0887   7
   0   5  12 186.655 15.1241   2
   0  -5 -12 173.944 13.9246   3
   0   5 -13 1190.83 59.9689   1
   0  -5 -13 1225.25 52.8544   6
   0  -5  13 1144.20 55.3531   4
   0  -5 -13 1240.93 46.2867   3
   0   5  13 1196.28 47.4718   2
   0   5 -13 1249.11 51.6999   7
   0   5  13 1199.70 50.6941   1
   0   5 -13 1187.63 47.4181   6
   0  -5 -14 5.95356 4.87772   3
   0   5  14 1.11487 4.43161   2
   0   5 -14 1.46069 4.87813   7
   0  -5 -14 1.57112 4.78978   6
   0   5 -14 6.87565 5.84565   1
   0   5 -14 3.41326 4.24828   6
   0  -5  14 1.95786 4.99382   4
   0   5  14 2.84204 4.33229   1
   0   5  15 248.758 21.4320   1
   0   5  15 297.358 19.9421   2
   0   5 -15 266.551 26.8324   1
   0   5 -15 271.704 19.4338   6
   0  -5 -15 286.592 23.0069   6
   0  -5  15 266.145 25.1841   4
   0   5 -16 55.2203 9.38346   6
   0   5 -16 63.4227 14.1316   1
   0   5  16 56.4402 9.19632   2
   0  -5  16 58.5545 13.3102   4
   0  -5 -16 74.1061 12.3529   6
   0   5 -17 462.228 37.8827   1
   0  -5 -17 503.723 32.0375   6
   0  -5  17 496.764 36.7820   4
   0   5 -17 437.884 26.5043   6
   0  -6   0 2364.21 76.8393   8
   0   6   0 2227.69 64.5860   7
   0  -6   0 2435.11 79.7830   6
   0   6  -1 128.492 12.4715   6
   0  -6   1 122.969 12.9041   6
   0  -6  -1 148.869 14.1917   6
   0  -6   1 132.749 12.1277   8
   0  -6  -1 130.108 13.1792   8
   0  -6  -1 109.134 11.5478   2
   0   6   1 140.545 8.46082   7
   0   6  -2 34.3625 6.67639   6
   0  -6   2 31.4160 6.83886   6
   0  -6  -2 33.7955 6.77659   2
   0  -6   2 28.6304 5.68743   8
   0  -6  -2 27.3100 6.91426   8
   0   6   2 31.2149 4.24029   7
   0  -6  -2 35.1486 7.30456   6
   0  -6  -3 15.2657 5.64756   6
   0  -6  -3 19.4330 5.23371   2
   0   6   3 21.2960 4.03094   7
   0  -6  -3 21.3012 6.52867   8
   0   6  -3 27.2688 5.15368   5
   0  -6   3 27.3823 5.37509   8
   0   6   3 26.2901 6.16050   6
   0   6  -3 23.5984 5.78436   6
   0  -6   3 16.8610 5.34969   6
   0  -6  -4 596.698 32.1032   6
   0   6   4 609.930 31.0521   6
   0  -6   4 646.100 27.6268   8
   0  -6  -4 580.736 29.8672   2
   0  -6  -4 668.746 29.6963   3
   0   6  -4 668.618 27.1116   5
   0  -6  -4 662.011 33.8933   8
   0   6  -4 622.471 30.3458   6
   0  -6  -5 12.9275 5.19975   2
   0  -6  -5 10.6348 5.29080   6
   0   6  -5 6.58954 3.49020   5
   0   6   5 14.4147 5.18587   6
   0  -6  -5 16.6070 6.26338   8
   0  -6  -5 12.8659 4.34873   3
   0   6  -5 12.9614 5.31628   6
   0  -6   5 8.51751 3.69502   8
   0  -6   6 2144.76 65.3208   8
   0  -6  -6 2302.08 79.0909   8
   0   6  -6 2087.94 65.4933   5
   0  -6  -6 2188.15 76.6135   6
   0   6  -6 2078.59 72.0317   6
   0  -6  -6 2082.94 69.3201   3
   0  -6  -6 2078.39 71.8458   2
   0   6   6 2223.54 75.3447   6
   0   6  -7 11.9795 5.15580   6
   0  -6  -7 12.1928 6.06849   8
   0   6   7 7.54762 4.18349   1
   0   6  -7 15.6023 4.26581   5
   0  -6   7 16.0378 3.80430   8
   0  -6  -7 20.7691 5.30729   3
   0   6   7 17.6562 5.84167   6
   0   6  -8 601.086 32.8708   4
   0   6  -8 512.680 27.4285   6
   0  -6  -8 515.443 25.5008   3
   0  -6  -8 565.157 33.0933   8
   0  -6   8 502.969 19.6754   8
   0   6  -8 532.526 23.0243   5
   0  -6   8 563.372 31.6824   4
   0   6   8 520.950 26.3809   1
   0  -6  -9 147.921 12.2833   3
   0   6  -9 187.536 18.0514   4
   0   6   9 149.864 13.4748   1
   0  -6   9 151.655 16.8238   4
   0   6  -9 158.675 10.8933   5
   0   6  -9 162.706 14.3888   6
   0   6 -10 61.7624 9.34516   6
   0  -6 -10 60.1661 8.29137   3
   0   6  10 83.3358 10.2711   1
   0  -6 -10 49.2195 9.83721   6
   0  -6  10 53.3565 10.6764   4
   0   6 -10 53.1364 6.28567   5
   0  -6 -11 2.98716 4.07581   3
   0   6  11 3.51645 3.75137   1
   0  -6 -11 4.77042 5.73788   6
   0   6 -11 11.3714 3.51357   5
   0   6 -11 5.58228 4.03046   7
   0   6 -11 8.35295 6.04136   1
   0   6 -11 16.3299 5.51099   6
   0  -6  11 1.70445 5.45196   4
   0  -6 -12 13.1392 6.52999   6
   0   6 -12 11.8734 5.72530   6
   0   6 -12 4.43881 7.09770   1
   0  -6  12 5.38198 5.99304   4
   0   6 -12-1.21708 4.06773   7
   0   6  12 7.55761 4.70570   1
   0  -6 -12 15.3195 5.30441   3
   0  -6  13 36.0325 9.86175   4
   0  -6 -13 13.5256 6.93892   6
   0   6 -13 25.7573 10.3600   1
   0   6 -13 22.3003 6.83432   7
   0   6 -13 32.6740 7.21445   6
   0  -6 -13 35.3261 6.74375   3
   0   6  13 10.6797 5.33752   1
   0   6 -14 168.388 16.7506   7
   0  -6  14 171.426 19.7602   4
   0  -6 -14 179.168 14.6439   3
   0  -6 -14 172.738 18.4408   6
   0   6 -14 161.026 21.1896   1
   0   6 -14 140.588 14.4341   6
   0   6  14 163.114 16.4864   1
   0  -6 -15 16.7181 5.44343   3
   0  -6 -15 21.5464 7.75404   6
   0   6 -15 12.7864 8.55171   1
   0  -6  15 23.0326 9.69082   4
   0   6 -16 2.67679 5.77024   1
   0  -6 -16 1.84511 5.89945   6
   0  -6  16 4.39860 6.70455   4
   0  -7   0 1.21788 4.23300   8
   0   7   0 5.01212 4.83159   6
   0   7   0 0.88443 1.42128   7
   0  -7   0 1.44304 4.17323   6
   0  -7   0 1.32436 4.23423   2
   0  -7  -1 338.999 22.6568   2
   0   7  -1 353.179 22.7994   6
   0   7  -1 290.651 12.0246   7
   0  -7   1 369.381 22.3903   8
   0  -7  -1 389.493 23.9388   8
   0  -7  -1 362.505 24.6471   6
   0  -7   1 385.792 25.4384   6
   0  -7  -2 57.8289 10.6365   6
   0   7  -2 56.0901 4.29258   7
   0  -7   2 78.7068 11.4151   6
   0  -7  -2 95.9053 12.3293   8
   0   7  -2 77.5695 10.7825   6
   0  -7  -2 76.6654 10.5131   2
   0  -7   2 84.3176 10.3989   8
   0  -7  -3 1042.89 43.6203   3
   0   7  -3 1051.33 40.7590   5
   0  -7  -3 1024.64 45.0188   2
   0  -7  -3 1098.45 48.5708   6
   0  -7   3 1076.40 42.6547   8
   0  -7  -3 1119.86 48.0104   8
   0   7  -3 1075.65 45.5699   6
   0  -7  -4 15.4880 5.33862   3
   0   7   4 6.69843 5.33113   6
   0  -7  -4 6.08134 5.68215   6
   0   7  -4 12.6198 4.44985   5
   0  -7  -4 19.3375 7.98792   8
   0  -7  -4 8.93905 5.08233   2
   0  -7   4 9.37071 4.43310   8
   0   7  -4 8.66847 4.78218   6
   0  -7  -5 8.76672 4.99541   2
   0  -7  -5 14.0078 6.20036   8
   0   7  -5 21.0770 5.00922   5
   0  -7   5 18.0500 4.91980   8
   0  -7  -5 16.9812 6.32756   6
   0  -7  -5 22.5270 5.95510   3
   0   7  -5 14.9104 5.50492   6
   0   7  -6 3.03510 3.50784   5
   0  -7  -6-7.84620 3.70533   6
   0  -7  -6 1.05669 3.67268   3
   0   7   6 1.94546 3.24821   1
   0  -7  -6 5.00939 4.18192   2
   0   7  -6-1.24616 3.98411   6
   0  -7   6 0.77205 3.06856   8
   0   7  -7 308.820 21.3468   6
   0  -7   7 279.771 15.5527   8
   0  -7  -7 265.977 18.2436   3
   0   7   7 256.339 17.8582   1
   0  -7  -7 293.900 23.4838   6
   0   7  -7 318.265 17.3910   5
   0  -7   8 115.923 8.82976   8
   0   7  -8 100.751 9.61701   5
   0  -7  -8 133.514 12.4734   3
   0   7   8 103.287 11.2222   1
   0   7  -8 119.047 13.6245   6
   0   7  -9 1692.80 52.7893   5
   0  -7  -9 1682.18 57.8388   3
   0   7  -9 1548.82 54.3947   7
   0   7   9 1692.31 58.9766   1
   0  -7   9 1495.60 46.6015   8
   0   7  -9 1643.23 61.1036   6
   0  -7 -10 1.74715 5.58580   6
   0  -7 -10 1.05798 4.20498   3
   0   7 -10-2.82341 4.05721   7
   0   7 -10 2.51948 3.09597   5
   0   7  10-1.14902 3.67353   1
   0   7 -11 130.230 9.28137   5
   0   7 -11 102.481 11.2533   7
   0  -7 -11 112.390 12.1014   3
   0  -7 -11 102.358 14.4537   6
   0  -7  11 109.079 15.5942   4
   0   7 -11 118.457 17.6030   1
   0   7  11 95.6123 11.9249   1
   0   7 -12 4.59265 4.56352   7
   0   7 -12 2.36315 6.44322   1
   0   7  12-1.26824 4.89027   1
   0  -7 -12-1.09945 3.82143   3
   0  -7  12 1.93656 5.90334   4
   0  -7 -12 3.68694 5.33121   6
   0   7 -13 485.497 37.5825   1
   0  -7 -13 501.426 26.7300   3
   0  -7 -13 512.654 33.4100   6
   0   7 -13 446.792 27.2818   7
   0   7  13 434.167 27.6068   1
   0  -7  13 475.056 33.8781   4
   0   7 -14 59.5221 10.5416   7
   0  -7  14 50.7093 12.3140   4
   0  -7 -14 58.1407 9.28235   3
   0   7  14 52.1049 10.2709   1
   0  -7 -14 77.5755 13.6942   6
   0   7 -14 69.5881 15.1881   1
   0  -8   0 3498.88 119.853   2
   0  -8   0 3928.24 124.722   6
   0  -8   0 3818.74 119.440   8
   0  -8   1 445.923 29.1897   2
   0  -8  -1 443.113 29.0706   2
   0  -8  -1 506.737 32.1530   6
   0  -8   1 508.961 29.1533   8
   0  -8   1 521.421 32.3178   6
   0  -8  -1 513.854 30.3299   8
   0  -8  -2 102.138 14.3638   6
   0  -8   2 97.7159 12.1575   8
   0  -8   2 99.2256 14.1493   6
   0  -8  -2 113.777 14.4249   8
   0  -8  -2 109.764 13.2001   2
   0  -8  -3 21.9996 7.21931   2
   0  -8  -3 15.6016 5.89116   3
   0   8  -3 16.2854 5.56378   5
   0  -8   3 12.7708 5.14317   8
   0  -8  -3 12.0744 6.00766   6
   0   8  -4 39.5651 7.25998   5
   0  -8  -4 34.8135 7.83579   2
   0  -8   4 49.7424 8.12295   8
   0  -8  -4 33.9708 7.52894   3
   0  -8  -4 17.4416 7.57125   6
   0  -8   5 113.261 11.5483   8
   0  -8  -5 98.5155 12.7371   2
   0  -8  -5 100.663 14.2508   6
   0   8  -5 87.3828 9.90633   5
   0  -8  -5 102.799 11.7521   3
   0  -8  -6 1696.18 59.2670   3
   0   8   6 1590.85 55.9714   1
   0  -8  -6 1695.75 62.2070   2
   0   8  -6 1800.76 55.2594   5
   0  -8  -6 1793.35 68.2641   6
   0  -8   6 1793.83 55.4251   8
   0   8   7 43.9901 7.86178   1
   0   8  -7 24.3764 4.27108   7
   0  -8  -7 42.0364 10.4630   6
   0  -8  -7 48.0885 8.58477   3
   0   8  -7 54.5701 7.98181   5
   0   8  -8 48.2682 6.29160   7
   0   8   8 65.1094 9.31879   1
   0  -8  -8 57.9877 8.84350   3
   0   8  -8 56.1603 7.71523   5
   0  -8  -9 63.9304 9.58551   3
   0   8  -9 53.6113 7.51010   5
   0   8   9 60.9468 9.09698   1
   0   8  -9 60.0358 7.32938   7
   0   8 -10 4.48258 6.12020   1
   0   8  10 12.9050 5.31515   1
   0  -8 -10 16.0391 5.42078   3
   0   8 -10 18.0499 4.70367   5
   0   8 -10 12.1828 4.00638   7
   0  -8 -11 9.88953 7.62653   6
   0   8 -11 2.38424 6.50066   1
   0   8  11-1.20798 4.94036   1
   0   8 -11 1.03341 2.90438   5
   0  -8 -11 1.17755 4.24725   3
   0  -9   0-1.90064 5.79375   6
   0  -9   0 3.40445 4.34138   2
   0  -9  -1 36.8004 8.57898   2
   0  -9   1 27.9018 7.75499   2
   0  -9   1 39.6139 9.99972   6
   0  -9  -1 40.1583 10.3023   6
   0  -9  -2 2.98487 4.77164   3
   0  -9   2 1.78119 5.42979   2
   0  -9  -2 1.65886 5.05689   2
   0  -9   2-2.73945 5.44415   8
   0  -9  -2 7.67734 7.16577   6
   0   9  -2 5.99954 5.17292   5
   0  -9  -3 257.943 22.3367   2
   0   9  -3 281.647 19.8744   5
   0  -9  -3 314.444 26.0840   6
   0  -9  -3 234.690 20.3464   3
   0  -9  -4 11.7968 6.83643   6
   0   9  -4 7.51696 4.96840   5
   0  -9  -4 8.41781 5.57967   3
   0  -9  -4 4.85510 5.62834   2
   0  -9  -5 6.40081 5.77226   2
   0   9  -5 1.01202 4.13975   5
   0  -9  -5 6.84148 5.59662   3
   0  -9  -5 1.99354 5.08502   6
   0   9  -6 30.8449 6.94265   5
   0   9   6 34.0743 7.07910   1
   0  -9  -6 32.1420 7.57510   3
   0  -9  -6 38.3999 10.3436   6
   0  -9  -7 49.4048 9.19130   3
   0   9  -7 74.6395 9.46552   5
   0  -9  -7 83.7312 13.8818   6
   1   0 -20 7.13887 8.27142   1
  -1   0  20 2.53724 6.91871   4
   1   0 -19 620.553 30.6694   8
  -1   0  19 567.395 40.5323   4
   1   0 -18 6.41561 6.51896   1
   1   0 -18-1.06436 3.97373   8
  -1   0  18-1.37404 5.61950   3
  -1   0  18 2.30006 6.27112   4
   1   0 -17 2735.14 88.3125   8
   1   0 -17 2770.04 103.064   1
  -1   0  17 2881.55 95.1185   5
  -1   0  17 2811.70 93.3573   3
  -1   0  17 2765.62 104.799   4
  -1   0  16-2.07077 4.88955   4
  -1   0  16 1.25432 4.83649   3
   1   0 -16 1.87997 4.79470   1
   1   0 -16-3.93462 3.67242   8
  -1   0  16 5.32596 5.44548   5
   1   0 -15 1412.05 61.2757   7
  -1   0  15 1416.90 55.8015   5
   1   0 -15 1463.57 62.5049   1
  -1   0  15 1473.60 55.6845   3
  -1   0  15 1366.08 63.1985   4
   1   0 -15 1482.84 52.2536   8
   1   0 -14-0.89441 3.55485   8
   1   0 -14 1.62214 4.69105   1
   1   0 -14 1.57063 4.54207   7
  -1   0  14-1.18916 4.43960   5
  -1   0  14 3.64367 5.26854   4
  -1   0  14-2.25825 3.92440   3
  -1   0  13 2049.05 69.1387   3
  -1   0  13 1921.74 68.7926   5
  -1   0  13 1963.46 76.7180   4
   1   0 -13 2124.34 75.3645   7
   1   0 -13 1975.69 65.1839   8
   1   0 -13 2045.09 75.1821   1
  -1   0  12 2.07772 3.61086   5
   1   0 -12-0.77770 2.37095   8
  -1   0  12-0.98703 4.03688   3
   1   0 -12-4.15995 4.22710   1
  -1   0  12 3.13055 3.69612   4
   1   0 -11 6054.14 175.570   1
  -1   0  11 6198.51 178.417   4
  -1   0  11 5815.87 169.576   5
   1   0 -11 5813.41 165.445   8
  -1   0  11 6185.37 169.643   3
   1   0 -10-1.13767 2.68630   1
  -1   0  10 2.52230 3.13894   3
   1   0 -10 1.30614 2.08795   8
  -1   0  10-0.88197 2.81977   5
   1   0  -9 1537.61 53.5253   1
  -1   0   9 1347.43 48.9329   5
  -1   0   9 1453.51 49.1350   3
   1   0  -9 1422.07 46.2634   8
  -1   0   8 0.72453 2.61325   5
  -1   0   8-0.69597 2.22510   3
   1   0  -8-0.90235 1.94502   1
   1   0  -8 0.51930 1.80491   8
   1   0  -7 3497.09 97.3426   8
  -1   0   7 3505.97 100.433   3
   1   0  -7 3531.22 103.268   1
  -1   0   7 3441.89 100.581   5
   1   0  -6 2.03527 1.96209   1
  -1   0   6 0.57004 1.90366   5
  -1   0   6 0.55173 1.99015   3
   1   0  -5 4084.32 111.095   1
  -1   0   5 3929.05 109.438   3
  -1   0   5 3860.36 109.613   5
  -1   0   4 0.41976 1.66833   5
   1   0  -4 0.39922 1.21695   3
  -1   0   4-0.40488 1.56117   3
   1   0  -4-0.42970 1.49349   5
  -1   0   3 58.3085 4.63536   3
   1   0  -3 57.8545 4.80902   5
   1   0  -2 2.22220 0.96710   5
  -1   0  -2 0.30702 0.72498   1
  -1   0  -3 646.743 23.4701   1
  -1   0  -3 697.807 23.4136   7
   1   0   3 658.854 22.2607   8
   1   0   4 1.17352 1.41103   8
  -1   0  -4-0.48956 1.33494   7
  -1   0  -4 2.04814 1.56097   1
   1   0   5 18005.6 473.396   8
  -1   0  -5 18372.0 476.215   7
  -1   0  -5 18358.2 476.614   1
   1   0   6-0.52405 1.42886   8
  -1   0  -6 0.73997 1.74725   1
  -1   0  -6-0.70624 1.92559   7
  -1   0  -6 3.05042 1.96036   8
  -1   0  -7 493.623 23.5394   1
  -1   0  -7 425.556 19.3002   8
  -1   0  -7 512.321 23.3979   7
   1   0   7 436.376 19.7910   8
  -1   0  -8-0.97928 2.11083   1
   1   0   8 0.65622 1.54950   8
  -1   0  -8 2.54738 2.12661   8
  -1   0  -8-0.92205 2.51397   7
  -1   0  -9 47.3633 7.65952   7
   1   0   9 60.5636 7.02649   8
  -1   0  -9 74.5825 7.59734   8
  -1   0  -9 67.9979 8.98643   1
  -1   0 -10-1.21701 2.62326   1
   1   0  10-0.78669 2.27503   8
  -1   0 -10-1.53652 2.45621   8
   1   0  10 1.95062 2.58427   3
  -1   0 -10 1.13643 3.09847   7
   1   0  11 5932.91 168.109   8
   1   0  11 5594.76 175.647   4
  -1   0 -11 6035.35 168.038   8
   1   0  11 6150.13 166.206   3
  -1   0 -11 6058.35 176.452   1
  -1   0 -12-0.89320 2.72295   8
   1   0  12 0.80612 3.29699   3
  -1   0 -12 1.46359 4.23266   1
   1   0  12-4.54883 5.27009   4
   1   0  13 1015.58 48.1794   4
   1   0  13 1024.37 40.8629   5
  -1   0 -13 971.516 46.8507   1
   1   0  13 1030.40 39.6475   3
   1   0  14-0.93956 3.73431   3
  -1   0 -14 3.45820 4.40991   1
   1   0  14 1.05392 4.42836   5
   1   0  14-1.77178 4.83074   4
   1   0  15 1948.93 67.8327   5
   1   0  15 1874.56 77.2811   4
   1   0  15 1955.52 66.1705   3
  -1   0 -15 1934.66 77.7710   1
  -1   0 -16-1.99216 3.84077   1
   1   0  16-2.01595 6.14527   4
   1   0  16 1.07336 4.26612   3
   1   0  16-1.20129 4.63203   5
  -1   0 -17 148.736 13.1317   6
  -1   0 -17 127.393 17.5809   1
   1   0  17 124.500 12.9003   3
   1   0  17 125.168 17.4477   4
   1   0  17 137.872 14.2115   5
  -1   0 -18-1.06719 3.56374   6
  -1   0 -18-2.26089 5.76625   1
   1   0  18 4.48028 5.71332   4
   1   0  18-2.67333 5.90469   5
   1   0  18-1.18113 5.09189   3
   1   0  19 306.997 28.8485   4
  -1   0 -19 374.890 31.8525   1
  -1   0 -19 367.935 22.4732   6
  -1   0 -20-2.53560 7.33282   1
  -1   0 -20-1.16329 4.88816   6
   1   0  20-2.46917 7.52696   4
   1  -1 -20 29.9766 9.95272   1
   1  -1 -20 21.4509 7.25237   6
   1  -1 -20 15.0184 5.90622   8
  -1  -1  20 12.3696 7.17110   4
  -1   1  20 25.9652 12.0138   4
   1   1 -20 25.0655 9.97440   1
   1  -1 -19 8.00789 5.61130   8
   1  -1 -19 5.89998 5.32358   6
  -1  -1  19 21.3899 9.16608   4
  -1   1  19 27.2785 10.1439   4
   1   1 -19-2.37372 7.59150   1
   1  -1 -19 10.8718 6.63096   1
  -1   1  18 1.30750 5.19675   3
   1   1 -18 2.23379 6.80936   1
   1  -1 -18 7.84142 5.03930   8
  -1  -1  18-4.53613 7.88297   4
  -1   1  18 2.35743 6.42758   4
  -1  -1  18-1.36492 7.44295   5
   1  -1 -18 4.10845 4.85055   1
  -1  -1  17 17.8001 6.62070   3
  -1  -1  17 12.9600 7.80869   4
  -1   1  17 20.0583 8.60985   4
  -1   1  17 21.3913 6.98806   3
   1  -1 -17 19.0710 6.15076   8
   1  -1 -17 15.3996 7.20612   1
   1   1 -17 33.7938 9.56436   1
  -1  -1  17 36.7313 8.95744   5
  -1  -1  16 392.762 25.3706   3
  -1   1  16 381.464 24.0861   3
  -1  -1  16 396.394 30.7624   4
  -1   1  16 382.429 30.5564   4
   1  -1 -16 378.962 28.4096   1
   1   1 -16 341.385 28.4869   1
  -1  -1  16 391.976 24.6625   5
   1  -1 -16 400.560 24.3940   8
  -1   1  16 393.886 26.0695   5
  -1  -1  15 34.6107 8.23890   3
   1  -1 -15 43.8639 9.68072   7
  -1  -1  15 47.3937 8.53793   5
  -1   1  15 50.4392 8.48369   3
   1   1 -15 40.5917 5.99135   8
   1  -1 -15 41.5521 7.62197   8
   1  -1 -15 34.9423 8.70383   1
   1   1 -15 50.6605 10.4453   1
  -1  -1  15 42.4498 10.5762   4
  -1   1  15 39.1869 8.30766   5
  -1   1  14 142.858 13.1757   3
   1  -1 -14 124.508 15.0473   7
  -1   1  14 113.750 13.1438   5
   1  -1 -14 152.200 13.5380   8
   1   1 -14 111.713 14.7315   1
   1  -1 -14 126.799 14.5786   1
  -1  -1  14 145.661 13.8579   3
   1   1 -14 120.929 9.62939   8
  -1  -1  14 125.148 12.8316   5
  -1  -1  14 97.5657 14.4053   4
  -1   1  13 244.339 16.9543   3
   1  -1 -13 199.934 15.6819   8
   1   1 -13 212.629 19.7524   1
   1  -1 -13 219.450 19.0772   7
   1  -1 -13 215.334 18.7494   1
  -1  -1  13 235.524 17.3570   3
   1   1 -13 198.000 12.2931   8
  -1  -1  13 224.625 16.7361   5
  -1  -1  13 237.634 20.7720   4
  -1   1  13 201.950 16.8544   5
  -1  -1  12 146.661 13.6472   3
   1  -1 -12 142.873 14.5998   1
  -1   1  12 160.172 14.3815   5
  -1  -1  12 181.712 14.3328   5
   1   1 -12 148.372 9.98131   8
   1   1 -12 172.833 16.7359   1
   1  -1 -12 124.036 12.4772   8
  -1   1  12 172.755 14.2080   3
   1  -1 -12 144.221 15.4972   7
  -1  -1  12 197.077 18.4585   4
  -1  -1  11 125.772 11.8758   5
  -1  -1  11 165.314 13.0670   3
  -1  -1  11 117.849 13.6513   4
   1  -1 -11 133.803 11.8110   8
  -1   1  11 126.104 11.5160   3
   1  -1 -11 127.584 13.1191   1
   1  -1 -11 140.844 14.0031   7
  -1   1  11 137.241 12.6635   5
   1   1 -11 134.056 8.96497   8
   1   1 -11 136.606 14.3021   1
   1  -1 -10 2316.22 76.4349   1
   1  -1 -10 2314.26 73.2802   8
   1   1 -10 2243.45 66.5372   8
  -1  -1  10 2295.99 73.0377   5
  -1   1  10 2233.84 74.6242   5
   1   1 -10 2404.00 80.4195   1
  -1   1  10 2402.29 73.5637   3
  -1  -1  10 2352.62 73.6274   3
   1   1  -9 74.6574 5.77714   8
   1  -1  -9 74.8303 8.71701   1
  -1  -1   9 65.6630 7.56834   5
   1  -1  -9 67.8840 7.90133   8
   1   1  -9 104.109 11.2657   1
  -1   1   9 93.0745 8.87029   3
  -1   1   8 2417.50 73.2906   3
   1  -1  -8 2483.54 75.4557   1
  -1  -1   8 2450.13 73.3348   5
   1   1  -8 2311.04 66.9355   8
   1   1  -8 2631.06 80.1238   1
   1  -1  -8 2446.60 73.7902   8
   1  -1  -8 2312.88 72.8186   3
   1  -1  -7 116.495 9.07519   3
  -1  -1   7 131.326 9.50510   5
   1   1  -7 100.581 5.94360   8
   1   1  -7 114.462 8.93678   5
   1  -1  -7 131.742 9.92020   1
  -1   1   7 118.204 9.21955   3
  -1   1   7 127.333 9.63630   1
   1   1  -6 153.067 6.74230   8
  -1   1   6 160.822 10.1589   3
   1   1  -6 169.803 10.3153   5
  -1  -1   6 146.388 9.78489   5
  -1   1   6 170.055 10.4430   1
   1   1  -6 161.843 12.0156   4
   1  -1  -6 161.025 10.3138   1
   1   1  -5 91.9912 8.21049   4
   1  -1  -5 78.1324 6.39077   1
  -1   1   5 93.9685 7.05369   3
  -1  -1   5 92.5891 7.12184   5
  -1   1   5 98.9634 7.13123   1
  -1   1   4 25054.9 653.145   3
   1   1  -4 26805.9 656.463   4
  -1  -1   4 24987.8 653.315   5
   1  -1  -4 24944.6 652.666   1
   1   1  -3 323.299 14.0087   4
   1  -1  -3 315.171 11.4948   1
  -1  -1   3 329.165 12.9382   5
  -1   1   3 331.062 12.9138   3
   1   1  -2 935.858 28.5125   4
  -1  -1   2 912.445 27.6694   5
   1   1  -2 839.743 27.4496   5
  -1   1   2 916.073 27.7750   3
  -1   1   1 1.48433 0.92362   2
   1   1  -1 0.48428 0.73815   5
   1  -1  -1 0.70742 0.71884   6
  -1  -1   1-0.46726 0.78018   4
   1   1  -1-0.47672 0.76208   4
   1  -1   0 986.290 27.3502   6
  -1  -1   0 947.048 28.3876   6
  -1  -1   0 963.244 28.3129   8
  -1   1   0 984.422 28.1125   2
  -1  -1  -1 272.746 11.5049   8
  -1  -1  -1 234.838 10.3117   6
   1  -1   1 254.515 9.21230   6
   1  -1   1 302.100 10.5830   1
   1  -1   1 289.136 9.91008   4
   1   1   1 278.327 10.4878   6
  -1  -1  -2 15379.0 395.306   8
   1  -1   2 15678.7 392.910   7
   1  -1   2 14919.5 392.949   4
   1  -1   2 15251.0 394.460   1
   1  -1   2 15396.2 390.794   6
   1   1   2 14605.9 392.814   6
  -1   1  -3 50.1747 5.05580   1
   1   1   3 51.8960 5.06124   1
   1   1   3 61.4590 3.34447   2
   1  -1   3 50.2333 4.40566   7
  -1  -1  -3 50.8867 5.14567   8
   1  -1   3 53.0078 5.15660   1
   1   1   3 56.2026 4.12819   6
   1  -1   3 58.2110 4.78589   4
   1   1   4 369.312 13.9526   6
   1   1   4 363.699 16.6503   8
   1   1   4 328.196 15.8461   1
   1  -1   4 352.980 15.6959   4
  -1   1  -4 344.615 16.4192   1
   1  -1   4 368.281 16.7775   1
  -1  -1  -4 375.730 16.5450   1
  -1  -1  -4 362.417 16.3734   8
   1   1   4 356.178 11.7541   3
  -1  -1  -5 814.850 28.0476   6
  -1  -1  -5 908.007 32.6247   7
  -1  -1  -5 916.867 32.4574   1
   1   1   5 887.465 26.3990   3
   1  -1   5 862.540 31.7789   4
   1   1   5 853.367 31.7129   8
  -1   1  -5 891.843 33.0647   1
   1  -1   5 864.488 28.1458   8
   1  -1   6 811.969 32.2204   4
  -1   1  -6 826.127 32.9543   1
  -1  -1  -6 889.903 32.9995   7
  -1  -1  -6 836.756 32.5332   1
   1  -1   6 830.414 27.9517   8
   1   1   6 822.178 31.6106   8
   1   1   6 836.295 26.6161   3
  -1  -1  -6 820.112 28.1291   6
  -1  -1  -7 11.9803 3.78483   1
   1  -1   7 4.47071 1.92854   5
  -1  -1  -7 5.83921 2.79188   7
   1   1   7 7.47104 2.79559   8
  -1   1  -7 3.64665 2.33272   1
  -1  -1  -7 8.67627 2.37670   6
  -1  -1  -7 7.97074 2.88614   8
   1   1   7 11.7350 2.64619   3
   1  -1   7 9.57008 3.46298   4
   1  -1   7 8.54890 2.21959   8
  -1  -1  -8 1062.64 40.8104   7
  -1  -1  -8 1011.59 35.1588   6
   1   1   8 1024.45 39.2208   8
  -1   1  -8 1162.78 43.2228   1
   1  -1   8 994.046 34.2094   5
  -1  -1  -8 1008.28 40.6381   1
   1  -1   8 1023.70 34.7757   8
   1  -1   8 1040.77 41.3541   4
   1   1   8 1059.11 34.3342   3
  -1  -1  -8 1018.22 38.5678   8
   1   1   9 182.552 10.9233   3
  -1  -1  -9 201.745 15.7258   1
  -1  -1  -9 177.452 14.5380   7
   1  -1   9 169.909 14.6273   4
   1   1   9 152.195 12.7054   8
   1  -1   9 195.603 11.6109   5
   1  -1   9 176.198 11.0965   8
  -1  -1  -9 191.478 13.7975   8
  -1   1  -9 165.624 14.7959   1
  -1  -1  -9 182.626 11.4563   6
   1   1  10 1682.19 58.2297   8
  -1  -1 -10 1628.19 53.7548   6
  -1  -1 -10 1677.20 61.6780   1
  -1  -1 -10 1646.42 57.8306   8
   1  -1  10 1754.39 63.2879   4
   1  -1  10 1677.59 53.8799   5
   1  -1  10 1712.66 53.5496   8
  -1   1 -10 1618.47 62.6594   1
  -1  -1 -10 1716.17 61.4414   7
   1   1  10 1662.31 53.2349   3
  -1  -1 -11 139.157 13.9679   7
  -1   1 -11 139.365 14.5284   1
   1   1  11 135.269 10.4624   3
   1  -1  11 124.772 10.5657   5
   1  -1  11 150.373 15.1681   4
  -1   1 -11 132.330 13.6721   7
  -1  -1 -11 126.570 12.0875   8
  -1  -1 -11 156.386 14.8814   1
   1   1  11 166.946 14.9553   1
   1  -1  11 138.663 10.5087   8
  -1  -1 -11 142.834 11.0158   6
  -1  -1 -12 252.031 15.9639   6
   1   1  12 262.725 15.6106   3
   1  -1  12 254.434 15.9647   5
   1   1  12 268.075 20.3525   1
  -1   1 -12 243.475 20.5593   1
   1  -1  12 250.025 15.2753   8
  -1  -1 -12 269.907 20.7849   7
   1  -1  12 260.476 21.1761   4
  -1   1 -12 275.549 20.5594   7
  -1  -1 -12 258.319 20.5349   1
  -1  -1 -12 278.120 18.5437   8
  -1  -1 -13 9.99547 4.28683   8
  -1   1 -13 13.2794 5.99027   1
  -1  -1 -13 8.74756 5.26213   7
  -1  -1 -13 7.88794 4.30577   1
   1   1  13 5.66235 3.57868   3
  -1   1 -13 14.4006 5.89273   7
  -1  -1 -13 8.74268 3.77405   6
   1   1  13 4.34426 5.03682   1
   1  -1  13 2.62118 3.47818   5
   1  -1  13 11.4129 5.67007   4
   1  -1  14 1227.00 55.4984   4
  -1  -1 -14 1279.38 46.1203   6
   1   1  14 1169.68 52.7748   1
  -1   1 -14 1148.49 52.4297   7
  -1   1 -14 1293.80 57.1553   1
  -1  -1 -14 1175.19 48.3363   8
  -1  -1 -14 1212.69 53.5098   7
   1  -1  14 1199.96 46.2473   3
  -1  -1 -14 1250.39 55.6156   1
   1  -1  14 1189.35 45.6697   5
   1   1  14 1239.23 45.0724   3
  -1  -1 -15 11.2026 5.88391   8
   1  -1  15 8.12191 4.70064   5
   1  -1  15 3.73127 5.69299   4
  -1   1 -15 3.28791 5.26232   7
  -1  -1 -15 14.7088 6.63657   1
   1   1  15 9.79377 6.29925   1
  -1  -1 -15 21.7688 5.88556   6
   1  -1  15 17.2621 6.33141   3
   1   1  15 11.1419 5.06971   3
  -1   1 -15 5.79747 5.89657   1
  -1  -1 -16 1.04494 3.18532   6
  -1  -1 -16-1.96951 4.65043   1
   1  -1  16-1.97779 5.71954   4
   1  -1  16-1.14995 5.86567   3
  -1   1 -16-2.05064 5.59107   1
   1   1  16 1.32643 4.78420   5
  -1  -1 -16 1.30411 4.16939   8
   1  -1  16 2.16136 4.88618   5
   1   1  16 0.98052 3.66070   3
   1   1  16 2.05789 6.27309   4
  -1  -1 -17 9.51367 5.08062   8
   1   1  17 12.5570 5.55134   5
  -1   1 -17 6.54156 5.95078   1
   1  -1  17 6.06660 4.38382   3
  -1  -1 -17 8.78623 4.49908   6
   1  -1  17 4.17136 6.03707   4
   1   1  17 8.73754 7.29880   4
   1  -1  17 18.2939 6.61800   5
   1   1  17 16.5241 5.45890   3
  -1  -1 -17 16.7180 7.80615   1
  -1  -1 -18 380.628 23.3792   6
   1  -1  18 382.504 24.1260   5
  -1   1 -18 394.907 32.2406   1
   1   1  18 435.887 24.1976   3
   1   1  18 383.495 31.7700   4
  -1  -1 -18 401.639 31.5878   1
   1  -1  18 425.228 32.2381   4
   1  -1  18 371.738 24.4615   3
  -1  -1 -19 169.638 21.1453   1
  -1  -1 -19 173.358 15.6971   6
  -1   1 -19 206.897 23.4629   1
   1   1  19 174.711 22.0379   4
   1  -1  19 174.421 21.4729   4
   1  -1  20 422.859 34.8995   4
  -1  -1 -20 467.819 27.1812   6
  -1  -1 -20 504.681 37.2040   1
  -1   1 -20 494.022 37.9553   1
   1   1  20 454.556 36.4392   4
  -1   1 -20 463.150 25.8245   6
  -1   2  20 10.6608 7.70808   4
   1  -2 -20 4.43063 6.04081   1
  -1  -2  20-2.49720 8.33936   4
   1   2 -20 2.60572 7.10515   1
   1  -2 -20 6.49665 6.26326   6
   1   2 -19 510.331 38.3471   1
  -1   2  19 489.368 37.6610   4
   1  -2 -19 545.180 36.4457   1
   1  -2 -19 536.184 32.1924   6
  -1  -2  19 500.343 37.5546   4
   1  -2 -18 19.7928 6.75981   6
  -1  -2  18 29.6271 8.97981   5
   1  -2 -18 21.4109 7.40235   8
   1   2 -18 28.5688 9.48657   1
  -1   2  18 37.2201 8.29317   3
  -1  -2  18 25.2155 9.65578   4
   1  -2 -18 30.0405 8.66021   1
  -1  -2  17 1633.86 62.1447   5
   1  -2 -17 1820.00 72.1094   1
  -1  -2  17 1695.19 74.2972   4
   1   2 -17 1813.11 77.0319   1
  -1   2  17 1632.53 61.3745   3
   1  -2 -17 1668.94 65.5054   6
   1  -2 -17 1681.13 65.7071   8
   1  -2 -16 29.8754 8.31340   1
   1  -2 -16 17.0098 6.98437   8
  -1  -2  16 26.7647 8.88890   4
  -1  -2  16 19.0682 6.71241   3
  -1   2  16 17.7751 6.44393   3
   1  -2 -16 19.3049 6.39338   6
   1   2 -16 10.6612 6.51804   1
  -1  -2  16 20.0042 6.53436   5
   1  -2 -15 916.263 41.6476   6
  -1  -2  15 987.598 42.8213   3
   1   2 -15 918.479 49.3682   1
   1  -2 -15 940.142 46.6626   7
  -1   2  15 926.585 39.3323   3
  -1   2  15 884.102 43.2938   5
   1  -2 -15 929.813 42.7082   8
  -1  -2  15 848.904 46.9498   4
   1   2 -15 959.887 47.0445   7
  -1  -2  15 896.318 39.4764   5
   1  -2 -15 976.166 46.5379   1
   1  -2 -14 39.6216 8.84472   7
  -1   2  14 57.3874 8.53173   3
   1  -2 -14 48.1667 8.57278   6
  -1  -2  14 51.3218 9.05270   3
   1  -2 -14 33.0252 8.25908   1
  -1  -2  14 39.9290 9.64540   4
  -1  -2  14 32.6740 7.12433   5
   1  -2 -14 36.3135 8.17614   8
   1   2 -14 47.1683 10.9676   1
  -1   2  14 56.7559 10.2217   5
  -1  -2  13 4709.93 136.667   5
   1  -2 -13 4545.85 140.288   8
   1   2 -13 4811.22 149.937   1
   1  -2 -13 4676.51 143.090   1
   1  -2 -13 4650.81 139.478   6
  -1   2  13 4677.37 136.176   3
  -1  -2  13 4544.30 147.136   4
   1  -2 -13 4693.96 144.998   7
   1  -2 -12 5.81163 3.88404   8
  -1   2  12 5.34891 4.12390   3
   1   2 -12 6.58506 4.76303   1
   1  -2 -12 7.48750 4.33971   1
  -1  -2  12 3.67301 4.15432   5
   1  -2 -12 8.12955 4.88913   7
   1  -2 -12 6.56541 3.94938   6
  -1  -2  12 3.13760 4.00371   4
   1   2 -11 289.734 22.5111   1
  -1   2  11 306.216 19.6713   1
   1  -2 -11 349.928 20.2222   6
   1  -2 -11 289.504 19.5814   8
   1  -2 -11 288.970 19.6296   1
  -1  -2  11 270.510 21.2946   4
  -1   2  11 299.895 17.7331   3
  -1  -2  11 287.002 17.6249   5
   1  -2 -11 327.007 21.6905   7
   1  -2 -10 463.416 24.3303   1
   1  -2 -10 418.502 23.4660   8
  -1   2  10 424.369 21.1803   3
  -1  -2  10 433.421 26.1313   4
  -1  -2  10 422.770 21.3989   5
   1  -2 -10 392.238 22.3908   6
   1   2 -10 440.823 27.4356   1
   1  -2 -10 457.896 25.2184   7
   1   2  -9 1291.03 50.6918   4
  -1   2   9 1303.57 45.1899   3
  -1   2   9 1349.10 47.5779   1
   1  -2  -9 1290.63 48.3955   8
   1  -2  -9 1278.48 48.8999   7
  -1  -2   9 1283.59 44.9839   5
   1   2  -9 1350.08 45.7931   5
   1  -2  -9 1372.56 48.2904   1
  -1   2   8 30.3384 5.23514   1
   1   2  -8 22.8806 5.79735   4
   1  -2  -8 30.9093 5.71798   7
  -1   2   8 17.6677 4.14148   3
   1  -2  -8 28.0698 5.64804   8
   1  -2  -8 29.9611 5.12017   1
   1  -2  -8 23.0509 4.60152   3
  -1  -2   8 29.4347 4.97907   5
   1   2  -8 27.6070 4.77177   5
   1  -2  -7 6827.53 186.058   1
   1  -2  -7 6787.90 185.708   3
  -1  -2   7 6668.02 184.333   5
   1   2  -7 6939.80 191.164   4
  -1   2   7 6796.62 185.044   3
   1   2  -7 6822.47 185.153   5
   1  -2  -7 6768.29 188.351   7
  -1   2   7 6997.87 185.637   1
  -1  -2   6 333.929 15.3508   5
   1  -2  -6 308.653 15.6397   3
   1  -2  -6 366.439 17.8301   7
   1   2  -6 338.205 18.3113   4
  -1   2   6 334.096 15.5432   1
   1  -2  -6 326.774 15.5473   1
   1   2  -6 315.187 15.4129   5
  -1   2   6 326.842 15.5930   3
   1  -2  -5 191.486 11.4905   7
  -1   2   5 205.118 11.2080   3
  -1  -2   5 183.101 10.3630   5
  -1   2   5 214.410 10.6618   1
   1  -2  -5 195.772 10.3096   1
   1   2  -5 205.333 11.0660   5
   1   2  -5 204.676 12.9765   4
   1  -2  -5 192.164 11.9040   6
   1   2  -4 75.5093 6.02456   5
   1  -2  -4 69.9085 6.59071   6
  -1   2   4 81.6308 6.54251   2
   1   2  -4 73.7634 7.14229   4
  -1   2   4 67.6284 4.96129   1
  -1  -2   4 73.6681 5.78051   5
  -1   2   4 72.0305 6.02820   3
  -1   2   3 1762.83 50.9817   1
  -1  -2   3 1846.05 53.4372   5
  -1   2   3 1837.33 54.4387   3
   1  -2  -3 1867.94 55.6546   6
   1   2  -3 1890.48 56.3925   4
  -1   2   3 1879.62 55.1107   2
  -1  -2   3 1878.47 50.3667   8
   1  -2  -2 288.861 13.0139   6
  -1  -2   2 267.131 10.4846   8
   1  -2  -2 260.620 10.3305   7
  -1   2   2 263.504 12.4767   2
   1   2  -2 247.347 12.4089   4
   1   2  -2 241.734 10.2421   8
   1   2  -1 123.521 7.51781   4
   1  -2  -1 99.6320 6.88320   6
  -1  -2   1 109.423 7.41254   6
  -1   2   1 82.2003 6.57165   6
  -1  -2   1 115.357 6.72418   8
   1  -2   0 92.7495 6.17566   6
  -1  -2   0 70.9877 6.07211   6
  -1  -2   0 80.9492 6.08228   8
   1  -2   1 39.2123 3.88239   6
  -1  -2  -1 55.4238 5.45436   8
  -1  -2  -1 55.4709 5.21201   6
  -1   2  -2 76.1505 4.29237   7
   1  -2   2 70.7666 5.25306   6
  -1  -2  -2 67.3122 5.85000   6
  -1  -2  -2 69.9773 6.44190   8
   1   2   2 83.8879 6.34835   6
   1  -2   2 73.3034 5.70044   4
  -1  -2  -3 12055.2 312.036   3
   1   2   3 12565.1 316.874   6
  -1  -2  -3 12345.2 319.677   8
  -1  -2  -3 11710.6 313.677   2
   1  -2   3 12149.4 316.769   4
  -1   2  -3 12213.2 314.134   6
  -1   2  -3 11884.2 314.036   7
  -1  -2  -4 374.223 18.3850   8
   1   2   4 343.941 15.6341   6
  -1   2  -4 377.798 15.3583   7
   1  -2   4 345.109 16.4548   4
  -1   2  -4 369.306 14.1948   6
   1   2   4 359.072 14.0118   2
  -1  -2  -4 329.437 12.2943   3
   1   2   5 12016.1 307.082   2
  -1  -2  -5 11609.7 305.622   3
   1  -2   5 11917.5 312.930   4
  -1   2  -5 11670.0 307.287   6
  -1   2  -5 12345.6 310.840   7
   1   2   5 11550.4 305.177   3
   1   2   5 12180.9 310.690   6
  -1  -2  -5 12047.8 314.834   8
   1  -2   5 11649.8 303.049   5
  -1   2  -6 0.64099 2.04939   7
   1   2   6 2.28016 1.59691   2
   1  -2   6 0.77839 1.98530   4
  -1  -2  -6-0.32196 1.27979   3
  -1  -2  -6-0.57241 1.45999   6
   1   2   6 0.83831 1.26357   3
   1  -2   6 1.54731 1.16723   5
  -1  -2  -7 1826.73 56.6881   6
   1   2   7 1842.07 51.9833   3
   1  -2   7 1815.90 52.3884   8
   1   2   7 1946.85 60.2886   1
   1  -2   7 1844.81 60.9323   4
   1   2   7 1730.09 60.7058   8
  -1   2  -7 1811.37 58.5635   7
   1   2   7 1837.86 53.5073   2
  -1  -2  -7 1841.58 60.4573   7
  -1  -2  -7 1786.25 52.5559   3
   1  -2   7 1638.73 51.1959   5
   1  -2   8 81.5634 9.61625   4
  -1  -2  -8 79.6693 9.18603   7
  -1  -2  -8 77.1309 7.61104   6
   1  -2   8 81.7837 6.12118   5
  -1   2  -8 72.7434 8.49698   7
  -1   2  -8 95.6674 10.3566   4
   1   2   8 75.0633 5.97229   3
   1  -2   8 70.6451 5.83979   8
  -1  -2  -9 4440.43 130.645   7
  -1  -2  -9 4267.79 129.280   8
   1  -2   9 4325.33 131.072   4
  -1  -2  -9 4393.87 124.894   6
  -1  -2  -9 4605.82 131.228   1
   1   2   9 4309.81 119.926   3
   1   2   9 4410.39 129.245   1
   1  -2   9 4493.64 119.692   8
   1  -2   9 4310.99 119.771   5
  -1   2  -9 4103.41 131.794   1
  -1   2  -9 4360.09 128.949   7
   1   2  10 40.8144 5.11615   3
   1  -2  10 50.2692 8.70193   4
  -1  -2 -10 23.7510 5.91172   1
  -1  -2 -10 38.9996 7.14427   8
   1  -2  10 40.0447 5.22219   5
   1  -2  10 35.4849 4.60164   8
  -1   2 -10 35.5115 7.39010   1
  -1   2 -10 33.9839 6.99252   7
  -1  -2 -10 41.8217 6.06211   6
   1   2  10 26.5593 6.72735   1
  -1  -2 -10 41.9342 7.75467   7
   1  -2  11 4114.85 112.929   8
  -1  -2 -11 4061.03 118.183   6
  -1  -2 -11 4068.52 125.403   7
   1  -2  11 3840.06 113.843   5
  -1   2 -11 4244.52 129.736   1
   1   2  11 4087.07 113.991   3
  -1  -2 -11 3925.48 122.905   8
  -1   2 -11 4139.43 124.770   7
   1  -2  11 4017.69 126.700   4
   1   2  11 4094.66 124.447   1
  -1  -2 -11 4010.63 125.553   1
  -1   2 -12 95.8411 13.3001   1
  -1  -2 -12 119.687 11.2373   6
   1   2  12 111.694 13.2447   1
  -1  -2 -12 134.984 14.0591   8
   1  -2  12 127.693 14.8984   4
   1  -2  12 146.439 10.8375   5
  -1   2 -12 136.641 14.0652   7
  -1  -2 -12 136.597 14.5416   1
  -1  -2 -12 114.997 13.3823   7
   1  -2  12 127.331 9.12587   8
   1   2  12 119.629 9.83076   3
  -1  -2 -13 1922.81 71.4958   1
  -1  -2 -13 1774.87 66.8422   8
  -1  -2 -13 1771.42 69.0167   7
  -1   2 -13 1896.76 74.2988   1
   1   2  13 1840.29 58.9101   3
  -1  -2 -13 1815.69 62.4989   6
   1  -2  13 1871.65 71.9747   4
   1  -2  13 1792.67 59.3501   5
  -1   2 -13 1965.31 70.4676   7
   1   2  13 1788.02 68.7313   1
  -1  -2 -14-1.35331 4.70404   8
   1  -2  14 1.74487 5.57889   4
  -1  -2 -14 1.66578 4.54221   1
  -1  -2 -14 4.11070 3.28623   6
  -1  -2 -14 3.14311 4.28533   7
   1  -2  14 3.29822 3.89445   5
  -1   2 -14 1.52668 4.41546   7
   1   2  14 1.51311 3.57338   3
  -1   2 -14 14.9444 6.49293   1
   1   2  14 3.06364 5.52539   1
  -1   2 -15 1224.11 54.9856   7
   1   2  15 1179.92 43.9682   3
   1  -2  15 1200.19 45.0366   5
  -1  -2 -15 1276.22 48.4542   6
  -1  -2 -15 1330.18 58.1314   1
  -1   2 -15 1271.58 59.2728   1
   1   2  15 1279.17 55.4647   1
   1  -2  15 1206.19 56.7242   4
  -1  -2 -15 1150.74 50.8492   8
  -1  -2 -16 156.967 14.1085   6
  -1  -2 -16 137.804 15.1689   8
  -1   2 -16 128.474 17.3816   1
   1  -2  16 127.699 12.1972   5
   1  -2  16 136.850 17.6676   4
  -1  -2 -16 152.893 17.8292   1
   1   2  16 134.064 11.6213   3
   1  -2  17 280.199 18.6828   5
   1  -2  17 304.087 26.7734   4
  -1  -2 -17 308.746 20.8395   6
  -1   2 -17 263.353 25.9545   1
  -1  -2 -17 244.205 21.2851   8
  -1  -2 -17 339.508 27.3138   1
   1   2  17 282.017 17.8444   3
   1  -2  17 325.744 22.2372   3
   1  -2  18 33.0732 9.99973   4
  -1  -2 -18 43.0842 10.6173   1
  -1   2 -18 24.2248 9.37340   1
  -1  -2 -18 27.5996 7.09469   6
   1  -2  19 677.412 43.7374   4
  -1  -2 -19 642.006 34.1831   6
   1   2  19 634.786 44.5273   4
  -1  -2 -19 804.150 46.1191   1
  -1   2 -19 754.761 47.4019   1
   1   3 -19 13.2610 8.08874   1
  -1  -3  19 9.86602 9.51384   4
   1  -3 -19 8.28221 5.53711   6
   1  -3 -19 10.1241 6.47850   1
   1  -3 -18-1.91818 6.13298   1
   1  -3 -18 1.60234 5.56952   6
  -1  -3  18-7.08070 8.20353   4
   1   3 -18 2.52463 6.43918   1
   1  -3 -17 45.0587 10.3409   1
  -1  -3  17 49.4066 12.6738   4
  -1   3  17 48.6191 8.44838   3
  -1  -3  17 38.1488 7.95532   5
   1  -3 -17 58.7193 10.5936   6
   1   3 -17 31.2607 10.4283   1
   1   3 -16 232.891 24.2211   1
   1  -3 -16 208.979 19.9105   1
  -1  -3  16 198.493 16.1772   5
   1  -3 -16 231.868 20.8982   8
  -1   3  16 207.814 16.7774   3
  -1  -3  16 200.090 22.1971   4
   1  -3 -16 228.282 19.4610   6
  -1   3  15 7.29206 4.71403   3
   1  -3 -15 6.18740 5.16899   8
   1  -3 -15 15.5906 5.95850   6
   1  -3 -15 21.9292 7.39964   1
  -1  -3  15 2.01057 5.81758   4
   1   3 -15 4.33079 5.11665   1
  -1  -3  15 5.07359 4.48665   5
   1  -3 -14 47.7304 9.12200   1
   1  -3 -14 51.7286 10.5433   7
   1   3 -14 61.1523 12.0176   1
  -1  -3  14 45.3667 11.0043   4
   1  -3 -14 54.8120 10.2746   8
  -1  -3  14 50.6213 8.01838   5
   1  -3 -14 40.5354 8.02092   6
  -1   3  14 48.6277 7.81350   3
   1  -3 -13 3.84938 3.71378   6
   1  -3 -13 6.18522 3.97779   3
  -1  -3  13 4.47120 4.13687   5
   1   3 -13 7.73936 5.89996   1
   1  -3 -13 8.79970 5.83108   7
   1  -3 -13 11.9299 5.42325   1
  -1   3  13 3.76684 3.63428   3
  -1   3  13 11.1419 5.20402   1
   1  -3 -13 7.07045 4.91719   8
  -1  -3  13 1.76743 4.82131   4
  -1   3  12 693.680 32.7108   1
  -1   3  12 669.524 29.4264   3
   1  -3 -12 573.739 31.4770   1
   1   3 -12 757.606 40.5761   1
   1  -3 -12 577.795 32.7944   8
   1  -3 -12 606.720 31.6533   6
   1  -3 -12 612.924 33.4433   7
  -1  -3  12 690.203 37.5308   4
   1  -3 -12 600.687 29.6181   3
  -1  -3  12 683.161 29.0290   5
   1   3 -11 15.0237 5.81842   1
  -1  -3  11 13.6393 5.85988   4
  -1   3  11 11.7270 3.89720   3
  -1   3  11 11.5028 4.29913   1
   1   3 -11 15.6780 6.15997   4
   1  -3 -11 24.0976 6.36788   8
   1  -3 -11 24.0218 5.95425   6
   1  -3 -11 21.7216 5.45773   1
   1  -3 -11 18.7499 5.66870   7
  -1  -3  11 26.7751 5.48652   5
   1  -3 -10 2089.29 72.2108   8
   1   3 -10 2157.31 66.3061   5
   1  -3 -10 2067.44 71.2746   7
  -1   3  10 2046.39 66.9359   2
  -1  -3  10 1959.53 73.1665   4
   1  -3 -10 1988.47 69.3531   6
  -1   3  10 2087.59 66.0202   3
   1   3 -10 2069.90 73.5792   4
  -1  -3  10 1921.15 63.8009   5
   1  -3 -10 2123.08 68.8632   1
   1   3  -9 252.559 18.5730   4
  -1   3   9 246.366 15.6502   1
  -1   3   9 265.079 16.1300   2
   1  -3  -9 233.284 17.9481   8
   1  -3  -9 247.891 17.2411   7
  -1  -3   9 284.967 19.8114   4
  -1  -3   9 227.615 13.7288   5
   1   3  -9 217.743 14.2636   5
  -1   3   9 246.261 14.9434   3
   1   3  -8 1669.88 58.9945   4
  -1   3   8 1588.59 52.9192   1
  -1  -3   8 1565.61 50.8332   5
  -1   3   8 1636.25 53.7194   2
  -1   3   8 1548.00 52.2497   3
   1   3  -8 1643.70 52.3918   5
   1  -3  -8 1611.19 55.9354   7
  -1   3   7 2125.20 65.0513   1
  -1   3   7 2193.40 66.9839   2
   1  -3  -7 2136.32 68.2002   7
   1  -3  -7 1997.88 65.4966   3
   1   3  -7 2216.73 71.2896   4
   1   3  -7 2180.90 65.1032   5
  -1  -3   7 2056.84 63.4682   5
  -1   3   7 2140.90 65.5283   3
  -1   3   6 581.892 24.1177   3
  -1  -3   6 576.922 22.5523   5
   1  -3  -6 593.002 25.2127   7
  -1   3   6 579.383 22.8377   1
  -1   3   6 612.717 25.1115   2
   1   3  -6 603.416 27.5356   4
   1  -3  -6 563.488 23.8126   3
   1  -3  -6 599.945 26.3835   6
   1   3  -6 580.503 23.4251   5
  -1   3   5 42.9772 5.25914   3
   1   3  -5 31.2395 4.38181   5
   1  -3  -5 32.4228 4.66996   3
   1  -3  -5 26.4067 4.78747   6
   1  -3  -5 52.4983 5.77574   7
   1   3  -5 30.1740 5.45431   4
  -1   3   5 30.8878 3.96494   1
  -1  -3   5 33.8269 4.35385   5
  -1  -3   5 29.8980 2.53126   8
  -1   3   5 36.3114 5.20587   2
  -1   3   4 15610.0 408.809   1
   1  -3  -4 15659.4 414.774   6
   1  -3  -4 15620.8 412.607   3
   1   3  -4 15284.1 410.754   5
  -1  -3   4 15951.6 406.914   8
  -1   3   4 16142.3 413.629   2
   1  -3  -4 15896.8 410.999   7
   1   3  -4 15833.7 415.521   4
   1   3  -3 7.29467 2.99859   4
   1   3  -3 0.92848 1.73358   5
   1  -3  -3 0.65402 1.99399   6
  -1   3   3 2.39175 2.07852   2
  -1  -3   3 1.40990 1.27184   8
   1  -3  -3 0.71793 1.19923   7
   1   3  -2 195.072 12.6271   6
  -1  -3   2 219.598 11.0240   8
   1  -3  -2 217.542 12.7863   2
   1   3  -2 219.826 11.4299   5
   1  -3  -2 210.999 12.6323   6
   1   3  -2 204.449 12.4433   4
   1   3  -1 1.73093 1.84486   4
  -1  -3   1 1.27313 1.73582   6
   1  -3  -1-0.58695 1.38619   6
  -1  -3   1 2.98944 1.73191   8
  -1  -3   0 16.4835 3.44912   6
   1  -3   0 21.4257 3.68941   6
  -1  -3  -1 60.4442 6.65970   8
   1  -3   1 60.3335 6.00280   6
  -1  -3  -1 70.2390 7.04109   6
  -1   3  -2 12176.5 316.372   7
   1  -3   2 12345.4 323.427   6
  -1  -3  -2 12311.9 325.608   6
  -1  -3  -2 12927.5 327.035   8
  -1   3  -2 12120.4 322.707   6
  -1   3  -3 220.231 11.9844   6
   1  -3   3 207.049 12.7292   4
   1  -3   3 244.130 12.5584   6
  -1  -3  -3 209.357 11.4841   2
   1   3   3 230.057 12.9456   7
  -1   3  -3 222.744 9.63175   7
  -1  -3  -3 221.556 14.2523   8
  -1   3  -4 265.463 12.9876   6
  -1  -3  -4 247.159 11.1918   3
   1   3   4 251.863 14.1953   6
  -1   3  -4 237.673 9.05663   5
  -1   3  -4 233.249 11.3521   7
   1  -3   4 244.264 14.0916   4
   1   3   4 236.523 14.0274   7
  -1  -3  -4 283.788 16.6553   8
  -1  -3  -4 238.599 12.4338   2
   1   3   5 189.094 13.1238   7
  -1   3  -5 177.193 10.4720   7
  -1   3  -5 161.978 10.1003   6
  -1  -3  -5 160.641 8.78552   3
   1   3   5 177.853 12.0546   6
   1   3   5 169.378 11.9436   1
  -1   3  -5 195.672 13.7953   1
  -1   3  -5 173.423 7.13075   5
   1  -3   5 160.230 11.8836   4
  -1  -3  -5 184.326 13.7623   8
  -1   3  -6 171.096 7.13491   5
   1   3   6 180.449 10.6312   2
  -1   3  -6 159.258 10.1392   6
   1   3   6 194.459 12.7608   6
  -1   3  -6 146.622 12.1646   4
  -1   3  -6 169.204 11.0529   7
   1   3   6 152.043 11.9283   1
  -1  -3  -6 188.926 9.64654   3
   1  -3   6 159.425 12.5752   4
  -1   3  -6 180.662 14.2684   1
  -1  -3  -6 173.001 13.6993   8
  -1  -3  -7 20.3142 3.24798   3
  -1   3  -7 23.8913 5.69805   4
   1  -3   7 27.5185 5.65816   4
   1   3   7 12.8315 3.16979   2
  -1  -3  -7 21.9745 5.54471   8
   1   3   7 10.5117 3.57664   6
  -1   3  -7 16.7355 3.99538   7
  -1   3  -7 24.4798 4.00493   6
  -1  -3  -7 21.7675 4.81356   6
  -1   3  -8 598.446 24.2219   6
   1   3   8 588.437 29.8753   7
  -1   3  -8 583.074 26.9621   7
  -1  -3  -8 611.369 23.0244   3
  -1   3  -8 647.332 30.5170   4
   1  -3   8 648.720 30.2064   4
   1  -3   8 616.867 19.8422   5
   1   3   8 598.745 22.2682   3
   1   3   8 589.083 24.0681   2
  -1  -3  -8 627.408 27.6791   6
   1   3   9 0.45891 2.16737   3
  -1   3  -9 0.94754 2.58361   7
  -1  -3  -9 6.34881 3.22565   3
   1   3   9 3.67480 3.01056   2
  -1   3  -9 0.63186 2.51149   6
   1  -3   9 1.03684 1.41375   8
  -1   3  -9-1.18230 3.60413   4
   1  -3   9 2.34629 3.91753   4
  -1  -3  -9-0.89141 2.43058   6
   1  -3   9 1.88047 1.86258   5
   1   3   9-1.03894 3.61107   1
   1   3  10 335.707 17.2876   2
   1  -3  10 349.199 23.1235   4
  -1   3 -10 355.631 21.3420   7
  -1  -3 -10 300.333 21.8206   8
  -1   3 -10 375.358 23.6280   4
   1  -3  10 329.685 13.8326   8
   1  -3  10 344.445 14.4184   5
   1   3  10 323.780 15.4684   3
  -1  -3 -10 302.806 19.0563   6
   1   3  10 364.741 22.0191   1
   1   3  11 16.0176 4.25554   2
   1   3  11 14.6989 5.28840   1
  -1  -3 -11 2.62587 3.59127   8
   1  -3  11 12.8782 5.85913   4
   1   3  11 10.4481 2.96540   3
  -1  -3 -11 13.8392 4.27118   6
  -1   3 -11 16.5862 5.48455   7
   1  -3  11 10.0938 2.44949   8
   1  -3  11 13.8231 3.36570   5
   1  -3  12 43.7222 9.59168   4
   1  -3  12 41.2270 4.35804   8
  -1  -3 -12 49.9870 7.73436   6
   1   3  12 54.7636 6.94195   2
   1   3  12 55.7730 6.30901   3
  -1   3 -12 41.3144 8.33803   7
  -1  -3 -12 40.0010 8.59397   8
   1   3  12 48.7129 8.96067   1
   1  -3  12 42.4583 5.63036   5
   1  -3  13 505.880 32.3372   4
  -1  -3 -13 553.604 31.7662   8
   1   3  13 526.719 23.0819   3
   1  -3  13 516.619 22.3165   5
  -1   3 -13 541.445 30.8948   7
   1   3  13 494.638 23.8871   2
   1   3  13 503.448 29.9939   1
  -1  -3 -13 541.785 27.6282   6
   1  -3  14 646.058 38.1781   4
   1   3  14 663.973 28.6716   2
  -1  -3 -14 687.584 36.7357   8
  -1   3 -14 613.204 34.8028   7
   1   3  14 623.986 26.7636   3
   1  -3  14 651.994 26.6411   5
   1   3  14 648.723 35.7080   1
  -1  -3 -14 641.031 31.7824   6
  -1  -3 -15 506.596 31.4975   8
   1  -3  15 494.183 22.9761   5
   1   3  15 483.517 24.2893   2
  -1  -3 -15 469.965 26.9216   6
   1   3  15 498.263 23.1655   3
  -1   3 -15 525.057 32.1582   7
   1   3  15 544.540 32.8715   1
   1   3  16 9.40732 4.47090   3
   1  -3  16 4.08245 5.20610   4
   1  -3  16 5.45242 3.90171   5
  -1   3 -16-8.95741 6.82636   1
   1   3  16 5.51835 4.34352   2
  -1  -3 -16 5.05395 4.55734   6
  -1   3 -17 66.2658 13.8065   1
   1   3  17 71.8811 9.18389   2
   1  -3  17 62.5163 12.9364   4
  -1  -3 -17 77.8399 11.0149   6
  -1   3 -18 198.365 23.5234   1
   1  -3  18 174.023 21.5953   4
  -1  -3 -18 167.425 16.1775   6
   1  -3  19 23.6637 9.70549   4
  -1  -3 -19 25.6487 7.43304   6
  -1   3 -19 45.2021 12.3141   1
  -1  -4  18 39.9590 11.6028   4
   1   4 -18 34.7585 11.2853   1
   1  -4 -18 50.0263 10.7012   6
   1   4 -17 1281.81 65.3047   1
   1  -4 -17 1264.32 55.6403   6
  -1  -4  17 1183.22 60.2291   4
  -1  -4  16 41.8511 7.31138   5
   1   4 -16 26.8779 9.44193   1
   1  -4 -16 33.7553 8.78700   6
  -1   4  16 16.0065 5.84753   2
  -1  -4  16 21.3058 9.20577   4
  -1   4  16 17.2945 5.92666   3
  -1   4  15 480.982 25.7510   3
  -1  -4  15 467.950 23.6165   5
  -1  -4  15 428.238 31.8749   4
  -1   4  15 466.797 26.4812   2
  -1   4  15 450.464 27.9455   1
   1  -4 -15 481.859 29.6722   6
   1   4 -15 455.142 35.3204   1
  -1  -4  14 14.0290 5.05846   5
  -1   4  14 19.4416 5.95983   2
   1  -4 -14 18.5189 6.83733   7
   1   4 -14 17.7503 8.30028   1
   1  -4 -14 22.6615 6.20091   3
  -1   4  14 25.2719 6.92459   1
  -1  -4  14 28.6049 9.20634   4
  -1   4  14 24.0586 6.13402   3
   1  -4 -14 22.1766 6.70518   6
   1  -4 -13 1452.73 54.4370   3
   1  -4 -13 1523.86 59.2878   6
  -1   4  13 1533.83 55.1786   2
   1  -4 -13 1528.65 62.1152   8
  -1   4  13 1476.13 53.1085   3
  -1  -4  13 1380.56 49.7467   5
   1  -4 -13 1409.74 58.5325   7
  -1   4  13 1474.44 56.7398   1
  -1  -4  13 1438.85 62.9066   4
   1  -4 -12 86.5881 12.6753   8
   1  -4 -12 96.0216 10.7985   3
  -1   4  12 89.8741 10.6430   2
  -1  -4  12 84.4019 8.92295   5
   1  -4 -12 102.893 12.6721   7
  -1   4  12 104.882 10.7517   3
   1  -4 -12 104.973 12.6264   6
  -1  -4  12 130.845 15.3746   4
  -1   4  12 109.406 11.9254   1
  -1   4  11 2684.54 85.3421   1
   1  -4 -11 2761.45 92.3328   8
   1  -4 -11 2628.95 88.2437   7
  -1   4  11 2701.28 85.2360   2
  -1   4  11 2725.03 83.5185   3
   1  -4 -11 2681.94 88.9877   6
  -1  -4  11 2476.77 91.8316   4
  -1  -4  11 2612.53 79.8980   5
   1  -4 -11 2633.47 84.4288   3
   1   4 -11 2600.91 81.7625   5
   1   4 -10 105.750 9.99562   5
  -1  -4  10 111.750 9.42937   5
  -1   4  10 106.206 10.8615   2
   1  -4 -10 105.574 10.6197   3
  -1   4  10 96.7113 9.86792   3
   1   4 -10 104.813 13.1241   4
   1  -4 -10 105.783 11.4819   7
  -1  -4  10 95.3444 12.6606   4
  -1   4   9 705.252 29.5945   3
  -1  -4   9 617.091 33.6414   4
   1   4  -9 664.554 28.2956   5
  -1   4   9 688.088 30.4589   2
  -1  -4   9 689.014 26.8761   5
   1   4  -9 659.441 33.9850   4
   1  -4  -9 721.729 31.9383   7
   1   4  -9 658.611 30.4735   6
  -1   4   8 68.0601 8.60208   2
   1   4  -8 61.0541 7.24026   5
  -1   4   8 52.2044 6.72614   1
   1   4  -8 62.4943 8.14907   6
   1  -4  -8 63.5648 8.17943   7
   1   4  -8 72.0429 9.72440   4
  -1  -4   8 68.7550 9.60138   4
   1  -4  -7 2292.36 69.4611   7
  -1   4   7 2148.57 66.3681   1
   1  -4  -7 2337.25 75.5766   8
  -1  -4   7 2018.95 72.2488   4
   1   4  -7 2179.09 70.1614   6
   1   4  -7 2110.85 73.3637   4
   1   4  -7 2137.14 66.7014   5
   1  -4  -7 2122.63 71.9385   6
  -1   4   7 2143.04 69.3127   2
  -1  -4   6 1171.38 34.6990   8
   1  -4  -6 1192.99 41.7265   7
   1   4  -6 1219.45 46.8714   4
   1   4  -6 1197.39 40.8755   5
   1   4  -6 1132.66 43.4385   6
   1  -4  -6 1274.85 46.2862   6
  -1   4   6 1184.03 39.9073   1
  -1   4   6 1259.85 43.9225   2
   1  -4  -5 1425.52 51.3787   6
  -1  -4   5 1431.69 42.5723   8
   1   4  -5 1461.06 52.1113   4
  -1   4   5 1366.44 44.7338   1
   1   4  -5 1417.46 46.3264   5
  -1   4   5 1465.15 49.3943   2
   1   4  -4 147.190 10.1377   5
  -1  -4   4 157.557 9.29678   8
   1  -4  -4 150.861 12.3272   6
   1   4  -3 14.7893 3.59304   5
   1  -4  -3 22.0246 4.98988   6
  -1  -4   3 15.7603 3.27754   8
  -1  -4   2 1.19889 1.82762   8
   1   4  -2 4.68980 3.19687   4
   1  -4  -2 0.81527 1.92533   6
  -1  -4   2 0.84432 2.30230   6
   1  -4  -1 710.795 30.2860   6
   1   4  -1 755.121 30.6394   4
  -1  -4   1 769.448 29.3684   8
  -1  -4   1 753.653 31.2482   6
   1   4   0 17.2926 4.37363   4
   1  -4   0 21.2031 4.46475   6
  -1  -4   0 21.8597 4.67916   6
  -1  -4   0 14.7577 3.79276   8
  -1  -4  -1 149.030 11.9193   6
  -1  -4  -1 182.006 12.7531   8
   1  -4   1 162.165 11.7572   6
   1  -4   2 32.1995 5.24531   6
  -1  -4  -2 25.3130 5.24820   8
  -1  -4  -2 27.5481 5.11090   6
  -1   4  -2 42.3113 5.67737   6
  -1   4  -3 207.327 12.9678   6
   1  -4   3 203.729 13.1845   6
  -1   4  -3 186.983 8.42859   7
  -1  -4  -3 226.618 15.4586   8
   1   4   3 186.637 12.0420   7
  -1  -4  -3 209.500 14.3984   6
  -1  -4  -4 28.2487 5.99834   8
  -1   4  -4 35.8162 3.69530   5
   1   4   4 48.6713 6.42581   7
  -1   4  -4 38.2898 4.05356   7
  -1   4  -4 43.9298 5.83877   6
   1  -4   4 36.9297 5.95023   4
  -1  -4  -4 45.4845 5.18573   3
  -1  -4  -5 6290.66 170.069   3
  -1   4  -5 6249.79 166.060   5
  -1   4  -5 6157.56 169.580   7
  -1   4  -5 6398.62 177.889   4
   1  -4   5 6130.46 176.468   4
  -1  -4  -5 6602.28 181.100   8
   1   4   5 6647.55 177.317   7
   1   4   5 6378.39 176.631   6
  -1   4  -5 6242.49 172.948   6
  -1  -4  -6 25.1594 6.25938   8
  -1   4  -6 20.6772 4.10257   7
   1  -4   6 24.7650 5.53540   4
   1   4   6 18.6332 5.08882   6
  -1   4  -6 19.3924 2.67467   5
  -1   4  -6 22.8169 5.68313   4
  -1  -4  -6 22.6472 3.76523   3
  -1  -4  -7 12.9427 4.40729   6
   1   4   7 9.25493 4.00004   6
   1  -4   7 13.5075 5.01614   4
  -1  -4  -7 10.3705 3.01267   3
  -1  -4  -7 13.3391 4.96768   8
  -1   4  -7 13.7424 4.82566   1
  -1   4  -7 7.69093 2.87377   7
  -1   4  -7 12.7878 2.26429   5
  -1   4  -7 10.6914 4.38191   4
   1   4   8 4.04619 3.08418   1
  -1  -4  -8 1.03297 2.98793   6
  -1  -4  -8 2.28168 2.26805   3
  -1   4  -8 2.75239 3.75273   1
  -1  -4  -8 8.96872 5.09274   8
   1  -4   8 1.14460 3.31067   4
  -1   4  -8 1.15624 3.15315   4
   1   4   8 4.77379 3.45191   7
  -1   4  -8 1.61585 2.46364   7
  -1   4  -9 382.716 23.8645   4
   1  -4   9 366.037 23.5008   4
  -1   4  -9 316.878 19.2966   7
   1   4   9 372.070 18.8660   2
  -1  -4  -9 359.338 17.3748   3
  -1  -4  -9 353.523 21.5577   6
  -1   4  -9 338.806 24.3552   1
   1   4   9 347.539 21.6076   1
  -1   4 -10 35.3026 6.86168   7
  -1   4 -10 42.3389 8.69097   4
   1   4  10 38.4828 7.43891   1
  -1  -4 -10 43.2035 5.76703   3
  -1  -4 -10 36.1169 7.28582   6
   1   4  10 37.9742 6.29221   2
   1  -4  10 35.1185 3.43111   8
  -1   4 -10 49.8462 9.73127   1
  -1  -4 -11 3364.21 101.306   6
  -1  -4 -11 3376.08 106.788   8
   1   4  11 3246.06 94.3114   2
  -1  -4 -11 3247.85 92.2894   3
   1   4  11 3233.19 101.616   1
   1  -4  11 3140.60 104.926   4
   1  -4  11 2930.88 83.6011   8
  -1   4 -11 3238.04 100.526   7
  -1   4 -11 3305.76 109.660   1
  -1   4 -11 3347.24 106.054   4
   1   4  12 139.392 14.4856   1
  -1  -4 -12 120.752 14.8689   8
   1  -4  12 111.513 7.24241   5
  -1   4 -12 124.656 13.5955   7
  -1  -4 -12 125.774 13.4866   6
   1   4  12 128.166 11.1209   2
  -1   4 -12 107.788 10.5978   6
  -1   4 -12 139.102 17.0530   1
  -1   4 -12 150.106 16.5526   4
   1  -4  12 114.419 15.0917   4
   1   4  13 941.567 43.3245   1
  -1  -4 -13 919.420 41.1390   6
  -1   4 -13 808.535 46.2135   1
  -1   4 -13 822.659 35.2108   6
   1   4  13 924.305 36.4567   2
   1  -4  13 938.806 46.1134   4
  -1   4 -13 911.865 42.2481   7
  -1  -4 -13 984.659 46.3218   8
   1  -4  13 898.536 29.5161   5
   1  -4  14 3.64254 5.55185   4
  -1  -4 -14 4.00601 4.81637   6
  -1   4 -14-0.91018 3.39813   6
  -1   4 -14-1.46590 5.28729   7
   1   4  14-0.89482 4.13679   2
   1   4  14 3.04880 6.40527   1
   1   4  14 0.67028 3.41906   3
   1  -4  14 2.16606 2.73848   5
  -1   4 -15 855.736 35.3082   6
  -1   4 -15 852.381 42.5618   7
   1   4  15 854.779 35.3179   2
   1   4  15 790.684 31.9857   3
  -1  -4 -15 851.118 40.3622   6
   1  -4  15 872.781 46.5696   4
   1  -4  15 804.639 28.8156   5
   1  -4  16 326.558 27.4980   4
  -1  -4 -16 341.492 23.8884   6
  -1   4 -16 310.915 19.5204   6
   1   4  16 289.649 18.7719   2
  -1  -4 -17 173.213 16.7648   6
   1  -4  17 148.074 19.8101   4
  -1   4 -17 149.312 13.1739   6
  -1   4 -18 8.18756 4.62999   6
   1  -4  18 2.24701 6.12843   4
  -1  -4 -18 6.17391 4.46627   6
   1  -5 -17 32.4832 9.24649   6
  -1  -5  17 37.0575 11.4178   4
  -1  -5  16 6.63582 6.74314   4
   1  -5 -16 1.74467 4.12030   6
   1  -5 -15 43.3988 8.28012   3
  -1  -5  15 44.2530 10.7971   4
  -1   5  15 43.4458 9.31773   1
   1  -5 -15 35.3802 8.65394   6
   1   5 -15 35.6517 8.11449   6
   1  -5 -14 64.9198 9.41603   3
  -1  -5  14 67.9871 13.2872   4
  -1   5  14 53.9630 9.42574   1
   1   5 -14 50.0304 9.27500   6
   1  -5 -14 50.3072 9.86705   6
  -1   5  14 46.5013 8.85738   2
   1   5 -13 31.0247 7.63087   6
  -1   5  13 38.8452 8.16784   1
   1  -5 -13 47.1577 9.39554   7
  -1  -5  13 37.5906 9.97328   4
  -1   5  13 33.1855 7.64329   2
   1  -5 -13 45.2182 9.31862   6
   1  -5 -13 44.7269 8.10940   3
   1   5 -12 62.2030 8.00793   5
   1  -5 -12 52.0622 8.64165   3
  -1   5  12 75.6991 10.7420   2
   1   5 -12 60.1112 9.43427   6
   1  -5 -12 32.9723 8.64644   6
  -1   5  12 62.4534 9.33977   1
   1  -5 -12 38.4345 8.47885   7
  -1  -5  12 33.5048 9.40177   4
   1  -5 -11 38.3015 7.15340   3
   1   5 -11 40.7058 8.04888   6
   1   5 -11 27.8482 5.86785   5
  -1   5  11 41.1918 7.70841   2
  -1  -5  11 34.4551 8.98493   4
   1  -5 -11 17.2782 6.56237   6
  -1   5  11 35.8330 7.09620   1
  -1   5  10 1145.19 44.3332   2
   1   5 -10 987.018 42.8254   6
   1   5 -10 1104.39 40.3127   5
   1  -5 -10 1072.06 42.4506   3
  -1  -5  10 938.041 46.5928   4
   1   5  -9 153.377 13.9220   6
  -1  -5   9 155.085 15.7286   4
   1  -5  -9 182.717 17.4635   8
  -1   5   9 185.230 14.9487   2
   1  -5  -9 157.720 13.2428   3
   1   5  -9 168.169 12.5893   5
   1   5  -8 1055.78 46.1113   4
  -1   5   8 1048.24 41.8670   2
   1   5  -8 1065.90 42.5410   6
   1  -5  -8 1055.06 46.7271   8
  -1   5   8 1067.20 38.7068   1
  -1  -5   8 994.551 44.9316   4
   1   5  -8 1040.65 38.6774   5
   1  -5  -8 965.128 39.5206   3
  -1   5   7 21.6747 4.61125   1
   1  -5  -7 16.1310 4.61122   3
   1   5  -7 27.8753 6.08394   6
   1  -5  -7 20.8239 5.57151   6
   1   5  -7 28.1306 5.13208   5
  -1  -5   7 20.0610 5.82800   4
   1  -5  -7 26.8911 7.47019   8
  -1  -5   7 24.4124 2.90100   8
   1   5  -7 41.2717 8.28729   4
   1  -5  -6 54.5319 8.73973   8
  -1  -5   6 43.7705 7.84083   4
  -1   5   6 43.4716 5.94154   1
   1   5  -6 53.2539 7.67378   6
  -1  -5   6 50.7918 4.97994   8
  -1   5   6 48.2686 7.84414   6
   1  -5  -6 57.2596 8.45274   6
   1  -5  -6 51.9717 7.06885   3
   1   5  -6 53.7557 6.66551   5
   1   5  -6 53.7492 8.86282   4
   1  -5  -5 110.514 10.9771   2
   1  -5  -5 84.2066 10.3668   6
   1   5  -5 86.3012 8.63141   5
  -1   5   5 96.8928 10.6606   6
   1   5  -5 115.065 12.0625   4
  -1  -5   5 113.865 8.17920   8
  -1   5   5 99.0911 8.31987   1
   1  -5  -5 109.940 10.3270   3
   1   5  -5 105.135 10.8203   6
   1  -5  -4 6895.52 192.096   6
  -1  -5   4 6874.91 184.031   8
   1   5  -4 6512.62 189.124   6
  -1   5   4 6834.44 190.808   6
   1   5  -4 6670.95 185.322   5
   1  -5  -4 6597.87 187.795   3
   1   5  -4 6962.46 192.208   4
   1  -5  -3 1.05326 2.68626   6
   1   5  -3 6.10191 4.04203   4
   1   5  -3 2.16443 2.95066   5
  -1  -5   3-0.69439 2.67749   8
   1  -5  -3-1.80023 3.00572   3
  -1  -5   2 41.0486 6.95037   6
   1  -5  -2 34.6992 6.37464   6
   1   5  -2 38.6643 6.97898   4
  -1  -5   2 39.1837 5.91296   8
   1   5  -1 5.68365 3.65374   4
   1  -5  -1 1.97118 2.32906   6
  -1  -5   1 3.35341 2.80104   8
  -1  -5   1 6.30695 3.65461   6
  -1   5   0 6.16851 3.39888   6
  -1  -5   0 2.72228 2.90236   8
   1   5   0 4.71240 3.51968   4
   1   5   0 8.54046 4.29136   6
   1  -5   0 3.90075 2.66019   2
  -1  -5   0-1.04944 2.67783   6
   1  -5   0 4.85035 2.80660   6
  -1  -5  -1 23.4073 5.45394   6
  -1  -5  -1 23.3972 5.89357   8
   1  -5   1 18.1815 4.82349   6
  -1   5  -1 20.9729 5.01281   6
  -1  -5  -2 10811.5 290.261   8
   1  -5   2 10604.8 288.065   6
  -1  -5  -2 10170.1 285.728   2
  -1  -5  -2 10756.7 290.766   6
  -1   5  -2 10819.1 286.912   6
  -1  -5  -3 1.10948 3.54715   8
   1   5   3 0.72465 2.20902   7
  -1   5  -3 0.87048 0.97872   7
   1  -5   3-0.93412 3.48748   6
   1   5   3 1.93847 3.49589   6
  -1  -5  -3 0.84412 2.81879   2
  -1   5  -3 4.88877 3.88614   4
  -1   5  -3 1.70161 3.06875   6
  -1  -5  -3-1.09008 3.48513   6
  -1   5  -4 1178.13 37.7776   7
  -1   5  -4 1326.42 46.5799   6
  -1  -5  -4 1235.81 49.1427   6
  -1   5  -4 1344.25 40.7351   5
  -1  -5  -4 1379.82 51.6617   8
   1   5   4 1361.61 46.4908   7
   1   5   4 1285.11 48.2835   6
  -1  -5  -4 1287.61 46.1114   2
   1  -5   4 1309.27 47.5447   6
  -1   5  -4 1336.75 49.3816   4
  -1  -5  -5 444.006 22.4944   2
  -1   5  -5 473.500 23.1867   6
  -1   5  -5 465.379 17.9722   5
  -1   5  -5 425.092 17.8926   7
  -1  -5  -5 516.234 28.1103   8
   1   5   5 488.728 25.3573   6
  -1   5  -5 499.006 26.2826   4
  -1  -5  -6 206.016 17.3809   8
  -1   5  -6 193.066 11.4426   7
   1   5   6 208.932 15.8857   6
   1   5   6 171.321 13.8712   1
   1  -5   6 201.450 15.8909   4
  -1  -5  -6 189.063 13.5284   2
  -1   5  -6 179.294 13.4173   6
  -1   5  -6 201.497 16.4446   4
  -1  -5  -6 187.073 12.1421   3
  -1   5  -6 189.786 9.88957   5
   1   5   7 10.1834 4.24199   7
   1   5   7 15.2797 4.82604   1
   1   5   7 26.3644 6.36536   6
  -1   5  -7 13.1610 3.66450   7
  -1  -5  -7 17.9339 5.95972   8
   1  -5   7 12.9683 5.34445   4
  -1   5  -7 20.6323 6.09143   4
  -1   5  -7 15.3509 4.36731   6
  -1  -5  -7 16.0869 3.89299   3
  -1   5  -7 14.7235 2.60682   5
  -1  -5  -8 511.090 29.7834   8
  -1  -5  -8 444.414 20.8093   3
   1  -5   8 458.713 27.1000   4
   1   5   8 524.740 26.7960   1
   1   5   8 474.197 26.1156   6
  -1   5  -8 488.854 23.7281   6
  -1  -5  -8 483.899 27.0587   6
  -1   5  -8 455.014 16.6796   5
  -1   5  -8 441.426 28.7533   1
  -1   5  -8 487.094 27.8492   4
  -1   5  -8 459.510 22.3493   7
  -1   5  -9 45.3081 8.93461   4
  -1   5  -9 43.9945 6.91125   6
  -1  -5  -9 37.9086 8.58177   8
  -1   5  -9 31.1391 8.11768   1
   1   5   9 56.1042 8.81761   1
   1  -5   9 26.8460 7.38780   4
  -1  -5  -9 42.0759 7.74071   6
  -1   5  -9 36.3678 6.58852   7
  -1   5 -10 726.911 36.7580   4
  -1   5 -10 614.619 29.6226   7
  -1   5 -10 631.851 28.8313   6
   1  -5  10 596.810 33.8512   4
  -1  -5 -10 630.887 33.0463   6
   1   5  10 631.070 32.0148   1
  -1   5 -10 637.623 37.3728   1
   1   5  11 55.1635 9.02552   1
  -1  -5 -11 57.2566 9.48739   6
  -1   5 -11 46.5807 10.2551   1
   1  -5  11 72.4812 11.3094   4
  -1   5 -11 46.1108 7.40856   6
  -1   5 -11 55.4133 8.45920   7
  -1   5 -11 59.8439 10.9303   4
  -1   5 -12 39.7323 9.60715   1
  -1  -5 -12 29.6148 7.36248   6
  -1   5 -12 42.4280 8.46287   7
  -1   5 -12 16.0501 4.96332   6
   1   5  12 31.2335 7.56061   1
  -1   5 -13 31.6181 9.80057   1
  -1   5 -13 40.7752 8.28331   7
  -1  -5 -13 43.7688 9.17412   6
   1  -5  13 39.1139 10.0478   4
  -1   5 -13 57.3905 8.29409   6
   1   5  13 30.5330 8.23895   1
  -1   5 -14 672.759 35.7584   7
  -1   5 -14 669.719 31.0351   6
  -1   5 -14 672.411 42.9297   1
  -1  -5 -14 676.480 36.4200   6
   1  -5  14 677.880 40.3246   4
   1   5  14 738.019 38.4750   1
  -1   5 -15 9.14804 5.19483   6
  -1   5 -15 12.1212 6.20505   7
   1  -5  15 18.0919 7.75786   4
   1   5  15 12.1861 5.37152   2
  -1   5 -15 18.8761 8.51649   1
  -1  -5 -15 12.4515 5.62311   6
  -1  -5 -16 36.9088 9.06270   6
   1  -5  16 31.7021 10.4255   4
  -1   5 -16 38.3555 7.79020   6
  -1   5 -16 27.3655 10.2123   1
  -1  -5 -17-1.65040 5.03132   6
   1  -5  17 4.42707 6.74783   4
  -1   5 -17 7.36862 4.75986   6
  -1  -6  16-4.50137 8.11781   4
   1  -6 -16-1.93393 5.89522   6
   1   6 -16 5.49591 7.00839   1
   1  -6 -16 1.25719 4.99671   3
  -1   6  16 2.86876 5.86625   1
  -1  -6  15 115.837 17.0690   4
   1   6 -15 111.611 19.2368   1
   1  -6 -15 106.464 12.3290   3
   1  -6 -15 140.726 17.0438   6
  -1   6  15 125.161 14.1685   1
  -1  -6  14-2.03765 6.80440   4
   1   6 -14 2.53755 6.91878   1
  -1   6  14-1.29273 4.13326   1
   1  -6 -14 6.16679 5.57667   3
   1  -6 -14 5.44094 6.05642   6
   1   6 -13 1860.86 61.7072   5
  -1  -6  13 1805.33 76.0195   4
   1  -6 -13 1878.78 66.9549   3
   1   6 -13 1836.61 81.9476   1
   1  -6 -13 1893.84 74.3669   6
  -1   6  13 1830.91 66.4684   1
   1  -6 -12 59.1969 10.7806   6
  -1  -6  12 58.8371 11.5697   4
  -1   6  12 64.4763 9.38320   1
   1   6 -12 44.5696 8.95328   6
   1  -6 -12 56.6889 8.99897   3
   1   6 -12 48.8642 7.52007   5
   1  -6 -11 106.782 11.8091   3
   1   6 -11 95.5220 9.80162   5
  -1  -6  11 92.3527 13.8614   4
   1   6 -11 85.8975 11.1828   6
  -1   6  11 96.5698 10.8049   1
  -1  -6  10 82.7858 13.0463   4
   1   6 -10 67.6026 10.1094   6
   1  -6 -10 81.9773 10.3566   3
   1   6 -10 89.0789 9.55009   5
  -1   6  10 99.9616 10.4833   1
   1   6  -9 173.708 13.3481   5
   1   6  -9 197.630 16.6540   6
  -1  -6   9 211.782 19.3667   4
   1  -6  -9 183.864 14.9305   3
   1  -6  -8 6.24922 3.75737   3
   1   6  -8 2.39393 4.31788   6
   1   6  -8 4.18652 3.87157   5
   1  -6  -8 4.38882 4.46012   6
  -1  -6   8 2.98008 4.97618   4
   1  -6  -8-3.18269 5.08822   8
   1   6  -7 2191.46 75.9687   6
   1  -6  -7 2405.02 82.8055   8
   1  -6  -7 2388.55 81.1138   6
   1  -6  -7 2224.48 74.0282   3
  -1   6   7 2203.07 70.0215   1
  -1  -6   7 2181.38 65.0177   8
   1   6  -7 2259.09 71.3189   5
   1  -6  -6 7.20384 4.21071   3
  -1  -6   6 6.37672 2.85214   8
   1   6  -6-2.70662 5.05402   4
   1  -6  -6 1.36972 3.23664   6
   1   6  -6 3.25159 3.76012   5
  -1   6   6 5.05736 3.19397   1
   1   6  -6 6.91052 4.44275   6
  -1   6   6 4.94470 4.29830   6
  -1   6   5 51.2891 8.64600   6
   1  -6  -5 39.1884 6.91075   3
   1  -6  -5 28.0027 6.89742   6
   1   6  -5 55.7792 7.31669   5
   1   6  -5 39.7258 7.58776   6
   1  -6  -5 47.0054 9.20789   8
  -1  -6   5 49.4618 6.24691   8
  -1   6   5 48.9581 6.15061   1
   1  -6  -5 42.6031 7.61454   2
   1   6  -5 50.0723 9.08257   4
   1  -6  -4 14.2201 4.99562   6
   1   6  -4 10.1861 4.89037   6
  -1  -6   4 15.5263 4.31164   8
   1  -6  -4 12.6217 4.57251   2
   1  -6  -4 20.9643 6.19653   8
   1   6  -4 14.2341 4.57782   5
   1  -6  -4 7.28962 3.77065   3
   1   6  -4 16.0932 5.97584   4
   1   6  -3 431.359 24.7155   6
   1  -6  -3 404.096 24.4366   2
   1  -6  -3 443.852 26.1586   6
   1   6  -3 463.742 23.0147   5
  -1  -6   3 471.252 22.9497   8
   1   6  -3 445.914 25.9704   4
   1  -6  -3 415.977 23.9681   3
  -1  -6   2 92.5381 11.4003   6
   1  -6  -2 84.4109 10.6354   6
  -1  -6   2 114.666 10.9866   8
   1   6  -2 93.7890 11.4830   4
  -1  -6   1 404.067 24.8686   6
   1  -6  -1 397.070 24.0922   6
   1   6  -1 367.648 23.0756   4
  -1  -6   1 428.543 23.4306   8
  -1   6   1 416.041 23.6297   6
  -1   6   0 4.23622 3.82049   6
   1   6   0 4.52851 4.36590   4
  -1  -6   0 2.14720 3.87293   8
  -1   6   0 1.09711 4.61043   4
  -1  -6   0 1.27172 3.67836   6
   1  -6   0 3.55543 3.78971   6
  -1  -6  -1 30.8313 6.72427   8
  -1  -6  -1 23.0604 6.20591   6
   1  -6   1 22.2619 6.00860   6
  -1   6  -1 28.5889 6.47716   4
   1   6   1 28.2538 6.83166   4
  -1   6  -1 22.8962 5.70892   6
   1   6   1 18.1424 5.60781   6
  -1   6  -2 136.758 12.5839   6
  -1  -6  -2 128.241 13.3800   8
   1   6   2 126.288 12.6840   6
   1   6   2 129.543 10.1604   7
   1  -6   2 156.302 13.9942   6
  -1   6  -2 137.875 13.2361   4
  -1  -6  -2 132.571 12.5211   2
  -1  -6  -2 133.482 13.9400   6
   1  -6   3 380.173 23.5186   6
  -1  -6  -3 428.843 25.7564   8
   1   6   3 432.352 24.5052   6
   1   6   3 388.554 20.2423   7
  -1  -6  -3 409.923 23.0248   2
  -1  -6  -3 411.579 25.3143   6
  -1   6  -3 421.280 24.9183   4
  -1   6  -3 424.806 23.3883   6
   1   6   4 1119.98 42.7377   6
  -1   6  -4 1122.36 34.0919   5
  -1  -6  -4 1171.93 45.7887   8
  -1  -6  -4 1126.86 38.1398   3
  -1  -6  -4 1007.33 39.1587   2
  -1   6  -4 1080.28 43.0577   4
  -1   6  -4 1046.18 39.7562   6
  -1  -6  -4 1115.71 44.4347   6
   1  -6   4 1114.18 42.2111   6
  -1   6  -5 2152.01 71.0575   6
  -1   6  -5 2210.49 63.3615   5
  -1  -6  -5 2330.73 78.4808   8
  -1  -6  -5 2169.67 71.1041   2
  -1   6  -5 2355.53 76.5277   4
   1   6   5 2217.41 74.3213   6
  -1   6  -6-1.32208 4.59506   4
   1   6   6 1.22558 4.09257   6
  -1   6  -6 2.02684 3.90763   6
   1   6   6 1.06097 3.06824   7
  -1   6  -6 1.43444 2.72687   5
  -1  -6  -6-1.47825 4.27496   8
  -1  -6  -6 1.00792 3.22245   2
  -1   6  -6 0.46918 2.07264   7
  -1   6  -7 119.176 13.7528   4
  -1  -6  -7 97.4801 13.1223   8
  -1   6  -7 90.8486 10.2974   6
   1   6   7 115.316 11.6341   1
   1   6   7 96.0438 11.9730   6
  -1   6  -7 80.6962 6.85504   5
  -1   6  -7 81.6273 7.55208   7
   1   6   7 88.5423 10.9596   7
  -1   6  -8 9.05742 2.65162   5
  -1   6  -8 4.24677 3.05404   7
   1   6   8 6.43453 4.96381   6
   1   6   8 10.4621 5.13672   1
  -1  -6  -8 1.61453 4.92332   8
   1  -6   8 1.40800 4.29401   4
  -1   6  -8 3.08560 3.43699   6
  -1   6  -8 4.90337 4.98404   1
  -1  -6  -8 1.44024 3.92897   6
  -1   6  -8 7.20448 5.38102   4
  -1   6  -9 1861.62 72.5743   1
   1   6   9 1843.44 64.7271   1
  -1   6  -9 1944.39 70.1040   4
  -1  -6  -9 1858.46 68.6961   6
   1  -6   9 1683.09 52.0419   8
  -1   6  -9 1768.98 61.5888   6
  -1   6  -9 1678.22 57.9327   7
   1  -6   9 1737.69 67.5722   4
   1   6   9 1888.81 66.9885   6
  -1   6  -9 1700.44 49.3573   5
  -1  -6 -10 143.396 15.7188   6
  -1   6 -10 118.475 11.9874   6
  -1   6 -10 139.005 17.1931   1
   1  -6  10 111.596 14.6126   4
   1  -6  10 111.111 6.78332   8
   1   6  10 122.232 13.6484   1
  -1   6 -10 127.447 11.8445   7
  -1   6 -11 1417.43 52.8841   6
  -1   6 -11 1396.27 52.8076   7
  -1  -6 -11 1542.43 61.1810   6
  -1   6 -11 1448.16 65.2787   1
   1  -6  11 1340.62 59.8568   4
   1   6  11 1469.58 57.1399   1
  -1   6 -12 1.14279 3.65363   7
  -1  -6 -12 3.22185 4.10851   6
   1  -6  12-1.74564 5.82917   4
  -1   6 -12-1.05910 4.45014   6
  -1   6 -12 4.22425 6.43843   1
   1   6  12-2.77393 5.00254   1
   1  -6  13 892.792 46.2043   4
  -1  -6 -13 868.214 43.8818   6
  -1   6 -13 874.014 49.5093   1
  -1   6 -13 838.273 37.1924   6
   1   6  13 945.346 43.3322   1
  -1   6 -13 792.269 38.5144   7
  -1  -6 -14 0.79139 3.41187   3
  -1   6 -14 1.08847 4.19715   6
  -1   6 -14 1.34026 4.83421   7
  -1  -6 -14 8.49389 5.67281   6
   1  -6  14-1.93931 5.28768   4
  -1   6 -14 2.35904 7.87756   1
  -1   6 -15 317.061 29.3323   1
   1  -6  15 282.794 26.1066   4
  -1  -6 -15 289.782 23.7938   6
  -1   6 -15 257.619 18.7782   6
   1  -7 -14 9.93865 6.64151   6
   1  -7 -14 15.5762 6.50565   3
  -1  -7  14 2.16084 7.21925   4
   1   7 -14 10.7619 9.70672   1
  -1  -7  13 97.2508 15.1750   4
  -1   7  13 72.4935 10.2539   1
   1  -7 -13 83.1625 14.1995   6
   1   7 -13 74.6317 8.76876   5
   1  -7 -13 55.0412 9.58216   3
   1   7 -13 87.1750 16.8674   1
   1  -7 -12 352.685 27.8504   6
  -1  -7  12 352.788 28.9339   4
   1   7 -12 370.883 20.4787   5
   1  -7 -12 358.335 23.4866   3
  -1   7  12 400.859 23.4900   1
   1  -7 -11 21.0470 6.65814   3
  -1   7  11 16.4487 5.26072   1
   1   7 -11 15.8735 4.97462   5
  -1  -7  11 13.2526 6.59356   4
   1  -7 -10 668.061 33.1413   3
  -1   7  10 674.557 30.8629   1
   1   7 -10 678.861 30.3333   5
   1  -7  -9 23.1591 6.81519   3
   1   7  -9 30.1909 6.44730   5
  -1   7   9 21.6286 5.17299   1
   1  -7  -9 17.1816 7.05147   6
   1   7  -8 118.704 11.5086   5
  -1  -7   8 101.244 7.53192   8
   1  -7  -8 114.267 12.2835   3
   1  -7  -7 136.598 15.6943   6
  -1  -7   7 99.0278 8.51806   8
   1   7  -7 132.786 14.0135   6
   1  -7  -7 119.804 12.4517   3
   1   7  -7 99.1686 10.5535   5
   1  -7  -6 515.568 28.0428   3
  -1  -7   6 527.327 23.6345   8
   1  -7  -6 553.997 32.5282   6
   1   7  -6 522.966 25.9065   5
   1   7  -6 484.539 28.8686   6
   1  -7  -5 12.4859 7.21846   8
   1  -7  -5 1.53249 4.43690   6
   1  -7  -5 13.0162 5.35435   3
   1   7  -5 6.54872 5.20996   6
   1  -7  -5 5.30023 4.42984   2
  -1  -7   5 10.7674 4.15415   8
   1   7  -5 13.0626 5.01230   5
   1  -7  -4 4056.89 127.194   6
   1  -7  -4 3868.20 123.714   2
   1   7  -4 4082.85 119.032   5
   1   7  -4 3861.42 123.268   6
   1  -7  -4 3864.27 121.704   3
   1   7  -4 4035.39 126.470   4
  -1  -7   4 4053.85 118.153   8
   1  -7  -4 3943.66 127.199   8
   1   7  -3 275.637 18.3622   5
   1  -7  -3 252.057 19.8044   2
   1  -7  -3 246.641 20.6795   8
   1   7  -3 265.470 20.1902   6
  -1  -7   3 264.427 17.8528   8
   1  -7  -3 265.921 21.1012   6
   1   7  -3 279.700 21.6113   4
   1  -7  -3 279.459 19.8909   3
   1   7  -2 4.08029 5.25152   4
  -1  -7   2 11.9603 4.69539   8
  -1   7   2 14.1112 5.53710   6
   1  -7  -2 13.0290 5.41173   6
   1   7  -2 3.86919 3.94110   6
   1  -7  -2 17.2212 5.42469   2
   1   7  -2 15.7585 5.46051   5
   1  -7  -2 16.2764 6.13880   8
  -1   7   1 13.8655 5.56875   6
  -1  -7   1-1.49373 4.32045   6
  -1  -7   1 3.48615 4.03964   8
   1   7  -1 3.99044 4.79827   4
   1  -7  -1 1.42731 4.12841   6
   1  -7  -1 7.73800 5.69758   8
  -1   7   1 3.87539 5.28373   4
  -1  -7   0 49.5036 9.13964   6
  -1   7   0 60.7571 9.51616   6
   1  -7   0 53.5647 9.51871   6
  -1   7   0 46.5128 9.09081   4
   1   7   0 60.8522 10.2190   4
  -1  -7   0 65.3497 9.75813   8
   1  -7   0 52.5378 9.23101   8
   1  -7   1 40.2382 8.30275   6
  -1  -7  -1 29.9562 7.49171   8
   1   7   1 41.0786 5.87673   7
  -1   7  -1 50.9077 8.72008   6
  -1  -7  -1 48.0108 9.64312   6
   1  -7   1 38.2121 7.95310   8
  -1  -7  -1 32.8753 7.86553   2
  -1   7  -1 42.7936 8.89302   4
   1   7   1 26.4237 7.80824   4
   1   7   2 3665.17 110.118   7
  -1  -7  -2 3800.60 123.278   6
   1   7   2 4063.47 121.816   4
  -1  -7  -2 4082.56 122.723   8
  -1   7  -2 3865.93 118.536   6
   1  -7   2 3886.47 116.883   8
   1  -7   2 3924.86 121.971   6
  -1  -7  -2 3533.43 117.386   2
   1   7   2 3714.88 119.116   6
  -1   7  -2 3913.30 121.268   4
  -1  -7  -3 46.0419 9.08132   8
   1  -7   3 57.5544 8.73343   8
  -1   7  -3 63.2971 9.58133   6
  -1  -7  -3 41.4178 9.32491   6
  -1   7  -3 67.3684 10.7632   4
  -1  -7  -3 37.5677 7.68067   2
   1   7   3 55.6293 9.38484   6
   1  -7   3 47.8974 9.23082   6
  -1  -7  -4 133.440 15.5048   6
  -1   7  -4 147.740 14.1576   6
  -1   7  -4 147.817 15.5023   4
  -1  -7  -4 158.759 13.5489   3
  -1   7  -4 160.281 11.5093   5
  -1  -7  -4 148.843 14.3634   2
   1  -7   4 137.716 12.5845   8
  -1  -7  -4 150.660 16.0314   8
  -1  -7  -5 6.29851 5.03796   8
  -1  -7  -5 3.13545 4.53782   6
  -1   7  -5 14.3526 6.19037   4
  -1  -7  -5 2.38751 3.45763   2
   1  -7   5 8.05231 4.31664   8
  -1   7  -5 16.6238 5.72640   6
  -1  -7  -5 8.69070 4.27001   3
  -1   7  -5 9.42234 3.32221   5
  -1  -7  -6 6.57157 3.62130   3
  -1  -7  -6 2.35827 3.93877   2
  -1   7  -6 4.71151 4.24962   6
   1  -7   6 3.29417 3.36963   8
  -1   7  -6 3.50593 2.76131   5
   1   7   7 2.35729 3.93669   1
  -1   7  -7 1.17617 3.92844   6
  -1   7  -7 2.59999 2.28944   7
   1  -7   7 9.68847 4.06479   8
  -1  -7  -7 3.65212 3.52149   3
  -1   7  -7 2.68135 2.83264   5
  -1   7  -8 130.914 13.1617   6
  -1   7  -8 91.6482 8.13630   7
  -1  -7  -8 104.569 10.4389   3
   1  -7   8 100.696 8.98498   8
  -1   7  -8 109.130 7.98881   5
  -1   7  -8 130.921 16.2400   1
  -1   7  -9 15.2391 4.29554   7
   1  -7   9 14.9039 3.75833   8
  -1  -7  -9 17.7335 4.85275   3
   1   7   9 17.7724 6.13257   1
  -1   7  -9 14.8554 2.98229   5
  -1   7  -9 22.4334 6.35051   6
  -1  -7  -9 20.1362 7.76852   6
  -1   7  -9 15.2849 8.64854   1
  -1   7 -10 26.4153 8.55839   1
  -1  -7 -10 27.3989 8.10849   6
  -1  -7 -10 23.8093 5.75139   3
   1   7  10 18.3829 6.22906   1
  -1   7 -10 18.5811 5.02156   7
  -1   7 -10 33.2275 7.34864   6
  -1   7 -11 8.27112 4.34176   7
   1   7  11 8.22685 4.76719   1
   1  -7  11 8.97069 6.91904   4
  -1   7 -11 1.19342 4.45729   6
  -1  -7 -11 3.51534 5.35939   6
  -1   7 -11-2.13196 6.16664   1
  -1  -7 -11 7.34160 4.33557   3
   1  -7  12 5.64341 6.01463   4
  -1   7 -12 4.47706 5.70963   1
   1   7  12-4.25003 5.11023   1
  -1   7 -12 1.20075 4.17400   6
  -1  -7 -12 6.37832 4.30366   3
  -1  -7 -12 7.21537 6.26990   6
  -1   7 -12 6.15142 4.30849   7
   1  -7  13 33.4771 10.3258   4
  -1   7 -13 59.6443 9.44489   7
  -1  -7 -13 72.0433 12.2944   6
  -1   7 -13 66.0566 13.9096   1
  -1  -7 -13 60.4427 8.30245   3
   1   8 -11 602.776 28.2902   5
   1  -8 -11 592.343 32.2919   3
   1  -8 -10 91.2074 11.7999   3
  -1   8  10 79.8822 9.68558   1
   1   8 -10 76.2159 9.49683   5
  -1   8   9 23.7740 5.82997   1
   1  -8  -9 35.8109 7.63803   3
   1   8  -9 33.1693 6.95246   5
   1  -8  -9 30.7254 8.71596   6
   1  -8  -8 2.58397 3.93887   3
  -1   8   8 5.27353 3.97443   1
   1   8  -8-1.00234 3.86538   5
   1  -8  -8 3.73410 5.69170   6
   1  -8  -7 299.946 24.9017   6
   1   8  -7 301.385 19.2574   5
   1  -8  -7 271.172 20.3299   3
  -1   8   7 292.577 17.7727   1
   1  -8  -6 147.929 16.9924   6
  -1  -8   6 121.852 11.1940   8
   1  -8  -6 142.602 14.6214   3
   1   8  -6 127.806 12.5601   5
  -1  -8   5 14.3583 4.72057   8
   1  -8  -5 19.2287 7.15938   6
   1  -8  -5 10.6795 4.99859   3
   1  -8  -5 16.5010 6.47817   2
   1   8  -5 18.0281 5.88493   5
  -1  -8   4-1.05498 3.66719   8
   1  -8  -4 1.50084 4.79870   2
   1  -8  -4 3.44503 3.71332   6
   1   8  -4 4.41855 4.25972   5
   1  -8  -4 4.06748 3.45840   3
   1  -8  -3 6.98398 4.66429   3
   1   8  -3-1.17090 4.37146   5
  -1  -8   3-1.14903 4.28981   8
   1  -8  -3-5.07543 4.89255   6
   1  -8  -3 4.58099 4.16338   2
   1  -8  -2 40.1905 9.02315   6
   1   8  -2 38.2308 7.93559   5
   1  -8  -2 29.0635 7.98061   2
   1  -8  -2 32.6360 7.77859   3
  -1  -8   2 22.1712 6.65883   8
   1  -8  -1 272.579 21.0954   8
  -1  -8   1 214.662 20.4344   6
   1  -8  -1 220.962 20.1222   6
   1  -8  -1 207.814 18.8117   2
  -1  -8   1 241.956 18.9902   8
   1   8  -1 180.153 11.2438   7
  -1  -8   0 60.8350 10.1021   8
   1   8   0 62.6559 6.54553   7
  -1  -8   0 58.7370 11.2860   6
   1  -8   0 72.3059 11.2493   8
  -1  -8   0 58.0103 9.85644   2
   1  -8   0 68.2525 11.8320   6
  -1  -8  -1 75.6527 11.5885   8
   1  -8   1 64.9130 10.1797   8
  -1  -8  -1 67.6544 11.8126   6
   1  -8   1 54.8779 10.5572   6
   1   8   1 59.5957 6.81176   7
  -1  -8  -1 58.2485 9.85398   2
  -1  -8  -2 3.04906 5.50007   8
   1  -8   2 4.81307 5.35878   6
   1  -8   2 6.28127 4.36799   8
  -1  -8  -2 6.94748 5.55431   6
   1   8   2 2.75267 2.65632   7
  -1  -8  -2 11.3482 5.47101   2
   1  -8   3 146.034 16.1973   6
   1  -8   3 143.401 13.9949   8
  -1  -8  -3 143.442 14.8623   2
  -1   8  -3 128.339 11.7375   5
  -1  -8  -3 123.464 12.8599   3
  -1  -8  -3 133.278 16.5752   6
  -1   8  -4 25.5910 6.01080   5
  -1  -8  -4 40.8006 9.70775   6
   1  -8   4 32.2227 7.31029   8
  -1  -8  -4 30.3153 6.97656   3
  -1  -8  -4 40.6380 8.47530   2
   1  -8   5 1241.28 47.7165   8
  -1  -8  -5 1364.61 59.1046   6
  -1  -8  -5 1141.67 50.6727   2
  -1  -8  -5 1193.02 48.3196   3
  -1   8  -5 1299.05 44.5905   5
  -1  -8  -6 31.0497 8.05282   2
  -1   8  -6 19.8456 4.85382   5
  -1  -8  -6 31.3498 7.02579   3
   1  -8   6 37.9536 7.11973   8
  -1  -8  -7 11.5179 5.16117   3
   1   8   7 18.7436 6.60888   1
  -1   8  -7 16.0999 4.15357   5
   1   8   8 55.5921 9.67047   1
  -1  -8  -8 42.0021 7.38540   3
  -1   8  -8 57.9618 6.27346   5
  -1   8  -8 68.5548 12.6593   1
  -1   8  -9 65.4674 5.28366   5
  -1  -8  -9 58.6380 8.56872   3
  -1   8  -9 48.7366 11.3666   1
  -1  -8  -9 68.4923 12.8140   6
   1   8   9 88.5160 11.6508   1
  -1  -8 -10 63.7000 12.2778   6
  -1   8 -10 51.7154 12.1885   1
  -1  -8 -10 51.4833 8.02253   3
   1   8  10 51.4061 9.67950   1
  -1  -8 -11 1017.59 51.2168   6
  -1  -8 -11 911.107 39.0262   3
  -1   8 -11 952.036 52.9467   1
   1  -9  -7 12.2591 7.38637   6
   1   9  -7 13.3567 5.69951   5
   1  -9  -6 14.0260 7.50078   6
   1  -9  -6 23.3195 7.32088   3
   1   9  -6 26.3568 7.00792   5
   1  -9  -5 58.3916 11.3316   2
  -1   9   5 45.6294 7.34210   1
   1  -9  -5 44.4372 9.45217   3
   1   9  -5 68.3518 10.1797   5
   1  -9  -5 43.2975 10.9749   6
   1  -9  -4 1561.76 57.2017   3
   1  -9  -4 1629.77 63.8901   6
   1   9  -4 1637.11 54.4716   5
   1  -9  -4 1496.20 58.7446   2
   1  -9  -3 128.212 15.1065   3
   1  -9  -3 124.759 16.5740   6
   1  -9  -3 101.901 14.3276   2
   1   9  -3 156.598 15.1124   5
   1   9  -2 22.7478 7.30637   5
   1  -9  -2 31.9046 8.28954   3
   1  -9  -2 22.6963 8.16226   6
  -1  -9   2 21.6065 7.13983   8
   1   9  -2 11.3755 2.41934   7
   1  -9  -2 12.1205 6.47533   2
   1   9  -1 3.82380 1.99313   7
   1  -9  -1 3.71568 5.94053   6
   1  -9  -1 6.45561 5.82189   3
   1   9  -1 2.76316 5.15896   5
  -1  -9   1 1.71868 4.38444   2
   1  -9  -1 6.87804 5.49833   2
  -1  -9   0 11.6818 7.74614   6
   1  -9   0 11.1284 7.80104   6
  -1  -9   0 11.7480 6.48062   2
   1  -9   0 20.8536 7.68453   2
   1  -9   1 22.0794 8.70637   6
  -1  -9  -1 23.5255 8.88099   6
  -1  -9  -1 19.5909 7.72924   2
  -1  -9  -2 1773.35 71.7512   2
   1  -9   2 1923.86 70.6716   8
   1  -9   2 1900.48 76.0246   6
  -1   9  -2 1908.43 66.1257   5
  -1  -9  -2 1910.25 78.0072   6
  -1  -9  -3-1.36459 5.42377   3
  -1  -9  -3 3.96178 6.33325   6
  -1   9  -3 2.01750 4.76395   5
  -1  -9  -3 6.37292 6.14340   2
   1  -9   4 317.770 26.7000   2
  -1  -9  -4 386.565 26.5337   2
  -1  -9  -4 375.264 29.2428   6
  -1   9  -4 401.349 21.8792   5
  -1  -9  -4 359.041 24.0616   3
  -1  -9  -5 38.8992 7.95966   3
  -1  -9  -5 21.4207 6.79155   2
  -1  -9  -5 24.1660 8.70701   6
  -1   9  -5 23.5187 5.82042   5
  -1  -9  -6 15.1162 6.37212   2
  -1  -9  -6 26.4722 9.00985   6
  -1   9  -6 26.0404 5.64590   5
   1   9   6 21.9880 6.37801   1
  -1  -9  -6 13.3893 5.88899   3
   1   9   7 11.7731 5.77898   1
  -1   9  -7 1.89179 6.04866   1
  -1  -9  -7 7.03055 5.29843   3
  -1   9  -7-0.67773 4.02786   5
   2   0 -20 191.050 15.9767   8
   2   0 -20 222.525 24.0036   1
  -2   0  20 191.127 23.5921   4
   2   0 -19 2.22570 4.79747   1
  -2   0  19-4.88536 7.06396   4
   2   0 -19 2.09914 3.91850   8
   2   0 -18 4.17292 5.69559   1
  -2   0  18 16.2567 8.95911   4
   2   0 -18 14.5843 5.02875   8
  -2   0  17-2.19912 5.99593   4
   2   0 -17-3.92233 6.81629   1
   2   0 -17-1.01301 3.65380   8
  -2   0  17 1.49064 5.56521   5
  -2   0  17 8.45487 5.76308   3
  -2   0  16 24.9350 9.22186   4
  -2   0  16 31.2526 8.59769   5
  -2   0  16 32.4147 8.07463   3
   2   0 -16 40.6175 9.78823   1
   2   0 -16 41.6957 7.05091   8
  -2   0  15-1.28703 5.26366   3
   2   0 -15-0.93373 3.48604   8
  -2   0  15 1.96308 5.98412   4
  -2   0  15-4.03625 6.48467   5
   2   0 -15 1.73458 5.54564   1
   2   0 -14 886.580 44.2149   1
   2   0 -14 925.909 37.0060   8
  -2   0  14 963.892 41.5053   3
  -2   0  14 928.343 41.7113   5
  -2   0  14 884.735 46.2637   4
  -2   0  13-1.19878 4.00307   5
  -2   0  13 1.71222 4.36688   4
   2   0 -13-1.48875 4.05910   1
  -2   0  13-1.15326 4.30561   3
   2   0 -13 1.66534 3.21069   8
  -2   0  12 460.749 26.5515   5
  -2   0  12 537.365 32.0803   4
   2   0 -12 516.726 29.9162   1
   2   0 -12 526.247 24.2398   8
  -2   0  11 2.03565 4.90597   3
  -2   0  11-1.05006 3.92060   5
  -2   0  11 5.81757 4.85685   4
   2   0 -11-0.71550 3.16106   8
   2   0 -11-6.27005 4.52324   1
   2   0 -10 417.905 23.8672   1
  -2   0  10 344.070 23.5334   4
   2   0 -10 382.686 18.4308   8
  -2   0  10 382.898 21.7764   5
  -2   0  10 382.343 21.3012   3
   2   0  -9 1.03494 2.23081   1
  -2   0   9-0.90115 3.25029   5
  -2   0   9-0.87831 2.53999   3
  -2   0   8 5676.97 158.538   3
   2   0  -8 5774.49 160.761   1
  -2   0   8 5500.48 158.832   5
  -2   0   7 2.94328 2.35369   3
   2   0  -6 298.984 16.4638   3
  -2   0   6 344.685 17.4849   5
  -2   0   6 366.337 17.7020   3
  -2   0   5 0.59070 2.27765   3
   2   0  -5-0.63666 1.84115   5
  -2   0   4 3.11837 1.94083   3
   2   0  -4 0.56273 1.71591   5
   2   0  -3 0.98198 1.89333   5
  -2   0   3 0.89444 1.42999   3
   2   0  -2 14797.1 379.633   5
  -2   0   2 14383.8 378.797   3
   2   0  -1 0.30839 0.98596   3
   2   0  -1 0.71374 1.08785   5
  -2   0   1-0.58498 1.01659   3
   2   0   0 1399.39 40.3553   3
   2   0   0 1444.48 41.6286   5
   2   0   1 1.58111 1.16409   5
   2   0   1-0.19852 0.66294   3
   2   0   2 102.476 5.15521   3
   2   0   2 118.233 7.52480   1
  -2   0  -3 0.51424 1.10851   1
  -2   0  -4 6435.16 173.654   1
   2   0   4 6223.34 172.223   8
  -2   0  -4 6385.97 164.702   6
  -2   0  -5-0.33661 0.74348   6
  -2   0  -5 0.72520 1.56315   1
   2   0   5-0.71724 1.82924   7
   2   0   5 1.19077 1.40584   8
   2   0   6 12877.9 334.691   8
  -2   0  -6 12506.5 337.846   1
  -2   0  -6 12578.9 326.358   6
  -2   0  -7 0.94777 2.58423   1
  -2   0  -7 1.99842 1.29109   6
   2   0   7-0.72264 2.08997   8
   2   0   8 1429.24 49.8414   8
  -2   0  -8 1478.32 53.7060   1
  -2   0  -8 1448.87 43.1019   6
  -2   0  -9 0.40999 1.42502   6
  -2   0  -9 1.17722 2.77970   1
  -2   0 -10 272.624 19.9399   1
   2   0  10 262.620 18.7989   1
  -2   0 -10 236.505 12.3143   6
   2   0  10 257.772 18.9361   4
   2   0  10 246.400 16.3085   8
   2   0  11 2.71376 3.92395   4
  -2   0 -11-1.42199 3.62665   1
  -2   0 -11-0.53020 1.91234   6
   2   0  11-1.31651 4.20903   1
   2   0  11 0.97817 3.52808   8
   2   0  12 963.031 45.1261   4
  -2   0 -12 996.969 46.2805   1
  -2   0 -12 962.065 34.2996   6
   2   0  12 969.668 44.6614   1
   2   0  12 982.630 40.4408   8
   2   0  12 975.977 36.2679   3
   2   0  13 1.61360 4.39948   4
   2   0  13 0.79198 3.41423   3
  -2   0 -13 1.68179 4.28926   1
  -2   0 -13 0.65912 2.29088   6
   2   0  13-1.09587 3.95260   8
  -2   0 -14 165.128 18.3357   1
  -2   0 -14 196.423 12.8752   6
   2   0  14 205.412 16.3135   8
   2   0  14 211.302 14.7226   3
   2   0  14 165.037 18.0049   4
   2   0  15 3.72842 4.40203   4
  -2   0 -15 1.94844 3.75671   1
   2   0  15 1.83779 4.15490   3
  -2   0 -15 0.76210 2.84560   6
   2   0  16 365.850 22.4848   5
  -2   0 -16 364.872 19.6494   6
   2   0  16 368.987 21.2994   3
  -2   0 -16 300.331 27.0036   1
   2   0  16 354.995 28.1224   4
   2   0  17 1.03871 4.47814   3
   2   0  17 1.22067 5.26251   5
  -2   0 -17-6.66023 6.76769   1
   2   0  17 2.07998 5.67128   4
  -2   0 -17-0.85696 3.09129   6
  -2   0 -18 1.79203 3.34519   6
   2   0  18-2.19820 7.64010   4
   2   0  18 3.83979 5.65400   5
  -2   0 -18-2.34105 7.13625   1
  -2   0 -19-2.45846 6.27048   1
   2   0  19 2.30936 6.29688   4
  -2   0 -19-3.72738 4.40117   6
   2  -1 -20 6.78378 6.41191   8
   2  -1 -20 13.3661 7.12636   1
  -2   1  20 2.60394 7.10390   4
   2   1 -20 14.6749 8.17096   1
  -2  -1  20 14.9519 9.30683   4
  -2   1  19 349.258 31.0213   4
   2  -1 -19 315.805 22.5783   8
  -2  -1  19 285.044 27.9352   4
   2  -1 -19 303.083 26.9943   1
   2   1 -19 352.407 29.9332   1
   2  -1 -18 146.270 18.1506   1
   2   1 -18 144.835 19.0846   1
  -2  -1  18 137.374 18.7002   4
  -2   1  18 137.498 19.0652   4
   2  -1 -18 152.042 15.1516   8
  -2   1  17 269.408 26.0603   4
  -2   1  17 316.278 22.7447   3
  -2  -1  17 241.354 24.5150   4
  -2  -1  17 344.944 23.6746   5
   2   1 -17 304.501 26.9292   1
   2  -1 -17 320.709 25.6972   1
   2  -1 -17 321.909 21.6585   8
   2   1 -17 266.580 15.7839   8
  -2   1  16 5.23456 5.35273   3
   2  -1 -16 6.05209 4.20786   8
   2   1 -16 3.97735 5.42283   1
  -2  -1  16-2.06292 5.62524   4
  -2   1  16 4.22471 5.38808   4
  -2  -1  16 1.39185 5.19711   3
  -2   1  16 5.98880 4.78751   5
   2   1 -16 3.40482 2.62716   8
  -2  -1  16 4.00993 5.46723   5
   2  -1 -16 1.74953 4.77091   1
   2  -1 -15 2075.07 71.8483   8
   2   1 -15 2003.94 63.8185   8
   2  -1 -15 2109.61 79.8925   7
  -2   1  15 2042.09 75.2940   5
  -2   1  15 1991.99 82.0612   4
  -2  -1  15 2020.38 81.7461   4
   2  -1 -15 2137.08 78.9463   1
   2   1 -15 2226.24 83.0788   1
  -2  -1  15 1959.92 72.2172   5
  -2   1  15 2082.95 73.2740   3
  -2  -1  15 2210.18 75.1497   3
   2   1 -14 5.25507 5.07588   1
  -2  -1  14 18.0437 5.68975   5
  -2   1  14 10.7403 5.15458   3
  -2  -1  14 27.4175 8.27058   4
  -2   1  14 8.08960 5.96455   5
   2  -1 -14 13.3779 5.74047   1
  -2  -1  14 12.4690 5.24909   3
   2   1 -14 11.3155 3.49594   8
   2  -1 -14 18.6981 5.71867   8
   2   1 -13 172.734 17.4843   1
   2   1 -13 144.679 9.98274   8
  -2   1  13 131.129 13.9195   5
   2  -1 -13 172.533 14.2470   8
   2  -1 -13 158.348 15.4240   1
  -2  -1  13 144.167 13.6295   5
  -2   1  13 139.337 13.9497   3
  -2  -1  13 146.083 14.1051   3
  -2  -1  13 155.044 16.7802   4
  -2   1  12 195.951 16.5879   5
  -2  -1  12 209.989 16.2438   5
  -2  -1  12 201.677 18.8063   4
   2  -1 -12 207.698 17.1222   1
   2  -1 -12 215.968 15.5034   8
   2   1 -12 204.182 18.6473   1
  -2   1  12 210.200 16.3233   3
   2   1 -12 216.645 12.1732   8
  -2  -1  12 206.298 16.3151   3
   2   1 -11 3445.46 108.260   1
  -2  -1  11 3288.20 101.365   3
   2  -1 -11 3391.51 103.557   1
   2   1 -11 3256.16 92.3010   8
  -2  -1  11 3031.51 99.6912   5
   2  -1 -11 3298.63 99.4513   8
  -2  -1  11 3193.93 106.999   4
  -2   1  11 3295.57 100.964   3
  -2   1  11 3278.94 102.385   5
  -2   1  10 27.9654 5.93300   5
  -2  -1  10 21.1233 5.85845   4
   2  -1 -10 25.3626 5.47338   1
   2   1 -10 19.6085 3.37389   8
   2   1 -10 20.4036 6.29278   1
  -2  -1  10 33.6949 6.31873   3
  -2   1  10 14.9544 4.96615   3
  -2  -1  10 20.4225 5.24743   5
  -2   1   9 330.727 20.2229   5
  -2  -1   9 348.753 19.8102   5
  -2   1   9 401.338 20.7178   3
   2   1  -9 374.565 20.5651   5
   2  -1  -9 373.315 20.5520   1
  -2  -1   9 402.554 20.9787   3
   2   1  -9 359.117 15.0290   8
   2   1  -8 23.5726 5.01501   5
  -2  -1   8 15.4686 4.45340   3
  -2  -1   8 7.14761 3.26698   5
  -2   1   8 14.2836 3.84083   3
   2  -1  -8 15.6357 3.93164   1
  -2  -1   7 856.632 33.8223   5
  -2   1   7 957.189 34.4348   3
   2  -1  -7 870.458 32.9852   1
  -2  -1   7 897.723 34.3362   3
  -2  -1   6 1.32764 2.21667   3
   2  -1  -6 0.55585 1.41763   1
   2   1  -6-1.58874 2.29723   4
  -2   1   6 1.29427 2.24918   3
  -2  -1   6-0.66150 1.91299   5
  -2  -1   5 10.6874 3.05018   5
  -2   1   5 14.7592 3.39261   3
   2   1  -5 19.6876 4.15473   4
  -2  -1   5 10.0248 3.13450   3
   2  -1  -5 18.7880 3.21843   1
  -2   1   4 952.573 32.4244   3
   2   1  -4 1021.50 33.9737   4
  -2  -1   4 911.862 32.3530   3
  -2  -1   4 926.613 32.7224   5
   2  -1  -3 1012.65 34.3303   5
  -2  -1   3 979.186 33.2443   3
   2   1  -3 1061.15 34.3261   5
  -2   1   3 1023.53 34.3157   5
  -2   1   3 993.135 33.1781   3
   2   1  -3 1031.53 33.4778   4
   2   1  -2 0.69382 1.29538   4
   2  -1  -2 1.31457 1.40115   5
  -2   1   2 0.39908 1.21676   3
   2   1  -2 2.16121 1.66684   5
  -2   1   1 1230.48 37.3527   2
   2   1  -1 1211.05 36.3887   4
   2  -1  -1 1236.18 37.9646   5
  -2   1   1 1324.70 38.3756   3
   2   1  -1 1251.20 38.4442   5
   2  -1   0 426.533 14.2458   1
   2  -1   0 443.281 15.7186   5
   2  -1   0 426.165 15.5937   2
   2   1   0 412.691 14.4271   4
   2   1   0 446.921 16.6895   5
   2  -1   1 12332.2 316.392   1
   2  -1   1 12374.6 314.908   5
   2   1   1 12519.5 316.251   6
   2  -1   1 11687.4 313.912   6
   2  -1   1 12285.0 316.040   2
  -2   1  -2-0.24468 1.02815   4
   2  -1   2-0.38563 1.39094   1
   2  -1   2 0.22126 0.87944   4
   2  -1   2 0.52209 0.96375   5
  -2   1  -2 1.85490 0.80206   5
   2  -1   2 0.45522 0.53752   6
   2   1   2-0.27665 0.96157   6
   2  -1   3 1.48338 0.86000   5
  -2   1  -3 6.04679 2.05810   4
   2  -1   3 7.31169 1.94965   4
  -2  -1  -3 1.18684 1.24813   6
   2  -1   3 5.90577 2.17483   1
   2   1   3 1.97817 1.24975   6
   2  -1   3 0.44299 1.48043   7
  -2   1  -4 621.913 22.8795   4
   2  -1   4 628.596 22.6542   4
  -2  -1  -4 589.865 20.6519   6
   2  -1   4 607.542 23.7812   7
   2  -1   4 623.480 24.6805   1
   2   1   4 606.510 20.5676   6
  -2  -1  -4 603.077 24.8702   8
   2   1   5 50.1603 2.86849   3
  -2  -1  -5 41.6728 4.03891   6
   2   1   5 39.8088 5.61054   8
   2  -1   5 39.4795 5.23893   7
   2  -1   5 45.8467 5.95864   1
   2  -1   5 43.2452 5.21253   4
   2   1   5 41.4008 3.95840   6
   2  -1   6 149.723 10.8931   4
  -2  -1  -6 135.648 8.08407   6
   2   1   6 126.751 10.6674   8
  -2  -1  -6 128.900 11.0918   1
   2   1   6 139.441 6.47652   3
   2  -1   6 137.369 10.7514   7
   2  -1   7 13941.7 363.273   4
  -2   1  -7 13693.1 363.132   7
  -2  -1  -7 14041.0 365.814   1
  -2  -1  -7 13457.8 362.597   8
  -2   1  -7 12818.7 364.608   1
   2  -1   7 13953.0 359.458   8
   2   1   7 13580.8 353.016   3
  -2  -1  -7 13515.7 355.612   6
   2   1   7 13739.6 364.018   8
   2  -1   8 233.320 14.1799   8
  -2  -1  -8 251.220 16.3611   8
  -2  -1  -8 268.527 18.0515   1
   2   1   8 249.252 11.5271   3
   2   1   8 254.764 16.8037   8
  -2   1  -8 240.567 17.5382   1
  -2  -1  -8 250.360 12.5862   6
   2  -1   8 245.213 16.7586   4
  -2   1  -8 252.569 16.7415   7
   2   1   9 64.1467 8.61063   8
  -2  -1  -9 65.3765 6.34768   6
   2  -1   9 82.6529 8.33135   8
   2  -1   9 104.524 11.2919   4
  -2   1  -9 87.7417 10.8118   1
  -2  -1  -9 72.9418 8.80402   8
  -2  -1  -9 72.5341 9.58572   1
   2   1   9 92.5259 6.91741   3
  -2   1  -9 99.2996 10.6851   7
  -2  -1 -10 211.107 17.2939   1
   2  -1  10 225.531 17.9656   1
  -2   1 -10 225.108 17.0815   7
   2   1  10 195.132 15.5064   8
   2  -1  10 179.939 15.8739   4
   2  -1  10 196.739 13.5797   8
  -2   1 -10 230.356 18.7232   1
  -2  -1 -10 213.396 15.7064   8
   2   1  10 206.522 11.6000   3
  -2  -1 -10 211.777 12.3932   6
  -2   1 -11 957.935 42.0070   7
   2  -1  11 981.886 43.6824   1
   2  -1  11 973.563 43.4987   4
  -2  -1 -11 987.956 44.2194   1
  -2  -1 -11 926.520 39.8919   8
  -2   1 -11 987.417 44.9987   1
  -2  -1 -11 943.467 42.6035   7
  -2  -1 -11 933.996 34.4038   6
   2  -1  11 963.910 37.2989   8
   2   1  11 965.982 33.8496   3
   2   1  11 946.040 40.9779   8
  -2  -1 -12 18.0202 4.24773   6
  -2  -1 -12 19.8743 6.60487   1
  -2  -1 -12 11.1058 5.20097   7
   2  -1  12 23.0461 6.52697   1
   2  -1  12 23.3820 6.76986   4
   2   1  12 24.0219 6.03179   8
   2  -1  12 22.1320 4.99488   8
  -2   1 -12 11.9780 5.15003   7
  -2  -1 -12 15.9750 5.29300   8
  -2   1 -12 12.5884 5.27240   1
   2   1  12 14.6793 3.96324   3
   2  -1  12 16.1777 4.44798   5
   2  -1  13 1344.33 48.2701   5
  -2  -1 -13 1451.73 60.1872   1
  -2   1 -13 1359.71 56.4189   7
   2   1  13 1365.76 54.8553   8
   2  -1  13 1516.91 60.4282   4
   2   1  13 1355.15 46.8619   3
  -2  -1 -13 1385.23 47.7057   6
   2  -1  13 1408.08 50.5384   8
  -2  -1 -13 1401.21 57.8592   7
  -2   1 -13 1386.88 60.1139   1
   2   1  14 45.6258 6.50773   3
  -2   1 -14 42.9828 9.43947   7
  -2  -1 -14 45.0259 6.69068   6
   2  -1  14 39.1364 9.78159   4
   2  -1  14 68.3937 9.01941   8
  -2   1 -14 51.5815 10.7256   1
  -2  -1 -14 42.8453 9.38564   7
   2  -1  14 48.3644 7.34619   5
  -2  -1 -14 60.4177 10.9033   1
   2   1  14 45.4099 9.58866   1
  -2   1 -15 1508.07 66.8940   1
  -2  -1 -15 1504.39 52.7338   6
   2  -1  15 1428.52 53.4783   5
   2   1  15 1579.30 52.9641   3
  -2  -1 -15 1597.93 67.5453   1
   2  -1  15 1615.26 56.1307   8
   2  -1  15 1503.53 65.1182   4
   2   1  16 57.8785 8.15499   3
  -2   1 -16 42.2761 10.2528   1
   2  -1  16 61.0898 9.19644   3
   2   1  16 40.5357 10.9385   4
   2  -1  16 34.7108 9.90322   4
  -2  -1 -16 52.6720 11.2769   1
  -2  -1 -16 34.5382 6.54013   6
   2  -1  16 43.5768 7.83858   5
  -2   1 -17 125.786 17.7176   1
   2   1  17 75.2572 14.2306   4
   2  -1  17 103.801 15.4965   4
   2  -1  17 138.419 12.9431   5
   2   1  17 126.615 11.9724   3
  -2   1 -17 113.827 10.4864   6
  -2  -1 -17 159.162 19.0177   1
  -2  -1 -17 119.652 11.4426   6
   2  -1  17 120.650 12.9183   3
   2  -1  18 147.729 19.0761   4
  -2   1 -18 134.620 11.4826   6
  -2   1 -18 124.118 17.9642   1
   2   1  18 99.9554 16.4109   4
  -2  -1 -18 120.512 17.6928   1
  -2  -1 -18 119.711 11.7465   6
   2  -1  18 135.000 14.0015   3
  -2  -1 -19 15.4926 4.89528   6
  -2  -1 -19 21.5865 9.25766   1
  -2   1 -19 15.1681 7.71748   1
   2  -1  19 8.95003 7.16568   4
   2   1  19 19.0945 9.21263   4
  -2   1 -19 18.9876 5.00919   6
  -2  -2  20 156.470 20.8970   4
   2  -2 -20 129.344 17.9297   1
  -2   2  20 141.842 20.4094   4
   2   2 -20 112.008 18.5667   1
   2  -2 -20 113.113 15.2990   6
   2   2 -19 7.51187 6.82956   1
  -2   2  19 20.4288 9.53547   4
   2  -2 -19 6.74277 4.87839   6
   2  -2 -19 4.07592 6.51822   1
  -2  -2  19 4.84677 7.01062   4
   2  -2 -18 175.961 19.5793   1
   2  -2 -18 197.552 19.2730   6
   2   2 -18 202.302 22.7554   1
  -2  -2  18 198.328 17.9981   5
  -2  -2  18 166.674 20.8886   4
   2  -2 -18 186.935 18.2236   8
  -2   2  17 2.55024 5.49700   3
  -2  -2  17 4.40967 6.01148   4
   2  -2 -17 1.78653 4.55639   1
   2  -2 -17 1.55327 5.39855   6
   2   2 -17-2.26308 7.23531   1
  -2  -2  17-5.37657 6.07738   5
   2  -2 -17 4.41564 4.91499   8
   2  -2 -16 289.246 22.8272   1
   2  -2 -16 248.012 20.3227   8
  -2  -2  16 269.343 20.1530   5
  -2   2  16 235.414 18.7671   3
   2   2 -16 287.551 26.2603   1
  -2  -2  16 240.127 23.5363   4
  -2  -2  15 13.7074 6.87608   3
   2   2 -15 18.2255 7.81727   1
   2  -2 -15 20.3656 6.00922   8
  -2  -2  15 17.7004 7.59255   4
   2  -2 -15 9.25719 5.16559   1
  -2   2  15 9.10208 6.21546   5
  -2  -2  15 19.6594 6.60523   5
  -2   2  15 14.1074 5.79054   3
  -2   2  14 1005.54 42.2048   3
   2  -2 -14 1000.70 45.5431   1
   2  -2 -14 951.176 43.4477   8
   2  -2 -14 983.772 47.2225   7
  -2  -2  14 1041.47 50.6579   4
  -2   2  14 932.254 44.6621   5
  -2  -2  14 1047.63 43.2309   5
   2   2 -14 1033.12 51.5739   1
  -2  -2  14 1017.11 44.4462   3
  -2   2  13 25.5477 6.37236   3
   2  -2 -13 39.7555 8.78351   7
   2   2 -13 30.8081 8.04256   1
  -2  -2  13 35.3417 7.83061   3
   2  -2 -13 24.5346 6.86136   1
   2  -2 -13 30.6488 6.93394   8
  -2   2  13 25.9939 7.38320   5
  -2  -2  13 29.7475 6.84411   5
  -2  -2  13 39.5482 9.40805   4
   2  -2 -12 633.189 31.4429   1
  -2   2  12 582.666 31.6050   5
   2  -2 -12 634.901 31.6167   8
  -2  -2  12 618.881 30.7860   3
   2  -2 -12 631.675 30.5003   3
  -2  -2  12 633.258 30.2664   5
  -2  -2  12 619.423 35.2929   4
  -2   2  12 623.216 29.7988   3
   2   2 -12 612.062 35.6745   1
   2  -2 -12 647.409 33.7168   7
   2  -2 -11 98.8869 11.2268   8
  -2  -2  11 86.5053 11.9279   4
   2  -2 -11 92.1099 10.5014   1
  -2   2  11 115.308 11.1866   3
   2   2 -11 110.614 11.3833   5
  -2   2  11 101.034 11.7550   5
  -2  -2  11 88.2274 10.1252   5
   2  -2 -11 105.648 11.1069   3
  -2   2  10 695.575 30.1487   3
  -2  -2  10 659.792 29.9148   5
  -2   2  10 680.468 32.3221   5
   2   2 -10 699.888 30.9406   5
  -2  -2  10 677.068 34.3606   4
   2  -2 -10 684.979 30.4056   1
   2  -2 -10 613.454 29.7078   3
   2   2  -9 44.9230 6.72597   5
  -2   2   9 34.2345 6.26153   3
   2  -2  -9 38.0752 5.92736   1
  -2  -2   9 43.5165 6.72568   5
   2   2  -9 34.0183 7.13092   4
   2   2  -8 16284.0 428.728   4
   2   2  -8 15887.1 424.089   5
  -2   2   8 16017.6 423.465   3
   2  -2  -8 16389.7 422.241   1
  -2  -2   8 15600.0 423.250   5
   2  -2  -7 45.8088 5.40117   1
   2   2  -7 33.0746 6.52935   4
  -2   2   7 46.3107 6.19725   3
   2   2  -7 35.1575 5.61598   5
  -2  -2   7 48.7533 6.31717   5
   2  -2  -6 1537.01 46.3226   1
   2   2  -6 1675.20 53.2456   4
   2   2  -6 1480.74 49.6233   5
  -2   2   6 1535.15 49.4118   3
  -2  -2   6 1544.32 49.3261   5
   2   2  -6 1458.69 41.1411   8
   2  -2  -5 174.777 8.80888   1
   2   2  -5 165.891 11.1742   5
   2   2  -5 162.203 7.23428   8
  -2   2   5 202.995 11.9104   3
  -2  -2   5 180.526 11.1332   5
   2   2  -5 171.840 12.0090   4
   2   2  -4 2493.35 74.0980   4
   2  -2  -4 2456.42 66.6763   1
  -2  -2   4 2404.91 71.7960   5
  -2   2   4 2504.68 72.7550   2
   2   2  -4 2426.14 67.3212   8
  -2   2   4 2473.81 72.6422   3
   2  -2  -3 842.347 32.6040   3
   2   2  -3 882.150 29.2548   8
   2  -2  -3 943.483 32.9020   6
  -2  -2   3 970.244 32.3807   5
  -2   2   3 970.247 32.8571   2
   2   2  -3 1009.97 33.6784   4
  -2   2   3 1022.00 33.3592   3
   2   2  -2 45979.5 1154.45   4
   2  -2  -2 45354.7 1154.59   6
  -2   2   2 45811.6 1154.77   2
  -2   2   2 45920.6 1155.13   3
   2   2  -2 42777.8 1152.41   8
  -2  -2   2 44295.3 1154.14   5
   2   2  -1 1005.16 33.5848   5
   2   2  -1 979.144 32.4331   4
   2  -2  -1 1043.31 33.0378   6
  -2   2   1 986.963 33.4965   2
  -2  -2   0 5.41838 2.07113   8
   2   2   0 4.29892 2.16101   6
   2  -2   0 1.84517 1.18229   6
  -2   2   0 4.67972 1.15790   1
  -2   2   0 1.64658 1.62046   5
   2   2   0 0.40161 1.45053   4
   2  -2   0 4.64100 1.95154   2
   2  -2   1 25.5879 3.26233   6
  -2   2  -1 35.1900 3.72044   4
  -2  -2  -1 30.3147 4.75452   8
  -2   2  -1 34.2181 3.08873   5
  -2   2  -1 31.2522 3.22870   1
   2   2   1 28.2144 3.96167   6
   2  -2   1 23.3281 3.56694   2
  -2   2  -1 31.2700 3.36238   6
  -2  -2  -2 501.739 21.1708   8
  -2   2  -2 502.842 18.3004   4
   2   2   2 426.564 21.1620   8
   2   2   2 492.111 19.2465   6
   2  -2   2 474.196 17.6257   4
  -2   2  -2 453.434 18.1682   1
   2  -2   2 462.715 16.7915   6
  -2   2  -2 483.958 14.7359   5
   2  -2   2 485.339 16.7393   7
  -2   2  -2 468.541 16.6946   6
   2   2   3 1.86333 1.55624   6
   2  -2   3 1.64923 1.09348   6
  -2   2  -3 2.15589 1.64362   1
  -2   2  -3 2.65332 1.17301   6
  -2   2  -3 2.32387 1.61605   4
   2  -2   3 3.33217 1.75077   4
  -2  -2  -3 0.98920 0.82711   2
   2  -2   3 2.28392 1.42190   7
  -2  -2  -3 0.68468 2.08765   8
  -2  -2  -4 7841.33 202.881   6
   2   2   4 7603.62 202.216   6
  -2   2  -4 7248.84 204.644   1
  -2  -2  -4 7808.01 207.434   8
   2  -2   4 7583.82 202.042   7
   2  -2   4 7500.27 202.597   4
  -2   2  -4 7589.47 203.197   4
  -2   2  -4 7505.24 197.929   6
  -2   2  -5 7.10611 2.92773   4
  -2   2  -5 9.63710 2.89853   7
  -2  -2  -5 9.76449 2.67391   6
  -2  -2  -5 6.54878 2.85218   8
  -2   2  -5 7.80586 1.74924   6
   2  -2   5 7.30646 2.69711   4
   2   2   5 7.04909 2.43507   6
   2   2   6 2337.10 68.9519   6
   2  -2   6 2366.17 72.0332   4
  -2  -2  -6 2295.90 69.3232   6
  -2   2  -6 2295.13 64.1840   6
  -2   2  -6 2340.97 72.2821   4
  -2   2  -6 2322.60 70.9619   7
   2   2   6 2314.30 64.3298   2
  -2   2  -7-0.86880 2.90122   4
   2  -2   7 3.42196 2.73514   4
   2   2   7 1.01777 2.59578   8
   2   2   7 0.72350 0.85435   3
  -2   2  -7-0.31473 1.17514   6
  -2  -2  -7 0.60511 1.75001   6
  -2   2  -7-0.77790 2.37134   7
   2  -2   7 2.22549 1.24890   5
   2   2   7 0.31684 1.29590   2
   2   2   8 698.238 32.3306   8
   2  -2   8 676.431 26.2885   8
  -2   2  -8 725.847 30.5865   7
  -2  -2  -8 681.213 27.1548   6
   2  -2   8 677.844 30.7351   4
   2  -2   8 650.985 22.1099   5
   2   2   8 697.104 23.3598   2
   2   2   8 651.791 21.4946   3
  -2   2  -8 685.442 23.1372   6
   2   2   9-1.23271 1.89961   2
   2   2   9 1.16231 3.71603   8
   2  -2   9-1.08514 3.30783   4
  -2  -2  -9 3.24129 3.75515   8
   2   2   9-0.31290 1.62428   3
  -2  -2  -9 0.69051 1.99688   6
   2  -2   9 0.61932 1.98002   8
  -2   2  -9 1.98158 2.52692   7
   2   2   9-1.11544 2.40430   1
   2  -2   9 0.36956 1.74523   5
  -2  -2 -10 579.302 29.6471   8
   2  -2  10 601.125 24.8482   8
   2  -2  10 602.355 30.6486   4
   2   2  10 590.044 30.6283   1
   2   2  10 583.271 20.9741   3
  -2  -2 -10 563.756 25.1292   6
   2   2  10 544.212 29.9204   8
   2  -2  10 576.085 21.7862   5
  -2   2 -10 575.929 29.5611   7
   2   2  11 24.8799 6.45652   1
   2  -2  11 29.3197 7.28512   4
   2  -2  11 14.7951 3.93452   8
  -2  -2 -11 19.3319 5.96068   8
   2   2  11 15.8091 3.34526   3
   2  -2  11 21.9857 4.13099   5
  -2   2 -11 20.3907 5.80357   7
  -2  -2 -11 21.8944 4.79438   6
   2   2  11 31.1215 6.97834   8
  -2  -2 -12-1.27530 3.88775   8
   2  -2  12 5.20303 3.20459   8
   2   2  12 5.61126 4.48515   1
  -2  -2 -12 3.31693 2.65149   6
  -2   2 -12 1.30112 3.96647   7
   2  -2  12 1.19388 2.57376   5
   2   2  12 1.99677 2.40640   3
   2  -2  12-4.37011 4.86451   4
  -2  -2 -13 6.71859 4.67035   8
  -2   2 -13 5.60466 5.23122   7
   2  -2  13 1.57699 4.29978   4
   2  -2  13 0.77541 2.79692   8
   2  -2  13-0.66827 2.95221   5
   2   2  13 1.50605 5.43212   1
  -2  -2 -13 0.87821 3.16768   6
   2   2  13 0.55653 2.45865   3
   2  -2  14 561.308 25.2288   8
   2   2  14 540.764 32.6424   1
  -2   2 -14 504.770 31.1950   7
  -2  -2 -14 488.152 25.3004   6
  -2  -2 -14 584.134 32.0416   8
   2  -2  14 498.967 32.1828   4
   2   2  14 527.708 22.5688   3
   2  -2  14 553.101 24.3146   5
  -2   2 -14 536.088 34.8812   1
  -2  -2 -15 26.7488 7.73334   8
  -2  -2 -15 25.5501 6.01577   6
   2   2  15 23.0336 5.06458   3
   2  -2  15 26.3281 5.52163   8
  -2   2 -15 10.1970 7.63333   1
   2  -2  15 12.6985 4.98789   5
   2  -2  15 29.0419 8.76543   4
  -2  -2 -16 1231.02 52.7820   8
  -2  -2 -16 1150.95 45.3251   6
   2  -2  16 1105.23 42.5060   5
   2  -2  16 1164.05 55.8758   4
  -2   2 -16 1193.72 59.1094   1
   2   2  16 1154.16 40.9782   3
   2  -2  17 14.2519 8.09710   4
  -2  -2 -17 10.8265 4.90342   6
  -2   2 -17 9.23390 8.02846   1
   2  -2  18 32.1223 10.5624   4
  -2  -2 -18 30.4661 6.84913   6
  -2   2 -18 51.4004 12.7361   1
   2   2  19 91.3327 16.6531   4
  -2  -2 -19 106.562 12.1764   6
   2  -2  19 65.1320 13.7241   4
  -2   2 -19 108.563 17.6002   1
  -2  -3  19 249.392 26.5126   4
   2  -3 -19 232.175 21.5005   6
   2   3 -19 207.010 25.1923   1
   2  -3 -19 210.180 21.3887   1
   2  -3 -18 186.563 19.0885   6
   2  -3 -18 194.643 19.9688   1
   2   3 -18 152.486 21.2759   1
  -2  -3  18 172.067 21.5946   4
  -2   3  17 302.152 21.2373   3
  -2  -3  17 302.530 27.8983   4
   2  -3 -17 303.535 23.9986   1
  -2  -3  17 293.442 20.8478   5
   2  -3 -17 298.591 23.7470   6
   2   3 -17 272.406 27.4817   1
  -2   3  16-3.67324 5.14476   3
   2  -3 -16 3.22387 5.15352   8
  -2  -3  16 3.57041 5.25735   5
   2  -3 -16-1.60328 5.35379   6
  -2  -3  16 12.9501 7.78475   4
   2   3 -16 2.31150 5.45794   1
   2  -3 -16-3.18242 4.60161   1
  -2  -3  15 1560.21 69.1219   4
   2  -3 -15 1589.94 62.6108   1
   2  -3 -15 1574.48 63.5042   6
   2  -3 -15 1586.02 64.0161   8
  -2   3  15 1523.35 58.3518   3
  -2  -3  15 1625.20 58.9299   5
   2   3 -15 1590.03 71.7655   1
   2  -3 -14 6.36505 5.74102   7
   2  -3 -14 7.41803 4.76909   3
  -2  -3  14 7.58808 5.12099   5
  -2  -3  14 7.67441 6.13548   4
   2  -3 -14 2.71222 3.69995   1
   2  -3 -14 2.95294 4.02791   6
   2   3 -14 6.29307 5.35170   1
  -2   3  14 9.00331 5.09026   3
  -2   3  14 1.55096 5.18086   5
   2  -3 -14 7.37718 5.32338   8
   2  -3 -13 629.132 34.2503   8
  -2  -3  13 606.560 30.0175   5
   2  -3 -13 665.338 35.6537   7
   2  -3 -13 643.304 34.1000   6
  -2   3  13 630.396 34.6738   5
  -2   3  13 668.202 31.5736   3
  -2  -3  13 669.046 38.2278   4
   2   3 -13 684.900 40.2626   1
   2  -3 -13 650.964 32.8188   1
   2  -3 -13 617.147 31.8183   3
  -2   3  12 191.804 15.5530   3
  -2  -3  12 168.252 18.0549   4
   2  -3 -12 234.566 18.8035   7
   2  -3 -12 216.755 17.8800   6
   2   3 -12 192.275 15.5978   5
  -2   3  12 173.022 16.9294   5
  -2  -3  12 199.427 15.1792   5
   2  -3 -12 183.196 16.9996   8
   2  -3 -12 204.976 16.2521   1
   2  -3 -12 176.789 15.2379   3
  -2  -3  11 2003.03 76.4106   4
   2   3 -11 2092.61 75.9579   4
  -2   3  11 2101.11 69.6996   3
   2  -3 -11 2131.41 70.0934   1
   2   3 -11 2099.32 70.1294   5
  -2  -3  11 1983.93 67.8513   5
   2  -3 -11 2100.21 73.4235   7
   2  -3 -11 2135.29 74.3626   8
   2  -3 -11 2080.98 70.6365   3
   2  -3 -10 120.669 10.6529   1
   2  -3 -10 123.440 12.4789   7
   2   3 -10 123.167 11.5341   5
   2   3 -10 115.374 13.0906   4
  -2   3  10 120.297 11.3245   3
  -2  -3  10 115.202 10.8237   5
   2  -3 -10 116.909 11.6165   3
  -2  -3  10 111.384 13.0865   4
   2   3  -9 208.203 16.9376   4
  -2  -3   9 196.379 16.6830   4
   2  -3  -9 227.484 16.1373   7
  -2   3   9 178.412 13.7348   3
   2  -3  -9 207.724 14.9836   3
  -2  -3   9 194.413 13.7412   5
   2   3  -9 218.915 15.2110   5
   2  -3  -9 190.854 12.9949   1
  -2   3   8 533.479 25.4045   3
  -2   3   8 587.330 23.9134   1
  -2  -3   8 529.037 28.8102   4
  -2   3   8 546.299 25.9940   2
   2  -3  -8 571.084 26.8267   7
   2  -3  -8 592.086 28.1544   6
   2   3  -8 587.733 26.4142   5
  -2  -3   8 553.619 24.7544   5
   2  -3  -8 568.141 23.7823   1
   2   3  -8 578.608 29.4455   4
  -2   3   7 586.155 23.0174   1
   2   3  -7 571.674 28.1580   4
   2  -3  -7 616.022 28.0798   6
  -2   3   7 579.305 26.1330   2
   2   3  -7 580.135 25.8540   5
  -2   3   7 580.333 25.5812   3
  -2  -3   7 564.109 24.6532   5
  -2   3   6 213.810 13.6356   3
  -2   3   6 203.115 10.6914   1
   2   3  -6 226.064 13.9890   5
  -2   3   6 211.008 13.8194   2
  -2  -3   6 201.731 12.7820   5
   2   3  -6 215.164 15.1301   4
   2  -3  -6 204.427 14.4224   6
  -2   3   5 4.22702 3.11370   3
  -2   3   5 4.31171 1.57411   1
   2  -3  -5 1.61168 2.19938   6
   2   3  -5 1.67900 3.23852   4
  -2  -3   5 1.21199 2.33875   5
  -2   3   5 2.93423 2.64769   2
   2   3  -4 537.087 23.8223   4
   2  -3  -4 572.522 24.0069   6
   2   3  -4 499.625 18.5940   8
   2   3  -4 522.270 22.3170   5
  -2   3   4 523.244 22.8700   2
  -2   3   4 486.081 16.3626   1
   2   3  -3 1445.67 45.0854   8
   2   3  -3 1474.45 48.8641   4
   2  -3  -3 1482.45 48.9755   6
  -2  -3   3 1546.76 45.0777   8
  -2   3   3 1451.26 48.7252   2
   2   3  -3 1412.14 47.3390   5
   2   3  -2 33.7763 4.93253   4
   2  -3  -2 30.7282 4.70260   6
  -2  -3   2 28.1079 3.83919   8
  -2   3   2 30.4822 4.77839   2
   2   3  -2 25.7051 3.82347   8
   2   3  -1 124.766 9.26569   8
   2   3  -1 145.353 10.0830   4
  -2  -3   1 146.991 9.69053   8
   2  -3  -1 142.403 9.76341   6
   2   3   0 12.3062 3.54022   4
  -2   3   0 12.2156 3.16993   6
  -2   3   0 11.3237 2.02072   1
  -2  -3   0 14.6281 3.50169   6
   2  -3   0 11.0356 2.72835   6
  -2  -3   0 13.9287 3.57102   8
   2   3   0 8.76110 2.77215   8
   2  -3   1 5989.70 161.892   6
  -2  -3  -1 6113.67 165.435   8
  -2   3  -1 6102.88 162.205   4
  -2   3  -1 5912.88 161.519   6
  -2   3  -1 5826.86 159.522   1
  -2  -3  -2 7.70599 3.06552   8
   2  -3   2 5.40432 2.01351   6
  -2   3  -2 3.84702 2.05591   4
   2   3   2 6.40909 2.76600   6
  -2   3  -2 4.66492 2.06480   6
  -2   3  -2 4.62748 1.98681   1
  -2   3  -3 63.3945 5.70211   6
  -2   3  -3 57.5985 6.31134   4
  -2  -3  -3 64.5499 5.61698   2
   2  -3   3 69.6605 5.96408   6
  -2   3  -3 67.4283 3.61541   5
   2  -3   3 64.6900 6.34836   4
   2   3   3 55.6761 6.50579   6
  -2   3  -3 58.7687 6.26775   1
  -2  -3  -3 52.7556 6.99024   8
  -2  -3  -4 248.432 16.4012   8
   2   3   4 295.682 15.5833   6
   2  -3   4 285.625 13.1852   6
   2  -3   4 240.327 13.9577   4
  -2   3  -4 263.180 15.0695   4
  -2   3  -4 247.939 12.3320   6
  -2  -3  -4 262.356 10.5011   3
  -2  -3  -4 241.581 12.0012   2
  -2   3  -4 260.614 15.4055   1
  -2   3  -5 352.908 18.6301   4
  -2   3  -5 353.262 16.1405   7
  -2  -3  -5 355.706 18.5620   6
  -2   3  -5 345.586 15.2529   6
  -2   3  -5 367.488 19.9634   1
  -2  -3  -5 370.954 12.9961   3
   2   3   5 371.040 18.3349   6
   2  -3   5 331.998 17.7095   4
  -2  -3  -5 364.836 20.7753   8
  -2   3  -6 10.0051 3.08816   7
  -2  -3  -6 18.4900 4.27671   6
  -2   3  -6 7.54530 3.71550   4
   2   3   6 6.36905 3.14039   6
  -2   3  -6 10.5599 2.82929   6
  -2  -3  -6 6.23463 3.62391   8
   2  -3   6 11.2809 3.73711   4
  -2   3  -6 17.5878 4.42797   1
  -2  -3  -6 16.9460 2.33590   3
   2   3   7 7840.29 219.565   7
  -2   3  -7 7772.23 207.584   6
   2   3   7 7780.74 213.421   6
   2  -3   7 7651.01 215.950   4
  -2  -3  -7 8074.38 214.431   6
  -2   3  -7 7996.30 213.232   7
   2   3   7 7751.46 217.729   1
  -2   3  -7 7821.61 219.397   1
  -2  -3  -7 7809.25 219.330   8
  -2  -3  -7 7685.53 204.241   3
  -2   3  -7 8059.32 217.131   4
  -2   3  -8 750.939 31.4822   7
  -2  -3  -8 759.345 31.4944   6
   2   3   8 745.716 33.9733   1
   2   3   8 700.135 29.9842   6
  -2   3  -8 727.806 35.2831   1
  -2   3  -8 743.890 26.4137   6
   2   3   8 770.877 36.4050   8
   2  -3   8 710.039 32.7786   4
   2   3   8 702.053 34.8528   7
  -2   3  -8 754.629 33.7949   4
   2  -3   9 1060.31 43.6128   4
  -2   3  -9 1021.14 40.7607   7
   2   3   9 974.520 44.7291   7
  -2   3  -9 1080.90 46.1275   1
  -2   3  -9 1022.50 34.6686   6
  -2  -3  -9 1044.99 39.9806   6
   2   3   9 988.833 44.8223   8
   2   3   9 1041.55 35.0438   2
  -2   3  -9 1119.23 44.7526   4
   2   3   9 1058.21 43.6762   1
  -2   3 -10 69.8095 9.21757   7
   2   3  10 68.7863 6.61727   2
  -2  -3 -10 61.6376 9.77387   8
  -2   3 -10 79.8754 10.9927   4
  -2  -3 -10 77.6305 8.96349   6
  -2   3 -10 75.2067 11.0479   1
  -2   3 -10 70.2225 6.61549   6
   2  -3  10 61.9814 9.70685   4
   2  -3  10 67.2925 6.72720   8
   2  -3  10 58.4393 3.84581   5
   2   3  10 72.2597 10.7703   7
   2   3  10 73.7813 10.0098   1
   2   3  11 694.804 26.1576   2
  -2   3 -11 597.074 35.2394   1
  -2  -3 -11 671.095 30.4850   6
  -2   3 -11 659.262 32.4459   7
   2  -3  11 657.130 21.5105   5
  -2   3 -11 655.623 25.4688   6
   2  -3  11 684.569 26.2175   8
   2   3  11 634.768 22.9309   3
   2  -3  11 606.167 33.4850   4
   2   3  11 682.919 34.3438   1
  -2  -3 -11 708.661 35.5303   8
   2   3  12 16.3760 3.39227   3
   2  -3  12 17.9925 6.14856   4
  -2   3 -12 22.7769 6.35415   7
   2  -3  12 19.0510 4.21304   8
  -2   3 -12 13.2392 3.69638   6
   2   3  12 19.0402 4.21070   2
   2   3  12 9.96162 5.15254   1
  -2  -3 -12 22.1960 5.43364   6
  -2  -3 -12 22.9663 6.79349   8
   2  -3  12 19.4209 3.26489   5
   2   3  13 883.468 43.2857   1
   2  -3  13 940.292 33.1731   8
   2  -3  13 931.985 45.2675   4
   2  -3  13 925.842 30.4084   5
   2   3  13 833.653 30.3555   3
   2   3  13 882.640 33.3772   2
  -2  -3 -13 975.294 39.4379   6
  -2  -3 -13 931.825 43.7410   8
  -2   3 -13 870.715 41.5837   7
  -2   3 -13 860.317 32.6472   6
   2  -3  14 373.601 27.7569   4
  -2   3 -14 322.553 24.1511   7
   2   3  14 346.592 16.3691   3
  -2  -3 -14 401.677 23.2785   6
   2  -3  14 384.775 18.2220   8
  -2  -3 -14 352.309 25.6312   8
   2   3  14 356.884 18.6589   2
   2  -3  14 392.776 16.9114   5
   2   3  14 363.611 26.5845   1
   2   3  15 1128.10 38.8841   3
   2   3  15 1221.55 42.4004   2
   2  -3  15 1182.28 40.2318   8
  -2   3 -15 1136.04 51.9067   7
   2  -3  15 1200.70 39.3909   5
   2  -3  15 1107.09 54.7102   4
  -2  -3 -15 1171.85 47.4147   6
   2  -3  16 11.8626 6.87686   4
   2   3  16 9.35936 3.91584   2
  -2  -3 -16 12.0428 5.81058   6
  -2  -3 -17 57.4586 9.39968   6
  -2   3 -17 72.0069 7.95862   6
   2  -3  17 64.7357 12.9982   4
   2  -3  18 32.8702 11.0129   4
  -2  -3 -18 37.3350 7.60213   6
  -2   3 -18 34.5851 6.17451   6
  -2  -4  18 59.4659 13.8538   4
   2  -4 -18 76.9159 12.8341   6
   2   4 -18 54.2771 13.1816   1
  -2   4  17 15.2289 7.24288   3
   2   4 -17 5.19485 7.92280   1
  -2  -4  17 4.54501 7.27091   4
   2  -4 -17 19.4218 7.80461   6
  -2   4  16 46.7871 8.81836   3
  -2  -4  16 51.9236 11.4968   4
   2  -4 -16 62.9204 11.6643   6
   2   4 -16 72.4731 14.3113   1
  -2  -4  16 41.8317 8.11416   5
  -2  -4  15 49.2474 11.0886   4
   2   4 -15 62.1943 13.5074   1
   2  -4 -15 42.5493 8.69464   3
   2  -4 -15 47.4164 9.67375   6
  -2   4  15 52.3664 9.05292   3
  -2   4  15 51.9350 9.69994   2
  -2  -4  15 54.6602 8.64901   5
  -2   4  14 108.976 12.1871   3
   2  -4 -14 114.307 14.0361   6
  -2   4  14 108.806 12.7268   2
  -2  -4  14 125.979 16.3159   4
   2  -4 -14 109.978 12.4776   3
  -2  -4  14 99.6863 10.7951   5
   2   4 -14 115.231 17.5147   1
   2  -4 -14 114.045 14.4044   7
   2  -4 -13 34.6306 7.72239   3
  -2  -4  13 39.6438 7.25850   5
   2  -4 -13 42.2957 8.74456   7
   2  -4 -13 37.3881 8.48639   6
  -2  -4  13 60.1625 11.3130   4
   2  -4 -13 46.1846 9.89872   8
   2   4 -13 62.6988 9.16840   5
  -2   4  13 52.9003 9.05245   2
  -2   4  13 49.5919 8.70863   3
  -2  -4  12 710.772 39.8762   4
   2  -4 -12 719.889 37.1909   7
   2  -4 -12 809.915 40.6946   8
  -2   4  12 768.833 34.5960   3
   2   4 -12 734.706 39.6733   4
  -2  -4  12 789.745 33.0613   5
  -2   4  12 792.820 35.9513   2
   2  -4 -12 787.290 36.1042   3
   2   4 -12 732.352 34.1710   5
   2  -4 -11 1.45109 4.19643   8
  -2   4  11-2.22026 4.00409   2
  -2  -4  11 0.86157 3.98312   5
   2  -4 -11-1.13142 3.93243   3
   2   4 -11 3.04789 6.23259   4
  -2  -4  11-1.58253 5.28454   4
   2   4 -11 6.16451 4.42923   5
   2  -4 -11 3.72902 4.94041   7
  -2   4  11 1.01522 4.03506   3
  -2  -4  10 46.2149 7.03787   5
  -2   4  10 35.1693 6.58554   3
  -2   4  10 40.9715 6.33321   1
   2   4 -10 24.1147 7.16133   4
   2  -4 -10 35.5345 6.94325   3
   2  -4 -10 44.2143 7.77925   7
  -2  -4  10 23.5723 6.86950   4
   2   4 -10 30.2651 6.37629   5
  -2   4  10 37.3044 7.10036   2
  -2   4   9 49.0957 7.63038   3
  -2  -4   9 40.8379 6.72295   5
   2  -4  -9 40.9569 7.45817   3
  -2  -4   9 34.2885 7.55008   4
   2  -4  -9 35.1597 7.55446   6
   2  -4  -9 35.8092 6.83993   7
  -2   4   9 40.8467 6.07101   1
   2   4  -9 46.0761 7.29032   5
   2   4  -9 42.0342 8.36733   4
  -2   4   9 40.9335 7.71066   2
   2  -4  -8 2797.04 85.8018   7
  -2   4   8 2726.43 85.7588   3
   2  -4  -8 2899.28 89.9453   6
   2  -4  -8 2787.88 86.6881   3
  -2  -4   8 2611.46 89.8932   4
  -2   4   8 2652.31 86.4350   2
   2   4  -8 2706.49 84.9386   5
   2   4  -8 2939.17 91.2873   4
  -2  -4   8 2594.60 82.3157   5
  -2   4   8 2794.35 80.9462   1
   2  -4  -7 245.252 17.4184   6
  -2   4   7 243.801 12.8409   1
   2   4  -7 234.264 15.5281   5
   2   4  -7 243.163 16.8911   6
   2  -4  -7 234.136 15.2113   7
  -2   4   7 274.565 17.1501   2
  -2  -4   7 271.289 18.6803   4
   2   4  -7 273.013 18.9173   4
   2  -4  -7 261.686 16.5650   3
   2   4  -6 238.855 16.3721   6
   2  -4  -6 226.482 16.3376   6
   2   4  -6 262.494 17.9621   4
   2  -4  -6 265.785 14.9326   7
  -2   4   6 263.877 16.7724   2
   2   4  -6 228.355 15.1899   5
  -2   4   6 262.153 12.1451   1
  -2  -4   6 242.494 17.2003   4
   2   4  -5 138.777 12.3734   4
  -2   4   5 138.155 7.63210   1
   2   4  -5 124.004 10.5592   5
   2  -4  -5 129.529 9.29805   7
  -2   4   5 147.175 11.7995   2
   2  -4  -5 130.228 11.6637   6
   2   4  -4 1.81565 3.15619   4
   2  -4  -4 9.81728 2.50940   7
   2  -4  -4 3.58816 2.73553   6
  -2   4   4 1.35135 1.13821   1
  -2  -4   4 4.76198 2.10497   8
  -2   4   4 1.68454 2.29772   2
   2   4  -4 3.61208 2.51201   5
   2  -4  -3 316.620 18.3867   6
   2  -4  -3 314.744 12.8388   7
   2   4  -3 331.025 18.7313   4
   2   4  -3 310.792 17.0959   5
  -2  -4   3 330.369 15.7647   8
   2   4  -2 8684.43 232.155   4
   2   4  -2 8494.04 230.384   5
   2  -4  -2 8358.84 231.712   6
  -2  -4   2 8478.68 228.729   8
  -2  -4   1 229.022 14.1798   8
   2   4  -1 230.589 14.8049   4
   2  -4  -1 240.185 14.9316   6
  -2  -4   0 635.273 28.4341   6
   2   4   0 622.844 26.9269   4
   2  -4   0 609.411 26.4139   6
  -2  -4   0 593.975 26.5412   8
  -2  -4  -1 74.8701 8.36093   8
  -2  -4  -1 82.4568 8.82948   6
   2  -4   1 60.6100 7.01033   6
  -2   4  -1 78.2699 8.04764   4
  -2   4  -1 67.6055 7.19246   6
  -2   4  -2 201.086 13.2990   4
   2  -4   2 201.438 12.8842   6
  -2   4  -2 206.403 12.7407   6
  -2  -4  -2 206.622 14.7192   8
  -2  -4  -3 43.1819 5.56523   2
  -2   4  -3 32.6907 5.59591   4
   2   4   3 30.7118 5.51042   6
  -2  -4  -3 39.4316 6.78712   8
  -2   4  -3 38.6940 5.45020   6
   2  -4   3 41.2777 5.57895   6
  -2   4  -3 37.1825 5.58869   1
   2   4   4 2269.01 72.7051   6
  -2   4  -4 2389.82 73.1023   4
  -2  -4  -4 2175.46 68.5686   2
   2  -4   4 2335.92 70.0590   6
  -2   4  -4 2375.14 69.5736   6
  -2   4  -4 2273.50 61.5160   5
  -2  -4  -4 2418.85 76.7394   8
  -2  -4  -4 2212.21 65.6419   3
  -2   4  -4 2336.66 73.1646   1
  -2  -4  -5 7.11758 2.62896   2
  -2  -4  -5 8.21852 2.21027   3
  -2  -4  -5 12.3011 4.82569   8
  -2   4  -5 8.59218 3.08163   6
  -2   4  -5 4.56920 3.53021   4
   2  -4   5 7.58843 3.54934   4
  -2   4  -5 18.4710 4.69057   1
  -2  -4  -5 6.61213 3.41377   6
   2   4   5 10.2462 3.59419   6
  -2  -4  -6 2764.51 89.9432   8
   2   4   6 2687.09 86.5518   1
  -2   4  -6 2767.11 88.2167   1
  -2   4  -6 2712.09 86.2600   4
   2  -4   6 2631.44 84.7633   4
  -2  -4  -6 2714.55 76.1498   3
  -2   4  -6 2707.32 79.3708   7
  -2  -4  -6 2779.98 86.3479   6
   2   4   6 2705.42 84.5623   6
  -2   4  -6 2752.54 80.3338   6
  -2   4  -7 346.648 17.6266   7
  -2  -4  -7 346.961 20.6268   6
   2  -4   7 315.010 19.7196   4
  -2   4  -7 338.663 16.7999   6
   2   4   7 323.806 19.5010   6
   2   4   7 344.318 22.0996   7
   2   4   7 308.599 20.3344   1
  -2   4  -7 350.166 21.2671   4
  -2  -4  -7 328.781 22.1064   8
  -2  -4  -7 345.831 14.4825   3
  -2   4  -7 327.108 21.7372   1
  -2  -4  -8 99.5447 10.8519   6
  -2  -4  -8 126.807 7.75902   3
  -2   4  -8 107.553 8.67861   6
  -2   4  -8 104.979 9.73142   7
   2  -4   8 97.9178 11.2050   4
   2   4   8 112.888 11.2147   6
   2   4   8 102.764 11.5461   1
  -2   4  -8 126.526 12.8061   4
  -2  -4  -8 111.242 12.9448   8
  -2   4  -8 105.881 12.4894   1
   2   4   8 97.8282 11.9438   7
  -2   4  -9 0.89923 2.74117   7
  -2  -4  -9 1.06929 2.91546   6
  -2   4  -9 1.89000 2.42923   6
   2   4   9 4.89551 3.91289   1
  -2  -4  -9 1.21224 2.06120   3
  -2   4  -9-1.25872 3.64011   4
  -2   4  -9-2.88809 3.40974   1
   2  -4   9-4.81031 4.33751   4
   2   4   9 1.41270 3.60299   7
  -2   4 -10 4.09988 5.10229   4
   2  -4  10 6.59531 5.24274   4
   2   4  10-1.53377 4.18194   7
  -2  -4 -10 6.63320 3.98760   6
  -2   4 -10 3.13785 4.27780   1
   2   4  10 5.15992 4.48360   1
  -2   4 -10-1.00840 3.50495   7
  -2  -4 -11 3.43453 4.27437   6
   2  -4  11-4.26373 6.12708   4
  -2  -4 -11 3.07009 4.67948   8
  -2   4 -11-6.78237 5.16886   1
  -2   4 -11 1.11430 4.55738   7
  -2   4 -11-2.93450 4.89971   4
   2  -4  11-0.51663 3.26597   8
   2   4  11 1.37998 3.99095   1
  -2   4 -12 1256.04 57.9452   1
   2  -4  12 1198.89 53.6867   4
  -2   4 -12 1254.64 50.5881   7
  -2  -4 -12 1308.90 50.6947   6
   2   4  12 1282.21 53.6751   1
   2  -4  12 1240.65 40.7910   8
  -2   4 -12 1336.72 55.7825   4
  -2  -4 -12 1282.69 55.7341   8
   2  -4  13 49.3438 9.95990   4
   2  -4  13 37.8245 4.74912   8
   2   4  13 38.5569 8.73541   1
  -2   4 -13 56.6511 11.5048   1
  -2  -4 -13 38.2258 8.04604   6
   2   4  13 45.4739 6.60666   2
  -2   4 -13 46.1003 8.49063   7
  -2   4 -14 131.882 14.6075   7
  -2   4 -14 122.516 16.7977   1
  -2  -4 -14 122.498 13.4411   6
   2  -4  14 120.108 8.00894   8
   2   4  14 112.338 10.3623   2
   2  -4  14 145.812 17.1350   4
  -2   4 -15 41.8733 11.5154   1
   2  -4  15 50.5157 10.9004   4
  -2   4 -15 43.9605 6.66528   6
  -2  -4 -15 58.1284 9.53512   6
   2   4  15 55.4410 7.51747   2
  -2   4 -15 63.8210 10.8436   7
  -2   4 -16 102.843 16.5910   1
  -2  -4 -16 109.182 12.8623   6
   2  -4  16 112.675 15.9096   4
  -2   4 -16 86.0989 9.06862   6
  -2  -4 -17 16.8689 6.21538   6
   2  -4  17 4.16080 6.34721   4
  -2   4 -17 11.0451 3.81168   6
  -2   4 -17 7.44839 6.77448   1
  -2  -5  17 982.736 54.5799   4
   2  -5 -17 1013.21 51.0567   6
   2   5 -17 1052.66 61.1054   1
  -2   5  16 7.57350 5.70736   3
   2  -5 -16 1.82932 5.29045   6
  -2  -5  16-2.24595 6.49525   4
   2  -5 -16 2.81053 5.74741   3
  -2  -5  15 866.978 49.1216   4
   2  -5 -15 912.200 46.4442   6
  -2   5  15 946.584 41.7250   3
   2  -5 -15 876.104 41.7815   3
   2  -5 -14 12.1450 6.87421   7
  -2  -5  14 11.1334 5.07299   5
   2  -5 -14 15.3143 6.14871   6
   2   5 -14 9.12046 4.67753   5
   2  -5 -14 21.3506 6.81686   3
  -2  -5  14 20.3326 7.84884   4
  -2   5  14 23.8281 6.90095   3
   2   5 -13 480.384 28.7532   6
  -2  -5  13 457.931 24.1058   5
  -2   5  13 455.797 26.6096   3
   2  -5 -13 497.346 29.5763   7
  -2  -5  13 556.511 35.3500   4
   2  -5 -13 481.926 30.6980   6
   2   5 -13 570.644 28.3338   5
  -2   5  13 458.084 27.5507   2
   2  -5 -13 542.003 29.3368   3
   2   5 -12 14.5372 6.24591   6
   2   5 -12 8.65531 4.55276   5
  -2   5  12 12.4879 5.90252   2
  -2  -5  12 10.4104 4.73716   5
   2  -5 -12 6.26600 5.13126   3
  -2  -5  12 10.7156 6.89073   4
   2  -5 -12 10.4693 5.92217   7
  -2   5  12 7.80617 4.51780   1
   2   5 -11 1419.75 56.6176   6
   2   5 -11 1453.98 53.9504   5
   2  -5 -11 1488.53 56.2258   7
  -2  -5  11 1476.26 62.2011   4
  -2   5  11 1485.67 56.4552   2
   2  -5 -11 1465.20 55.9942   3
   2   5 -10 27.1581 6.27063   5
  -2  -5  10 31.0634 8.24762   4
   2   5 -10 29.6660 7.30113   6
   2  -5 -10 39.3829 7.78582   3
   2   5 -10 37.9527 9.06386   4
  -2   5  10 33.8226 7.59301   2
   2  -5 -10 42.6093 7.49893   7
  -2   5  10 37.4160 6.20198   1
   2   5  -9 632.569 33.8922   4
  -2  -5   9 589.866 32.9325   4
   2  -5  -9 639.120 33.0784   6
   2  -5  -9 621.686 29.0826   7
  -2   5   9 568.799 29.9088   2
   2   5  -9 608.255 28.9271   5
   2  -5  -9 592.981 29.6145   3
   2   5  -9 538.504 29.7978   6
  -2   5   9 637.831 26.0601   1
   2  -5  -8-1.03796 3.16431   3
   2  -5  -8-2.59491 4.14831   6
   2  -5  -8-0.87132 3.02868   7
  -2  -5   8-1.36202 3.71379   4
   2   5  -8-2.81345 4.24044   5
   2   5  -8-1.15431 3.85479   6
  -2   5   8-0.60659 2.26504   1
  -2   5   8 4.40794 4.11438   2
   2   5  -8-1.34559 4.30220   4
  -2   5   7 396.940 17.4195   1
  -2  -5   7 377.882 24.2390   4
   2  -5  -7 383.285 23.9012   6
  -2   5   7 379.371 22.3849   2
   2  -5  -7 423.808 22.8560   3
   2   5  -7 386.735 24.5585   4
   2  -5  -7 405.739 20.0599   7
   2   5  -7 350.985 20.5403   5
   2   5  -7 378.088 22.7758   6
   2  -5  -6 16.6617 3.82179   7
   2  -5  -6 9.03181 4.00173   3
  -2   5   6 10.7414 2.71371   1
   2  -5  -6 15.5042 5.40207   6
   2   5  -6 16.3435 5.36530   6
  -2  -5   6 15.7750 5.49609   4
   2   5  -6 12.1474 4.27713   5
   2   5  -6 10.9686 5.26390   4
  -2  -5   5 5.86037 2.41602   8
   2   5  -5 4.52251 4.49757   4
   2  -5  -5 10.3168 4.42395   6
  -2   5   5 5.56167 2.20775   1
   2   5  -5 7.59863 3.55245   5
   2   5  -4 608.409 29.8646   4
   2   5  -4 594.902 27.0416   5
   2  -5  -4 535.871 27.2528   3
  -2   5   4 541.190 20.3880   1
  -2  -5   4 646.579 24.9327   8
   2  -5  -4 655.874 30.3040   6
   2  -5  -3 43.7926 7.05958   3
   2   5  -3 60.5977 7.77605   5
   2  -5  -3 61.9530 8.46422   6
  -2  -5   3 59.9425 7.03340   8
   2   5  -3 51.2553 7.99956   4
   2   5  -2-0.87263 2.66007   5
   2  -5  -2 1.01318 2.18391   6
  -2  -5   2-3.20305 2.67396   8
   2   5  -2 2.00190 2.89464   6
  -2   5   2-0.94995 2.74714   6
   2   5  -2 0.99101 3.02090   4
   2  -5  -2 8.27121 3.45247   2
  -2  -5   1 402.494 20.7741   8
   2   5  -1 382.392 21.6349   4
   2  -5  -1 335.144 20.1616   6
  -2  -5   1 346.802 21.6632   6
   2   5  -1 334.900 20.2295   6
   2  -5  -1 346.992 20.7967   2
  -2   5   1 360.975 20.1137   6
  -2  -5   0 17.8561 4.80985   8
  -2   5   0 16.6751 4.65048   6
   2   5   0 19.2191 5.94443   4
   2   5   0 7.97064 4.41880   6
   2  -5   0 20.4129 5.12744   2
  -2   5   0 15.1623 5.02865   4
  -2  -5   0 15.6175 5.17213   6
   2  -5   0 14.1535 4.28436   6
  -2   5  -1 2946.12 90.7174   6
  -2  -5  -1 3079.85 94.0357   8
  -2   5  -1 3001.51 92.1233   4
   2  -5   1 3054.14 92.2277   6
  -2  -5  -1 3017.15 95.4739   6
   2   5   1 2934.39 92.8098   6
   2  -5   1 2838.96 92.9502   2
  -2   5  -2 93.1508 9.18698   6
   2  -5   2 90.4358 9.49129   6
  -2   5  -2 62.9011 8.49482   4
   2   5   2 71.6681 9.08099   6
  -2  -5  -2 88.6221 10.3069   8
  -2  -5  -2 81.7523 10.2760   6
  -2  -5  -3 263.089 18.4943   8
   2   5   3 228.366 16.3818   6
  -2   5  -3 217.439 15.8477   4
   2  -5   3 219.033 15.1863   6
   2   5   4 326.813 20.0138   6
  -2  -5  -4 322.016 21.5915   8
   2  -5   4 340.254 19.1359   6
  -2   5  -4 329.905 20.2279   4
  -2   5  -4 295.287 12.5946   5
  -2   5  -4 316.395 19.4342   1
  -2   5  -5 1019.18 41.2200   1
  -2  -5  -5 988.992 43.1339   8
  -2   5  -5 1011.73 41.1092   4
   2   5   5 992.857 40.2285   6
  -2  -5  -5 926.658 33.3946   3
  -2   5  -5 958.723 28.7221   5
   2   5   6 114.078 12.1410   7
  -2  -5  -6 131.708 13.8507   8
  -2  -5  -6 129.642 13.0968   6
  -2  -5  -6 118.310 8.69576   3
   2   5   6 107.213 11.4932   6
  -2   5  -6 95.9117 11.6737   1
  -2   5  -6 130.750 13.0946   4
  -2  -5  -7 5198.57 150.491   8
   2  -5   7 4548.48 143.731   4
   2   5   7 4823.67 144.865   1
  -2   5  -7 5145.58 146.831   4
   2   5   7 4916.54 146.896   7
  -2   5  -7 4726.37 135.032   7
  -2  -5  -7 4874.70 133.749   3
   2   5   7 4947.16 144.139   6
  -2  -5  -7 5018.42 146.245   6
  -2   5  -7 4816.64 147.547   1
   2   5   8 35.8099 7.56190   1
  -2  -5  -8 35.4247 8.68404   8
  -2   5  -8 20.0757 6.52259   1
   2   5   8 30.0748 7.48840   7
  -2   5  -8 20.3071 6.95747   4
  -2  -5  -8 30.7491 7.14942   6
   2   5   8 37.0487 7.60902   6
   2  -5   8 26.6100 6.63401   4
  -2   5  -8 33.0577 5.67281   7
  -2  -5  -8 23.3351 4.12299   3
   2   5   9 556.518 30.6974   1
   2   5   9 523.139 31.3073   7
  -2   5  -9 539.122 25.3816   7
  -2   5  -9 642.389 33.0110   4
   2   5   9 560.685 29.2070   6
  -2  -5  -9 587.301 33.6700   8
   2  -5   9 629.189 32.0737   4
  -2   5  -9 586.552 33.4937   1
  -2  -5  -9 512.808 21.7437   3
  -2  -5  -9 549.603 29.9226   6
  -2   5  -9 530.196 24.7999   6
  -2   5 -10 38.3606 8.93089   4
  -2  -5 -10 26.1095 7.06866   6
   2   5  10 39.4132 8.54165   1
   2   5  10 22.1830 7.22479   7
  -2   5 -10 45.0375 6.39542   6
   2  -5  10 29.0399 7.82873   4
  -2  -5 -10 43.7967 5.19837   3
  -2  -5 -10 59.9764 10.6390   8
  -2   5 -10 27.2644 6.15083   7
  -2   5 -10 48.7253 10.0277   1
  -2   5 -11 269.498 21.6934   4
  -2   5 -11 203.079 15.8517   7
  -2  -5 -11 231.838 18.8720   6
   2  -5  11 235.825 19.8022   4
  -2   5 -11 250.581 22.3249   1
   2   5  11 223.055 19.1326   1
  -2   5 -11 192.694 13.6976   6
   2  -5  11 207.226 11.5745   8
  -2  -5 -11 212.309 11.7577   3
   2  -5  12 36.6437 4.60712   8
  -2  -5 -12 55.5121 9.70102   6
  -2   5 -12 44.9374 8.07454   7
  -2   5 -12 35.2747 6.40785   6
   2  -5  12 42.9193 9.50106   4
  -2   5 -12 36.6655 9.54029   1
   2   5  12 44.8724 9.17620   1
  -2   5 -13 1390.65 48.6572   6
   2  -5  13 1467.52 61.4167   4
  -2   5 -13 1454.65 55.3313   7
  -2   5 -13 1483.52 65.6859   1
  -2  -5 -13 1570.75 59.1959   6
   2  -5  13 1311.95 40.4925   8
  -2   5 -14 1.35870 5.07261   7
  -2   5 -14 2.18830 6.67066   1
  -2   5 -14 1.64946 3.46543   6
   2  -5  14 1.82127 6.08174   4
  -2  -5 -14-1.46851 5.48257   6
  -2   5 -15 391.173 25.7119   7
   2  -5  15 389.042 29.4751   4
  -2   5 -15 314.116 18.6712   6
  -2   5 -15 399.344 31.9410   1
  -2  -5 -15 327.353 24.3149   6
   2  -5  16 38.7276 10.6167   4
  -2   5 -16 24.2936 9.40760   1
  -2   5 -16 33.6072 6.43629   6
  -2  -5 -16 40.2641 8.61960   6
   2  -6 -16 18.7950 6.69300   3
  -2  -6  16 9.12129 7.62269   4
   2  -6 -16 11.9790 7.46201   6
   2  -6 -15 163.000 16.1628   3
   2   6 -15 149.817 21.5168   1
   2  -6 -15 166.482 18.6845   6
  -2  -6  15 122.073 17.9974   4
   2  -6 -14 61.7421 10.1209   3
   2   6 -14 79.7302 15.7375   1
   2  -6 -14 67.4119 12.4474   6
   2   6 -14 50.3109 8.85769   5
  -2  -6  14 29.0173 9.46683   4
   2  -6 -13 8.18092 4.92071   3
  -2  -6  13 5.91606 6.01369   4
   2   6 -13 5.54256 4.66078   5
  -2   6  12 508.609 25.3096   1
   2   6 -12 451.964 25.6373   5
   2  -6 -12 525.931 29.3456   3
  -2  -6  12 422.890 31.2966   4
   2  -6 -11 10.3669 5.45111   3
  -2  -6  11 8.87940 6.17769   4
   2   6 -11 10.8093 5.21627   5
   2  -6 -10 128.146 15.3319   6
  -2  -6  10 133.431 16.3417   4
   2   6 -10 120.419 13.8271   6
   2   6 -10 163.980 14.0018   5
   2  -6 -10 146.541 14.3541   3
   2  -6  -9 73.5195 11.7700   6
   2   6  -9 48.9398 9.48159   6
   2  -6  -9 54.4649 9.03193   3
  -2   6   9 67.8375 7.51221   1
  -2  -6   9 46.4552 9.99380   4
   2   6  -9 50.8264 8.37245   5
   2   6  -8 4640.86 139.961   4
   2  -6  -8 4609.88 141.241   8
   2   6  -8 4170.01 134.030   6
  -2  -6   8 4124.99 137.373   4
   2  -6  -8 4661.60 139.727   6
  -2   6   8 4394.76 123.740   1
   2   6  -8 4573.34 131.121   5
   2  -6  -8 4247.73 132.274   3
   2   6  -7 254.147 19.5712   6
   2  -6  -7 260.046 20.7533   6
  -2   6   7 242.691 13.3732   1
   2   6  -7 312.388 22.8761   4
   2  -6  -7 274.547 19.0983   3
   2   6  -7 244.939 17.4608   5
   2   6  -6 590.353 32.1869   4
   2   6  -6 569.919 30.2932   6
  -2   6   6 527.043 21.5922   1
   2  -6  -6 560.380 29.0100   3
   2   6  -6 554.101 27.4250   5
  -2  -6   6 596.323 23.3730   8
   2  -6  -6 554.368 30.9761   6
   2   6  -5 9.13027 5.19154   4
   2  -6  -5 9.36128 4.65637   6
  -2   6   5 11.9155 2.88272   1
   2   6  -5 15.7686 5.49138   6
  -2  -6   5 8.14119 3.28176   8
   2  -6  -5 9.16888 4.82379   3
   2   6  -5 15.4102 4.83228   5
  -2  -6   4 696.260 28.7150   8
  -2   6   4 636.172 23.9932   1
   2   6  -4 724.562 35.0635   4
   2  -6  -4 723.780 34.9568   6
   2  -6  -4 688.332 32.9631   3
   2   6  -4 691.875 31.3824   5
  -2   6   3 392.861 23.7522   6
   2   6  -3 387.453 24.5004   4
   2  -6  -3 376.288 24.1497   6
   2  -6  -3 407.381 24.1331   3
  -2  -6   3 393.668 21.1549   8
   2   6  -3 398.841 22.7289   5
  -2  -6   2 10145.4 276.688   8
   2   6  -2 10412.1 281.554   4
   2  -6  -2 10037.6 281.082   6
  -2   6   2 10071.4 279.588   6
   2  -6  -2 9774.67 279.704   3
   2   6  -2 10507.1 278.755   5
  -2  -6   1 448.038 24.2696   8
   2   6  -1 442.365 25.4665   6
   2   6  -1 446.548 25.7468   4
   2  -6  -1 447.522 25.9266   2
   2  -6  -1 437.528 25.4431   6
  -2   6   1 450.239 24.9915   6
   2  -6   0 23.1795 6.45326   6
  -2  -6   0 28.0158 7.30602   6
   2   6   0 47.8811 8.14589   6
  -2   6   0 26.2707 6.19844   6
   2   6   0 35.6936 7.79865   4
  -2   6   0 14.0739 6.29785   4
  -2  -6   0 20.8466 5.83219   8
   2  -6   0 29.0089 6.52228   2
   2   6   1 3.50001 3.18096   6
  -2  -6  -1-5.84237 4.36242   8
   2  -6   1 1.22846 3.13311   2
   2  -6   1 3.40508 3.45996   6
  -2  -6  -1-4.01312 3.41173   6
  -2   6  -1 4.33619 4.55500   4
  -2   6  -1-1.02894 3.28966   6
   2   6   1 1.15125 3.68071   4
  -2  -6  -2 702.940 35.1036   6
   2   6   2 703.207 33.5652   6
  -2   6  -2 681.116 31.4073   6
  -2  -6  -2 687.842 34.1033   8
   2  -6   2 620.002 32.7489   2
   2  -6   2 721.348 33.1885   6
  -2   6  -2 695.233 33.1212   4
   2  -6   3 229.227 17.2131   6
   2   6   3 242.323 18.1694   6
  -2   6  -3 223.624 16.2148   6
  -2  -6  -3 227.785 16.2960   2
  -2  -6  -3 265.382 20.3697   8
  -2   6  -3 257.680 18.8069   4
  -2  -6  -4 1584.67 59.3074   8
  -2   6  -4 1446.22 53.8503   1
  -2   6  -4 1439.32 55.5128   4
  -2   6  -4 1405.01 44.2878   5
   2  -6   4 1502.86 54.3629   6
   2   6   4 1439.99 55.0198   6
  -2   6  -4 1428.42 52.1390   6
  -2  -6  -4 1391.82 51.4518   2
  -2   6  -5 2.43233 3.88900   1
  -2  -6  -5 2.88203 3.92972   8
  -2   6  -5 3.84126 3.70367   6
   2   6   5 3.61512 3.85344   6
  -2   6  -5 14.8048 5.82676   4
   2   6   5 6.72734 4.32399   7
  -2  -6  -5-0.96081 3.07281   2
  -2   6  -5 2.46860 2.09706   5
  -2  -6  -6 55.6357 10.0466   8
  -2  -6  -6 53.1496 8.96406   6
  -2  -6  -6 55.9528 7.87316   2
   2   6   6 67.3689 9.48789   7
  -2   6  -6 70.7305 8.81715   6
  -2   6  -6 47.5171 8.93835   4
  -2   6  -6 56.9860 4.48386   5
  -2   6  -6 41.4008 8.47328   1
  -2   6  -7 27.5122 7.29253   1
   2   6   7 35.2070 7.21079   1
  -2   6  -7 30.1278 7.73470   4
  -2  -6  -7 36.0645 8.03409   8
  -2  -6  -7 17.0747 6.02668   6
   2   6   7 30.0668 7.08242   6
  -2   6  -7 35.8846 6.60797   6
   2   6   7 31.8608 7.71557   7
  -2   6  -8 1.43619 4.38018   4
   2   6   8 5.62907 4.70131   7
  -2  -6  -8 10.1099 5.02170   6
  -2   6  -8 5.62764 3.50450   6
  -2   6  -8 12.4411 5.80763   1
   2   6   8 3.86483 4.30416   6
   2   6   8 3.91665 3.77809   1
   2   6   9 11.7387 6.67213   6
  -2   6  -9 29.0657 5.87912   6
  -2  -6  -9 14.7242 6.20741   6
  -2   6  -9 13.3677 6.46274   1
   2  -6   9 25.7908 7.19461   4
  -2   6  -9 14.9569 6.46763   4
   2   6   9 22.7873 7.04119   7
   2   6   9 24.7695 6.91113   1
  -2  -6  -9 20.5045 4.56697   3
  -2   6 -10 639.446 29.0186   6
  -2  -6 -10 657.019 35.1091   6
  -2   6 -10 566.672 27.0467   7
  -2   6 -10 667.219 38.0612   1
   2   6  10 600.619 33.3375   1
   2  -6  10 613.563 34.6264   4
  -2  -6 -10 631.106 25.4654   3
  -2  -6 -11 3.06999 5.12585   6
   2   6  11-1.46950 5.30034   1
  -2  -6 -11 1.20793 2.85238   3
  -2   6 -11 0.93924 3.73319   6
   2  -6  11-1.60196 5.56789   4
  -2   6 -11 2.86100 3.67734   7
  -2   6 -11 9.56551 6.64929   1
  -2   6 -12 87.5575 14.3439   1
  -2  -6 -12 103.990 13.5290   6
  -2   6 -12 102.866 11.3913   7
  -2   6 -12 127.119 11.4297   6
   2  -6  12 108.111 14.7489   4
   2  -6  12 76.1065 5.79876   8
  -2  -6 -12 92.1119 7.92844   3
  -2   6 -13 1.88609 3.27852   6
  -2  -6 -13-3.23483 4.41052   6
   2  -6  13 7.10197 6.17139   4
  -2   6 -13 6.98630 4.34777   7
  -2   6 -13 8.64054 7.79157   1
  -2  -6 -14 236.808 21.1230   6
  -2   6 -14 219.300 15.8884   6
  -2   6 -14 199.439 22.8356   1
  -2   6 -14 189.749 16.8970   7
   2  -6  14 198.064 20.8280   4
  -2   6 -15 40.9505 8.58141   7
  -2   6 -15 33.7416 11.6559   1
  -2  -6 -15 42.3413 9.70630   6
   2  -6  15 29.4574 11.0800   4
   2  -7 -14 61.4086 12.8702   6
   2  -7 -14 64.0611 10.9681   3
  -2  -7  14 57.0889 13.6307   4
   2   7 -14 35.5876 12.7388   1
   2   7 -14 61.0830 9.39948   5
   2   7 -13 666.923 32.4161   5
   2  -7 -13 633.502 34.7154   3
  -2  -7  13 665.043 41.0679   4
  -2   7  12 98.0073 10.6207   1
   2  -7 -12 95.7664 12.7289   3
   2   7 -12 87.7649 11.1129   5
  -2  -7  12 76.6411 14.2100   4
  -2  -7  11 495.395 33.9277   4
   2   7 -11 494.207 26.9934   5
   2  -7 -11 515.021 29.6584   3
   2  -7 -10-1.32468 3.83085   3
   2  -7 -10 1.80234 4.91409   6
   2   7 -10-1.10447 4.51701   5
   2  -7  -9 7.75685 4.99017   3
   2  -7  -9 12.2246 5.32845   6
  -2   7   9 10.2251 3.54610   1
   2   7  -9 5.54388 4.66454   5
  -2   7   8-0.62625 2.41481   1
   2  -7  -8-1.68969 4.88642   6
   2  -7  -8 1.30093 4.15926   3
   2   7  -8-1.10351 4.38597   5
   2  -7  -7 181.814 16.3145   3
   2  -7  -7 165.627 17.5021   6
   2   7  -7 181.937 15.1164   5
  -2   7   7 162.837 10.7641   1
  -2  -7   6 12.7296 3.92547   8
   2  -7  -6 6.36700 5.09616   6
  -2   7   6 8.79102 3.00827   1
   2  -7  -6 9.03260 5.13573   3
   2   7  -6 20.6842 5.94251   5
  -2   7   5 120.101 8.84190   1
   2   7  -5 101.492 11.5279   5
   2  -7  -5 102.125 13.4261   6
   2  -7  -5 140.096 13.9647   3
  -2  -7   5 122.767 10.7418   8
   2   7  -4-1.11279 4.42283   5
   2  -7  -4-1.39076 5.36257   2
  -2  -7   4 0.92711 3.89558   8
   2  -7  -4 1.30500 3.77393   3
   2  -7  -4 6.00299 5.01140   6
   2  -7  -3 304.742 22.9227   6
   2   7  -3 341.758 23.2693   6
  -2   7   3 326.519 22.7035   6
  -2  -7   3 323.137 20.0702   8
   2  -7  -3 356.145 23.3898   3
   2   7  -3 339.968 21.9500   5
   2   7  -2 12.9568 5.33161   5
  -2  -7   2 5.52653 3.99455   8
   2  -7  -2 8.54609 4.76291   6
   2  -7  -2 10.8209 4.88509   3
   2   7  -2 15.2819 6.83322   4
  -2   7   2 11.6328 5.29212   6
  -2  -7   1 3.52581 3.58542   8
   2  -7  -1 5.60752 4.87446   6
   2   7  -1 5.40510 5.04686   4
  -2   7   1 5.12019 4.61908   4
  -2   7   1 11.3192 5.55757   6
  -2  -7   0 133.399 14.1191   8
   2  -7   0 160.758 15.6296   6
  -2   7   0 148.202 15.2607   4
   2  -7   0 151.073 15.6068   2
  -2   7   0 135.989 14.2883   6
   2   7   0 175.426 16.0550   6
  -2  -7   0 146.348 16.1240   6
   2   7   0 150.023 15.7445   4
  -2   7  -1 1129.93 46.9587   4
  -2  -7  -1 1134.00 47.3755   8
   2   7   1 1075.98 46.8416   6
   2   7   1 1155.42 47.9660   4
  -2  -7  -1 1035.23 48.5906   6
  -2   7  -1 1068.53 45.0822   6
   2  -7   1 984.556 45.6921   6
   2  -7   1 1043.06 47.1973   2
  -2  -7  -2 100.003 12.9134   8
  -2   7  -2 107.600 13.4170   4
  -2  -7  -2 101.828 13.5208   6
   2  -7   2 128.751 13.7453   6
  -2  -7  -2 115.244 12.4305   2
  -2   7  -2 97.8896 12.1164   6
   2   7   2 99.1876 13.1335   4
   2  -7   2 95.1628 12.6423   2
  -2  -7  -3 51.0495 9.44917   8
   2   7   3 58.5315 8.19988   7
   2  -7   3 65.8191 10.2645   6
  -2  -7  -3 51.6919 9.78710   6
  -2   7  -3 76.0444 11.0567   4
   2  -7   3 51.1210 9.87219   2
  -2   7  -3 62.3682 9.10367   6
  -2  -7  -3 63.9702 9.36940   2
  -2   7  -4-0.56327 2.23877   5
  -2   7  -4 3.39147 4.22060   6
  -2  -7  -4 2.27288 3.46424   2
  -2   7  -4-2.76697 5.33453   4
  -2   7  -4 2.41726 3.86413   1
   2   7   4 1.07691 3.11433   7
  -2  -7  -4 1.52411 5.49719   8
   2  -7   4 3.90466 4.34624   6
  -2  -7  -4-0.90778 3.15511   3
   2   7   5 353.520 22.3969   7
  -2   7  -5 380.309 24.5850   1
  -2   7  -5 410.421 26.0882   4
  -2  -7  -5 369.745 20.1521   3
  -2  -7  -5 331.316 21.8018   2
  -2   7  -5 360.107 16.0703   5
  -2   7  -5 371.116 22.5387   6
  -2  -7  -6-1.64187 2.85325   3
  -2   7  -6 2.22663 3.71765   6
  -2  -7  -6 2.20921 3.83918   2
  -2   7  -6-1.44750 4.62781   1
   2   7   6 1.26529 3.44983   7
  -2   7  -6 0.37806 2.36180   5
  -2   7  -7 1436.00 51.1408   6
   2   7   7 1340.38 53.2285   1
  -2  -7  -7 1436.32 57.8712   6
  -2  -7  -7 1363.35 45.7903   3
   2   7   7 1383.81 53.5166   7
  -2   7  -7 1304.91 55.4167   1
   2   7   8 331.844 23.8607   7
  -2  -7  -8 369.400 26.7471   6
  -2   7  -8 356.378 21.7665   6
   2   7   8 308.286 22.7586   1
  -2   7  -8 303.789 24.3962   1
  -2  -7  -9 1189.11 54.1483   6
  -2   7  -9 1238.13 47.6313   6
   2   7   9 1122.17 50.8175   1
  -2   7  -9 1194.21 55.2227   1
   2   7  10 48.7102 9.66758   1
  -2   7 -10 60.8435 12.2542   1
  -2  -7 -10 61.9487 11.1097   6
  -2   7 -10 69.4146 9.41869   6
  -2  -7 -11 211.239 20.3806   6
  -2   7 -11 192.864 15.7774   6
  -2   7 -11 179.516 20.4382   1
   2  -7  12-1.81499 5.53270   4
  -2   7 -12 1.07058 3.86146   6
  -2  -7 -12 1.78109 5.15075   6
  -2   7 -12 2.13735 7.13722   1
  -2   7 -13 175.976 20.9354   1
  -2   7 -13 176.576 15.1567   6
  -2  -7 -13 161.359 18.5516   6
   2  -7  13 136.644 17.9418   4
   2  -8 -11 60.2565 10.6445   3
   2  -8 -11 66.0479 13.0068   6
   2   8 -11 74.3910 10.7188   5
   2  -8 -10 9.96978 5.99400   3
   2  -8 -10 22.0547 7.97599   6
   2   8 -10 11.6251 5.93939   5
   2  -8  -9 15.5522 6.54669   3
   2  -8  -9 7.81176 6.25478   6
  -2   8   9 16.1627 3.95899   1
   2   8  -9 16.5520 6.55750   5
  -2   8   8 686.103 27.0622   1
   2   8  -8 652.442 33.3563   5
   2  -8  -8 645.236 35.2118   3
  -2   8   7 23.8257 4.66457   1
   2  -8  -7 21.3841 7.30058   3
   2  -8  -7 36.8349 9.24785   6
   2   8  -7 26.3258 7.41442   5
  -2   8   6 270.251 14.5779   1
   2  -8  -6 312.821 25.1712   6
   2  -8  -6 308.304 22.5266   3
   2   8  -6 306.262 21.1688   5
   2  -8  -5 10.4272 6.04549   6
  -2   8   5 10.0444 3.28166   1
  -2  -8   5 11.2689 4.53328   8
   2  -8  -5 10.1386 5.23017   3
   2   8  -5 7.32682 5.27039   5
   2  -8  -4 12.5426 6.23504   2
  -2  -8   4 6.31300 4.97342   8
   2  -8  -4 11.6959 5.64129   3
   2  -8  -4 8.52804 5.69952   6
  -2   8   4 12.6562 3.63443   1
   2   8  -4 1.24922 4.66878   5
   2   8  -3 5.21154 5.61740   5
   2  -8  -3-1.56964 5.01909   2
  -2  -8   3 9.24615 4.85713   8
   2  -8  -3 6.70251 5.10861   6
   2  -8  -3 1.48323 4.74286   3
   2   8  -2 1330.80 52.4988   5
   2  -8  -2 1243.16 54.9075   6
  -2  -8   2 1144.86 49.0499   8
   2  -8  -2 1224.34 53.0681   3
  -2  -8   1 2.64722 4.94351   8
   2   8  -1 8.18557 6.02812   5
   2  -8  -1 16.2211 6.44861   6
   2  -8  -1 1.53742 4.68859   3
  -2  -8   0 119.947 13.8302   8
   2  -8   0 78.2051 12.2998   6
  -2  -8   0 121.136 15.3918   6
   2  -8   1 6.27553 5.01780   6
  -2  -8  -1 8.93805 6.21459   6
  -2  -8  -1 13.1820 6.31567   8
  -2  -8  -1 1.42213 4.33734   2
   2  -8   1 3.21210 4.64659   2
  -2  -8  -2 16.1475 7.54186   6
   2  -8   2 9.33934 5.41432   6
   2  -8   2 8.17168 4.98667   2
  -2  -8  -2 5.52327 4.41991   2
   2   8   3 4.06612 3.91983   7
   2  -8   3-1.53711 5.34258   6
   2  -8   3 1.66563 3.93315   2
  -2  -8  -3 1.80474 4.92082   6
  -2  -8  -3 2.68775 4.29673   2
  -2   8  -4 465.349 27.7656   1
  -2  -8  -4 474.370 27.9748   2
  -2   8  -4 517.939 22.5123   5
  -2  -8  -4 433.193 25.0192   3
   2  -8   4 465.048 31.1152   2
   2   8   4 451.001 25.4535   7
  -2  -8  -5 3.91637 4.53847   2
  -2   8  -5 2.89818 5.41106   1
  -2  -8  -5 8.03475 4.84187   3
   2   8   5 2.33366 4.05679   7
  -2   8  -5 3.99493 3.20953   5
   2   8   6 349.692 22.5703   7
  -2  -8  -6 329.420 19.6368   3
  -2   8  -6 312.313 14.6165   5
  -2  -8  -6 299.395 21.3620   2
  -2   8  -6 278.861 22.6490   1
   2   8   7 291.445 21.3002   7
  -2  -8  -7 257.600 23.4815   6
   2   8   7 276.212 21.6941   1
  -2   8  -7 258.094 22.3397   1
  -2   8  -7 244.828 10.5671   5
  -2  -8  -7 269.989 17.3847   3
  -2  -8  -8 4.40352 3.89051   3
  -2   8  -8 3.52905 4.81102   1
  -2  -8  -8-3.78214 6.31482   6
  -2  -8  -9 3.82845 5.53898   6
  -2  -8  -9 6.74449 3.90211   3
  -2   8  -9 14.9805 6.75665   1
  -2  -8 -10 15.4641 7.22586   6
  -2   8 -10 17.9322 8.15679   1
  -2  -8 -10 12.5802 4.58772   3
   2  -9  -7 91.7082 13.3112   3
   2   9  -7 90.8842 11.9515   5
   2  -9  -6-1.56994 4.54023   3
   2  -9  -6 3.98810 5.08576   6
   2   9  -6 2.64663 4.94062   5
   2   9  -5 41.4980 9.30668   5
   2  -9  -5 49.0971 10.9526   6
   2  -9  -5 67.0405 11.2770   3
   2   9  -4-1.37438 5.30056   5
  -2   9   4 4.38893 3.02398   1
   2  -9  -4 7.69261 5.86341   6
   2  -9  -4 3.48328 5.03783   2
   2  -9  -4 9.68407 6.41586   3
   2   9  -3 34.3136 8.52285   5
   2  -9  -3 24.5590 7.59938   3
   2  -9  -3 20.9334 7.73576   2
   2  -9  -3 28.4126 8.97075   6
   2  -9  -2-3.52917 6.13307   2
   2   9  -2 1.49267 5.57281   5
   2  -9  -2 5.60428 5.97254   6
   2  -9  -2-1.67362 5.81693   3
   2  -9  -1 232.176 21.1932   3
   2   9  -1 250.064 21.0695   5
   2  -9  -1 205.637 20.7836   6
   2  -9   0 79.2166 13.3071   6
   2   9   0 108.942 14.2639   5
  -2  -9   0 100.580 14.3170   2
   2  -9   0 79.7607 13.0471   3
  -2  -9  -1 699.195 41.7811   6
  -2  -9  -1 651.463 37.2990   2
   2  -9   1 738.785 40.3411   6
   2  -9   2 101.125 14.4962   6
   2   9   2 83.6189 9.73654   7
  -2  -9  -2 96.9316 15.3804   6
   2  -9   2 94.6481 14.8627   2
  -2  -9  -2 90.1786 13.1863   2
  -2   9  -3 28.5107 7.20190   1
   2  -9   3 26.2499 8.94695   6
  -2  -9  -3 24.3512 8.54812   6
   2   9   3 22.7987 5.67729   7
   2  -9   3 25.9283 8.76702   2
  -2   9  -3 19.0261 5.30724   5
  -2  -9  -3 19.7921 6.91032   2
  -2  -9  -3 30.2747 7.21937   3
  -2   9  -4 29.0021 5.73533   5
  -2  -9  -4 20.4870 6.28919   3
   2   9   4 22.7523 5.84885   7
  -2  -9  -4 30.5352 9.22676   6
   2  -9   4 18.9148 7.32186   2
  -2   9  -4 28.4481 7.66153   1
  -2  -9  -4 31.7497 8.26964   2
  -2  -9  -5 108.388 13.6237   2
  -2   9  -5 103.827 14.0171   1
   2  -9   5 140.645 17.5160   2
  -2  -9  -5 131.214 13.1254   3
  -2   9  -5 136.938 10.5243   5
  -2  -9  -6 31.6495 7.35067   3
   2  -9   6 62.5748 12.3974   2
  -2  -9  -6 41.6617 9.44061   2
  -2   9  -6 35.8622 9.21186   1
  -2   9  -6 34.4995 5.73091   5
   3   0 -20 9.13275 7.29979   1
  -3   0  20-2.55037 8.51653   4
   3   0 -19 1157.36 46.1646   8
   3   0 -19 1163.12 58.7732   1
   3   0 -18 1.04168 3.47886   8
   3   0 -18 6.16040 6.85727   1
   3   0 -17 519.708 26.9103   8
   3   0 -17 553.082 35.8752   1
   3   0 -16-1.98591 4.38652   8
  -3   0  16-2.88807 6.06771   3
   3   0 -16-1.83314 5.86090   1
  -3   0  16 1.50181 5.21991   5
   3   0 -15 3295.05 100.895   8
  -3   0  15 3174.62 107.722   5
   3   0 -15 3260.79 112.445   1
  -3   0  15 3478.14 108.619   3
   3   0 -14 1.60397 4.37329   1
   3   0 -14-0.90498 3.02207   8
  -3   0  14-1.31737 4.57874   3
  -3   0  14-2.72786 5.57818   5
  -3   0  13 3.76006 4.68120   3
   3   0 -13 2.98026 3.52108   1
   3   0 -13 8.55988 3.59920   8
  -3   0  13 5.18179 4.99685   5
  -3   0  12 4.74819 4.28187   3
   3   0 -12 1.38025 4.60939   1
  -3   0  12 4.89703 4.41607   5
  -3   0  11 5385.66 160.821   5
  -3   0  11 5715.80 161.426   3
   3   0 -11 5463.71 163.791   1
   3   0 -10 4.59547 3.99333   1
  -3   0  10 2.10095 4.05078   3
  -3   0  10-1.08051 4.16659   5
  -3   0   9 1704.99 60.3415   5
  -3   0   9 1770.55 60.4329   3
  -3   0   8-0.91258 2.91770   3
   3   0  -7 111.502 10.7102   5
  -3   0   7 132.355 11.0995   3
  -3   0   6-0.77218 2.57854   3
   3   0  -6 0.85322 2.32633   5
  -3   0   5 5405.86 155.719   4
  -3   0   5 5773.86 157.056   3
   3   0  -5 5775.60 158.088   5
  -3   0   4 1.11854 1.61739   4
  -3   0   4 1.26327 2.10923   3
   3   0  -4-0.70709 2.36118   5
  -3   0   3 4883.19 129.967   4
   3   0  -3 4989.50 133.978   5
  -3   0   2 0.58011 1.04620   4
   3   0  -2-0.50062 1.27679   3
   3   0  -2-1.72202 2.07035   5
  -3   0   2 2.70103 2.14707   5
   3   0  -1 55.0374 5.70026   5
  -3   0   1 58.8194 3.39867   4
   3   0  -1 48.5870 4.83139   3
   3   0   0-1.09377 1.21767   3
   3   0   0-0.45731 1.46224   5
   3   0   1 8247.17 222.103   3
   3   0   1 8816.33 224.184   5
  -3   0  -1 8469.33 222.088   3
   3   0   2 0.39684 1.57729   5
   3   0   2 0.86304 1.20883   3
   3   0   2 0.55601 2.07584   1
  -3   0  -2 0.16835 0.93230   2
   3   0   3 19327.0 497.036   1
   3   0   3 18891.5 487.649   6
   3   0   3 19111.6 490.228   3
   3   0   3 19015.7 492.323   5
   3   0   4 1.42727 2.38312   1
   3   0   4 0.34112 0.59069   6
   3   0   4 1.81618 0.80104   2
   3   0   5 930.130 36.4173   8
   3   0   5 1028.06 37.8208   7
   3   0   6-0.82104 2.09399   8
  -3   0  -6 0.15504 0.66836   6
  -3   0  -6 1.86455 2.69603   1
  -3   0  -7 2388.97 79.6834   1
  -3   0  -7 2461.05 66.0849   6
   3   0   7 2420.34 77.3330   8
   3   0   8 0.94896 2.58735   8
  -3   0  -8 2.30521 3.14258   1
   3   0   8-1.16693 2.51532   7
  -3   0  -8 0.25096 1.08190   6
   3   0   9 2855.37 94.2393   4
  -3   0  -9 2941.98 81.4426   6
  -3   0  -9 3030.43 97.6311   1
   3   0   9 3114.55 97.9048   7
   3   0   9 3022.68 93.5024   8
   3   0   9 3048.48 96.3192   1
  -3   0 -10-0.35279 1.59510   6
   3   0  10 1.19647 3.99532   4
   3   0  10 1.28464 3.27637   1
   3   0  10 1.37777 3.75649   7
   3   0  10-1.06781 3.41391   8
  -3   0 -10 4.16993 4.01966   1
   3   0  11 4902.06 151.893   4
  -3   0 -11 4991.43 136.675   6
  -3   0 -11 5205.15 156.128   1
   3   0  11 5119.02 149.697   8
   3   0  11 5334.27 154.598   1
   3   0  12 1.18815 3.96772   8
   3   0  12 2.89902 4.41872   4
   3   0  12 2.98475 4.54938   1
  -3   0 -12 0.90571 1.95259   6
  -3   0 -12 1.63438 4.45627   1
  -3   0 -13 167.202 17.8628   1
  -3   0 -13 155.314 9.76868   6
   3   0  13 146.509 14.4987   8
   3   0  13 155.566 16.4952   1
   3   0  13 119.444 14.7729   4
   3   0  13 138.150 10.9539   3
  -3   0 -14-1.09943 2.48548   6
   3   0  14 5.09196 4.90846   4
   3   0  14 0.77932 3.52359   3
  -3   0 -14 3.77531 3.63925   1
   3   0  14-1.29052 3.73203   8
  -3   0 -15 466.849 32.7669   1
   3   0  15 442.198 30.6927   4
  -3   0 -15 422.264 19.3735   6
   3   0  15 446.551 22.2710   3
   3   0  15 406.852 26.2294   8
  -3   0 -16 2.14001 4.61278   1
   3   0  16 0.88595 3.91363   3
   3   0  16-1.37835 4.20166   8
  -3   0 -16 1.26395 2.58464   6
   3   0  16-1.91261 5.53107   4
   3   0  17 994.431 41.7169   5
   3   0  17 892.708 49.2485   4
  -3   0 -17 1043.79 54.2019   1
  -3   0 -17 892.835 34.2441   6
  -3   0 -18 11.9555 7.28987   1
  -3   0 -18 4.21109 3.38502   6
   3   0  18 2.14171 5.84068   4
  -3   0 -19 12.5765 7.69094   1
   3   0  19 22.4232 9.44096   4
  -3   0 -19 29.8618 5.64878   6
  -3  -1  20 62.5651 14.2073   4
   3   1 -20 60.7025 13.7928   1
   3  -1 -20 94.2535 12.7412   8
   3  -1 -20 94.5595 15.3534   1
   3   1 -19 4.88679 3.43667   8
   3  -1 -19 10.6949 5.47073   8
   3   1 -19 11.6867 8.12593   1
  -3  -1  19 9.58904 8.95197   4
   3  -1 -19 8.19029 6.24454   1
   3   1 -18 31.0947 5.59097   8
   3   1 -18 19.9331 8.30671   1
   3  -1 -18 43.1438 8.94676   8
  -3  -1  18 22.9568 9.15870   4
   3  -1 -18 42.7055 10.2797   1
   3  -1 -17 9.06331 6.05437   1
   3   1 -17 3.58759 3.09597   8
   3  -1 -17 7.61249 5.19051   8
   3   1 -17 4.21092 4.97317   1
   3   1 -16 373.211 19.0271   8
  -3  -1  16 353.239 25.2693   5
   3  -1 -16 405.030 28.4567   1
  -3   1  16 403.141 26.2849   3
   3  -1 -16 407.851 24.6785   8
   3  -1 -15 158.702 14.7183   8
   3   1 -15 171.723 11.9895   8
  -3   1  15 182.852 17.8834   5
  -3  -1  15 193.017 17.7952   5
  -3   1  15 194.796 17.5101   3
   3   1 -15 161.433 18.7065   1
  -3  -1  15 154.427 16.0034   3
   3  -1 -15 168.410 17.3225   1
   3   1 -14 622.162 25.9810   8
  -3  -1  14 606.641 33.1823   3
   3  -1 -14 657.542 35.4062   1
  -3   1  14 616.840 34.0718   5
  -3  -1  14 723.467 34.9883   5
  -3   1  14 629.458 33.1478   3
   3  -1 -14 584.787 30.7326   8
   3   1 -14 749.928 40.1443   1
   3  -1 -13 31.4375 6.67818   8
   3   1 -13 35.0463 8.55482   1
   3  -1 -13 37.7444 7.62435   1
  -3  -1  13 22.9463 7.11009   3
   3   1 -13 38.7242 5.28277   8
  -3   1  13 36.4362 8.27102   5
  -3  -1  13 36.4308 7.41475   5
  -3   1  13 25.9141 6.88588   3
   3   1 -12 2284.16 82.6027   1
   3   1 -12 2208.38 67.7006   8
  -3  -1  12 2211.17 76.9502   5
   3  -1 -12 2330.78 78.4084   1
  -3   1  12 2324.12 77.5693   3
  -3  -1  12 2336.40 78.0009   3
  -3   1  12 2182.91 77.9042   5
  -3  -1  11 18.0503 5.76449   3
  -3   1  11 15.4857 5.65237   3
   3  -1 -11 8.99728 4.73785   3
   3   1 -11 4.83796 4.37566   5
  -3   1  11 16.8321 5.68795   5
  -3  -1  11 16.8856 5.64881   5
   3  -1 -11 18.9969 5.17724   1
   3   1 -10 4582.84 135.503   5
   3  -1 -10 4661.25 133.190   1
  -3  -1  10 4484.59 133.839   5
  -3   1  10 4546.40 133.304   3
  -3  -1  10 4758.85 134.366   3
  -3   1  10 4369.88 134.192   5
   3  -1 -10 4143.17 132.220   3
   3   1  -9 343.545 20.7966   5
  -3  -1   9 369.418 21.0630   5
  -3   1   9 335.889 20.0464   3
   3  -1  -9 311.671 18.8968   1
  -3  -1   9 294.430 18.9570   3
  -3   1   8 600.968 27.8390   3
  -3  -1   8 591.372 28.1706   5
  -3  -1   8 658.799 29.0333   3
   3  -1  -8 628.384 27.2229   1
  -3   1   7 0.81838 2.95214   3
  -3  -1   7 4.21439 3.35038   3
   3  -1  -7 2.00967 1.70917   1
  -3  -1   7 0.85384 3.39397   5
  -3  -1   6 12502.1 340.758   5
  -3   1   6 12749.7 339.776   3
  -3  -1   6 13082.3 340.528   3
   3   1  -5 406.469 19.8095   4
  -3   1   5 387.485 18.9795   3
   3  -1  -5 428.271 20.8735   5
  -3  -1   5 382.920 19.4617   3
   3   1  -4 409.804 18.0282   4
   3  -1  -4 396.340 19.1949   5
   3   1  -4 348.268 18.1452   5
  -3   1   4 379.273 17.9005   3
  -3   1   4 336.154 18.1647   5
  -3   1   3 15.8092 3.48252   3
   3   1  -3 26.8169 3.81521   4
   3  -1  -3 16.8540 3.68165   5
  -3  -1   3 21.0044 3.30677   4
   3   1  -3 25.3265 4.36905   5
   3  -1  -2 2924.21 82.5707   5
   3   1  -2 2949.46 82.5918   5
  -3   1   2 2782.83 81.0375   3
   3   1  -2 2848.84 78.8599   4
  -3  -1   2 2675.21 78.1665   4
   3  -1  -1 992.239 32.6891   5
  -3  -1   1 937.305 28.7667   4
   3   1  -1 949.306 29.2885   4
   3  -1  -1 925.460 31.8835   3
   3   1  -1 962.535 32.8444   5
   3   1  -1 917.731 30.8823   3
  -3  -1   0 7406.58 206.944   5
   3  -1   0 7916.03 206.392   5
   3   1   0 7814.62 202.705   4
  -3   1   0 7723.74 205.625   5
   3   1   0 7955.22 207.836   5
  -3  -1   0 7856.77 204.597   3
   3  -1   0 7694.59 206.605   3
   3   1   0 7744.89 204.590   3
   3   1   1 23.9153 3.74074   5
   3  -1   1 19.8565 3.05671   1
   3   1   1 19.1161 3.06887   6
   3  -1   1 19.1846 3.17532   3
  -3   1  -1 21.9016 1.95746   4
  -3  -1  -1 18.7059 2.39020   3
  -3   1  -1 19.7806 2.86788   2
   3  -1   1 24.5208 3.34542   5
   3   1   1 23.3894 2.73796   3
  -3   1  -1 17.9693 2.81370   5
   3  -1   2 1969.66 53.4611   4
   3  -1   2 2011.63 59.2330   1
   3   1   2 1980.31 56.5816   6
   3  -1   2 2015.90 58.2905   3
  -3  -1  -2 2015.10 53.6059   3
   3  -1   2 2036.25 56.5162   5
   3  -1   2 1918.78 56.1881   2
  -3   1  -2 1973.00 55.3174   5
  -3   1  -2 1933.94 54.3293   4
   3   1   2 1929.78 53.9745   3
   3  -1   3 174.649 8.14981   4
   3   1   3 170.345 8.62312   6
   3  -1   3 179.039 11.1598   1
   3  -1   3 165.375 8.69883   2
   3  -1   3 177.899 8.45263   5
   3   1   3 165.157 6.41645   3
   3   1   4 1601.69 46.8360   6
  -3  -1  -4 1602.12 47.1074   6
   3  -1   4 1617.11 46.0748   5
   3  -1   4 1639.07 52.6927   1
   3  -1   4 1558.13 48.1327   4
   3  -1   4 1687.62 52.5545   7
   3  -1   5 8.83200 2.46386   4
   3  -1   5 10.9735 3.55116   1
   3   1   5 10.4129 2.09296   6
  -3  -1  -5 5.24969 1.73506   6
   3  -1   5 8.33632 2.83839   7
   3  -1   5 12.7286 2.24234   5
   3  -1   6 63.5532 6.87739   4
  -3  -1  -6 60.9617 5.12101   6
   3   1   6 70.8048 5.30958   6
   3   1   6 64.0991 8.01492   8
   3  -1   6 69.6041 8.10820   7
   3   1   7 225.899 16.3340   8
   3  -1   7 236.889 14.9128   4
   3  -1   7 243.100 15.2453   8
  -3  -1  -7 219.359 11.1987   6
   3  -1   7 274.755 17.3823   7
   3  -1   7 241.248 16.7327   1
   3   1   7 231.723 9.20392   3
   3   1   8 446.574 24.6239   8
  -3  -1  -8 455.790 18.1765   6
  -3   1  -8 452.895 13.5262   6
   3  -1   8 465.462 23.7037   4
   3  -1   8 463.799 25.1488   7
   3  -1   8 442.484 24.9243   1
   3  -1   8 472.896 22.9807   8
   3   1   8 448.704 16.0453   3
   3   1   9 28.2279 7.00620   7
   3   1   9 34.2372 6.98620   8
   3  -1   9 20.2402 5.54012   7
   3  -1   9 27.9867 5.94478   4
   3  -1   9 31.1618 6.76613   1
   3   1   9 29.6928 6.70559   1
  -3   1  -9 24.6058 2.36289   6
  -3  -1  -9 23.7747 3.83189   6
   3   1   9 22.2387 3.17455   3
   3  -1   9 21.4219 5.05646   8
   3  -1  10 555.085 29.3114   4
   3  -1  10 537.224 26.8980   8
  -3  -1 -10 576.064 31.5350   1
   3   1  10 545.900 29.6990   8
  -3  -1 -10 582.852 22.6561   6
  -3   1 -10 582.059 18.8454   6
   3   1  10 578.450 30.8885   1
   3   1  10 563.488 31.9192   7
   3   1  10 577.990 21.2072   3
   3  -1  10 593.223 31.3606   1
  -3   1 -11 157.981 8.46649   6
   3  -1  11 158.113 15.2838   4
   3   1  11 208.855 17.2905   8
   3   1  11 208.173 18.5930   7
  -3  -1 -11 176.926 11.0427   6
  -3  -1 -11 165.558 16.5152   1
   3   1  11 179.385 10.4994   3
   3  -1  11 212.776 15.4530   8
   3  -1  11 188.496 17.2831   1
   3  -1  12 2906.94 98.5380   1
   3  -1  12 2874.63 91.0445   8
   3  -1  12 2673.63 95.0202   4
  -3  -1 -12 3014.00 100.746   1
  -3  -1 -12 2915.50 84.0638   6
  -3   1 -12 2859.13 79.4348   6
  -3   1 -12 2742.23 99.0314   1
   3   1  12 2824.97 82.6030   3
   3   1  12 2910.15 95.6600   8
   3  -1  13 223.006 16.9157   8
   3  -1  13 202.568 18.6621   4
  -3  -1 -13 181.626 19.1620   1
  -3  -1 -13 223.615 13.2840   6
  -3   1 -13 177.402 19.1637   1
  -3   1 -13 208.839 10.8129   6
   3   1  13 167.081 16.6039   8
   3  -1  13 241.568 20.9295   1
   3   1  13 197.657 12.3666   3
  -3   1 -14 19.0938 3.49031   6
   3  -1  14 19.4007 5.74028   8
   3   1  14 27.6290 7.43593   8
  -3  -1 -14 11.2102 6.26098   1
   3   1  14 25.1386 4.80146   3
   3  -1  14 27.8621 7.75758   4
  -3   1 -14 26.9516 7.89070   1
   3  -1  14 24.0647 5.50898   5
  -3  -1 -14 16.0682 4.12986   6
   3  -1  15 40.3221 9.61023   4
  -3  -1 -15 45.8177 10.3877   1
  -3   1 -15 36.1882 4.76023   6
   3   1  15 46.4311 6.34328   3
   3   1  15 37.5340 8.97546   8
  -3   1 -15 37.1378 10.1887   1
  -3  -1 -15 32.6287 5.48569   6
   3  -1  15 39.3708 6.75316   5
   3   1  15 35.4922 9.05696   4
   3  -1  15 42.4174 7.68232   8
  -3  -1 -16 253.505 24.2126   1
   3   1  16 186.427 20.6226   4
   3  -1  16 223.897 15.9927   5
   3  -1  16 212.156 21.0355   4
  -3   1 -16 211.769 12.1824   6
  -3   1 -16 193.549 21.7041   1
  -3  -1 -16 227.450 14.5870   6
   3   1  16 233.290 14.4119   3
   3  -1  16 217.132 17.2784   8
   3  -1  16 201.887 15.4878   3
  -3  -1 -17 172.163 20.6999   1
  -3   1 -17 203.243 22.7304   1
  -3  -1 -17 188.724 13.5963   6
  -3   1 -17 167.787 10.9649   6
   3  -1  17 166.969 14.6330   3
   3   1  17 162.118 20.0691   4
   3  -1  17 198.695 16.7241   8
   3  -1  17 139.492 18.2138   4
   3   1  18 261.674 25.7609   4
  -3  -1 -18 289.941 27.4718   1
  -3   1 -18 304.854 28.6853   1
  -3  -1 -18 256.952 16.5454   6
   3  -1  18 241.252 23.9901   4
  -3   1 -18 238.016 13.8264   6
   3   1  19 4.65180 6.72810   4
   3  -1  19 4.32143 6.58844   4
  -3  -1 -19 5.24985 4.04811   6
  -3   1 -19 7.79282 3.16895   6
  -3   1 -19 5.15617 7.03092   1
   3  -2 -19 1579.32 67.7991   1
  -3  -2  19 1520.55 72.6595   4
   3  -2 -19 1554.11 66.1444   6
   3   2 -19 1530.90 73.9292   1
   3  -2 -18-4.58587 6.42302   8
  -3  -2  18-2.32705 6.34473   4
   3  -2 -18 1.82900 4.98679   1
   3   2 -18 14.3140 8.90672   1
   3  -2 -17 258.288 22.2206   1
  -3  -2  17 263.295 21.1075   5
   3   2 -17 250.645 25.5015   1
   3  -2 -17 248.795 20.5797   8
  -3  -2  17 254.745 25.1125   4
   3  -2 -16 2.84205 3.87492   8
  -3   2  16 1.34245 5.01228   3
   3   2 -16 4.33587 4.67336   1
  -3  -2  16 2.10203 6.72069   4
   3  -2 -16 6.34622 5.07276   1
  -3  -2  16-1.40224 6.04532   5
   3  -2 -15 520.917 30.3486   8
  -3  -2  15 556.563 30.7785   5
   3  -2 -15 554.516 31.6360   1
  -3   2  15 557.371 30.4148   3
   3   2 -15 549.278 36.8332   1
   3   2 -14 34.3869 3.45529   8
  -3  -2  14 44.0839 9.06091   3
  -3   2  14 44.4907 8.81004   3
  -3   2  14 64.9555 10.9417   5
   3  -2 -14 33.9952 7.59467   1
   3  -2 -14 43.1547 8.51396   8
   3   2 -14 29.3076 8.68745   1
  -3  -2  14 56.3994 9.70099   5
   3   2 -13 1160.53 36.7841   8
   3   2 -13 1364.49 59.0856   1
   3  -2 -13 1344.70 52.2281   1
  -3   2  13 1313.08 53.9942   5
  -3  -2  13 1347.13 51.7387   5
  -3   2  13 1327.16 51.0503   3
  -3  -2  13 1458.46 54.1666   3
   3  -2 -13 1269.48 51.4173   3
   3  -2 -12 6.67830 4.01466   1
   3   2 -12-1.25786 4.20040   5
  -3   2  12 1.12491 3.75646   3
   3   2 -12 1.15011 1.27042   8
   3  -2 -12 8.66008 4.29995   3
  -3   2  12 4.06726 5.22765   5
  -3  -2  12-4.62585 5.22888   5
  -3  -2  12 1.23356 4.11926   3
  -3   2  11 1535.90 58.6158   5
  -3   2  11 1512.84 55.7335   3
   3  -2 -11 1622.65 55.5479   1
   3   2 -11 1558.42 57.7964   5
  -3  -2  11 1658.38 57.4334   5
   3   2 -11 1452.03 43.7451   8
   3  -2 -11 1509.27 56.9733   3
  -3  -2  11 1577.44 57.4978   3
  -3   2  10 35.5121 6.68677   3
  -3  -2  10 31.4160 6.57558   3
   3  -2 -10 40.6282 7.22820   3
  -3   2  10 21.5074 6.25947   5
   3   2 -10 26.9036 6.53793   5
  -3  -2  10 38.1578 7.28614   5
   3  -2 -10 40.1929 6.41447   1
   3   2  -9 494.994 26.4545   4
   3  -2  -9 410.177 20.4547   1
   3   2  -9 426.778 23.6153   5
  -3   2   9 394.793 22.0180   3
  -3  -2   9 367.418 21.6715   5
   3  -2  -9 384.451 22.3705   3
  -3  -2   9 456.639 23.9355   3
   3   2  -8-1.09052 3.48655   4
   3  -2  -8 9.05687 3.11809   1
  -3  -2   8-1.86085 3.69804   3
  -3   2   8-0.89264 3.33266   3
   3   2  -8 3.93761 3.42146   5
  -3  -2   8-0.89026 3.32378   5
  -3  -2   7 4.24354 3.27651   3
   3   2  -7 6.82729 3.64490   4
   3  -2  -7 7.98273 2.46561   1
  -3   2   7 5.83239 3.00956   3
   3   2  -7 6.33584 3.26862   5
  -3  -2   7 5.78955 3.47901   5
   3   2  -6 28.6244 5.45716   4
  -3   2   6 28.7185 5.11547   3
   3  -2  -6 22.1379 3.43006   1
  -3  -2   6 26.1414 5.01356   5
   3   2  -5 183.813 13.0437   4
   3  -2  -5 202.923 9.55009   1
  -3  -2   5 197.790 13.2895   5
  -3   2   5 228.985 13.9542   3
   3   2  -4 322.296 16.5583   4
  -3   2   4 311.249 16.3557   3
  -3  -2   4 271.818 15.5233   5
   3  -2  -4 299.091 10.8219   1
   3   2  -3 902.568 32.4918   4
  -3   2   3 952.119 33.8608   3
  -3   2   3 898.532 32.8802   2
   3   2  -2 317.339 14.9560   4
  -3   2   2 335.221 16.4487   3
  -3   2   2 314.712 15.8048   5
   3   2  -2 305.716 15.2278   8
   3   2  -2 326.504 16.4260   5
  -3  -2   2 320.613 14.8539   4
   3  -2  -1 3078.72 85.1080   6
   3  -2  -1 2973.02 79.4107   1
  -3   2   1 2932.97 85.4103   5
   3   2  -1 3019.79 84.4616   4
   3   2  -1 2993.16 87.3504   5
   3   2   0 291.515 13.0334   4
   3   2   0 248.085 13.7033   6
  -3   2   0 273.943 12.7760   5
   3  -2   0 258.500 10.7894   1
   3  -2   0 260.493 12.3843   6
   3  -2   0 271.340 13.8116   2
   3   2   0 297.866 15.1406   5
  -3  -2   0 281.823 12.1948   3
  -3   2  -1 72.2295 6.11001   1
   3  -2   1 34.9606 4.20822   6
   3  -2   1 69.6691 8.48199   3
   3  -2   1 59.1048 5.36012   5
   3  -2   1 91.0949 7.32050   2
   3  -2   1 39.9057 4.73132   1
  -3   2  -2 345.943 13.9678   4
   3  -2   2 337.802 13.0654   6
   3  -2   2 325.600 12.6899   5
   3  -2   2 347.002 15.6175   2
   3   2   2 268.734 18.2718   8
  -3   2  -2 342.974 12.3914   5
   3  -2   2 326.460 15.1440   1
   3   2   2 331.057 15.5700   6
  -3  -2  -2 324.344 11.8062   3
  -3   2  -2 317.536 14.8036   1
  -3   2  -3 8658.07 230.538   4
   3  -2   3 8521.77 229.310   4
  -3  -2  -3 8855.37 232.752   6
  -3   2  -3 8864.72 233.601   1
   3  -2   3 8662.08 227.082   6
   3   2   3 8438.77 231.794   6
   3  -2   3 8683.12 231.926   2
   3  -2   3 8842.14 226.403   5
   3  -2   3 8935.60 233.748   1
   3  -2   3 8795.24 231.737   7
  -3  -2  -4 8.30720 1.36166   2
  -3  -2  -4 7.76830 3.23155   8
   3  -2   4 11.1995 2.90738   7
  -3  -2  -4 10.9260 2.69611   6
  -3   2  -4 9.98966 2.96517   4
   3   2   4 10.0775 2.71516   6
   3  -2   4 17.6780 4.09698   1
  -3   2  -4 6.36524 2.65153   1
   3  -2   4 10.8716 1.72713   6
   3  -2   4 10.0979 2.55321   4
   3  -2   4 8.83483 1.44688   5
  -3  -2  -5 88.7386 9.43245   8
  -3   2  -5 90.5522 8.04389   4
   3  -2   5 80.3470 7.14822   4
  -3  -2  -5 79.8651 7.15439   6
   3   2   5 84.1772 7.08587   6
  -3   2  -5 80.7059 4.29970   6
   3  -2   5 95.9068 8.49304   7
  -3   2  -5 118.129 10.1483   1
   3  -2   5 93.4739 9.13927   1
  -3   2  -6 87.7948 8.61886   4
  -3   2  -6 87.1515 9.38251   1
   3  -2   6 91.4530 8.18045   4
   3  -2   6 86.0796 9.45494   1
   3  -2   6 80.9850 8.36917   7
  -3  -2  -6 81.8578 7.26428   6
   3   2   6 82.5621 7.07457   6
   3  -2   6 72.3694 3.70137   5
  -3   2  -6 75.9530 3.94245   6
  -3  -2  -6 81.9341 9.67607   8
   3  -2   7 139.964 12.6119   1
   3  -2   7 111.092 10.6259   7
  -3  -2  -7 129.403 9.40976   6
  -3   2  -7 119.370 11.6954   1
   3   2   7 132.270 9.27750   6
   3  -2   7 115.862 10.2641   4
   3  -2   7 120.586 5.43742   5
  -3   2  -7 117.378 5.26237   6
   3   2   7 87.4984 10.6738   8
   3   2   8-1.22271 2.63573   8
   3   2   8 1.29863 2.50385   7
   3  -2   8 3.69004 3.08067   4
  -3   2  -8 2.00485 1.15252   6
  -3  -2  -8 1.26175 2.01723   6
   3  -2   8 4.60003 3.32584   1
  -3   2  -8 1.17777 2.78115   1
   3  -2   8 0.24441 1.35380   5
   3  -2   9 2385.66 73.9573   8
   3   2   9 2281.25 80.3238   8
   3   2   9 2362.43 82.8424   7
  -3   2  -9 2270.54 63.4277   6
   3  -2   9 2367.45 65.3738   5
  -3  -2  -9 2378.58 71.4600   6
   3   2   9 2315.85 64.5412   2
   3  -2   9 2496.47 81.3124   1
   3  -2   9 2343.09 77.2770   4
  -3  -2  -9 2396.83 79.6769   8
   3  -2  10 4.22853 3.05501   8
   3   2  10 4.06137 4.13026   8
  -3  -2 -10 3.73585 4.33144   8
   3   2  10 7.49254 1.76505   3
  -3   2 -10 7.24302 1.90659   6
   3  -2  10 12.6897 5.09882   4
  -3  -2 -10 4.20525 3.17345   6
   3  -2  10 5.37745 2.28873   5
   3   2  10 8.22642 2.24767   2
   3  -2  10 5.34748 4.64953   1
   3   2  10 10.5871 5.64912   7
   3  -2  11 2940.02 98.4948   4
   3  -2  11 3041.68 93.3948   8
   3   2  11 3072.45 104.733   7
  -3   2 -11 2933.91 82.8097   6
   3   2  11 3060.31 82.4539   3
   3   2  11 3010.23 101.456   8
   3  -2  11 3024.46 85.6177   5
  -3  -2 -11 3204.74 91.1528   6
   3   2  11 3068.11 84.3549   2
  -3  -2 -11 3120.86 100.409   8
   3   2  12 3.33109 2.23587   2
   3   2  12 1.32283 2.01740   3
   3   2  12-1.49185 5.75276   8
   3  -2  12 5.57075 5.19994   4
   3   2  12-1.51108 4.83156   1
  -3  -2 -12 3.11504 2.90826   6
  -3   2 -12 6.94964 2.24805   6
   3  -2  12 1.04243 2.84303   5
   3  -2  12 2.76794 3.66774   8
   3  -2  13 922.410 37.2323   8
   3   2  13 921.503 44.4892   8
   3  -2  13 871.403 42.9989   4
  -3   2 -13 838.698 28.8246   6
  -3  -2 -13 885.966 34.9631   6
   3  -2  13 906.241 32.2729   5
   3   2  13 925.096 44.6628   1
   3   2  13 858.063 29.0668   3
   3   2  13 923.182 30.4830   2
   3   2  14 6.58892 3.05294   2
   3   2  14 6.42438 5.99712   8
   3  -2  14 6.51948 5.87957   4
  -3  -2 -14 1.71954 2.62294   6
   3  -2  14 1.99490 3.72536   8
   3   2  14 5.31093 2.59718   3
   3  -2  14 3.22031 3.22774   5
  -3   2 -15 47.5005 5.12358   6
   3  -2  15 50.6168 10.5841   4
  -3  -2 -15 45.0341 6.95389   6
   3  -2  15 60.0003 8.47190   8
   3   2  15 57.1016 5.82536   3
   3   2  15 49.9358 5.81363   2
   3  -2  15 42.9034 6.48622   5
   3  -2  16 25.9278 6.26500   8
   3  -2  16 9.27856 6.94765   4
  -3  -2 -16 19.7086 5.22301   6
  -3   2 -16 22.1445 3.91728   6
   3  -2  17 693.905 40.9637   4
   3  -2  17 723.631 32.2703   8
  -3  -2 -17 687.241 31.1876   6
  -3   2 -17 633.122 24.7767   6
   3  -2  18 41.4325 10.9923   4
  -3  -2 -18 37.2026 7.14029   6
  -3   2 -18 46.5745 5.57971   6
   3   3 -19 85.4083 16.7589   1
   3  -3 -19 58.6815 11.4438   1
   3  -3 -19 71.1022 13.2068   6
  -3  -3  19 57.8261 14.4369   4
  -3  -3  18 19.2286 8.97809   4
   3   3 -18 15.3595 9.23756   1
   3  -3 -18 13.0972 6.99118   6
   3  -3 -18 3.46025 6.46561   1
   3  -3 -17-1.62601 5.42973   1
  -3  -3  17 2.29380 5.41620   4
   3  -3 -17-1.78348 4.54866   6
   3   3 -17-7.38084 7.49975   1
  -3  -3  17 9.53957 6.16177   5
  -3  -3  16 381.002 30.4002   4
   3  -3 -16 424.579 27.1078   1
   3  -3 -16 380.689 27.6655   6
  -3   3  16 382.452 25.1949   3
  -3  -3  16 328.029 23.2651   5
   3   3 -16 377.269 32.0650   1
   3   3 -15 24.6982 9.46379   1
   3  -3 -15 29.5854 9.03697   8
  -3   3  15 22.1533 7.46905   3
   3  -3 -15 32.2001 7.67064   1
  -3  -3  15 34.9035 9.72455   4
   3  -3 -15 25.5327 7.14416   3
   3  -3 -15 40.6359 8.89489   6
  -3  -3  15 29.0529 7.73720   5
   3  -3 -14 36.5820 8.97378   7
   3  -3 -14 16.4321 7.24182   8
   3  -3 -14 29.2077 8.30122   3
   3   3 -14 50.2290 11.7893   1
   3  -3 -14 24.3011 6.90846   1
   3  -3 -14 21.7368 7.21979   6
  -3   3  14 45.1208 9.07460   3
  -3  -3  14 47.0875 9.34329   5
   3  -3 -13 62.2914 10.5616   8
  -3   3  13 51.6485 8.98672   3
   3  -3 -13 45.8832 9.55167   7
   3  -3 -13 51.9924 9.17820   3
  -3  -3  13 48.2930 9.14345   3
   3  -3 -13 56.6720 8.66035   1
   3   3 -13 43.3042 8.29884   5
  -3   3  13 38.3025 9.07578   5
  -3  -3  13 61.1784 9.39864   5
   3  -3 -12 1774.96 63.2505   1
   3   3 -12 1866.60 67.1756   5
  -3   3  12 1796.14 68.8810   5
  -3   3  12 1903.86 66.1077   3
  -3  -3  12 1865.48 64.9481   5
   3  -3 -12 1823.14 66.6239   3
  -3  -3  12 1815.53 66.3446   3
  -3   3  11 75.4618 9.81201   3
   3  -3 -11 65.6010 8.32206   1
   3  -3 -11 66.7479 9.86654   3
   3   3 -11 61.6778 10.5417   4
  -3   3  11 67.3410 10.4028   5
   3   3 -11 55.7382 9.09040   5
  -3  -3  11 77.9829 9.86660   5
   3  -3 -10 2302.70 70.2763   1
   3   3 -10 2070.44 73.7209   5
   3  -3 -10 2342.76 77.6038   6
  -3   3  10 2164.54 76.8318   5
  -3   3  10 2175.56 73.5755   3
  -3  -3  10 2187.03 72.5617   5
   3  -3 -10 2141.06 74.3769   3
   3   3 -10 2264.04 78.5284   4
   3  -3  -9 126.214 12.6984   6
  -3   3   9 130.694 13.2757   5
   3   3  -9 126.380 12.6117   5
  -3   3   9 123.053 11.8394   3
   3  -3  -9 122.691 9.67919   1
  -3  -3   9 111.518 11.2012   5
   3  -3  -9 127.569 12.3930   3
   3   3  -9 147.712 14.5317   4
   3  -3  -8 411.711 17.9637   1
   3   3  -8 411.275 23.9354   4
   3  -3  -8 489.270 25.0011   6
   3   3  -8 376.575 12.9701   8
   3   3  -8 420.606 22.8803   5
  -3   3   8 427.749 22.5734   3
  -3  -3   8 371.387 20.8953   5
  -3   3   8 432.987 22.6486   2
   3  -3  -8 371.215 21.7996   3
   3   3  -7 144.491 7.54856   8
   3   3  -7 138.155 12.8936   4
  -3   3   7 160.408 12.8751   2
   3  -3  -7 171.958 13.7817   6
  -3   3   7 139.019 12.1520   3
   3   3  -7 179.288 13.7089   5
  -3  -3   7 146.334 12.0090   5
   3  -3  -7 152.505 8.90553   1
   3   3  -6 9918.23 263.164   8
   3  -3  -6 10155.7 274.053   6
   3   3  -6 10217.9 274.249   4
   3   3  -6 9830.38 272.301   5
  -3   3   6 10396.5 272.614   3
  -3   3   6 10277.8 272.290   2
  -3  -3   6 9783.11 270.717   5
   3   3  -5 431.197 21.9335   4
   3   3  -5 385.626 16.7593   8
   3  -3  -5 434.623 22.1206   6
  -3   3   5 465.332 22.1290   3
   3   3  -5 393.805 21.2038   5
  -3   3   5 383.151 20.4566   2
  -3  -3   5 409.914 20.6252   5
   3   3  -4 307.785 14.7481   8
  -3   3   4 300.811 17.1430   3
   3   3  -4 325.850 17.9264   4
   3  -3  -4 303.455 17.3602   6
  -3   3   4 339.385 17.8284   2
  -3  -3   4 272.332 16.1387   5
   3   3  -3-0.71730 2.29335   4
   3  -3  -3 0.73311 1.73111   6
   3   3  -3 2.98194 1.99157   8
  -3   3   3 2.19296 2.72913   5
  -3   3   3-0.73540 2.35121   2
  -3   3   2 2630.88 80.0319   2
   3   3  -2 2531.98 78.2749   8
  -3   3   2 2598.25 78.3662   5
   3   3  -2 2745.48 79.2907   4
   3  -3  -2 2653.95 79.0249   6
   3   3  -1 400.217 19.7845   8
   3   3  -1 426.086 19.3518   4
   3  -3  -1 392.732 18.5647   6
  -3   3   1 405.767 18.3466   5
   3   3   0 6318.72 179.465   8
   3   3   0 6336.13 178.441   6
   3  -3   0 6560.54 175.804   6
  -3   3   0 6384.55 174.181   5
   3  -3   0 6460.73 178.500   2
   3   3   0 6633.32 179.149   5
   3   3   0 6811.38 177.145   4
  -3   3   0 6428.40 170.047   1
   3   3   1 69.9840 7.49366   6
   3  -3   1 74.2953 6.56813   6
  -3   3  -1 76.4642 6.51196   6
   3  -3   1 78.9122 7.72670   2
  -3   3  -1 76.8682 6.03906   5
  -3   3  -1 60.8701 6.06792   4
  -3   3  -1 75.3454 5.70947   1
  -3  -3  -1 78.5870 8.34716   8
   3  -3   2 1921.45 55.1800   7
  -3   3  -2 1935.70 58.9970   4
   3   3   2 1861.93 60.8841   6
   3  -3   2 1952.61 57.9638   6
  -3   3  -2 1975.83 57.7189   6
  -3   3  -2 1963.01 58.3570   1
   3  -3   2 1990.74 61.7047   2
  -3  -3  -2 2047.22 64.7525   8
  -3   3  -2 1888.41 54.8022   5
  -3   3  -3 871.009 31.2446   1
  -3   3  -3 874.669 31.0425   4
  -3  -3  -3 893.695 33.4706   6
   3   3   3 816.073 31.8083   6
  -3  -3  -3 864.093 34.8667   8
   3  -3   3 816.307 28.3401   6
  -3   3  -3 842.194 24.1920   5
  -3   3  -3 868.005 28.6334   6
  -3   3  -4 1204.45 41.7813   4
   3  -3   4 1225.54 37.8383   6
  -3  -3  -4 1260.30 46.3078   8
  -3   3  -4 1215.14 37.5350   6
   3  -3   4 1170.75 40.2063   4
   3   3   4 1237.88 42.3378   6
   3  -3   4 1206.69 39.1781   7
  -3   3  -4 1234.27 42.9175   1
  -3  -3  -4 1187.19 36.8456   2
  -3  -3  -4 1191.66 33.5595   3
  -3  -3  -4 1171.44 42.7678   6
  -3  -3  -5 51.5765 6.73894   6
  -3   3  -5 39.5808 6.20582   1
  -3   3  -5 44.1710 6.21517   4
  -3   3  -5 52.4314 4.68756   6
   3   3   5 42.8262 5.95819   6
  -3  -3  -5 41.4177 4.07051   2
   3  -3   5 42.9434 5.86569   4
  -3  -3  -5 59.3951 8.24333   8
  -3   3  -6 24.5443 3.24186   6
  -3  -3  -6 17.7041 5.24717   8
   3   3   6 12.7913 3.59134   6
  -3   3  -6 17.4653 4.56020   4
  -3  -3  -6 22.7668 4.62793   6
  -3   3  -6 16.6766 4.65712   1
   3  -3   6 17.0589 4.13480   4
  -3  -3  -7 158.134 14.2784   8
   3  -3   7 132.282 11.4449   4
  -3  -3  -7 139.763 11.3845   6
   3   3   7 143.957 11.1885   6
  -3   3  -7 143.494 12.4856   4
   3   3   7 143.062 13.6771   1
  -3   3  -7 157.406 8.45311   6
   3   3   7 154.962 14.7366   8
  -3   3  -7 134.667 13.1734   1
  -3   3  -8 1716.80 59.1993   4
   3   3   8 1709.98 63.6279   8
   3  -3   8 1594.73 56.9566   4
  -3  -3  -8 1667.91 55.5987   6
  -3   3  -8 1584.94 47.8827   6
   3   3   8 1639.53 60.9176   1
   3   3   8 1666.02 55.0011   6
  -3   3  -8 1642.47 61.2414   1
  -3   3  -9-1.35740 3.70128   1
  -3  -3  -9 0.86163 2.49224   6
   3   3   9 1.44737 3.69172   8
  -3   3  -9 3.42252 4.39919   4
   3  -3   9 2.12966 3.97576   4
  -3   3  -9 5.33290 2.02814   6
   3   3   9 1.29940 3.31437   1
   3  -3  10 538.835 24.8958   8
   3   3  10 506.923 31.2216   8
  -3   3 -10 531.648 19.5366   6
  -3  -3 -10 553.520 26.3354   6
   3   3  10 542.869 30.4726   1
  -3   3 -10 568.013 32.1471   1
   3  -3  10 492.523 27.8566   4
  -3  -3 -10 565.500 31.0147   8
   3  -3  11 22.0009 6.39022   4
  -3   3 -11 19.5608 3.38270   6
  -3  -3 -11 19.5957 5.20295   6
   3  -3  11 29.6275 5.54585   8
  -3  -3 -11 40.2568 8.67650   8
  -3   3 -11 29.2334 7.85136   1
   3   3  11 39.7452 8.82464   8
   3   3  11 18.9524 6.76717   1
   3   3  12 1725.11 69.4146   8
   3   3  12 1814.00 68.6139   1
  -3   3 -12 1644.47 51.0066   6
  -3  -3 -12 1767.51 60.2873   6
  -3   3 -12 1867.00 72.2136   1
   3  -3  12 1731.32 57.9990   8
   3  -3  12 1749.82 66.5143   4
  -3  -3 -12 1791.81 68.4000   8
   3  -3  13 146.930 11.9166   8
  -3   3 -13 107.518 7.76317   6
  -3  -3 -13 148.666 13.0392   6
   3  -3  13 106.103 13.7791   4
  -3   3 -13 173.029 18.7489   1
   3   3  13 110.819 14.4772   1
   3   3  13 125.048 8.85545   2
  -3  -3 -13 128.036 15.4772   8
   3  -3  13 118.150 6.08675   5
   3  -3  14 0.85701 3.20013   8
  -3  -3 -14 1.04281 3.62490   6
   3  -3  14-1.65864 4.79697   4
  -3   3 -14 4.01495 5.80569   1
   3   3  14 1.06090 2.45298   2
  -3   3 -14 6.71910 2.44334   6
   3  -3  14 2.06048 2.12419   5
   3  -3  15 23.2330 5.34632   8
   3  -3  15 38.9371 9.81978   4
  -3   3 -15 21.4705 3.86648   6
  -3  -3 -15 25.8917 6.09464   6
  -3   3 -15 27.8440 9.25368   1
   3   3  15 22.9389 4.45674   2
  -3  -3 -16 406.836 23.7196   6
   3  -3  16 457.407 31.1150   4
  -3   3 -16 335.601 16.1959   6
  -3   3 -16 486.132 34.7611   1
   3  -3  16 398.652 20.9990   8
   3  -3  17 9.97796 6.38568   4
  -3   3 -17 8.73097 3.25041   6
  -3  -3 -17 16.0860 6.27117   6
  -3   3 -17 12.1110 7.00983   1
   3  -3  18 505.028 35.1853   4
  -3   3 -18 463.144 19.3967   6
  -3  -3 -18 479.274 27.0010   6
   3  -4 -18 1.94280 4.58860   6
  -3  -4  18 9.61437 8.02693   4
   3   4 -18 5.48282 7.92855   1
  -3  -4  17 804.398 47.7594   4
   3  -4 -17 806.482 44.0963   6
   3   4 -17 800.327 51.1361   1
  -3  -4  16 6.55807 8.42902   4
   3  -4 -16 7.25682 6.77323   6
   3  -4 -16-3.03846 4.85722   3
   3   4 -16 5.07807 6.47563   1
  -3  -4  16-1.22002 5.51627   5
   3  -4 -15 1261.77 56.7907   6
   3   4 -15 1234.14 63.5423   1
  -3  -4  15 1223.10 59.4043   4
  -3   4  15 1280.01 52.7011   3
  -3  -4  15 1276.03 50.3706   5
   3  -4 -15 1247.33 53.2726   3
  -3  -4  14 23.8397 6.88826   5
   3  -4 -14 33.3357 8.42561   7
   3  -4 -14 47.2759 9.20093   3
  -3  -4  14 47.0327 10.8862   4
   3  -4 -14 26.7721 8.26966   6
  -3   4  14 32.1291 8.16939   3
   3   4 -14 39.2634 8.29929   5
   3  -4 -13 198.001 18.1846   7
   3  -4 -13 200.046 19.2238   8
   3   4 -13 230.397 18.2721   5
  -3   4  13 194.437 16.8764   3
  -3  -4  13 211.083 16.4399   5
  -3   4  13 189.570 17.2755   2
   3  -4 -13 199.852 17.5363   3
   3   4 -12 160.223 17.3038   4
  -3   4  12 132.713 15.7730   5
   3   4 -12 184.074 15.8591   5
  -3   4  12 142.911 14.2343   3
   3  -4 -12 189.997 16.8946   7
  -3   4  12 165.673 15.4261   2
  -3  -4  12 156.564 14.0380   5
   3  -4 -12 120.733 13.7423   3
   3   4 -11 1484.45 60.0242   4
   3  -4 -11 1526.84 56.6082   7
   3   4 -11 1429.54 55.1513   5
   3  -4 -11 1363.70 57.5996   6
  -3   4  11 1466.51 54.9147   3
  -3   4  11 1533.85 56.1250   2
  -3  -4  11 1326.02 51.9496   5
   3  -4 -11 1396.21 55.3673   3
  -3   4  10 35.8915 7.85206   2
  -3  -4  10 21.4811 6.07804   5
  -3   4  10 38.6021 7.40785   3
   3   4 -10 40.3256 8.81562   4
   3  -4 -10 23.8144 6.13717   7
   3  -4 -10 36.2393 7.49755   3
   3  -4 -10 34.2639 7.85570   6
   3   4 -10 28.5820 6.83917   5
   3   4  -9 588.041 32.6053   4
   3  -4  -9 642.943 30.6088   7
  -3   4   9 629.879 30.8995   3
   3   4  -9 625.687 30.6854   5
  -3   4   9 669.247 31.8737   2
  -3  -4   9 629.777 29.4658   5
   3  -4  -9 641.679 31.6397   3
   3  -4  -9 677.879 33.3469   6
  -3   4   8 64.9219 8.88074   3
   3  -4  -8 65.2900 8.87727   3
   3   4  -8 86.3366 11.1558   4
  -3  -4   8 70.3469 8.66560   5
   3  -4  -8 65.7412 9.68414   6
   3   4  -8 59.6252 8.78126   5
  -3   4   8 71.8568 9.51467   2
   3  -4  -8 58.6202 7.93171   7
   3   4  -7 432.375 24.7598   4
   3  -4  -7 363.010 21.6317   3
   3  -4  -7 394.990 20.4603   7
   3  -4  -7 421.166 23.9779   6
  -3   4   7 389.919 22.0320   3
  -3   4   7 399.400 22.3588   2
   3   4  -7 402.799 22.6423   5
  -3  -4   7 376.874 20.9298   5
   3   4  -6 87.2481 10.7857   4
   3  -4  -6 113.356 11.5249   6
  -3   4   6 102.903 10.5570   2
   3   4  -6 97.8611 10.2755   5
   3  -4  -6 95.3003 10.3613   3
   3   4  -5 2228.43 67.3282   8
   3   4  -5 2437.71 76.2957   4
   3  -4  -5 2268.00 74.6900   6
  -3   4   5 2310.01 74.0302   2
   3   4  -5 2189.90 73.0368   5
   3   4  -4 3.72947 3.48091   4
   3   4  -4-0.87343 2.91663   5
   3  -4  -4 1.88037 2.71891   6
   3   4  -4 0.63258 1.82934   8
  -3   4   4-3.66654 3.53441   2
   3   4  -3 1695.92 58.0056   8
  -3   4   3 1978.65 62.3686   2
   3   4  -3 1921.76 62.0713   4
   3   4  -3 1816.86 61.1899   5
   3  -4  -3 1815.32 61.0229   6
   3   4  -2 37.7043 6.25616   5
   3   4  -2 23.9112 4.79495   8
   3   4  -2 27.8672 5.57148   4
   3  -4  -2 27.3655 5.04784   6
   3  -4  -2 34.6537 5.96737   3
   3   4  -1 56.1569 7.24875   4
  -3  -4   1 40.4209 6.20356   8
  -3   4   1 50.2293 3.34752   1
   3  -4   0 341.784 17.9552   6
  -3   4   0 298.578 12.7184   1
  -3   4   0 301.724 15.6006   5
   3   4   0 370.134 19.0143   4
  -3  -4   0 364.871 19.7391   8
  -3   4   0 317.571 17.0739   4
   3  -4   1 3231.39 92.9432   6
  -3  -4  -1 3295.42 96.5252   8
   3   4   1 3054.21 94.7199   6
  -3   4  -1 3307.86 92.7717   6
  -3   4  -1 3014.13 88.5981   5
  -3   4  -1 2995.19 87.7429   1
   3  -4   1 3090.45 95.1848   2
  -3   4  -1 3259.05 92.7965   4
   3   4   2 1379.59 50.0372   6
   3  -4   2 1496.33 47.7788   6
  -3   4  -2 1411.86 46.7500   6
  -3   4  -2 1401.34 43.1920   5
  -3   4  -2 1435.12 45.9596   1
  -3  -4  -2 1512.75 52.6764   8
   3  -4   2 1354.69 49.9859   2
  -3   4  -2 1392.96 48.0769   4
   3   4   3 9028.69 246.272   6
  -3  -4  -3 8804.47 247.634   6
  -3   4  -3 9140.82 244.830   4
   3  -4   3 9114.96 242.294   6
  -3   4  -3 9131.52 241.675   6
   3  -4   3 8988.07 246.888   2
  -3   4  -3 8884.16 235.487   5
  -3   4  -3 9060.90 243.137   1
  -3  -4  -3 9416.39 250.803   8
  -3  -4  -4 15.7064 5.42686   8
  -3  -4  -4 15.5023 4.87490   6
   3  -4   4 14.6883 3.47071   6
  -3   4  -4 15.5170 4.74592   4
  -3   4  -4 20.4024 4.80735   1
   3   4   4 22.6159 5.25663   6
  -3   4  -4 23.6382 4.18439   6
  -3  -4  -4 17.9946 3.85433   2
  -3   4  -5 1275.01 46.1156   4
  -3   4  -5 1235.34 45.9878   1
  -3  -4  -5 1201.77 46.4420   6
   3   4   5 1197.65 44.9228   6
  -3   4  -5 1294.51 40.9001   6
  -3  -4  -5 1242.45 36.1428   3
  -3  -4  -5 1150.96 39.7889   2
  -3  -4  -5 1218.93 49.0065   8
   3  -4   5 1188.67 44.0165   4
  -3  -4  -6 3.76299 3.82360   8
  -3  -4  -6 0.21675 1.08573   3
   3   4   6 2.79798 3.81435   8
   3  -4   6-0.86301 3.32764   4
   3   4   6 4.87840 4.07257   7
  -3   4  -6-2.89310 3.71846   4
  -3  -4  -6-0.99509 3.03336   6
   3   4   6-7.08717 3.07905   6
  -3   4  -6-0.53454 2.06113   6
  -3   4  -6 2.12290 3.39357   1
   3   4   7 521.874 31.1282   8
   3   4   7 565.564 30.5149   7
   3  -4   7 528.994 26.3991   4
  -3  -4  -7 564.603 27.7019   6
  -3   4  -7 569.066 22.0775   6
   3   4   7 595.012 27.1556   6
  -3   4  -7 568.473 28.0163   4
  -3   4  -7 571.485 29.3818   1
  -3  -4  -7 599.315 31.2953   8
  -3  -4  -7 504.520 16.2918   3
   3   4   7 577.632 29.8590   1
   3   4   8 2.88521 3.40743   7
   3   4   8 1.87659 3.38539   6
  -3   4  -8 6.51679 4.16789   1
   3   4   8-1.54377 3.64622   8
  -3  -4  -8 12.4439 5.33203   8
   3   4   8 7.83016 4.70780   1
  -3   4  -8 3.45112 4.43653   4
  -3  -4  -8 1.03628 2.64439   6
   3  -4   8 6.14367 4.18859   4
  -3   4  -8 4.67571 2.55509   6
  -3   4  -9 3455.65 106.411   4
   3   4   9 3184.30 110.673   8
   3  -4   9 3192.60 103.698   4
   3   4   9 3304.21 110.372   7
   3   4   9 3408.91 108.444   1
  -3  -4  -9 3266.08 103.026   6
  -3   4  -9 3289.82 93.9111   6
   3   4   9 3386.73 101.974   6
  -3   4  -9 3405.06 109.200   1
   3   4  10 10.0348 6.03508   8
  -3   4 -10 9.29579 5.38791   1
  -3   4 -10 9.45150 5.82364   4
   3   4  10 6.61409 5.74995   7
  -3  -4 -10 4.35289 3.78672   6
   3  -4  10 6.21130 4.94081   4
  -3   4 -10 9.25680 3.47501   6
   3   4  10 4.31631 4.80795   1
  -3   4 -11 1728.94 63.9737   4
   3  -4  11 1577.10 61.5267   4
   3  -4  11 1617.39 53.3165   8
  -3  -4 -11 1594.17 58.4490   6
  -3   4 -11 1461.13 48.8949   6
   3   4  11 1613.17 66.5637   7
   3   4  11 1614.79 63.6726   1
  -3   4 -11 1680.58 66.6054   1
  -3   4 -12-1.81211 6.05111   1
   3   4  12-3.75548 4.78900   7
   3  -4  12-0.74114 2.85773   8
  -3  -4 -12 1.16109 4.03549   6
  -3   4 -12 2.09502 2.52440   6
   3  -4  12 5.85639 6.15186   4
   3   4  12 6.35235 4.84100   1
  -3  -4 -13 8.36227 4.89140   6
  -3   4 -13 9.46734 3.05128   6
   3  -4  13 10.9957 6.06144   4
   3  -4  13 10.3402 3.84140   8
  -3   4 -13 5.85243 5.95140   1
   3  -4  14-1.44137 3.18386   8
   3  -4  14 3.35557 5.11460   4
  -3   4 -14 1.58590 2.22164   6
  -3  -4 -14 7.38444 4.74574   6
  -3   4 -14 6.28090 5.70845   1
  -3   4 -15 15.8408 3.59467   6
   3  -4  15 17.9701 4.24057   8
   3  -4  15 16.0678 7.90085   4
  -3  -4 -15 25.3464 7.13928   6
  -3   4 -15 37.8699 10.5307   1
   3  -4  16 1.89132 6.31560   4
  -3   4 -16-1.04524 2.71299   6
  -3  -4 -16 3.89993 4.85335   6
  -3   4 -16-2.34382 5.53428   1
  -3  -4 -17 752.956 36.9217   6
  -3   4 -17 737.634 46.8143   1
   3  -4  17 692.484 42.0817   4
  -3  -5  17 16.6267 8.56990   4
   3  -5 -17 3.17687 5.73344   3
   3   5 -17 11.3411 9.06732   1
   3  -5 -17 10.0135 7.22678   6
  -3  -5  16 334.059 29.2368   4
   3   5 -16 347.180 32.1943   1
   3  -5 -16 366.174 28.2503   6
   3  -5 -16 305.043 23.8866   3
  -3  -5  15 40.9793 8.31592   5
   3  -5 -15 73.1198 11.8208   3
  -3  -5  15 56.2799 12.4143   4
   3  -5 -15 48.6060 11.0402   6
   3   5 -15 50.9778 9.48282   5
  -3   5  14 59.1636 10.6958   3
   3  -5 -14 64.4697 11.4239   7
   3  -5 -14 74.2667 11.5183   3
  -3  -5  14 65.6171 12.9466   4
  -3  -5  14 93.7891 11.1610   5
   3   5 -14 83.4910 11.6169   5
  -3   5  13-5.21235 6.15374   3
  -3  -5  13 5.33696 4.48499   5
   3  -5 -13-1.43200 4.97710   7
  -3  -5  13 1.92457 6.15304   4
   3  -5 -13-1.44018 4.80913   3
   3   5 -13 1.30974 4.72398   5
   3  -5 -12 1308.92 51.5343   7
  -3  -5  12 1096.39 54.0506   4
  -3   5  12 1235.78 50.0749   3
   3   5 -12 1251.25 49.8989   5
  -3  -5  12 1109.97 45.5024   5
   3  -5 -12 1156.52 50.1957   3
   3  -5 -11 57.4091 9.46312   7
   3  -5 -11 44.2566 8.89307   3
   3   5 -11 54.0247 9.74317   6
   3  -5 -11 52.1270 9.97935   6
  -3  -5  11 63.2061 9.19324   5
   3   5 -11 65.0873 9.65913   5
  -3   5  11 76.9862 10.7760   2
   3  -5 -10 550.663 30.4809   3
   3  -5 -10 583.216 29.2247   7
   3  -5 -10 587.278 32.9132   6
   3   5 -10 586.899 33.8233   4
   3   5 -10 570.124 29.5823   5
   3   5 -10 551.430 31.0231   6
  -3   5  10 580.118 30.8066   2
   3  -5  -9 391.365 21.7999   7
   3   5  -9 338.809 22.9209   6
   3  -5  -9 323.294 23.5806   6
  -3   5   9 376.619 23.3342   2
   3   5  -9 326.682 21.6544   5
   3  -5  -9 335.608 22.4105   3
   3   5  -9 375.399 25.1470   4
   3   5  -8 854.614 41.0038   4
   3  -5  -8 893.819 36.0203   7
   3  -5  -8 982.804 42.6623   6
  -3   5   8 916.732 40.0253   2
   3   5  -8 814.745 37.7129   5
   3  -5  -8 869.522 38.9764   3
   3   5  -8 916.537 40.6415   6
   3  -5  -7 2.31049 3.52154   3
   3  -5  -7 2.29954 2.95556   7
   3   5  -7 3.88442 4.50025   4
   3   5  -7 1.21465 4.05603   6
   3  -5  -7-2.56466 4.28203   6
  -3   5   7-2.30538 4.15754   2
   3   5  -7 3.22568 3.73707   5
   3   5  -6 6255.91 177.046   4
  -3   5   6 6136.31 174.307   2
   3  -5  -6 5943.27 173.511   3
   3   5  -6 5772.03 171.640   5
   3  -5  -6 6208.42 176.025   6
   3  -5  -6 5964.87 165.474   7
   3  -5  -5 363.882 23.0539   6
   3  -5  -5 393.422 23.1050   3
   3   5  -5 366.807 21.8149   5
   3  -5  -5 384.518 17.1313   7
   3   5  -5 409.231 24.1397   4
   3  -5  -4 157.456 14.0133   6
   3  -5  -4 163.726 8.89584   7
   3   5  -4 165.336 14.4956   4
   3   5  -4 169.010 14.6512   6
   3  -5  -4 139.363 13.3486   3
   3   5  -4 165.252 13.6382   5
  -3  -5   3 6.21052 3.08945   8
   3   5  -3 7.97680 4.40740   5
   3  -5  -3 4.38616 3.66498   2
   3   5  -3 13.8757 5.14685   4
   3  -5  -3 4.27541 2.91843   6
   3   5  -3 5.46057 3.94217   6
   3   5  -2 553.462 26.5592   4
   3   5  -2 588.969 27.3995   6
   3  -5  -2 609.421 27.3838   6
   3  -5  -2 568.743 27.1662   2
   3   5  -2 564.245 26.8178   5
  -3  -5   2 587.511 25.1082   8
   3  -5  -1 563.232 26.5515   6
  -3   5   1 536.129 25.4715   6
   3   5  -1 585.910 27.4876   4
   3   5  -1 558.669 27.4104   6
   3  -5  -1 505.172 26.8334   2
   3   5  -1 548.492 27.0614   5
  -3  -5   1 497.076 24.9729   8
   3   5   0 2397.30 80.3724   8
   3  -5   0 2491.66 78.7578   6
  -3   5   0 2581.49 78.4986   6
  -3  -5   0 2508.30 79.6801   8
   3   5   0 2416.16 79.8780   6
   3  -5   0 2355.78 79.7652   2
   3   5   0 2700.46 80.7678   4
  -3   5   0 2526.60 78.3709   4
  -3   5   0 2310.75 69.8117   1
  -3  -5  -1 27.8125 6.02952   8
   3  -5   1 20.6828 4.76926   6
   3   5   1 15.6302 5.23875   6
  -3   5  -1 6.13876 3.90006   4
   3   5   1 16.6393 5.27254   4
  -3   5  -1 27.0952 5.49382   6
   3   5   1 19.9825 5.90490   8
  -3   5  -1 19.1822 3.83628   1
   3  -5   1 17.1992 4.98988   2
  -3  -5  -2 464.869 25.3735   8
   3   5   2 412.204 24.9429   8
  -3   5  -2 443.582 23.1525   4
   3   5   2 437.990 24.1075   6
  -3   5  -2 409.675 21.2816   6
   3  -5   2 408.348 23.5401   2
  -3   5  -2 412.483 18.1221   5
   3  -5   2 452.961 22.7202   6
  -3   5  -2 428.186 20.0203   1
  -3  -5  -3 18.1735 5.87652   8
   3   5   3 37.2347 7.61228   8
   3  -5   3 31.4393 5.77131   6
  -3   5  -3 29.4032 6.03158   4
   3   5   3 31.0936 6.19397   6
  -3   5  -3 19.3341 3.33752   5
   3  -5   3 42.9531 7.30818   2
  -3   5  -3 23.5326 4.76785   1
  -3  -5  -4 49.7971 8.33913   6
  -3   5  -4 64.4102 8.69039   4
   3  -5   4 39.4353 6.36412   6
   3   5   4 48.9852 7.88532   6
  -3  -5  -4 47.3649 8.28353   8
  -3   5  -4 53.0162 3.98628   5
  -3   5  -4 45.2237 6.81659   1
  -3  -5  -5 41.7203 8.05653   8
  -3   5  -5 44.9209 7.63890   4
   3   5   5 38.4790 7.83672   7
  -3  -5  -5 33.5945 7.00771   6
   3  -5   5 48.1685 6.72832   6
   3   5   5 34.2282 6.85113   6
  -3  -5  -5 33.6772 4.23337   3
  -3   5  -5 40.9688 6.90956   1
  -3  -5  -6-0.39045 2.12924   3
   3   5   6 1.29192 3.05061   7
  -3   5  -6 1.12374 5.30683   4
  -3   5  -6 1.14464 3.65962   1
  -3  -5  -6 3.65132 3.51982   6
   3   5   6 6.36930 3.96328   6
  -3  -5  -6-1.41133 3.84807   8
   3  -5   7 28.0533 6.35581   4
  -3   5  -7 26.2272 7.20239   4
  -3  -5  -7 21.4776 3.22585   3
   3   5   7 24.8224 6.35734   6
  -3   5  -7 20.2611 6.13368   1
  -3  -5  -7 25.0781 7.41406   8
   3   5   7 22.4577 6.64489   1
  -3  -5  -7 40.5293 7.87665   6
   3   5   7 19.5865 6.49632   7
  -3  -5  -8 940.655 42.2437   6
   3   5   8 971.531 43.9850   1
   3  -5   8 966.697 41.8043   4
  -3   5  -8 1059.25 44.0981   4
   3   5   8 946.416 40.8432   6
  -3   5  -8 1004.72 44.4428   1
   3   5   8 1039.30 46.6517   7
  -3  -5  -8 938.438 29.8641   3
  -3  -5  -8 995.161 46.0565   8
  -3  -5  -9 3.19878 5.34084   8
   3   5   9-1.62550 5.19696   7
  -3   5  -9-1.36786 4.75423   4
   3   5   9 2.91506 4.21509   1
  -3   5  -9-1.51855 4.14041   1
  -3  -5  -9 1.32073 1.40774   3
  -3  -5  -9 2.54930 4.07527   6
   3  -5   9 1.23535 3.57259   4
   3   5   9 1.15317 4.58338   6
   3   5  10 136.090 15.8996   7
   3   5  10 168.477 16.5591   1
  -3  -5 -10 132.473 14.0864   6
   3   5  10 132.773 13.4881   6
  -3   5 -10 147.670 16.5421   1
   3  -5  10 140.836 14.5977   4
  -3   5 -10 160.612 16.2199   4
   3   5  11 319.246 26.5183   7
  -3   5 -11 401.690 27.0168   4
   3  -5  11 357.206 24.8266   4
   3   5  11 353.594 25.5172   1
  -3   5 -11 368.320 27.3058   1
  -3  -5 -11 366.993 24.0277   6
   3  -5  12 126.707 14.8975   4
   3   5  12 121.702 16.5951   7
  -3  -5 -12 104.103 12.6316   6
  -3   5 -12 143.433 17.1180   1
   3  -5  12 103.074 9.30012   8
  -3  -5 -13 207.374 17.9942   6
   3  -5  13 198.595 19.1567   4
  -3   5 -13 217.699 22.3018   1
   3  -5  13 187.590 12.4469   8
  -3  -5 -14 14.1253 6.53955   6
   3  -5  14 12.0368 7.23370   4
  -3   5 -14 15.0922 7.50174   1
  -3  -5 -15 28.9017 7.40957   6
   3  -5  15 32.8965 9.83779   4
  -3   5 -15 27.5722 9.42715   1
   3  -5  16 146.634 18.1998   4
  -3  -5 -16 148.891 15.7055   6
   3  -6 -15 50.4539 10.3831   3
  -3  -6  15 41.7941 11.2891   4
   3  -6 -15 57.8323 11.4407   6
   3   6 -15 46.2272 9.44218   5
   3  -6 -14 48.0184 10.0993   3
  -3  -6  14 46.0840 12.0155   4
   3   6 -14 56.2601 10.0020   5
   3  -6 -13 919.572 42.1403   7
  -3  -6  13 828.899 47.0465   4
   3   6 -13 931.848 42.0558   5
   3  -6 -13 875.235 42.7211   3
   3  -6 -12 5.04946 4.55941   7
   3  -6 -12 10.2826 5.84323   3
  -3  -6  12 18.9337 7.52905   4
   3  -6 -12 5.37960 5.19127   6
   3   6 -12 16.8311 6.72520   5
   3  -6 -11 62.1013 9.04671   7
  -3  -6  11 45.1089 9.78492   4
   3  -6 -11 81.3571 12.5651   6
   3   6 -11 70.6516 10.4141   5
   3  -6 -11 34.4989 8.31638   3
   3  -6 -10 62.1972 8.60116   7
   3  -6 -10 45.6187 9.15259   3
   3  -6 -10 63.2171 10.8542   6
   3   6 -10 56.6093 9.22579   5
   3  -6  -9 50.1421 8.80760   3
   3  -6  -9 46.9478 7.26046   7
   3  -6  -9 62.4265 10.6504   6
   3   6  -9 41.2703 8.03185   5
   3   6  -8 189.261 17.3595   6
   3  -6  -8 234.861 19.8024   6
   3   6  -8 191.235 16.5210   5
   3  -6  -8 201.006 17.0920   3
   3   6  -7 123.004 13.9659   6
   3  -6  -7 140.355 15.3892   6
   3  -6  -7 125.785 13.7015   3
   3   6  -7 164.530 14.4153   5
   3   6  -7 118.754 14.5402   4
   3  -6  -6-1.26650 3.23013   3
   3   6  -6 1.41771 4.92744   4
   3   6  -6 3.95795 4.92558   6
   3  -6  -6 1.41826 3.61718   6
   3   6  -6 4.55485 4.10717   5
   3   6  -5 74.7920 11.0967   4
   3  -6  -5 79.9954 11.1074   6
   3  -6  -5 89.8961 11.2227   3
   3   6  -5 64.8658 9.71865   5
   3   6  -4 2.23956 4.70663   5
   3  -6  -4 7.57307 4.03709   3
  -3  -6   4 2.47586 3.28231   8
   3   6  -4 3.88429 4.99386   4
   3  -6  -4 9.13906 5.03555   6
   3   6  -3 517.292 27.3252   4
   3   6  -3 483.048 26.4179   6
   3  -6  -3 468.519 26.1283   6
   3  -6  -3 416.187 24.9742   3
   3  -6  -3 476.697 26.3158   2
   3   6  -3 505.208 25.9815   5
  -3  -6   3 487.718 23.1335   8
   3  -6  -2 15.2538 6.25187   2
   3   6  -2 14.1701 5.46341   5
   3   6  -2 3.69168 4.11496   6
   3   6  -2 2.44326 4.25153   4
   3  -6  -2 9.77031 5.52623   6
  -3   6   2 21.1725 7.04727   6
  -3  -6   2 5.92409 3.81332   8
  -3   6   2 9.84942 2.45640   1
  -3  -6   1 899.224 37.0255   8
   3   6  -1 881.585 38.6276   4
  -3   6   1 818.935 36.7180   4
   3  -6  -1 854.857 37.7229   6
   3   6  -1 850.775 38.1554   6
  -3   6   1 810.165 36.2060   6
   3  -6  -1 867.991 39.1059   2
   3   6  -1 838.711 37.8027   5
  -3   6   1 721.282 27.0158   1
  -3  -6   0 49.2723 8.19747   8
   3  -6   0 57.9652 8.56367   6
   3   6   0 54.9251 8.80068   6
   3   6   0 50.2419 9.01301   4
  -3   6   0 37.5055 7.53653   4
  -3   6   0 55.2261 8.14226   6
  -3   6   0 32.2704 4.74861   1
   3  -6   0 55.2960 9.05710   2
  -3  -6  -1 8.54590 4.85415   8
   3  -6   1 6.67731 4.01626   6
   3   6   1 6.06006 4.37360   6
  -3   6  -1 2.14756 4.39358   4
  -3   6  -1 7.16066 2.94640   1
   3   6   1 2.33456 3.90021   4
  -3   6  -1 1.02018 3.68211   6
   3  -6   1 10.1163 4.87773   2
  -3  -6  -2 1.29515 3.94970   8
   3  -6   2 7.60675 4.19164   6
  -3   6  -2 4.58622 2.75933   1
  -3   6  -2 6.60414 4.62632   4
   3   6   2 3.62632 4.20280   6
  -3   6  -2 4.93711 3.80908   6
   3   6   2 3.50206 5.15797   4
   3  -6   2 3.84421 5.24187   2
   3   6   3 2648.77 89.0899   6
  -3   6  -3 2910.35 89.9896   4
   3  -6   3 2800.85 87.4708   6
  -3   6  -3 2860.61 86.2825   6
  -3  -6  -3 2533.40 84.1486   2
   3  -6   3 2613.11 89.8309   2
  -3   6  -3 2617.73 77.9140   5
  -3   6  -3 2643.71 83.6739   1
  -3  -6  -3 2896.27 92.8410   8
  -3   6  -4 64.0115 8.64804   1
  -3   6  -4 63.3884 8.37316   6
   3  -6   4 57.9925 8.42872   6
  -3  -6  -4 56.1913 9.69383   6
   3   6   4 55.8183 9.03549   6
  -3   6  -4 63.7542 5.51833   5
   3  -6   4 72.3387 10.1760   2
  -3   6  -4 69.6060 9.89896   4
  -3  -6  -4 45.2327 7.34816   2
  -3  -6  -4 45.7973 9.27507   8
  -3   6  -5 36.8923 7.00676   1
  -3  -6  -5 22.9780 4.28083   3
  -3  -6  -5 35.9287 8.43340   8
   3   6   5 33.1683 7.39989   7
   3   6   5 21.8105 6.42235   6
  -3   6  -5 34.4261 7.70161   4
   3  -6   5 37.4500 6.92215   6
  -3  -6  -5 22.7069 6.44141   6
  -3   6  -5 23.6505 5.50492   6
  -3   6  -5 18.8166 2.12554   5
  -3   6  -5 20.7077 2.07003   5
  -3  -6  -5 16.9115 5.10724   2
  -3  -6  -6-0.85856 3.41235   2
   3   6   6 1.36796 3.72973   7
  -3  -6  -6 1.56284 4.26109   8
  -3   6  -6-1.31177 4.73132   4
  -3  -6  -6-2.86796 3.65723   6
  -3   6  -6-1.76408 3.18135   6
   3   6   6 2.47509 3.77243   6
  -3   6  -6 6.18148 4.29689   1
  -3  -6  -6 0.54936 1.98143   3
  -3  -6  -7 2.50321 2.10426   3
   3   6   7 2.94348 4.48664   7
  -3   6  -7 2.70866 5.69088   4
  -3  -6  -7 1.45418 3.13489   6
  -3   6  -7 0.85886 3.09818   6
   3   6   7 1.25086 4.67028   6
  -3   6  -7 2.71077 3.69583   1
   3   6   7 2.82258 4.51233   1
   3   6   8 48.2039 9.36891   1
  -3  -6  -8 30.7370 4.45931   3
   3   6   8 20.4879 6.83353   7
  -3   6  -8 41.1619 8.68443   4
  -3  -6  -8 22.0379 6.97683   6
  -3   6  -8 24.6336 5.35703   6
   3   6   8 29.4283 7.22908   6
  -3   6  -8 26.6165 7.30508   1
  -3   6  -9 1976.57 72.4324   4
   3   6   9 1881.59 71.8916   1
  -3  -6  -9 1902.58 71.5432   6
   3   6   9 1998.74 74.6368   7
  -3   6  -9 1832.46 61.7618   6
  -3   6  -9 1936.56 73.3204   1
  -3  -6  -9 1825.08 55.0411   3
  -3  -6 -10 48.4335 9.70289   6
  -3   6 -10 57.1716 11.0698   1
  -3   6 -10 66.9045 8.27915   6
   3  -6  10 52.1989 10.4910   4
  -3  -6 -10 66.3659 5.23766   3
  -3  -6 -11 403.807 26.9714   6
   3  -6  11 387.577 26.5434   4
  -3   6 -11 367.205 19.8792   6
  -3   6 -11 343.099 27.7187   1
   3   6  11 416.392 29.4112   7
  -3   6 -12 11.2249 4.37890   6
   3  -6  12 8.08928 5.84040   4
  -3  -6 -12 7.82877 5.85068   6
  -3   6 -12 9.86163 6.85938   1
  -3   6 -13 133.954 17.8923   1
  -3  -6 -13 140.058 15.8382   6
  -3   6 -13 128.770 10.8839   6
   3  -6  13 114.292 14.9791   4
  -3   6 -14 122.049 17.7332   1
  -3  -6 -14 113.184 15.0510   6
   3  -6  14 98.4241 15.1028   4
   3  -7 -13 9.50597 6.48414   3
  -3  -7  13 12.7621 8.20515   4
   3   7 -13 7.96199 6.13962   5
  -3  -7  12 590.095 38.0114   4
   3  -7 -12 537.979 35.8078   6
   3   7 -12 575.409 31.4418   5
   3  -7 -12 527.322 32.0792   3
  -3  -7  11 185.490 20.7310   4
   3  -7 -11 248.057 22.8211   6
   3   7 -11 217.835 18.2359   5
   3  -7 -11 206.041 19.1041   3
   3  -7 -10 227.887 21.7926   6
   3   7 -10 222.821 18.4178   5
   3  -7 -10 211.770 18.8975   3
   3  -7  -9 10.7044 5.96375   6
   3  -7  -9 9.99583 5.15772   3
   3   7  -9 11.6318 5.57831   5
   3   7  -8 169.296 15.8031   5
   3  -7  -8 149.035 15.4024   3
   3  -7  -8 149.619 17.2104   6
   3  -7  -7 14.1747 6.40979   3
   3  -7  -7-1.66416 5.78493   6
   3   7  -7 6.33603 5.46388   5
   3  -7  -6 2777.35 94.9692   6
   3  -7  -6 2537.58 89.9813   3
   3   7  -6 2653.12 88.8186   5
   3  -7  -5 25.5486 7.12118   3
   3  -7  -5 12.4586 6.01868   6
   3   7  -5 12.4775 6.26316   5
   3   7  -4 34.0098 7.59811   5
   3  -7  -4 29.8218 7.51326   3
  -3  -7   4 37.2309 6.58939   8
   3  -7  -4 48.4338 9.12422   6
  -3   7   4 20.6134 2.05424   1
   3   7  -3-1.29281 4.98489   5
  -3   7   3 0.53401 1.62784   1
  -3   7   3 0.28999 1.60583   1
   3  -7  -3-1.42368 4.33982   3
   3  -7  -3 5.85209 4.45976   6
  -3  -7   3-1.04284 3.33408   8
  -3  -7   2 529.282 26.7862   8
  -3   7   2 507.847 28.1448   4
  -3   7   2 506.227 28.0652   6
   3  -7  -2 467.500 28.4359   3
   3  -7  -2 474.872 28.2072   6
   3  -7  -2 469.197 28.5296   2
   3   7  -2 504.312 28.5564   5
   3  -7  -1 7.34947 5.11286   3
   3   7  -1 10.7444 6.07589   5
  -3   7   1 5.01834 4.84179   6
   3  -7  -1 12.4333 5.49448   6
  -3  -7   1 9.65262 5.07391   8
  -3   7   1 17.7262 6.79869   4
  -3   7   1 6.25105 2.61720   1
   3  -7  -1 5.87407 4.90800   2
  -3   7   0 2560.42 83.3905   4
   3  -7   0 2504.62 83.7360   6
  -3   7   0 2423.79 81.5872   6
   3  -7   0 2345.79 84.2538   2
   3   7   0 2732.52 85.9431   5
  -3  -7   0 2567.89 83.6351   8
   3  -7   1 10.6016 5.85715   6
  -3   7  -1 5.08497 5.61894   4
  -3   7  -1 11.9229 5.74985   6
  -3  -7  -1 5.45736 5.58314   8
  -3   7  -1 8.21708 3.88258   1
  -3  -7  -1 3.24094 4.42241   6
   3  -7   1 14.5563 6.27814   2
  -3   7  -2 858.272 37.8597   6
  -3   7  -2 959.031 41.2249   4
   3  -7   2 853.790 39.3393   6
   3  -7   2 796.171 39.9444   2
  -3  -7  -2 786.450 36.7201   2
  -3   7  -2 715.715 32.6041   1
  -3  -7  -2 883.178 41.1821   8
  -3  -7  -3-1.51126 4.37040   8
  -3   7  -3 0.97130 3.50330   1
   3  -7   3-1.26685 3.66358   6
  -3   7  -3-1.34109 4.83705   4
  -3   7  -3-1.12878 3.92319   6
  -3  -7  -3 3.37161 3.90614   2
   3  -7   3 2.99600 4.56638   2
  -3  -7  -4 410.243 27.2444   8
  -3   7  -4 382.449 25.3394   4
   3   7   4 341.021 22.8522   7
  -3   7  -4 394.864 22.9846   6
   3  -7   4 398.495 26.8675   2
   3  -7   4 388.977 24.2881   6
  -3  -7  -4 340.950 21.5238   2
  -3   7  -4 358.026 16.4433   5
  -3   7  -4 380.836 16.1158   5
  -3   7  -4 357.921 21.9657   1
   3   7   5 53.4587 9.10638   7
  -3   7  -5 56.7017 10.4832   4
  -3  -7  -5 50.7849 10.0674   6
  -3   7  -5 59.3151 8.78932   6
  -3   7  -5 44.4431 4.21372   5
  -3   7  -5 47.7611 4.21295   5
   3  -7   5 50.8888 10.1610   2
  -3   7  -5 61.4831 9.52533   1
  -3  -7  -5 51.4486 7.96975   2
  -3  -7  -6 5.15040 4.21468   2
   3   7   6 8.57844 4.97085   7
  -3   7  -6 3.16849 4.07439   6
  -3  -7  -6 1.65365 4.78385   6
  -3   7  -6 7.93661 5.41128   1
   3   7   7 51.8713 9.84896   7
  -3  -7  -7 68.5387 12.0274   6
  -3   7  -7 46.1560 9.11225   1
  -3   7  -7 52.6086 8.54577   6
   3   7   8 1385.59 58.9061   7
  -3  -7  -8 1380.01 59.5290   6
  -3   7  -8 1366.75 50.8789   6
  -3   7  -8 1344.07 57.4193   1
   3   7   9 11.8414 6.73603   7
  -3   7  -9 14.7636 5.29859   6
  -3  -7  -9 17.1285 7.01724   6
  -3   7  -9 15.1530 6.89812   1
  -3  -7  -9 18.8847 4.30315   3
  -3   7 -10 113.953 11.3960   6
  -3   7 -10 108.428 14.9667   1
  -3  -7 -10 102.211 14.1765   6
  -3  -7 -10 115.328 8.37330   3
   3   7  10 138.376 16.7819   7
  -3   7 -11 87.5474 10.0528   6
  -3   7 -11 92.8188 14.2544   1
  -3  -7 -11 115.425 15.4331   6
  -3  -7 -11 84.5870 6.34087   3
  -3  -7 -12 283.450 24.0640   6
  -3   7 -12 264.503 17.6372   6
  -3   7 -12 278.430 25.6861   1
   3  -8 -11 224.605 22.4985   6
   3   8 -11 145.327 15.7408   5
   3  -8 -10 1.56723 5.65299   3
   3  -8 -10 2.03793 7.35063   6
   3   8 -10 2.74350 5.45232   5
   3  -8  -9 215.767 21.8278   6
   3   8  -9 225.072 18.8608   5
   3  -8  -9 160.369 17.0968   3
   3  -8  -8 3.12185 4.99047   3
   3   8  -8 2.76219 5.48922   5
   3  -8  -8-1.92254 4.14405   6
   3  -8  -7 39.2189 9.96512   6
   3  -8  -7 62.0370 10.6692   3
   3   8  -7 72.8035 11.4049   5
   3  -8  -6 17.0799 6.36052   3
   3  -8  -6 19.8931 7.80463   6
   3   8  -6 8.30390 5.97728   5
   3  -8  -5 360.802 25.8536   3
   3  -8  -5 398.706 28.3185   6
   3   8  -5 399.722 25.8598   5
   3  -8  -4 266.555 21.9976   6
   3  -8  -4 267.713 21.1663   3
   3   8  -4 317.772 21.8363   5
  -3  -8   4 295.409 18.3677   8
   3  -8  -3 579.642 33.0276   6
   3  -8  -3 555.850 31.4342   3
   3   8  -3 613.367 32.0751   5
  -3  -8   3 594.717 28.6719   8
  -3  -8   2 130.097 13.6467   8
   3  -8  -2 122.255 15.0370   6
   3  -8  -2 146.054 16.4967   3
   3   8  -2 153.168 15.8527   5
  -3   8   2 97.8345 7.73896   1
   3  -8  -1 11.4980 6.13850   3
  -3  -8   1 6.67776 5.61844   8
   3   8  -1 15.0662 6.33646   5
   3  -8  -1 17.5525 6.34799   6
  -3   8   1 8.74734 3.28927   1
   3  -8  -1 11.5626 6.37498   2
   3  -8   0-1.65801 4.52068   3
  -3  -8   0 2.83742 4.53587   8
   3  -8   0 4.71917 5.02933   6
  -3   8   0 0.69946 2.43127   1
   3   8   0 1.53458 4.67800   5
   3  -8   0 1.66395 4.81206   2
  -3  -8  -1 109.383 13.4650   8
   3  -8   1 113.911 13.9003   6
  -3  -8  -1 100.884 12.6671   2
  -3   8  -1 77.3150 8.87033   1
   3  -8   1 110.170 14.3018   2
   3   8   2 180.873 15.7563   7
  -3  -8  -2 188.604 19.9541   6
   3  -8   2 205.743 18.5159   6
  -3  -8  -2 188.238 16.8974   2
   3  -8   2 163.096 17.5599   2
  -3   8  -2 152.204 13.2124   1
   3   8   3 1473.06 56.8365   7
   3  -8   3 1537.80 63.4942   2
  -3  -8  -3 1439.64 57.5756   2
  -3   8  -3 1414.33 53.9653   1
  -3  -8  -4 17.3429 5.44080   3
  -3   8  -4 24.1700 4.53213   5
  -3   8  -4 29.0534 6.83427   1
   3  -8   4 19.0206 7.07133   6
   3   8   4 12.8939 5.58306   7
  -3   8  -4 16.4972 4.50254   5
  -3  -8  -4 33.8873 7.85817   2
   3  -8   4 20.6076 8.29358   2
   3   8   5 242.098 19.5069   7
  -3  -8  -5 247.014 23.1414   6
   3  -8   5 218.457 21.3941   2
  -3  -8  -5 243.423 16.1486   3
  -3   8  -5 240.481 11.8566   5
  -3  -8  -5 267.315 19.6287   2
  -3   8  -5 234.802 11.2830   5
  -3   8  -5 244.305 19.0526   1
  -3  -8  -6 52.4321 7.39845   3
   3   8   6 59.9692 10.1659   7
  -3  -8  -6 56.4040 11.4045   6
   3  -8   6 53.2420 11.0434   2
  -3   8  -6 54.3916 9.70243   1
  -3  -8  -6 55.1280 8.83355   2
  -3  -8  -7 47.0950 7.02354   3
   3   8   7 53.5888 9.87651   7
  -3  -8  -7 67.6594 12.2228   6
  -3   8  -7 51.4622 10.1922   1
   3  -8   7 45.0283 10.2073   2
  -3  -8  -8 41.1855 6.53086   3
   3   8   8 35.5688 9.40174   7
  -3   8  -8 22.8209 8.37166   1
   3   8   9 1068.57 50.9405   7
  -3  -8  -9 1156.67 54.5883   6
   3  -9  -6 904.165 47.2164   6
   3  -9  -6 762.855 41.5155   3
   3   9  -6 789.863 40.5350   5
   3  -9  -5 1.71045 6.38816   3
   3  -9  -5 7.81775 6.79510   6
   3   9  -5 12.1072 7.14902   5
   3  -9  -4-1.91771 4.89098   6
   3  -9  -4 1.72268 5.75252   3
   3   9  -4-1.53709 5.92684   5
   3   9  -3 4.70706 6.05020   5
   3  -9  -3 1.73947 5.80887   3
   3  -9  -3 1.87607 4.43022   6
  -3   9   3 2.34315 1.70320   1
   3   9  -2 8.11658 6.25950   5
   3  -9  -2 1.76082 5.62978   3
  -3   9   2 0.43782 2.38810   1
   3  -9  -2 16.5932 6.88345   6
   3  -9  -1 8.99593 6.25628   3
   3   9  -1 13.4590 6.88319   5
   3  -9  -1 1.81352 6.05891   6
  -3   9   1 7.57077 3.55576   1
   3  -9   0 695.297 39.2474   3
   3   9   0 642.647 30.7135   7
   3  -9   0 736.352 39.4580   6
  -3  -9   0 611.057 35.2240   2
   3  -9   0 687.492 39.5308   2
   3   9   0 786.647 40.0073   5
  -3   9   0 517.846 25.1612   1
   3   9   1 58.7155 11.4382   5
  -3   9  -1 23.5415 5.43025   1
   3   9   1 30.4010 6.82592   7
   3  -9   1 36.6335 9.39389   6
  -3  -9  -1 43.8939 9.22373   2
   3  -9   1 16.7380 7.85185   2
   3  -9   1 27.8524 8.80208   3
   3   9   2 136.067 13.3763   7
  -3  -9  -2 123.880 14.8328   2
  -3   9  -2 103.233 10.9895   1
   3  -9   2 129.384 16.3461   2
   3  -9   2 153.399 17.0770   6
  -3   9  -3 40.1921 7.69318   1
   3   9   3 27.8814 6.99032   7
   3  -9   3 49.2985 10.0214   6
  -3   9  -3 42.6238 6.46606   5
   3  -9   3 41.2271 10.2710   2
  -3  -9  -3 36.6090 8.64856   2
  -3  -9  -3 54.5702 8.80252   3
  -3   9  -4 17.5518 4.46543   5
  -3  -9  -4 17.6189 5.63643   3
   3   9   4 17.9979 6.45630   7
   3  -9   4 13.2950 6.86639   2
  -3  -9  -4 30.4210 7.91322   2
  -3   9  -4 18.0579 5.82130   1
  -3  -9  -5 40.5574 8.85981   2
   3  -9   5 75.3079 13.1124   2
   3   9   5 74.5748 10.9563   7
  -3   9  -5 60.9264 5.81508   5
  -3   9  -5 48.9235 9.22055   1
  -3  -9  -5 56.1311 8.53317   3
   4   0 -19-2.14717 5.06994   1
   4   0 -19 1.08905 3.78511   8
   4   0 -18 45.3571 7.96255   8
  -4   0  18 46.6161 12.3724   4
   4   0 -18 65.4965 12.5436   1
   4   0 -17-1.05912 4.56585   8
  -4   0  17-2.21691 6.75787   4
   4   0 -17 1.93307 4.93014   1
  -4   0  16 807.141 45.7786   4
   4   0 -16 799.880 43.5823   1
   4   0 -16 805.856 35.3940   8
   4   0 -15 0.99172 3.31175   8
  -4   0  15 1.47487 6.03189   3
  -4   0  15-1.96870 6.00128   4
  -4   0  15-4.55551 5.66927   5
   4   0 -15-1.72190 4.69485   1
  -4   0  14 2432.40 88.1487   5
  -4   0  14 2720.46 89.6721   3
   4   0 -14 2601.62 91.8626   1
  -4   0  14 2501.28 93.5471   4
   4   0 -13 1.52506 3.88952   1
  -4   0  13 5.39545 5.20102   3
  -4   0  13-1.71587 5.72975   4
  -4   0  13-2.77049 5.66530   5
   4   0 -12 314.529 22.5331   1
  -4   0  12 287.423 21.1237   5
  -4   0  12 281.208 20.7936   3
  -4   0  12 326.110 24.0950   4
  -4   0  11 4.87427 5.50961   3
  -4   0  11-1.47107 3.75183   4
  -4   0  11 1.25302 5.26495   5
  -4   0  10 6391.02 188.562   4
  -4   0  10 6263.97 185.920   5
  -4   0  10 6787.74 186.831   3
  -4   0   9-2.17027 3.46949   3
  -4   0   9-1.21528 3.31369   4
  -4   0   9-1.12287 4.05018   5
   4   0  -8 924.585 40.8515   5
  -4   0   8 1001.67 39.9159   3
  -4   0   7-0.95107 2.59309   3
   4   0  -7 1.07155 3.09881   5
  -4   0   6 4760.40 135.349   4
  -4   0   6 4616.00 136.368   3
   4   0  -6 4837.65 138.617   5
  -4   0   5-0.81147 3.40964   3
  -4   0   5-1.36760 2.46635   4
   4   0  -5 4.62176 3.33396   5
  -4   0   4 19800.0 522.600   4
   4   0  -4 20556.0 528.572   5
   4   0  -3 1.38565 2.00370   3
  -4   0   3-0.41354 1.26080   4
   4   0  -3-2.35359 2.50832   5
   4   0  -2 98.8563 10.4143   5
  -4   0   2 139.113 7.12291   4
   4   0  -1 0.55975 1.52622   3
  -4   0   1 0.61216 0.70763   4
  -4   0   1-0.52075 1.66496   3
   4   0  -1 1.35343 2.06289   5
  -4   0   0 2658.01 75.3824   3
   4   0   0 2702.79 78.2457   5
   4   0   0 2523.47 75.4531   3
  -4   0  -1 1.69019 1.46891   3
   4   0   1 1.73402 1.38627   3
  -4   0  -1 0.50912 1.47260   5
   4   0   1 0.57801 1.67179   5
  -4   0  -2 634.721 20.2803   2
   4   0   2 643.138 22.5509   3
   4   0   2 614.315 24.3254   5
   4   0   3 2.66296 1.85109   5
   4   0   3-0.37316 1.34592   3
   4   0   3-0.76607 2.21538   1
   4   0   3 0.22952 0.98948   6
   4   0   4 2797.71 87.5701   1
   4   0   4 2818.98 75.7941   6
   4   0   4 2875.83 79.3188   3
   4   0   4 2934.96 82.4571   5
   4   0   5 0.74690 1.13855   3
   4   0   5 1.63375 1.74119   5
   4   0   5-0.92155 2.80925   1
   4   0   5 0.84635 0.71870   6
   4   0   6 424.836 22.9647   1
   4   0   6 404.597 12.8316   2
   4   0   6 399.858 22.8776   7
   4   0   6 431.332 23.1979   8
   4   0   7-1.15853 2.95474   7
   4   0   7-2.34042 2.60512   4
   4   0   7 2.10943 3.21513   8
   4   0   7-0.17263 0.91153   2
   4   0   7 2.19394 3.66308   1
   4   0   8 3660.58 113.466   7
   4   0   8 3722.25 112.088   1
   4   0   8 3518.50 110.233   8
   4   0   8 3457.79 106.883   4
   4   0   9-1.39300 3.28919   7
   4   0   9 1.27935 4.09021   1
   4   0   9 1.03020 3.44013   4
  -4   0  -9 0.79374 0.97992   6
   4   0   9-1.18054 3.59867   8
  -4   0 -10 554.999 31.6125   1
   4   0  10 559.360 29.6515   8
   4   0  10 516.158 27.9311   4
   4   0  10 568.467 31.9077   7
  -4   0 -10 509.002 16.7565   6
   4   0  10 503.045 29.5325   1
   4   0  11-1.28851 3.72624   8
   4   0  11 3.20728 3.78655   7
   4   0  11-1.27758 3.69461   4
  -4   0 -11 0.25006 1.36362   6
   4   0  11 1.47751 4.27280   1
  -4   0 -11 1.60320 3.78551   1
   4   0  12 37.9400 8.82995   1
  -4   0 -12 50.0045 10.0397   1
  -4   0 -12 43.0479 3.98500   6
   4   0  12 47.6017 8.92507   4
   4   0  12 62.0694 9.80201   8
  -4   0 -13 7.38668 5.34036   1
   4   0  13-1.51873 4.62957   4
  -4   0 -13-0.33284 1.72782   6
   4   0  13 1.40410 4.06049   8
  -4   0 -14 628.426 38.0459   1
   4   0  14 588.042 32.8294   8
   4   0  14 516.481 32.7781   4
  -4   0 -14 577.413 20.7631   6
   4   0  14 610.984 25.5781   3
  -4   0 -15-2.09535 4.51653   1
   4   0  15-1.73572 5.29104   4
   4   0  15 2.26024 3.63135   3
  -4   0 -15 0.40014 2.00431   6
   4   0  15 4.48317 4.77774   8
   4   0  16 58.4100 10.4564   8
   4   0  16 33.3328 9.53838   4
  -4   0 -16 54.3237 5.31058   6
  -4   0 -16 62.1764 13.0878   1
   4   0  17 3.15130 5.03752   8
   4   0  17-1.96219 5.67444   4
  -4   0 -17 0.43947 2.11817   6
  -4   0 -17-2.34053 5.04499   1
  -4   0 -18 576.143 41.1696   1
   4   0  18 635.928 35.5159   8
  -4   0 -18 588.599 22.1762   6
   4   0  18 591.687 38.4390   4
   4   1 -19 55.5050 7.51208   8
   4  -1 -19 46.1711 9.62972   8
  -4   1  19 59.4144 13.3586   4
   4   1 -19 55.5209 12.8848   1
   4  -1 -19 57.8771 11.6256   1
   4  -1 -18-3.75034 6.26183   1
  -4   1  18 4.74884 6.47398   4
   4   1 -18 2.99542 3.38612   8
   4   1 -18 6.63883 6.39972   1
   4  -1 -18 3.98969 4.96522   8
   4  -1 -17 793.579 37.8046   8
  -4   1  17 784.746 46.3403   4
   4   1 -17 733.260 30.9045   8
   4  -1 -17 818.971 42.9550   1
   4   1 -17 840.876 46.7571   1
   4   1 -16 21.3720 4.97380   8
   4  -1 -16 32.5101 7.25798   8
  -4   1  16 23.4002 8.22546   4
   4  -1 -16 31.7271 8.23068   1
   4   1 -16 16.0205 7.24893   1
   4   1 -15 1445.60 48.2624   8
   4  -1 -15 1424.10 54.5054   8
  -4  -1  15 1304.81 61.4896   4
  -4   1  15 1359.16 62.9036   4
   4  -1 -15 1353.51 57.9320   1
  -4  -1  15 1348.29 57.3484   5
  -4   1  15 1414.93 57.4510   3
   4   1 -15 1460.91 64.3990   1
   4   1 -14 73.0875 7.97740   8
  -4   1  14 62.3342 10.3928   3
  -4  -1  14 84.0039 13.3959   4
  -4  -1  14 48.7615 9.91854   3
  -4   1  14 71.0468 12.2059   4
   4  -1 -14 56.4188 9.90465   1
  -4   1  14 60.7454 11.0826   5
   4   1 -14 70.2590 12.3936   1
  -4  -1  14 74.5033 11.9987   5
  -4   1  13 304.879 24.8284   4
   4   1 -13 342.177 25.9241   1
  -4  -1  13 365.759 26.4843   4
  -4   1  13 302.408 23.0066   5
  -4  -1  13 316.387 22.8824   5
   4  -1 -13 346.464 23.4736   1
  -4   1  13 341.805 23.3124   3
  -4  -1  13 352.730 23.7049   3
  -4   1  12-1.26396 4.04100   3
  -4  -1  12-1.57921 4.56690   4
  -4  -1  12 5.20184 5.01438   3
   4  -1 -12 2.45842 2.90243   1
   4   1 -12-1.42810 4.96351   5
  -4   1  12 1.37746 4.40389   5
  -4  -1  12-2.60775 5.33252   5
  -4  -1  11 279.848 21.6560   4
   4   1 -11 328.036 22.4521   5
  -4   1  11 293.527 21.3374   5
  -4  -1  11 288.610 20.8122   5
  -4   1  11 317.352 21.0846   3
  -4  -1  11 302.245 20.8749   3
   4  -1 -11 268.228 19.0999   1
   4  -1 -10 90.9716 10.2485   1
  -4  -1  10 104.343 12.3903   4
   4   1 -10 102.053 11.9204   5
  -4  -1  10 90.3582 11.1233   5
  -4   1  10 90.2675 11.2024   3
  -4   1  10 92.3727 11.8285   5
  -4  -1  10 106.045 11.7149   3
   4  -1  -9 1213.15 45.3266   1
  -4  -1   9 1186.91 48.0690   4
  -4   1   9 1168.26 47.5575   5
  -4  -1   9 1237.87 47.9326   5
  -4   1   9 1221.41 47.0859   3
  -4  -1   9 1210.91 47.6795   3
  -4  -1   8 67.8020 9.08641   3
  -4   1   8 74.0824 9.15528   3
   4  -1  -8 70.8449 8.88660   3
  -4  -1   8 64.7569 9.01023   5
   4  -1  -7 1843.35 64.5767   5
  -4   1   7 1850.36 62.2202   3
  -4  -1   7 1824.79 62.4417   3
  -4  -1   6 71.1507 7.84173   4
   4  -1  -6 66.2403 8.59432   5
  -4   1   6 53.8285 7.62079   3
   4   1  -6 55.4583 7.91191   5
   4   1  -5 3027.43 85.6554   4
  -4  -1   5 2724.70 83.8606   4
   4  -1  -5 2847.05 88.2109   5
   4   1  -5 2806.08 87.7704   5
  -4   1   5 2748.85 85.8448   3
  -4  -1   4 46.7019 5.37339   4
  -4   1   4 23.6680 4.85430   3
   4   1  -4 35.0904 5.12147   4
   4  -1  -4 30.3414 5.54234   5
   4   1  -4 28.6621 5.35995   5
   4   1  -3 428.916 18.4369   4
  -4  -1   3 454.763 18.1329   4
   4  -1  -3 489.377 22.5960   5
   4   1  -3 426.128 21.4276   5
   4   1  -3 401.488 19.7656   3
   4  -1  -2 429.051 20.7197   5
   4   1  -2 428.213 16.9879   4
   4   1  -2 450.009 21.2490   5
   4  -1  -2 432.177 19.7161   3
  -4  -1   2 434.339 19.4724   3
  -4  -1   2 414.288 16.2944   4
   4   1  -2 407.357 19.0805   3
   4   1  -1 8931.73 232.722   4
   4  -1  -1 9073.67 238.943   5
  -4   1   1 8880.21 237.821   5
   4  -1  -1 8711.74 237.628   3
   4   1  -1 8812.44 239.352   5
  -4  -1   1 8998.85 236.416   3
   4   1  -1 8737.43 236.457   3
  -4   1   0 16.3719 3.05991   2
   4  -1   0 12.0530 3.00256   3
  -4  -1   0 16.3352 3.03960   3
   4   1   0 16.3020 3.06781   3
   4   1   0 11.5070 2.04879   4
   4  -1   0 16.6284 3.63967   5
  -4   1   0 16.7895 3.29877   5
   4   1   0 16.0157 3.65785   5
  -4   1  -1 4.99350 2.14668   5
   4   1   1 6.46667 2.71947   5
   4  -1   1 6.64812 2.39093   3
  -4  -1  -1 3.90221 1.60783   3
   4  -1   1 8.66181 2.61166   1
   4   1   1 3.15270 1.65965   3
   4   1   1 2.70129 1.25759   4
  -4   1  -1 5.42189 1.97275   2
   4  -1   1 4.35607 2.29065   5
   4  -1   2 104.600 8.58777   1
   4   1   2 92.0946 7.00311   6
   4  -1   2 108.506 8.12164   3
  -4  -1  -2 109.504 6.24544   3
   4  -1   2 111.099 8.02728   5
   4   1   2 109.106 8.92505   5
  -4   1  -2 104.523 7.13914   5
   4   1   2 117.816 6.90271   3
   4  -1   3 38.9529 3.06854   4
   4   1   3 35.1712 4.05769   6
   4  -1   3 34.8488 2.56338   6
   4  -1   3 35.8275 4.71223   3
   4  -1   3 25.8736 4.66361   1
   4  -1   3 41.3093 4.61908   5
   4  -1   3 35.8575 3.86065   2
   4   1   3 39.5694 3.50001   3
   4   1   3 33.5850 4.94893   5
   4  -1   4 98.4301 6.30745   4
   4   1   4 95.7668 6.46101   6
   4  -1   4 102.748 9.48790   1
   4  -1   4 81.7119 6.04075   2
   4  -1   4 101.217 7.06051   5
   4   1   4 96.0341 5.17977   3
   4  -1   5 8652.12 229.540   4
   4  -1   5 8784.27 237.171   7
   4   1   5 8611.41 227.388   6
  -4   1  -5 8917.94 237.993   1
   4  -1   5 8892.15 237.439   1
   4  -1   5 8651.34 227.604   2
   4  -1   5 8629.52 228.585   5
   4   1   5 8582.85 224.031   3
   4  -1   6 511.901 21.8879   4
  -4   1  -6 497.164 26.2778   1
   4  -1   6 511.517 26.0187   7
   4   1   6 515.203 18.9371   6
   4  -1   6 527.667 19.4011   2
   4  -1   6 561.038 26.8513   1
   4   1   6 520.119 16.0187   3
   4  -1   6 537.619 20.1683   5
   4   1   6 544.736 27.6653   8
  -4  -1  -7 2791.49 78.8547   6
   4   1   7 2878.05 92.8406   7
   4  -1   7 2819.89 90.5815   7
   4   1   7 2854.41 91.8402   8
   4   1   7 2787.13 75.0292   3
   4  -1   7 2934.69 91.1528   1
   4  -1   7 2807.38 84.5634   4
   4  -1   7 2884.95 80.0539   5
   4   1   8 286.429 20.3304   8
   4  -1   8 317.021 21.1731   7
  -4  -1  -8 302.095 13.4253   6
   4  -1   8 324.676 21.0698   1
   4   1   8 300.126 10.9664   3
   4  -1   8 287.382 19.1706   8
   4  -1   8 302.859 17.7716   4
   4   1   8 291.709 20.2405   1
   4   1   8 329.034 22.2156   7
   4   1   9 21.9255 7.77436   8
   4   1   9 5.85870 5.66161   7
   4  -1   9 18.1399 6.13184   7
   4  -1   9 22.2295 6.66537   4
   4  -1   9 16.0892 5.28720   8
  -4  -1  -9 10.5306 3.51558   6
   4   1   9 19.3786 2.88366   3
   4  -1   9 7.68220 5.39461   1
   4   1   9 23.6706 6.35073   1
   4   1  10 15.3084 5.85282   1
   4   1  10 7.92408 4.83741   7
  -4  -1 -10 12.1195 2.88089   6
   4  -1  10 5.45517 3.94300   4
   4   1  10 11.3613 2.59332   3
   4  -1  10 8.98856 4.33944   8
   4  -1  10 9.87897 5.27475   7
   4  -1  10 18.0264 6.41527   1
   4   1  10 9.87683 1.36754   2
   4   1  10 2.72509 3.48392   8
   4   1  11 1814.60 67.6287   8
   4  -1  11 1737.75 64.1850   4
   4   1  11 1750.85 70.0244   7
  -4  -1 -11 1741.53 53.4578   6
   4   1  11 1814.60 68.7697   1
   4  -1  11 1867.24 69.2012   1
   4   1  11 1754.15 51.7158   3
   4  -1  11 1755.70 64.1051   8
   4  -1  12 41.4030 8.11283   8
  -4  -1 -12 45.6944 5.45886   6
   4   1  12 44.9101 10.0006   7
   4  -1  12 40.0214 8.78216   4
   4   1  12 31.3249 4.65858   3
   4   1  12 42.9753 9.00533   1
   4  -1  12 36.7915 8.78306   1
   4   1  12 62.5048 10.6886   8
   4   1  13 2222.65 79.2368   8
   4  -1  13 2022.35 75.9516   4
  -4  -1 -13 2014.66 62.5145   6
   4  -1  13 2167.89 74.4060   8
   4   1  13 2075.69 61.4979   3
   4  -1  14-1.31596 3.80562   8
   4   1  14 3.19000 4.86206   8
   4   1  14 1.54402 2.57794   3
  -4  -1 -14-0.57483 2.28470   6
   4   1  14 1.69972 5.18127   4
   4  -1  14-1.56352 5.22102   4
   4   1  15 126.849 15.9230   4
   4   1  15 113.861 14.4499   8
  -4   1 -15 87.7056 4.63880   6
  -4  -1 -15 109.030 8.74696   6
   4  -1  15 115.134 14.8699   4
   4  -1  15 131.412 13.8046   8
   4   1  15 110.230 8.61589   3
   4   1  16 92.6850 14.4317   4
   4   1  16 98.7025 13.9615   8
   4  -1  16 79.9467 11.6736   8
  -4   1 -16 60.5974 12.9492   1
  -4   1 -16 71.9795 4.33384   6
   4  -1  16 90.5350 14.0402   4
  -4  -1 -16 86.4607 8.00281   6
   4   1  17 216.298 21.8424   4
   4  -1  17 215.192 18.2437   8
   4   1  17 211.311 19.7539   8
   4  -1  17 152.067 18.5518   4
  -4   1 -17 154.424 6.95312   6
  -4   1 -17 246.777 24.7610   1
  -4  -1 -17 205.877 12.4279   6
  -4   1 -18 9.98812 7.61744   1
   4  -1  18 9.91926 7.16145   4
   4  -1  18 14.2115 6.57657   8
  -4  -1 -18 10.5109 3.91478   6
   4   1  18 17.1832 9.26421   4
   4   2 -19-2.49725 5.89665   1
   4  -2 -19 3.73117 6.96508   1
  -4   2  19 2.54907 7.37171   4
  -4   2  18 60.5577 13.8875   4
   4   2 -18 59.7741 13.1156   1
   4  -2 -18 50.7564 10.4975   1
   4  -2 -17 101.762 13.1097   8
  -4   2  17 115.152 17.0658   4
   4  -2 -17 73.9157 11.9696   1
   4   2 -17 85.1362 15.0590   1
   4  -2 -16 317.358 22.7361   8
   4  -2 -16 303.039 22.5156   1
   4   2 -16 220.297 10.7449   8
  -4  -2  16 284.054 22.2910   5
   4   2 -16 304.772 27.4293   1
   4  -2 -15 4.14193 5.32450   8
  -4   2  15 5.66102 6.10195   3
   4   2 -15 3.84369 2.28624   8
   4   2 -15 4.16976 5.31824   1
  -4  -2  15 2.91016 4.85994   5
   4  -2 -15 4.25754 4.74008   1
   4   2 -14 751.961 26.8346   8
   4  -2 -14 825.863 38.3784   1
  -4  -2  14 838.632 40.1051   5
  -4   2  14 872.563 40.0680   3
   4  -2 -14 827.199 40.0844   3
   4   2 -13 3.47870 2.41256   8
   4  -2 -13 7.11391 4.57413   1
   4  -2 -13 8.55129 5.66651   3
  -4  -2  13 8.68867 7.49280   4
  -4  -2  13 11.1042 5.98561   3
  -4   2  13 5.23184 5.35131   3
   4   2 -13 19.2430 7.41582   5
  -4   2  13-1.50691 5.03419   5
  -4  -2  13 14.7429 6.71490   5
  -4   2  12 6.26445 4.83235   3
  -4  -2  12 1.61338 4.66714   4
  -4  -2  12 5.27083 4.75415   3
   4  -2 -12 5.46064 4.36609   3
   4  -2 -12 3.23453 3.12012   1
   4   2 -12 2.82562 3.85376   5
  -4   2  12 4.29685 5.52389   5
  -4  -2  11 14.9066 5.57582   4
   4  -2 -11 6.46158 4.32901   3
  -4  -2  11 17.4769 6.26225   3
   4  -2 -11 11.6151 4.28950   1
  -4   2  11 9.57297 5.42126   3
   4   2 -11 17.4591 5.94257   5
  -4   2  11 23.0895 7.29773   5
  -4  -2  11 20.5869 6.61244   5
  -4  -2  10 2032.54 72.9987   4
   4   2 -10 1962.09 71.4202   5
  -4   2  10 1952.86 71.3089   5
   4  -2 -10 1971.16 65.4389   1
  -4   2  10 2085.37 70.2884   3
  -4  -2  10 1992.29 69.7764   5
  -4  -2  10 2078.12 70.8814   3
  -4  -2   9 6.64184 4.13384   3
   4  -2  -9 4.46827 2.38275   1
  -4   2   9 4.83115 4.80128   5
   4   2  -9 1.20168 3.84303   5
  -4  -2   9 3.76886 3.42654   4
  -4  -2   9 3.21762 4.26385   5
  -4   2   9 2.14380 4.13414   3
  -4   2   8 51.5645 8.00927   3
   4   2  -8 34.6508 6.83611   4
  -4  -2   8 47.5225 7.95715   4
   4  -2  -8 60.0077 6.56581   1
  -4   2   8 58.8524 8.74304   5
   4   2  -8 32.8792 7.10118   5
  -4  -2   8 49.7196 7.85669   5
   4   2  -7 11.1366 4.26880   4
   4  -2  -7 15.0565 3.25657   1
  -4  -2   7 8.59235 3.92064   5
   4  -2  -6 689.534 25.6606   1
   4   2  -6 781.542 32.3829   4
  -4   2   6 737.709 31.6978   3
  -4  -2   6 797.489 32.5621   5
   4   2  -5 49.0563 6.79409   4
  -4   2   5 62.1062 7.73238   3
  -4  -2   4 6400.64 180.013   4
   4   2  -4 6903.25 181.051   4
  -4   2   4 6572.48 182.438   3
   4   2  -4 6337.56 183.743   5
  -4  -2   4 6667.54 181.819   3
   4   2  -3 65.5172 6.79925   4
  -4  -2   3 62.1298 6.32165   4
   4  -2  -3 68.0501 7.78566   5
  -4   2   3 62.3814 7.58516   3
  -4   2   3 70.0740 7.92087   5
   4   2  -3 58.3402 7.38213   5
  -4  -2   3 64.4813 7.06431   3
   4  -2  -2 2364.40 67.6302   1
  -4  -2   2 2473.24 72.3530   4
  -4   2   2 2472.19 76.0911   3
   4  -2  -2 2529.29 76.4713   5
   4   2  -2 2525.74 72.9347   4
  -4   2   2 2551.08 75.5708   5
   4   2  -2 2553.55 77.6660   5
  -4  -2   2 2628.93 74.8532   3
   4   2  -1 43.7704 4.89414   4
   4  -2  -1 41.2304 3.85477   1
   4   2  -1 40.7309 5.91169   8
  -4   2   1 53.3037 6.22924   5
   4  -2  -1 41.3800 5.62423   5
  -4  -2   1 39.6694 5.05830   3
  -4   2   1 35.7788 5.39439   2
   4   2  -1 47.8737 6.36402   5
   4   2   0 2687.41 75.0729   4
  -4   2   0 2625.82 72.3583   4
   4   2   0 2590.76 78.4442   6
   4  -2   0 2573.02 73.9548   1
   4  -2   0 2581.91 75.3643   6
  -4   2   0 2737.76 77.9569   2
   4  -2   0 2615.38 77.5017   5
   4  -2   0 2675.57 79.5429   3
  -4   2   0 2672.75 76.8698   5
   4   2   0 2598.70 80.0408   5
  -4  -2   0 2612.83 75.5653   3
  -4   2  -1 177.906 8.38228   4
   4  -2   1 152.553 9.92764   5
   4   2   1 159.585 9.26994   4
   4   2   1 155.263 10.5544   6
   4  -2   1 146.737 8.64562   6
   4  -2   1 167.087 9.75051   1
   4  -2   1 153.313 11.1845   3
  -4   2  -1 145.995 9.15410   5
   4   2   1 156.972 11.7536   5
   4  -2   1 186.791 11.0659   2
  -4  -2  -1 155.390 8.74483   3
  -4   2  -2 2064.42 57.7147   4
   4   2   2 1993.15 61.3113   6
   4  -2   2 1940.88 57.0851   6
   4  -2   2 1975.67 61.1861   1
   4  -2   2 2083.98 63.8258   3
   4  -2   2 1991.34 59.1330   5
   4  -2   2 2037.74 61.1960   2
  -4   2  -2 2020.36 57.8003   5
  -4  -2  -2 2014.88 56.4301   3
   4   2   2 2062.65 64.5674   5
  -4   2  -3 68.9148 5.73313   4
  -4   2  -3 76.9694 7.57420   1
   4  -2   3 64.3675 7.06907   1
   4   2   3 67.0312 6.69656   6
   4  -2   3 68.8890 4.64810   6
   4  -2   3 65.2769 5.46815   5
  -4  -2  -3 68.1181 3.78344   3
   4  -2   3 80.1072 7.13233   2
  -4   2  -3 64.8768 4.82286   5
  -4   2  -4 7617.80 207.521   1
   4  -2   4 7691.22 196.289   6
  -4   2  -4 7465.26 202.093   4
   4  -2   4 7611.79 206.361   7
   4  -2   4 7378.49 200.099   4
   4   2   4 7436.11 202.867   6
   4  -2   4 7544.68 203.482   2
   4  -2   4 7515.82 199.110   5
   4  -2   4 7731.45 207.597   1
  -4   2  -5 686.078 26.6427   4
   4  -2   5 691.814 29.2373   7
   4  -2   5 681.606 25.1007   4
  -4   2  -5 699.134 30.4356   1
  -4  -2  -5 680.991 26.3163   6
   4   2   5 616.794 25.0651   6
   4  -2   5 673.819 26.0213   2
   4  -2   5 647.676 22.1046   5
   4  -2   5 730.510 30.7130   1
  -4   2  -6 2359.66 74.2555   1
   4   2   6 2155.60 75.4177   8
   4  -2   6 2164.42 66.5081   4
  -4  -2  -6 2257.75 66.9591   6
   4  -2   6 2252.46 71.8922   7
   4   2   6 2157.24 65.5890   6
   4  -2   6 2172.11 61.1552   5
   4  -2   6 2199.94 72.7149   1
   4   2   7 19.4922 6.04545   8
   4  -2   7 30.7084 6.46619   1
   4   2   7 31.3178 6.57104   7
   4  -2   7 31.5613 6.08753   7
   4   2   7 33.2714 6.75353   1
  -4   2  -7 26.4622 6.40690   1
   4  -2   7 27.8404 4.96054   4
  -4  -2  -7 19.9246 4.04701   6
   4   2   7 21.5463 3.93562   6
   4  -2   7 30.2139 3.18475   5
  -4  -2  -8 46.0534 5.85662   6
   4   2   8 38.3148 7.76838   8
   4   2   8 46.6842 8.36639   7
   4  -2   8 45.3870 7.69829   7
   4  -2   8 53.3218 7.24187   4
  -4   2  -8 48.2925 8.28997   1
   4   2   8 33.5702 7.12467   1
   4   2   8 38.6069 5.16226   6
   4  -2   8 43.0408 3.78560   5
   4  -2   8 37.4551 7.80224   1
   4  -2   9 19.7918 2.88668   5
   4   2   9 15.3566 5.94043   7
   4   2   9 27.3230 6.94754   8
   4  -2   9 25.2217 6.90745   1
   4  -2   9 19.4429 6.10536   7
   4  -2   9 14.5981 5.07448   4
  -4   2  -9 12.5211 5.04054   1
  -4  -2  -9 19.2016 4.21169   6
   4  -2  10 1429.81 56.9318   1
   4  -2  10 1359.91 52.3839   4
   4   2  10 1336.86 57.9879   7
   4  -2  10 1356.79 51.5324   8
  -4  -2 -10 1358.41 45.8482   6
  -4   2 -10 1449.25 57.8971   1
   4  -2  10 1335.13 40.4888   5
   4   2  10 1388.08 57.3124   8
   4   2  11 1.57268 3.71732   8
   4  -2  11 5.38826 3.89061   8
   4  -2  11 1.52844 5.10668   1
   4  -2  11 6.05123 4.20979   4
  -4   2 -11 11.5041 6.33916   1
  -4  -2 -11 10.3487 3.76595   6
   4   2  11 8.80467 5.37057   7
   4  -2  11 8.76735 3.01644   5
   4  -2  12 89.0037 10.6556   8
   4  -2  12 125.759 15.3520   1
   4  -2  12 118.163 13.2875   4
   4   2  12 91.3583 12.8253   8
  -4   2 -12 109.876 14.7083   1
   4   2  12 87.7337 13.6942   7
  -4  -2 -12 101.665 9.15687   6
   4  -2  12 89.5600 7.24787   5
   4  -2  13 1.14713 3.49684   8
   4   2  13-1.98193 4.67978   7
   4   2  13-1.69299 4.89596   8
   4  -2  13 4.32998 5.01647   4
  -4   2 -13 3.81206 4.50057   1
  -4  -2 -13 2.22538 2.94830   6
   4  -2  13-1.04737 2.67126   5
   4   2  14 96.5489 14.1412   8
  -4  -2 -14 104.876 9.84829   6
   4  -2  14 76.3690 11.7657   4
  -4   2 -14 87.6966 14.0893   1
   4  -2  14 85.5191 10.8023   8
   4   2  14 93.7890 5.75409   2
   4  -2  14 100.345 8.39445   5
   4   2  14 85.1227 4.37613   3
   4  -2  15 10.9100 5.36506   8
   4   2  15 10.8725 6.06000   8
  -4  -2 -15 11.9838 4.30055   6
   4  -2  15 21.7265 7.03011   4
   4   2  16 220.224 21.5267   8
   4  -2  16 211.955 21.0657   4
  -4  -2 -16 246.115 15.6434   6
   4  -2  16 260.937 19.0300   8
   4  -2  17 1.23647 5.19570   8
   4  -2  17 5.66806 6.04069   4
  -4  -2 -17 1.68196 3.88822   6
   4  -2  18 153.407 18.6824   4
  -4  -2 -18 167.145 13.0569   6
   4   2  18 159.109 20.3406   4
   4  -3 -18 23.1632 7.86032   1
   4  -3 -18 44.7517 10.3089   6
   4   3 -18 44.0158 12.5087   1
   4  -3 -17 868.078 42.9515   1
   4  -3 -17 880.046 46.4695   6
   4   3 -17 900.605 53.2530   1
   4  -3 -16 22.7956 6.76095   1
   4  -3 -16 39.7040 10.0158   6
   4   3 -16 38.0543 11.4827   1
  -4  -3  16 18.6570 6.94904   5
   4  -3 -15 624.331 35.3918   8
   4  -3 -15 641.738 32.7612   1
   4  -3 -15 578.736 35.4356   6
   4   3 -15 625.376 35.2214   5
  -4  -3  15 582.392 32.7803   5
   4  -3 -15 591.573 34.2356   3
  -4   3  14 31.6560 9.02014   3
   4  -3 -14 22.8557 7.51551   3
   4  -3 -14 24.8635 6.38526   1
   4   3 -14 21.4830 7.27353   5
  -4  -3  14 24.0226 7.41676   5
   4  -3 -13 253.832 17.9215   1
   4   3 -13 226.282 20.0287   5
  -4  -3  13 237.964 19.2373   5
   4  -3 -13 258.821 20.6272   3
  -4   3  13 263.638 20.2947   3
  -4   3  12 13.9962 6.01712   3
   4  -3 -12 16.7816 5.88465   3
  -4  -3  12 12.2601 5.73261   3
   4  -3 -12 14.2417 4.30452   1
   4   3 -12 9.86679 5.61122   5
  -4   3  12 16.7436 6.40362   5
  -4  -3  12 4.89896 5.15589   5
   4   3 -11 64.0190 3.77980   8
   4  -3 -11 96.9167 9.48070   1
  -4   3  11 84.3527 10.8482   3
  -4  -3  11 87.4639 12.6154   4
  -4  -3  11 97.3125 11.6083   5
  -4   3  11 88.0344 12.0454   5
   4   3 -11 96.5509 12.3501   5
   4  -3 -11 83.3217 11.5340   3
   4   3 -11 100.109 13.3441   4
  -4  -3  11 118.573 13.1169   3
   4   3 -10 34.8461 7.99778   4
   4  -3 -10 40.8073 7.72738   3
  -4  -3  10 26.8267 6.99592   4
  -4   3  10 40.9993 7.54205   3
  -4  -3  10 32.8033 7.81854   3
   4  -3 -10 33.9670 5.22516   1
   4   3 -10 36.1829 3.56319   8
   4   3 -10 30.8377 7.48383   5
  -4  -3  10 30.9696 7.12723   5
   4   3  -9 1095.42 36.1074   8
   4   3  -9 1235.29 49.6393   4
  -4  -3   9 1172.03 48.8070   4
   4  -3  -9 1201.69 39.9167   1
  -4   3   9 1213.85 47.5425   3
   4   3  -9 1257.56 49.0747   5
  -4  -3   9 1266.10 47.2865   5
   4  -3  -9 1164.73 47.7473   3
  -4  -3   8 6.01149 3.98566   5
   4   3  -8 6.22189 2.31313   8
   4   3  -8 7.07930 4.25893   4
  -4  -3   8 8.30355 3.96466   4
   4  -3  -8 8.31184 2.44384   1
  -4   3   8 4.26314 3.98255   3
   4   3  -8 3.46307 4.16693   5
   4   3  -7 799.654 28.1859   8
  -4  -3   7 719.480 34.0910   4
   4  -3  -7 808.337 25.6266   1
  -4   3   7 793.544 34.4965   3
   4   3  -7 724.855 34.5009   5
  -4  -3   7 757.610 33.4890   5
  -4   3   7 766.354 33.7291   2
   4   3  -7 787.323 35.3657   4
   4   3  -6 181.840 11.2228   8
  -4  -3   6 166.997 13.7415   4
   4  -3  -6 176.173 7.33577   1
   4  -3  -6 189.167 14.8493   6
  -4   3   6 191.996 14.5235   3
  -4   3   6 190.414 15.2028   5
   4   3  -6 173.773 13.9232   4
   4   3  -6 166.906 14.3132   5
  -4   3   6 209.226 14.8128   2
  -4  -3   6 192.593 14.4761   5
   4   3  -5 757.853 32.0533   4
   4   3  -5 716.187 28.2257   8
   4  -3  -5 757.542 32.5155   6
  -4   3   5 735.915 32.1406   3
   4  -3  -5 677.222 31.3812   3
  -4   3   5 742.748 31.6979   2
  -4  -3   5 774.321 32.0971   5
  -4   3   4 3.61791 2.89256   3
  -4  -3   4 4.24586 2.71580   5
   4   3  -4 2.48579 3.09429   4
   4  -3  -4 3.47836 2.90464   6
   4   3  -4 2.10862 1.91768   8
  -4   3   4 1.73614 2.64708   2
   4   3  -3 658.182 28.1326   8
   4  -3  -3 664.204 28.8134   6
   4   3  -3 725.126 28.7940   4
   4   3  -2 246.901 15.6824   8
   4   3  -2 267.654 15.1650   4
   4   3  -2 250.316 16.1426   6
   4  -3  -2 255.323 15.0751   6
  -4   3   2 235.295 14.7690   5
   4   3  -1 7643.70 200.122   4
   4   3  -1 7161.96 202.459   6
   4  -3  -1 7239.30 199.497   6
  -4   3   1 7336.90 199.918   5
   4   3  -1 7376.08 203.990   5
   4   3   0 162.203 10.8531   4
  -4   3   0 156.436 9.76100   4
   4  -3   0 177.046 11.0503   6
  -4   3   0 144.473 10.2113   5
   4   3   0 162.240 12.9890   5
   4  -3   0 164.894 11.8447   2
   4   3   0 143.668 11.6093   6
  -4  -3   0 156.550 9.90191   3
  -4   3  -1 72.3750 6.41940   4
   4   3   1 52.1128 6.42377   4
   4  -3   1 68.9223 6.47990   6
   4   3   1 67.5455 7.76309   6
   4  -3   1 76.3755 8.56464   3
  -4   3  -1 64.3881 6.16577   5
   4  -3   1 72.1009 7.72872   2
   4   3   1 65.1499 8.20899   5
  -4  -3  -1 75.3581 6.11006   3
   4  -3   2 2089.80 62.8847   1
  -4   3  -2 2070.23 62.2446   1
  -4   3  -2 2047.21 61.8477   4
   4   3   2 1990.10 65.1405   6
   4  -3   2 2066.87 61.1745   6
   4  -3   2 2054.50 65.3332   2
  -4   3  -2 2082.59 59.6190   5
  -4  -3  -2 2065.99 59.0346   3
   4  -3   3 32.1882 4.51715   7
  -4   3  -3 33.6238 5.02697   1
  -4   3  -3 30.8731 4.71260   4
   4  -3   3 27.6250 3.80066   6
   4   3   3 35.6703 5.55032   6
  -4   3  -3 44.5545 3.63687   5
   4  -3   3 42.2297 5.84541   1
  -4  -3  -3 31.4257 3.21741   3
   4  -3   3 34.3955 5.51189   2
   4  -3   4 1.89182 2.50675   7
  -4   3  -4-0.64114 2.54860   4
   4  -3   4 3.79647 1.71710   6
  -4  -3  -4 1.60621 2.56800   6
  -4   3  -4-0.80220 2.67911   1
   4   3   4 1.44284 2.40942   6
  -4  -3  -4 3.11255 1.61636   2
   4  -3   4 3.80395 2.84068   2
   4   3   4 1.23698 2.92112   8
   4  -3   4 0.80436 3.10179   1
   4   3   5 6740.39 198.345   8
   4  -3   5 6982.69 192.885   1
  -4   3  -5 6988.58 189.025   4
   4  -3   5 7018.01 189.224   7
   4  -3   5 6737.69 186.544   4
  -4  -3  -5 6996.41 190.718   6
  -4   3  -5 7037.50 192.528   1
   4   3   5 6862.55 189.161   6
   4  -3   5 6803.14 189.740   2
  -4  -3  -5 6819.46 180.378   2
  -4   3  -6 30.9071 5.93709   4
   4  -3   6 40.6026 6.08095   7
  -4  -3  -6 35.4235 6.02990   6
   4  -3   6 34.4129 5.44011   4
   4   3   6 42.9170 6.27170   6
  -4   3  -6 28.0656 6.08029   1
   4   3   6 39.9571 8.23767   8
  -4   3  -7 881.553 36.0418   4
   4   3   7 881.174 41.7366   8
   4  -3   7 879.993 34.2710   4
  -4  -3  -7 867.729 34.7323   6
  -4   3  -7 951.952 39.8049   1
   4   3   7 810.982 33.3744   6
  -4   3  -8 57.6325 8.20077   4
   4   3   8 57.5514 7.19677   6
  -4  -3  -8 50.4440 7.13904   6
   4   3   8 41.0543 8.64583   8
   4  -3   8 41.7624 6.92287   4
  -4   3  -8 63.0470 9.53572   1
   4   3   9 11.1104 5.08626   8
   4  -3   9 8.90793 5.57409   4
  -4  -3  -9 9.41247 4.45541   6
   4   3   9 25.5377 5.44186   6
  -4   3  -9 15.5316 6.09677   1
   4   3  10-1.65050 4.77323   8
   4  -3  10 4.40028 4.49920   4
  -4  -3 -10 5.26663 3.38482   6
  -4   3 -10 3.07892 4.45215   1
   4   3  10-1.50826 4.59784   1
   4  -3  11 1080.11 44.2837   8
   4   3  11 1200.80 54.1857   8
  -4  -3 -11 1088.58 42.6802   6
  -4   3 -11 1212.67 53.3958   1
   4   3  11 1179.97 51.9214   1
   4  -3  11 1144.58 47.3236   4
   4   3  12 32.2200 9.50488   8
   4  -3  12 39.7692 8.44036   4
  -4  -3 -12 47.1091 7.19479   6
  -4   3 -12 28.7209 8.53714   1
   4  -3  12 44.2348 7.35691   8
   4  -3  13 1642.98 58.6232   8
   4   3  13 1554.94 68.2704   8
   4  -3  13 1622.93 63.6350   4
  -4  -3 -13 1626.44 56.8798   6
  -4   3 -13 1617.49 69.0935   1
  -4  -3 -14 89.4480 10.5113   6
   4  -3  14 83.8894 12.4985   4
  -4   3 -14 94.7210 14.5203   1
   4  -3  14 104.984 11.4153   8
   4   3  14 112.706 15.9215   8
   4  -3  15 6.46174 3.59691   8
   4   3  15 3.91063 6.79627   8
   4  -3  15-1.66183 5.31349   4
  -4  -3 -15 0.99651 3.46417   6
  -4   3 -15 8.79495 5.99525   1
  -4  -3 -16 91.4617 10.6868   6
   4  -3  16 84.7632 13.7935   4
  -4   3 -16 93.5997 15.7808   1
   4  -3  16 78.6680 10.0960   8
   4  -3  17 56.0095 11.8445   4
  -4   3 -17 52.0355 12.2212   1
  -4  -3 -17 31.0987 6.55416   6
   4   4 -18 81.0763 16.9931   1
   4  -4 -18 100.857 15.2919   6
   4  -4 -17 167.801 16.0141   1
   4   4 -17 150.552 21.8466   1
   4  -4 -17 113.659 16.7297   6
   4  -4 -17 151.724 16.8294   3
   4  -4 -16 517.211 28.7697   1
   4   4 -16 518.255 39.2402   1
   4  -4 -16 552.938 35.3065   6
   4  -4 -16 487.783 31.7129   3
  -4  -4  15 23.7224 7.41627   5
   4  -4 -15 20.7307 5.98919   1
   4  -4 -15 4.85780 5.18917   3
   4   4 -15 12.6340 6.64525   5
   4  -4 -14 967.327 39.6945   1
   4  -4 -14 921.980 45.4293   7
   4   4 -14 945.452 45.1235   5
  -4  -4  14 954.498 42.5410   5
   4  -4 -14 890.578 44.0835   3
  -4  -4  13 22.2344 7.35898   5
   4  -4 -13 34.9545 8.30391   3
   4   4 -13 14.7287 6.68017   5
   4  -4 -13 17.8000 6.25484   7
  -4   4  13 19.1776 6.62323   3
   4  -4 -12 685.480 36.3648   7
   4  -4 -12 812.800 40.9636   6
  -4   4  12 747.766 37.0946   3
   4   4 -12 742.296 37.4391   5
  -4  -4  12 735.032 35.2681   5
  -4   4  12 758.813 37.4209   2
   4  -4 -12 715.167 37.1911   3
  -4  -4  11 30.0830 7.60944   5
  -4   4  11 30.5776 7.81118   3
  -4   4  11 32.5961 8.47148   2
   4   4 -11 33.1616 9.29594   4
   4  -4 -11 32.3076 8.05305   3
   4  -4 -11 41.9782 9.15358   6
   4   4 -11 28.7449 7.73787   5
   4   4 -10 4818.25 147.990   4
  -4  -4  10 4444.29 146.608   4
   4  -4 -10 5202.06 149.559   6
  -4   4  10 5021.82 144.962   3
   4   4 -10 4738.61 145.191   5
  -4   4  10 4752.62 144.426   2
  -4  -4  10 4789.57 142.519   5
   4  -4 -10 4643.53 144.916   3
   4   4  -9 97.2885 12.6787   4
   4  -4  -9 63.3794 10.0150   3
   4  -4  -9 96.9133 12.3814   6
  -4  -4   9 83.6332 11.7927   4
  -4   4   9 101.262 12.1070   3
   4   4  -9 113.777 12.9677   5
  -4   4   9 97.6994 11.9732   2
  -4  -4   9 98.0456 11.1611   5
  -4   4   9 89.6255 12.0431   5
   4   4  -8 1956.62 57.6519   8
   4   4  -8 2049.22 71.6475   4
  -4  -4   8 1825.24 69.6784   4
  -4   4   8 2004.03 69.9448   3
  -4   4   8 1949.49 70.9442   5
   4  -4  -8 2082.55 71.9481   6
   4   4  -8 1955.54 69.9286   5
  -4   4   8 2032.75 69.6620   2
   4  -4  -8 2039.29 70.5900   3
  -4  -4   8 1945.91 67.2769   5
  -4   4   7 22.2099 5.99326   3
  -4  -4   7 29.8233 6.80524   5
   4   4  -7 25.5453 4.08819   8
   4   4  -7 22.3122 6.12842   4
  -4  -4   7 34.3234 6.96836   4
   4  -4  -7 21.9796 5.80073   6
  -4   4   7 34.0696 7.62740   5
   4   4  -7 16.3042 5.75871   5
  -4   4   7 22.3375 6.21667   2
   4   4  -6 2707.98 81.0902   8
   4   4  -6 2787.44 89.2185   4
  -4  -4   6 2631.96 88.0832   4
   4  -4  -6 2796.40 89.5191   6
  -4   4   6 2782.59 89.5080   5
  -4   4   6 2804.88 88.4052   2
   4   4  -6 2744.49 89.1074   5
   4   4  -5 17.1888 4.29391   8
   4   4  -5 32.5325 6.65808   4
   4   4  -5 25.2535 5.82514   6
  -4  -4   5 18.5853 5.48128   4
   4  -4  -5 26.6143 5.83305   6
  -4   4   5 21.0783 5.95125   5
  -4   4   5 18.3586 5.41515   2
   4   4  -5 27.8653 6.22489   5
   4   4  -4 6412.29 183.336   8
   4   4  -4 6924.92 187.771   4
   4   4  -4 6471.05 187.951   6
   4  -4  -4 6689.32 187.526   6
  -4   4   4 6467.11 186.492   5
   4   4  -4 6777.44 188.872   5
  -4   4   4 6840.98 187.928   2
   4   4  -3 58.5544 7.94820   4
   4   4  -3 41.9930 7.17215   6
   4  -4  -3 51.8696 7.47903   6
   4  -4  -3 63.6938 8.66182   3
  -4   4   3 46.4759 7.34813   2
   4  -4  -2 58.7572 8.18711   3
   4  -4  -2 50.6070 7.24487   6
   4   4  -2 70.0581 8.50986   4
   4  -4  -1 59.5165 7.92725   2
   4   4  -1 71.2553 8.38464   4
   4   4  -1 47.4326 7.18871   6
   4  -4  -1 50.6365 6.77258   6
  -4   4   1 60.5294 7.13942   5
   4  -4  -1 52.0889 7.58373   3
  -4   4   0 1206.22 42.0116   4
   4   4   0 1220.03 45.6062   6
   4  -4   0 1239.01 43.3695   6
   4   4   0 1232.12 43.9636   4
   4  -4   0 1227.61 46.8465   3
  -4   4   0 1189.91 41.4565   5
   4  -4   0 1167.68 45.2749   2
   4   4   1 380.854 23.3371   8
   4  -4   1 374.275 14.6474   7
  -4   4  -1 413.070 16.9242   1
  -4   4  -1 401.796 19.5230   4
   4   4   1 451.720 21.9570   4
   4   4   1 404.155 22.0653   6
   4  -4   1 436.147 20.4154   6
   4  -4   1 423.522 23.2920   3
  -4   4  -1 422.141 18.5453   5
   4  -4   1 399.186 21.9530   2
   4   4   1 452.398 24.0145   5
   4   4   2 449.608 25.9459   8
  -4   4  -2 480.548 19.9276   1
  -4   4  -2 461.977 21.4771   4
   4  -4   2 436.681 16.6366   7
   4   4   2 467.632 23.6453   6
   4  -4   2 424.783 20.2281   6
   4  -4   2 455.499 23.5399   2
  -4   4  -2 427.235 17.8334   5
  -4   4  -3 149.225 11.5103   4
   4  -4   3 138.247 8.40514   7
   4  -4   3 137.399 9.99205   6
   4   4   3 133.772 12.0450   6
  -4   4  -3 138.532 10.5256   1
  -4  -4  -3 164.900 13.8241   6
  -4  -4  -3 146.943 13.8159   8
   4  -4   3 131.881 11.8659   2
  -4   4  -3 142.428 7.55508   5
  -4  -4  -4 1780.42 62.1071   8
  -4   4  -4 1691.25 55.7801   4
  -4  -4  -4 1641.77 58.1473   6
   4   4   4 1625.39 56.3897   6
  -4   4  -4 1632.06 55.0583   1
   4  -4   4 1645.38 51.4945   6
  -4  -4  -4 1513.30 49.8251   2
   4  -4   4 1671.33 57.4218   2
  -4   4  -4 1598.24 50.6977   6
  -4   4  -5 196.734 14.4759   4
   4  -4   5 197.515 11.5649   6
   4   4   5 231.679 15.6963   6
  -4   4  -5 203.507 14.8046   1
  -4   4  -5 205.156 11.4013   6
   4  -4   5 179.971 14.3358   2
  -4  -4  -5 223.418 17.8467   8
  -4  -4  -5 189.904 6.88849   3
  -4  -4  -5 183.252 14.9344   6
  -4  -4  -5 193.141 10.8079   2
  -4  -4  -5 188.342 7.03777   3
  -4  -4  -6 378.422 22.3786   6
   4  -4   6 368.149 20.1694   4
   4   4   6 388.389 26.1222   8
   4   4   6 382.740 20.9831   6
  -4   4  -6 410.901 17.2940   6
  -4   4  -6 417.459 23.3980   1
  -4  -4  -6 456.884 26.6757   8
  -4   4  -6 386.512 21.6485   4
  -4  -4  -7 52.2004 9.41477   8
   4   4   7 45.3871 8.79776   7
  -4   4  -7 43.5489 7.78793   4
  -4   4  -7 52.4410 5.24049   6
  -4   4  -7 77.8469 9.95018   1
  -4  -4  -7 61.4260 8.43841   6
   4   4   7 41.5719 8.81637   8
   4  -4   7 43.0843 7.05990   4
   4   4   7 54.0669 7.81117   6
   4   4   7 49.8119 8.84348   1
   4   4   8 1291.72 55.6463   7
   4   4   8 1358.92 58.0059   8
  -4   4  -8 1419.61 51.9469   4
   4   4   8 1365.55 55.3161   1
   4  -4   8 1233.87 47.9788   4
  -4   4  -8 1256.00 40.2763   6
   4   4   8 1248.30 47.7719   6
  -4   4  -8 1451.65 54.6891   1
  -4  -4  -8 1437.12 56.9328   8
  -4  -4  -8 1309.00 50.0817   6
  -4  -4  -9 1.53792 5.34587   8
   4   4   9 1.68192 4.58650   7
  -4   4  -9 3.69201 4.43958   4
   4   4   9-1.52797 4.88578   1
  -4  -4  -9 2.15430 3.74467   6
   4  -4   9 5.23374 4.39902   4
   4   4   9 8.69661 4.75029   6
  -4   4  -9 5.09098 2.40458   6
   4   4   9 1.74549 4.75979   8
  -4   4  -9 2.89541 4.62920   1
   4   4  10 38.1991 9.54501   8
   4   4  10 48.6152 10.5070   7
  -4   4 -10 70.0994 10.6057   4
  -4   4 -10 67.6058 5.18505   6
  -4  -4 -10 56.6352 8.57852   6
   4  -4  10 43.6242 8.10094   4
   4   4  10 53.6678 10.1889   1
   4   4  10 41.8314 7.27662   6
  -4   4 -10 53.4962 9.81129   1
   4   4  11 13.2029 7.27907   8
   4   4  11 24.8117 8.02542   7
  -4  -4 -11 3.33646 4.16344   6
  -4   4 -11 13.2994 2.57507   6
   4  -4  11 10.1201 5.32420   4
  -4   4 -11 18.7320 6.57332   1
   4   4  12 196.486 21.0248   8
   4  -4  12 202.737 17.7041   4
   4   4  12 191.468 20.3848   7
  -4  -4 -12 193.027 15.8886   6
  -4   4 -12 157.788 18.0716   1
  -4   4 -12 169.677 8.17870   6
   4  -4  12 162.623 13.6592   8
   4  -4  13-0.96255 4.04501   8
   4   4  13 4.23201 5.76968   7
  -4  -4 -13 5.79852 4.74338   6
   4  -4  13-1.49094 5.56672   4
  -4   4 -13 4.04287 1.87627   6
  -4   4 -13-1.97226 5.37780   1
   4  -4  14 1077.91 47.1028   4
   4  -4  14 1103.44 39.0467   8
  -4  -4 -14 1092.89 42.0110   6
  -4   4 -14 1079.08 52.4719   1
   4  -4  15 8.46240 6.10696   4
  -4  -4 -15 3.60380 4.63520   6
  -4   4 -15 11.2082 7.48749   1
   4  -4  15 7.52515 4.71483   8
   4  -4  16 89.4836 14.3960   4
  -4  -4 -16 79.1527 11.1069   6
  -4   4 -16 99.5720 16.9378   1
   4  -5 -16 15.3744 7.19502   3
   4  -5 -16 30.4428 9.79453   6
   4   5 -16 17.6017 7.41419   5
   4   5 -15 404.738 27.7096   5
  -4  -5  15 404.333 25.9396   5
   4  -5 -15 407.358 28.2482   3
  -4  -5  14 6.31163 5.01923   5
   4  -5 -14 6.53502 5.68015   3
   4   5 -14 4.58817 5.10910   5
   4  -5 -13 203.252 18.3470   7
   4  -5 -13 213.666 20.6119   6
   4   5 -13 201.538 18.5770   5
  -4  -5  13 160.323 15.5306   5
   4  -5 -13 173.787 17.7463   3
  -4  -5  12 17.8555 6.18250   5
   4  -5 -12 7.67105 5.12700   3
   4  -5 -12 12.1834 5.38401   7
   4  -5 -12 6.93727 4.42769   6
   4   5 -12 1.44248 5.01746   5
   4  -5 -11 188.765 18.4330   6
  -4   5  11 191.950 17.6298   3
   4   5 -11 192.397 17.7384   5
   4  -5 -11 178.680 16.0651   7
  -4  -5  11 226.075 17.2717   5
   4  -5 -11 173.375 17.0633   3
   4  -5 -10 79.1146 10.1793   7
   4  -5 -10 82.1253 12.2643   6
   4   5 -10 86.4252 11.9669   6
   4  -5 -10 73.3569 11.4576   3
  -4   5  10 97.4178 13.7085   5
   4   5 -10 80.5685 11.1817   5
   4   5  -9 1133.31 48.9123   4
   4  -5  -9 1108.11 42.8103   7
  -4  -5   9 917.036 45.8289   4
   4   5  -9 1036.34 46.5117   6
   4  -5  -9 1062.92 47.9908   6
  -4   5   9 977.063 46.7188   5
  -4   5   9 1126.29 46.6410   2
   4   5  -9 1000.86 45.4009   5
   4  -5  -9 1079.25 46.9792   3
   4   5  -8 166.473 16.5786   4
  -4  -5   8 162.968 16.1221   4
   4  -5  -8 188.434 17.4146   6
  -4   5   8 151.395 15.9024   5
  -4   5   8 171.291 16.0215   2
   4   5  -8 134.227 14.3927   5
   4  -5  -8 162.035 13.1321   7
   4  -5  -8 181.901 16.1495   3
   4  -5  -7-3.82332 4.75811   3
   4  -5  -7 3.15856 2.94822   7
   4   5  -7 5.28068 5.09047   4
  -4  -5   7 4.01111 4.27475   4
   4  -5  -7 4.05771 3.91161   6
  -4   5   7 2.63827 4.58491   5
  -4   5   7 8.64031 5.18652   2
   4   5  -7 2.49334 4.65443   5
   4  -5  -6 80.5246 8.01540   7
   4   5  -6 78.4735 10.8149   4
  -4  -5   6 63.2764 9.87851   4
   4  -5  -6 66.3494 9.72610   6
   4  -5  -6 83.0851 11.0288   3
  -4   5   6 77.8790 10.7706   5
  -4   5   6 81.7659 10.6138   2
   4   5  -6 84.2258 10.8089   5
   4   5  -5 633.800 28.0697   8
   4   5  -5 697.660 33.7444   4
   4  -5  -5 647.861 25.3162   7
   4   5  -5 606.319 31.8011   6
   4  -5  -5 684.012 33.0850   6
  -4   5   5 718.532 33.2533   2
  -4   5   5 638.404 31.9625   5
   4   5  -5 699.410 33.2511   5
   4  -5  -4 21.9011 3.55065   7
   4   5  -4 22.7591 6.04007   6
   4   5  -4 46.4538 8.12969   4
   4  -5  -4 36.5484 6.99784   6
  -4   5   4 26.7566 6.31398   5
   4   5  -4 32.1494 7.12113   5
   4   5  -3 258.124 17.8291   4
   4  -5  -3 204.780 9.57878   7
   4  -5  -3 198.439 15.9164   6
   4   5  -3 211.005 16.7851   6
  -4   5   3 248.920 16.6916   5
   4   5  -3 211.030 16.4927   5
   4   5  -2 298.834 19.3089   4
   4   5  -2 291.140 19.4265   6
   4  -5  -2 293.491 18.5629   6
   4  -5  -2 241.822 18.4867   3
   4   5  -2 324.777 20.6310   5
   4  -5  -2 275.527 18.8930   2
   4   5  -1 3349.04 107.553   8
   4   5  -1 3649.64 106.903   4
   4   5  -1 3523.23 107.982   6
   4  -5  -1 3510.85 105.677   6
   4  -5  -1 3422.96 108.868   3
   4  -5  -1 3417.93 107.696   2
   4   5  -1 3317.91 107.679   5
   4   5   0 112.575 12.4815   8
   4  -5   0 108.577 10.5673   6
  -4   5   0 93.3142 6.01897   1
  -4   5   0 104.302 10.3907   4
   4   5   0 119.710 12.1988   6
   4  -5   0 97.5376 11.5125   3
  -4   5   0 89.0729 9.00155   5
   4  -5   0 97.0506 11.2426   2
   4   5   0 104.675 11.2482   4
  -4  -5  -1 1.15644 2.94965   8
   4   5   1 1.09264 3.64883   6
   4  -5   1 5.40759 3.36502   6
  -4   5  -1 1.72479 3.42783   4
   4   5   1 3.98351 3.71823   4
  -4   5  -1-0.46943 1.63205   1
  -4   5  -1 1.25200 2.56048   5
   4   5   1 1.31520 3.10572   8
   4  -5   1 9.13441 4.92243   2
   4  -5   1 2.45963 3.55670   3
  -4  -5  -2 9.78659 4.57636   8
   4   5   2 16.7038 5.70023   8
   4  -5   2 11.0982 3.95733   6
  -4   5  -2 12.6161 5.07347   4
   4   5   2 9.78028 4.32882   6
  -4   5  -2 9.50198 3.42585   6
  -4   5  -2 11.5733 3.17528   1
  -4   5  -2 14.0028 3.29106   5
   4  -5   2 9.01789 4.07606   2
  -4  -5  -3 18.0755 5.85086   8
   4   5   3 14.6903 6.18514   8
  -4  -5  -3 22.2674 6.09330   6
   4  -5   3 16.3527 4.18915   6
   4   5   3 9.70652 4.30457   6
  -4   5  -3 16.4169 4.08815   1
   4  -5   3 15.9026 5.26602   2
  -4   5  -3 16.3657 3.10935   5
  -4   5  -3 12.1408 4.60726   4
  -4  -5  -4 21.6552 6.91478   8
   4   5   4 13.9001 5.77937   8
  -4   5  -4 11.7629 4.83402   4
  -4  -5  -4 13.6477 5.62332   6
   4  -5   4 23.4579 4.84222   6
   4   5   4 11.8555 4.99792   6
   4  -5   4 11.5620 4.99968   2
  -4   5  -4 16.6003 4.39375   1
  -4   5  -5 3272.35 96.9151   4
   4  -5   5 3129.58 90.9888   6
  -4  -5  -5 3087.21 98.8158   6
   4   5   5 3001.87 95.7617   6
  -4   5  -5 3106.37 94.8342   1
   4  -5   5 3002.59 97.1243   2
  -4  -5  -5 2890.65 83.0059   3
  -4  -5  -5 3057.83 101.206   8
  -4  -5  -6 367.317 25.2986   8
   4   5   6 383.761 22.7535   6
  -4   5  -6 354.584 22.2612   1
  -4  -5  -6 375.870 13.2524   3
  -4   5  -6 438.914 24.1809   4
   4   5   6 391.462 25.7763   7
  -4  -5  -6 376.402 23.9736   6
  -4   5  -7 1382.15 52.0476   4
   4   5   7 1277.09 54.6901   1
   4   5   7 1228.57 54.6812   7
  -4   5  -7 1289.84 43.9126   6
  -4  -5  -7 1278.17 52.1925   6
   4   5   7 1304.18 50.4246   6
  -4  -5  -7 1386.18 56.8469   8
  -4   5  -7 1388.74 53.1983   1
  -4  -5  -8 34.4382 7.30975   6
   4   5   8 33.0346 8.87504   8
   4   5   8 25.9943 7.40518   1
   4   5   8 23.0575 7.81115   7
  -4   5  -8 32.9220 7.65678   4
  -4   5  -8 26.3868 4.57928   6
   4   5   8 26.5683 6.44334   6
   4  -5   8 34.7931 7.14518   4
  -4  -5  -8 14.4355 6.41570   8
  -4   5  -8 45.6216 8.76859   1
   4   5   9 9.49679 6.34477   8
   4   5   9 8.81151 5.37478   7
  -4   5  -9 2.71350 5.39514   4
   4   5   9 9.59196 5.55896   1
  -4  -5  -9 11.6401 4.83164   6
   4  -5   9 15.1484 5.83918   4
  -4   5  -9 4.99403 3.03066   6
   4   5   9 7.94370 4.51359   6
  -4   5  -9-1.51391 4.38141   1
   4   5  10 16.8418 6.77919   7
  -4   5 -10 27.7414 7.86197   4
  -4  -5 -10 24.9505 6.72823   6
   4  -5  10 29.9350 7.24185   4
  -4   5 -10 25.2206 4.19402   6
   4   5  10 24.1322 6.29831   6
  -4   5 -10 26.2656 7.44932   1
   4   5  11 52.9094 11.2415   7
  -4   5 -11 40.1845 9.26447   4
  -4   5 -11 47.3875 5.45753   6
  -4  -5 -11 54.4416 9.57044   6
   4  -5  11 46.5846 8.87984   4
  -4   5 -11 47.8440 10.1786   1
   4   5  12 43.3012 11.1639   7
  -4   5 -12 57.2622 5.80943   6
  -4  -5 -12 72.5515 10.8580   6
   4  -5  12 59.7259 10.4531   4
  -4   5 -12 54.8570 11.4819   1
   4  -5  13 1500.29 52.1122   8
   4  -5  13 1504.39 60.4686   4
   4   5  13 1474.58 67.9185   7
  -4  -5 -13 1597.89 59.5032   6
  -4   5 -13 1344.72 43.8946   6
  -4   5 -13 1596.87 67.5932   1
  -4  -5 -14 48.5389 9.03127   6
   4  -5  14 33.8549 9.25571   4
  -4   5 -14 40.5131 4.52238   6
  -4   5 -14 53.7208 11.9471   1
  -4  -5 -15 36.5421 8.38202   6
   4  -5  15 23.9370 8.10578   4
  -4   5 -15 22.8646 9.11549   1
   4  -6 -15 6.92043 6.24813   3
   4   6 -15 21.7309 8.20146   5
   4   6 -14 151.848 16.7486   5
   4  -6 -14 162.450 17.7953   3
   4  -6 -13 9.66319 5.95114   7
   4  -6 -13-3.31387 5.53299   3
   4  -6 -13 1.94196 5.91975   6
   4   6 -13-1.50279 6.31447   5
   4  -6 -12 122.184 13.4902   7
   4  -6 -12 87.1642 13.1152   3
   4  -6 -12 91.4793 13.7384   6
   4   6 -12 128.429 14.4167   5
   4  -6 -11 13.9492 5.50827   7
   4  -6 -11 18.9772 6.83262   3
   4  -6 -11 19.6793 7.33076   6
   4   6 -11 21.3977 7.29053   5
   4  -6 -10 1255.28 48.8814   7
   4  -6 -10 1372.96 58.2908   6
   4   6 -10 1260.14 53.4293   5
   4  -6 -10 1306.59 55.2856   3
   4  -6  -9 90.3782 10.0258   7
   4  -6  -9 78.9367 11.7627   3
   4  -6  -9 101.627 13.6046   6
   4   6  -9 94.5750 12.7868   5
   4  -6  -8 338.414 18.7590   7
  -4  -6   8 294.191 23.6078   4
   4  -6  -8 324.976 24.4343   6
  -4   6   8 331.316 24.4776   5
   4   6  -8 317.779 22.8105   5
   4  -6  -8 315.198 22.7794   3
   4  -6  -7 31.2743 7.80236   3
   4  -6  -7 39.3465 8.29973   6
   4  -6  -7 42.8089 5.99743   7
  -4   6   7 41.4076 9.06910   5
   4   6  -7 20.2331 6.81437   5
   4   6  -6 299.632 22.8514   4
   4  -6  -6 299.913 22.3092   6
   4  -6  -6 287.348 14.6667   7
  -4   6   6 304.939 21.9342   5
   4  -6  -6 298.333 21.8549   3
   4   6  -6 297.829 21.6223   5
   4  -6  -5 1.38152 3.76687   3
   4   6  -5 1.36719 5.27179   4
   4   6  -5 2.75027 4.19198   6
   4  -6  -5 1.39435 3.80185   6
  -4   6   5-1.25749 5.28383   5
   4   6  -5 2.59168 4.50396   5
   4   6  -4 1295.22 54.2177   6
   4  -6  -4 1429.10 55.6345   6
  -4   6   4 1350.01 52.5222   5
   4  -6  -4 1272.92 54.3313   3
   4   6  -4 1312.08 53.8966   5
   4   6  -3 1.28397 4.46279   5
   4   6  -3 2.55716 5.37251   4
   4   6  -3 1.32036 3.81855   6
   4  -6  -3-1.27409 3.00869   6
  -4   6   3 9.77865 5.02314   5
   4   6  -2 816.747 38.3327   4
   4   6  -2 755.723 37.4229   6
   4  -6  -2 834.899 37.8138   6
  -4   6   2 795.312 34.7820   5
   4   6  -2 870.209 39.7309   5
   4  -6  -2 777.708 38.0993   2
   4   6  -1 55.1703 9.62568   5
   4  -6  -1 55.5923 9.12121   2
   4   6  -1 53.7692 9.24986   6
   4   6  -1 49.6764 9.14572   4
   4  -6  -1 54.4961 8.94692   6
  -4   6   1 47.8422 8.30765   4
  -4  -6   0 877.272 38.1579   8
   4   6   0 875.830 38.1938   4
  -4   6   0 837.702 35.9991   4
   4  -6   0 833.902 36.4692   6
   4   6   0 806.904 37.7051   6
  -4   6   0 697.628 25.2502   1
   4  -6   0 757.153 38.1393   3
   4  -6   0 840.070 38.7296   2
   4   6   0 784.494 38.4202   5
  -4  -6  -1 27.1460 7.31389   8
   4  -6   1 48.0995 7.85971   6
   4   6   1 34.1453 7.85059   6
  -4   6  -1 32.8639 7.34582   4
   4   6   1 39.1929 8.13856   4
  -4   6  -1 18.0284 5.60909   6
   4   6   1 39.7673 8.19143   5
  -4   6  -1 35.1436 5.88542   5
  -4   6  -1 35.1783 4.75237   1
   4  -6   1 34.6786 7.86543   2
   4  -6   1 28.1729 7.10524   3
  -4   6  -2 806.710 35.1500   4
   4   6   2 799.606 35.9774   4
  -4  -6  -2 766.989 37.0268   8
   4  -6   2 767.277 34.0014   6
   4   6   2 694.547 34.9086   6
  -4   6  -2 708.473 32.0849   6
  -4   6  -2 706.750 28.2751   1
  -4   6  -2 684.289 27.5730   5
   4  -6   2 666.823 34.9312   2
  -4   6  -3 7.89689 3.57247   1
  -4  -6  -3 7.09538 5.47303   8
  -4  -6  -3 4.38211 4.87912   6
  -4   6  -3 14.6388 5.94660   4
   4  -6   3 2.05286 3.95955   6
   4   6   3 3.75327 4.51402   6
  -4   6  -3 4.69242 4.04752   6
  -4  -6  -3 1.79294 3.23559   2
  -4   6  -3 3.26290 2.50459   5
   4  -6   3 10.6476 5.44454   2
  -4  -6  -4 1908.03 70.5705   8
  -4   6  -4 1860.07 65.9052   4
  -4  -6  -4 1908.71 70.2246   6
   4  -6   4 1885.07 63.2081   6
   4   6   4 1807.14 66.5472   6
  -4   6  -4 1921.65 62.3506   6
  -4   6  -4 1766.20 61.4001   1
   4  -6   4 1726.06 67.0748   2
  -4  -6  -4 1758.87 60.3287   2
  -4   6  -4 1812.00 50.9088   5
  -4   6  -5 332.421 22.1516   4
   4   6   5 266.528 21.3367   7
   4  -6   5 290.735 18.5911   6
   4   6   5 296.152 21.0501   6
  -4   6  -5 305.142 18.1425   6
  -4   6  -5 292.421 19.4431   1
  -4  -6  -5 315.378 23.0949   6
   4  -6   5 291.213 21.6286   2
  -4  -6  -5 299.020 14.4490   3
  -4  -6  -5 281.057 17.1638   2
  -4  -6  -5 319.669 24.3224   8
  -4  -6  -6 642.717 34.8418   6
  -4   6  -6 645.206 33.0606   4
   4   6   6 589.530 33.9818   7
   4   6   6 576.194 31.7193   6
  -4   6  -6 650.899 28.1082   6
  -4   6  -6 595.631 30.7225   1
   4  -6   6 560.831 32.3470   2
  -4  -6  -6 655.227 22.6482   3
  -4  -6  -6 588.113 26.6414   2
  -4   6  -7 22.1023 6.19604   1
  -4  -6  -7 28.0917 7.72016   6
   4   6   7 45.3436 9.27280   7
  -4   6  -7 40.3894 8.64880   4
   4   6   7 53.2015 9.25631   6
  -4   6  -7 23.9309 5.16820   6
  -4  -6  -7 35.2751 3.73904   3
  -4   6  -8 2.85671 4.35483   1
   4   6   8-1.72244 4.98174   7
  -4   6  -8 11.2445 6.20953   4
  -4  -6  -8 1.49267 4.07056   6
  -4   6  -8 4.58181 3.68146   6
  -4   6  -9 15.5805 6.20994   1
  -4   6  -9 22.4971 7.79954   4
   4   6   9 20.1180 7.28391   7
  -4  -6  -9 19.6322 6.84388   6
  -4   6  -9 16.7800 4.74059   6
   4   6  10 160.491 18.3503   7
  -4  -6 -10 175.558 17.1798   6
  -4   6 -10 124.910 10.5314   6
  -4   6 -10 157.300 17.0321   1
   4   6  11 16.0021 6.95963   7
  -4  -6 -11 10.8193 6.50237   6
   4  -6  11 13.0378 5.76669   4
  -4   6 -11 10.9698 6.60222   1
  -4  -6 -12 236.128 20.6900   6
  -4   6 -12 219.142 21.9077   1
   4   6  12 213.711 22.4151   7
   4  -6  12 176.264 18.0289   4
  -4  -6 -13 22.1469 7.78125   6
   4  -6  13 6.44898 6.02653   4
  -4   6 -13 10.3909 6.65083   1
   4  -7 -13 102.293 14.6127   3
   4  -7 -13 97.3972 15.6295   6
   4   7 -13 106.996 14.5225   5
   4  -7 -12 3.41643 5.94228   3
   4  -7 -12 16.3912 8.14716   6
   4   7 -12 13.6045 6.99261   5
   4  -7 -11-1.97873 5.39502   6
   4  -7 -11-1.67603 4.84691   3
   4   7 -11 1.48543 5.54574   5
   4  -7 -10-6.46976 5.83436   3
   4  -7 -10 11.4479 6.63189   6
   4   7 -10-2.98641 6.10735   5
   4   7  -9 463.167 29.0522   5
   4  -7  -9 469.290 29.7638   3
   4  -7  -9 495.865 32.5912   6
   4  -7  -8 46.7126 9.80302   3
   4  -7  -8 56.4987 11.3547   6
   4   7  -8 42.4114 9.42989   5
   4  -7  -7 43.4074 9.28199   3
   4  -7  -7 38.9949 8.87429   6
   4   7  -7 52.0872 9.42494   5
   4  -7  -6 290.552 23.5049   6
  -4   7   6 256.225 21.3100   5
   4  -7  -6 276.753 22.0248   3
   4   7  -6 316.982 22.8927   5
   4  -7  -5 13.7787 5.91251   3
   4  -7  -5 18.9049 6.79965   6
  -4   7   5 12.3239 6.47506   5
   4   7  -5 8.54582 5.83451   5
   4  -7  -4 3.07530 5.13489   3
   4  -7  -4 1.52093 4.39868   6
  -4   7   4 1.28157 4.45457   5
   4   7  -4 2.84591 4.94593   5
   4  -7  -3 253.632 20.4988   6
  -4   7   3 212.384 17.2671   5
   4  -7  -3 213.367 19.2207   3
   4   7  -3 217.955 19.2961   5
   4   7  -2-1.46801 5.83463   5
   4  -7  -2 1.51452 4.61674   2
   4  -7  -2-1.42431 4.34175   6
  -4   7   2 1.26575 5.31846   4
  -4   7   2 1.10207 4.50717   5
  -4  -7   1 1785.17 64.2353   8
   4  -7  -1 1773.30 65.4661   6
  -4   7   1 1581.28 59.0467   5
  -4   7   1 1750.68 64.1637   4
   4  -7  -1 1540.10 64.8297   2
   4   7  -1 1888.54 68.8471   5
  -4  -7   0 108.063 12.8594   8
  -4   7   0 80.7074 6.39142   1
  -4   7   0 131.423 13.7627   4
   4  -7   0 102.832 12.6537   6
  -4   7   0 97.1555 10.4418   5
   4   7   0 108.662 14.0921   5
   4  -7   0 103.587 13.3602   2
  -4  -7  -1 150.909 15.5131   8
  -4   7  -1 123.824 14.0113   4
  -4   7  -1 149.622 13.9638   6
   4  -7   1 119.675 13.2658   6
  -4   7  -1 112.940 8.88558   1
   4  -7   1 133.212 15.4095   2
   4   7   1 157.924 16.6549   5
  -4  -7  -2 110.041 13.6665   8
  -4   7  -2 104.387 11.5740   6
   4  -7   2 86.4299 11.2938   6
  -4   7  -2 108.535 13.1450   4
  -4   7  -2 96.6424 8.95749   1
  -4   7  -2 79.1774 8.36977   5
   4  -7   2 113.362 13.8842   2
   4  -7   3 8.61099 4.75542   6
  -4   7  -3 7.94533 5.57452   4
  -4   7  -3 15.5363 5.35952   6
  -4  -7  -3 15.1152 5.80463   2
  -4   7  -3 18.1727 4.09165   5
  -4   7  -3 15.9238 4.58276   1
   4  -7   3 9.15329 5.10555   2
  -4  -7  -4 70.9584 12.0990   6
  -4   7  -4 71.9518 11.1692   4
   4  -7   4 69.5268 9.89761   6
  -4   7  -4 82.0827 10.3020   6
  -4   7  -4 65.0682 5.39372   5
  -4   7  -4 69.9270 8.81248   1
  -4   7  -4 73.5239 5.24883   5
   4  -7   4 57.1264 10.3570   2
  -4  -7  -4 68.8062 9.29831   2
  -4   7  -5 1928.18 68.9057   4
   4   7   5 1682.65 67.3399   7
   4  -7   5 1766.10 63.4314   6
  -4  -7  -5 1881.67 71.9554   6
  -4   7  -5 1839.98 62.5006   6
  -4   7  -5 1645.21 61.4397   1
   4  -7   5 1729.93 68.5869   2
  -4  -7  -5 1642.73 60.2152   2
  -4  -7  -6 1.90934 4.01325   2
  -4  -7  -6 8.34392 3.51838   3
  -4   7  -6 1.22681 4.58187   1
   4   7   6 1.59151 4.34101   7
  -4   7  -6 8.86320 6.97707   4
  -4  -7  -6 3.39663 4.63210   6
  -4   7  -6 7.01356 4.53183   6
   4  -7   6 11.1830 7.05826   2
   4   7   7 112.867 14.6885   7
  -4   7  -7 104.477 10.9366   6
  -4  -7  -7 104.320 14.6279   6
   4  -7   7 110.312 14.3357   2
  -4   7  -7 85.2712 11.6966   1
  -4  -7  -7 116.343 8.27619   3
   4   7   8 165.901 18.2340   7
  -4  -7  -8 185.138 19.2630   6
  -4   7  -8 166.046 13.5746   6
  -4   7  -8 152.376 16.1283   1
   4  -7   8 161.297 17.1165   2
  -4  -7  -8 148.315 8.59545   3
  -4   7  -9 6.42275 6.38685   1
  -4  -7  -9 12.0370 6.42487   6
  -4   7  -9 6.27394 4.06031   6
  -4   7 -10 8.67566 6.26866   1
   4   7  10 19.4840 7.97659   7
  -4  -7 -10 15.6505 7.12095   6
  -4   7 -10 14.6164 4.55382   6
   4   7  11 182.444 20.5525   7
  -4  -7 -11 177.287 19.1004   6
  -4   7 -11 222.253 21.1833   1
   4   8 -10 1014.95 48.5828   5
   4  -8 -10 987.283 49.5223   3
   4  -8  -9 60.4352 11.6900   3
   4  -8  -9 90.6234 14.8888   6
   4   8  -9 64.0572 12.0829   5
   4  -8  -8 650.723 39.2230   6
   4   8  -8 630.694 36.0475   5
   4  -8  -8 623.746 36.3458   3
   4  -8  -7 6.72915 5.62316   3
   4  -8  -7 7.54473 6.80771   6
   4   8  -7 18.7499 7.83035   5
   4  -8  -6 675.201 39.4771   6
   4  -8  -6 736.447 39.5732   3
   4   8  -6 666.470 37.0051   5
   4  -8  -5 102.980 14.7422   6
   4  -8  -5 130.857 15.8100   3
   4   8  -5 127.812 15.2593   5
   4  -8  -4 1222.64 54.6310   6
  -4   8   4 1160.78 50.0119   5
   4  -8  -4 1092.44 52.0687   3
   4   8  -4 1185.23 52.7425   5
   4  -8  -3 147.422 16.5591   6
  -4   8   3 143.861 15.1507   5
   4  -8  -3 178.089 18.6625   3
   4   8  -3 129.601 15.9133   5
   4  -8  -2 32.3500 8.86203   3
   4  -8  -2 16.1450 6.63433   6
   4  -8  -2 23.7295 8.35613   2
  -4   8   2 20.4462 7.36084   5
   4   8  -1 43.2686 9.80079   5
   4  -8  -1 60.2333 11.0421   3
  -4  -8   1 32.0711 8.00452   8
   4  -8  -1 39.5947 9.57810   6
  -4   8   1 23.2488 6.64189   5
   4  -8  -1 38.8963 9.68768   2
  -4  -8   0 610.472 33.1439   8
   4  -8   0 612.302 33.5147   6
  -4   8   0 561.954 27.5132   5
   4  -8   0 596.561 34.7623   2
   4   8   0 645.318 35.8781   5
   4   8   1 1.70130 5.18628   5
   4  -8   1 1.51311 4.83777   6
  -4   8  -1 8.07324 4.89167   5
  -4   8  -1 0.56691 2.25361   1
   4  -8   1 1.72342 5.25372   2
   4   8   2 33.1164 9.26450   5
  -4   8  -2 40.5087 6.17225   1
   4  -8   2 32.4233 8.10735   6
  -4  -8  -2 57.4072 9.47222   2
   4  -8   2 55.1170 10.8132   2
  -4   8  -3 8.66891 3.65122   1
   4   8   3 8.51208 5.30250   7
   4  -8   3 8.64845 5.73444   6
  -4   8  -3 11.2137 4.08080   5
  -4  -8  -3 9.95745 5.50406   2
   4  -8   3 13.7283 6.41161   2
   4  -8   4 163.374 15.9444   6
   4   8   4 152.697 15.9296   7
  -4   8  -4 128.553 12.3838   1
  -4  -8  -4 148.295 12.1357   3
   4  -8   4 126.762 16.0167   2
  -4   8  -4 135.083 8.57698   5
  -4  -8  -4 114.801 12.7120   2
  -4   8  -4 148.677 8.12760   5
  -4  -8  -4 145.242 17.8382   6
  -4  -8  -5 31.6019 5.91074   3
  -4   8  -5 24.9910 6.53275   1
   4   8   5 37.3197 8.52108   7
  -4  -8  -5 55.5894 11.1187   6
  -4   8  -5 33.8638 7.95185   6
   4  -8   5 28.1119 8.84083   2
  -4  -8  -5 35.2297 7.47069   2
  -4   8  -6 35.3696 7.56579   1
  -4  -8  -6 48.1014 8.33673   2
   4   8   6 42.6587 9.13478   7
  -4  -8  -6 38.4585 10.0269   6
  -4   8  -6 24.5059 6.53107   6
  -4  -8  -6 42.0797 6.16773   3
   4  -8   6 34.0021 9.01373   2
   4   8   7 29.4080 8.99953   7
  -4   8  -7 31.9827 7.95229   1
  -4  -8  -7 13.5020 6.73014   6
  -4   8  -7 29.3911 6.65479   6
   4  -8   7 16.3941 7.04869   2
   4   8   8 297.075 25.4793   7
  -4  -8  -8 319.337 26.7136   6
  -4   8  -8 317.747 20.8300   6
  -4   8  -8 257.650 21.9825   1
   4  -8   8 327.579 26.3237   2
  -4  -8  -8 325.664 15.2889   3
   4  -9  -4-1.83879 5.01345   3
   4  -9  -4 7.62991 6.09840   6
   4   9  -4-3.39353 5.66595   5
   4   9  -3-1.72008 6.20424   5
   4  -9  -3 18.4636 8.15636   3
   4  -9  -3 1.86860 6.49477   6
   4   9  -2 1.75831 6.11123   5
   4  -9  -2-3.72067 6.94541   3
   4  -9  -2 1.82189 5.55372   6
  -4   9   2 1.29304 4.98582   5
   4  -9  -2 7.47323 5.97319   2
   4  -9  -1 336.381 26.0331   6
  -4   9   1 265.599 20.2504   5
   4  -9  -1 304.471 25.4261   3
   4   9  -1 350.962 26.8685   5
   4  -9  -1 280.584 24.6003   2
   4  -9   0 28.1701 8.88346   2
   4   9   0 24.1705 8.22907   5
   4  -9   0 30.5591 9.03404   3
   4  -9   0 29.7738 8.62376   6
  -4   9   0 16.6307 2.87803   1
   4  -9   1 11.3968 7.32557   2
   4  -9   1 1.95507 5.33260   3
   4   9   1 1.86646 5.39967   5
   4  -9   1 10.2540 6.16589   6
  -4   9  -1 6.86611 3.01576   1
  -4  -9  -1 4.58502 4.88855   2
   4   9   2 36.0628 9.70432   5
   4  -9   2 45.3410 10.1311   6
   4   9   2 20.4951 6.61894   7
  -4  -9  -2 35.1596 9.06679   2
  -4   9  -2 26.0465 5.03066   1
   4  -9   2 11.5745 7.23265   2
  -4   9  -3 35.2636 5.62730   5
  -4   9  -3 13.7151 4.78912   1
   4   9   3 32.6783 7.89333   7
   4  -9   3 29.6629 8.42980   6
   4   9   3 42.7571 10.6170   5
  -4  -9  -3 33.8401 8.06615   2
   4  -9   3 11.5511 6.46003   2
  -5   0  19 306.226 28.2413   4
   5   0 -19 291.051 26.3379   1
   5   0 -19 268.439 19.3670   8
  -5   0  18 2.30760 6.67370   4
   5   0 -18-2.02522 5.52222   1
   5   0 -18 6.72440 4.83197   8
   5   0 -17 23.2958 5.99197   8
  -5   0  17 32.9691 10.4015   4
   5   0 -17 28.9177 9.31631   1
   5   0 -16 1.82750 4.98291   1
  -5   0  16 2.08554 5.31921   4
  -5   0  15 377.654 29.2667   4
   5   0 -15 383.753 27.9935   1
  -5   0  14 1.84281 3.97269   4
   5   0 -14-4.93109 5.48911   1
  -5   0  14 1.57530 5.03682   5
   5   0 -13 1100.59 49.6822   1
  -5   0  13 1052.06 48.6277   5
  -5   0  13 1137.12 49.0147   3
  -5   0  13 1042.63 50.1291   4
  -5   0  12 1.39074 5.01614   3
  -5   0  12-1.59000 4.33514   4
  -5   0  12 1.44732 5.03033   5
  -5   0  11 27.8582 6.91996   3
  -5   0  11 27.7445 7.61072   4
  -5   0  11 24.7758 6.66896   5
  -5   0  10-1.25879 5.14825   3
  -5   0  10-1.33099 3.62908   4
  -5   0  10-1.31093 4.19131   5
  -5   0   9 1793.65 64.0298   4
   5   0  -9 1680.68 64.8685   5
  -5   0   9 1785.83 64.6198   5
  -5   0   9 1813.68 64.0104   3
   5   0  -9 1656.74 62.9709   3
  -5   0   8-2.25050 3.75777   3
   5   0  -8 1.16700 3.89717   3
   5   0  -8-1.29367 3.94377   5
  -5   0   8-4.72076 4.95913   5
   5   0  -7 286.408 20.4532   5
  -5   0   7 305.063 19.4606   3
   5   0  -7 293.197 19.4210   3
  -5   0   6 0.80308 2.56763   4
   5   0  -6 1.14579 3.12408   5
  -5   0   5 20.6130 4.14107   4
   5   0  -5 20.0159 4.89291   3
   5   0  -5 26.0203 5.93765   5
  -5   0   4-0.52873 1.76590   4
   5   0  -4-2.67093 3.09455   3
   5   0  -4 1.00687 2.74544   5
  -5   0   3 2510.78 72.8362   4
   5   0  -3 2615.23 82.0840   5
  -5   0   3 2528.42 78.6711   3
   5   0  -3 2683.47 80.0774   3
   5   0  -2 4.52331 2.51774   3
  -5   0   2 1.84968 1.27421   4
  -5   0   2-0.69792 2.01871   3
   5   0  -2 0.89801 2.73771   5
   5   0  -1 8.26678 3.04678   3
  -5   0   1 8.89301 3.18519   3
   5   0  -1 1.68866 2.70350   5
  -5   0   0-0.68471 2.08723   5
  -5   0   0-0.58254 2.02470   3
   5   0   0-0.63157 1.82643   3
   5   0   0 2.39474 2.66556   5
  -5   0  -1 4430.74 123.179   3
   5   0   1 4533.04 127.033   5
   5   0   1 4405.42 123.621   3
  -5   0  -1 4431.18 124.821   5
   5   0   2-0.51342 1.39983   3
  -5   0  -2 0.65992 1.45758   2
   5   0   2-0.71120 2.16796   5
   5   0   3 154.838 12.5021   1
   5   0   3 134.139 6.08881   4
   5   0   3 135.435 7.50838   6
   5   0   3 132.628 8.71099   3
   5   0   3 152.395 10.8317   5
   5   0   4 1.34149 2.33125   5
   5   0   4 0.45697 1.64819   3
   5   0   4-0.33212 1.32002   4
   5   0   4-0.98274 2.99570   1
   5   0   4 0.24282 1.12254   6
   5   0   5 226.619 11.8103   4
   5   0   5 233.703 16.7756   1
   5   0   5 216.104 8.28308   6
   5   0   5 222.400 11.3948   3
   5   0   5 231.523 13.7745   5
   5   0   6-0.68666 2.80832   5
   5   0   6-0.44050 1.64467   3
   5   0   6-0.59493 2.14588   4
   5   0   6-1.12969 3.61176   1
   5   0   7 1351.42 52.8057   8
   5   0   7 1293.49 52.4377   7
   5   0   7 1289.12 51.4837   1
   5   0   7 1365.25 41.1601   3
   5   0   7 1196.45 44.5400   4
   5   0   7 1297.79 44.6317   5
   5   0   8-1.29843 4.33578   1
   5   0   8 2.34255 2.30285   3
   5   0   8-1.40302 3.57826   7
   5   0   8-1.69345 3.36533   4
   5   0   8 1.29305 3.29779   8
   5   0   9 4316.55 132.323   8
   5   0   9 4086.41 125.000   4
   5   0   9 4234.88 134.186   7
   5   0   9 4379.82 132.706   1
   5   0  10 3.27148 4.73039   7
   5   0  10-2.18344 4.20951   4
   5   0  10 2.96884 4.74585   1
   5   0  10 1.42132 4.33264   8
   5   0  10 0.39311 0.99463   2
   5   0  11 131.440 13.3024   4
   5   0  11 95.1040 13.7349   7
   5   0  11 98.6111 12.9256   8
   5   0  11 110.515 5.32966   2
   5   0  11 129.535 14.9567   1
   5   0  12-1.51837 4.62862   8
   5   0  12-3.67344 5.31172   7
   5   0  12 1.31816 4.58156   4
   5   0  13 70.1627 12.9048   7
   5   0  13 74.5476 11.4946   4
   5   0  13 97.9224 13.2551   8
   5   0  14 1.55012 4.48325   4
   5   0  14-0.61846 3.31998   3
   5   0  15 924.942 46.2119   4
   5   0  15 1013.84 48.1096   8
   5   0  16-1.76385 6.13045   4
   5   0  16 1.70512 5.19774   8
   5   0  17 745.673 41.0176   8
   5   0  17 702.335 41.1303   4
   5  -1 -19 15.1941 7.05806   8
   5  -1 -19 25.1958 7.93754   1
  -5   1  19 27.0604 10.6134   4
  -5  -1  19 2.40802 7.71005   4
   5   1 -19 18.4611 8.90774   1
  -5   1  18 576.248 39.1614   4
   5  -1 -18 610.471 32.3456   8
  -5  -1  18 568.447 38.9369   4
   5   1 -18 524.332 25.4378   8
   5  -1 -18 514.855 34.2677   1
   5   1 -18 611.123 39.8469   1
   5  -1 -17 119.088 14.1723   8
  -5   1  17 120.639 17.7473   4
  -5  -1  17 121.679 17.0190   4
   5  -1 -17 105.421 15.0629   1
   5   1 -17 112.271 16.9777   1
   5   1 -17 119.719 10.9656   8
   5   1 -16 88.2702 9.40111   8
   5   1 -16 106.201 15.6615   1
  -5   1  16 114.824 16.6755   4
  -5  -1  16 77.9029 13.5877   4
   5  -1 -16 69.1958 11.8819   1
   5   1 -15 110.232 15.8977   1
  -5  -1  15 131.326 17.0352   4
  -5   1  15 101.827 15.2226   4
   5  -1 -15 142.279 15.8655   1
  -5   1  14 858.469 46.1905   4
  -5  -1  14 922.304 47.0116   4
  -5  -1  14 933.867 45.0030   5
   5  -1 -14 968.925 44.2374   1
  -5   1  13 75.8360 11.4776   3
  -5   1  13 94.1448 13.5358   4
  -5  -1  13 99.4704 13.0504   3
  -5  -1  13 84.2278 12.6829   4
  -5   1  13 112.741 13.9672   5
   5   1 -13 79.0414 12.2026   5
   5  -1 -13 103.347 12.4873   1
  -5  -1  13 81.3281 12.3113   5
  -5   1  12 1215.41 54.0915   4
  -5  -1  12 1236.92 53.8375   4
   5   1 -12 1246.91 54.3161   5
  -5   1  12 1178.08 52.0588   5
  -5  -1  12 1211.96 51.9855   5
  -5   1  12 1360.41 53.0752   3
  -5  -1  12 1248.52 52.2944   3
   5  -1 -12 1241.69 51.0559   1
  -5   1  11 46.1107 9.08493   3
  -5   1  11 47.4755 8.79861   4
  -5  -1  11 55.9107 9.60764   3
  -5  -1  11 63.1773 10.2562   4
   5  -1 -11 56.1462 8.72699   1
  -5   1  11 65.3639 10.6380   5
  -5  -1  11 35.2109 8.85603   5
  -5  -1  10 1731.91 65.1077   4
  -5   1  10 1850.86 66.8643   4
  -5   1  10 1666.52 65.0926   5
  -5  -1  10 1859.41 66.1450   5
  -5   1  10 1781.44 64.5326   3
  -5  -1  10 1952.61 66.7358   3
   5  -1 -10 1575.02 64.1335   3
  -5   1   9 5.76505 4.00852   3
  -5   1   9 4.92151 4.10963   4
  -5  -1   9 4.78676 4.16030   3
  -5  -1   9 1.19315 3.45174   4
   5  -1  -9 2.49910 4.34397   3
   5  -1  -9 1.39316 4.45506   5
  -5   1   9 3.77566 5.00302   5
  -5  -1   9 7.38346 5.56471   5
   5  -1  -8 6517.47 186.629   5
  -5   1   8 6338.47 184.033   5
  -5  -1   8 6265.40 183.262   5
  -5   1   8 6694.82 183.241   3
   5  -1  -8 6122.48 182.749   3
  -5   1   7 4.15657 4.00869   3
   5  -1  -7 1.24057 3.78367   5
   5   1  -7 4.87289 3.71559   5
  -5  -1   7 11.9781 4.92498   5
   5  -1  -6 339.460 21.3972   5
   5   1  -6 276.955 19.5860   5
  -5   1   6 336.691 19.9505   3
  -5  -1   5 11.0601 4.62162   3
  -5  -1   5 5.57866 3.16032   4
   5   1  -5 3.69307 3.09061   3
   5  -1  -5 14.1552 4.69902   5
   5   1  -4 8544.68 226.767   4
  -5  -1   4 8250.36 224.927   4
   5  -1  -4 8518.08 233.056   5
   5   1  -4 8572.02 233.601   5
  -5  -1   4 8542.87 230.402   3
   5   1  -4 8109.05 229.902   3
   5   1  -3 62.0480 6.31266   4
  -5  -1   3 54.5428 5.36039   4
   5  -1  -3 45.3812 6.65325   3
   5   1  -3 67.5642 8.50954   5
  -5  -1   3 55.3389 7.15112   3
   5  -1  -3 55.7690 7.80857   5
   5   1  -3 54.4854 7.13763   3
  -5   1   2 996.792 32.0481   4
   5   1  -2 1049.27 34.4023   4
  -5  -1   2 1056.52 33.1754   4
   5  -1  -2 1079.34 40.7137   5
   5   1  -2 1067.99 41.1596   5
   5  -1  -2 1031.62 38.9476   3
   5   1  -2 1024.98 38.1658   3
  -5   1   1 6.38744 2.90622   3
  -5   1   1 7.03667 2.65530   2
   5  -1  -1 5.08440 2.52870   3
  -5  -1   1 6.65610 2.92012   3
  -5   1   1 7.35340 1.28592   4
   5   1  -1 4.54103 1.78773   4
   5   1  -1 2.63150 2.37732   3
   5  -1  -1 3.24099 2.81989   5
   5   1  -1 5.25178 3.27110   5
  -5   1   1 5.74283 3.17442   5
   5   1   0 2506.92 69.8781   4
  -5   1   0 2629.32 76.9160   3
   5  -1   0 2565.37 77.9250   5
  -5  -1   0 2474.48 73.9796   3
   5  -1   0 2567.65 76.7996   3
  -5   1   0 2597.71 74.3137   2
   5   1   0 2578.52 79.0521   5
  -5   1   0 2473.70 75.6217   5
   5   1   0 2479.99 74.8404   3
  -5   1  -1 33.9398 5.00257   5
   5  -1   1 31.1734 5.03691   3
   5  -1   1 35.3440 5.40150   1
   5   1   1 34.8438 3.34395   4
  -5   1  -1 36.0296 4.67917   2
  -5  -1  -1 41.9383 4.76974   3
   5   1   1 33.7506 4.59743   3
   5  -1   1 36.2779 5.64582   5
   5   1   1 45.8401 6.36462   5
   5  -1   2 3081.89 92.9729   1
   5   1   2 3225.45 84.6889   4
   5   1   2 3010.33 88.9441   6
  -5   1  -2 3172.69 88.2221   2
  -5  -1  -2 3139.78 87.0390   3
   5  -1   2 3219.12 91.4555   3
   5  -1   2 3177.21 91.8857   5
   5   1   2 3114.76 93.5504   5
  -5   1  -2 3020.63 89.0905   5
   5   1   2 3059.77 87.8471   3
   5   1   3 19.0720 4.61750   5
   5  -1   3 20.1858 3.96563   3
   5   1   3 13.6346 2.74398   3
   5   1   3 18.2455 3.32014   6
   5  -1   3 27.2467 5.41624   1
  -5  -1  -3 16.1333 1.81727   2
   5  -1   3 21.3813 4.17947   5
   5   1   4 69.0781 9.21468   1
   5  -1   4 48.4427 3.88516   4
   5   1   4 66.5725 5.55651   6
   5  -1   4 56.9588 7.67908   1
   5  -1   4 62.0252 6.51827   3
   5  -1   4 56.3177 6.20143   5
   5   1   4 53.4143 6.93306   5
   5   1   4 51.9734 4.60952   3
   5   1   5 653.870 32.8051   1
   5  -1   5 691.511 24.2040   4
   5   1   5 702.261 24.5534   6
   5  -1   5 723.913 32.3589   1
   5  -1   5 723.190 27.8845   3
   5   1   5 703.387 34.2165   8
   5  -1   5 771.285 27.5733   5
   5   1   5 752.322 30.4462   5
   5   1   5 701.185 22.9073   3
   5   1   6 1131.24 47.9342   8
   5  -1   6 1208.65 38.8976   4
   5  -1   6 1169.86 47.2490   7
   5   1   6 1229.07 48.6513   1
   5   1   6 1181.55 36.2073   6
   5  -1   6 1163.42 46.2953   1
   5  -1   6 1198.15 40.7409   3
   5  -1   6 1142.66 36.4118   2
   5  -1   6 1158.10 39.0877   5
   5   1   6 1173.56 34.2171   3
   5   1   7 60.1762 9.32604   8
   5   1   7 61.9826 9.87057   7
   5  -1   7 58.4792 8.83676   7
   5  -1   7 63.2239 9.35806   1
   5  -1   7 64.5201 6.92541   4
   5   1   7 61.5007 5.01493   6
   5   1   7 78.0332 10.4973   1
   5  -1   7 59.7466 5.22582   2
   5   1   7 52.6555 3.72288   3
   5  -1   7 55.3822 6.03582   5
   5   1   8 622.511 33.8689   7
   5   1   8 606.956 32.9411   8
   5  -1   8 560.790 26.0267   4
   5  -1   8 618.021 32.6261   7
   5   1   8 590.663 32.0168   1
   5  -1   8 608.352 21.7327   2
   5  -1   8 641.738 32.3711   1
   5   1   8 604.515 18.6801   3
   5  -1   8 603.376 24.1887   5
   5  -1   9 4.69347 2.77531   5
   5   1   9 6.30124 1.55940   3
   5   1   9 5.88725 4.25940   8
   5  -1   9 14.4170 5.73236   7
   5  -1   9 3.53095 3.29960   4
   5   1   9 11.1404 5.53376   7
   5  -1   9 2.74205 4.18246   1
   5  -1   9 8.69087 2.55957   2
   5   1   9 7.18621 4.59786   1
   5  -1   9 5.12982 4.10334   8
   5   1  10 1467.41 58.4618   8
  -5   1 -10 1360.69 57.4953   1
   5  -1  10 1304.81 49.7960   4
   5   1  10 1342.31 58.5500   7
   5  -1  10 1324.28 56.7265   7
   5   1  10 1342.55 56.7010   1
   5   1  10 1336.26 38.2555   3
   5  -1  10 1413.64 57.1060   1
   5  -1  10 1437.47 45.2451   5
   5  -1  10 1325.90 54.0594   8
   5   1  10 1340.91 38.6276   3
   5  -1  11 133.914 14.3458   8
   5   1  11 131.954 16.4474   7
   5  -1  11 121.319 14.8750   7
   5   1  11 116.783 14.2863   1
   5  -1  11 138.047 13.3735   4
   5   1  11 130.246 6.61860   3
  -5   1 -11 132.454 16.2281   1
   5  -1  11 160.908 17.2689   1
   5   1  11 136.571 6.99899   3
   5   1  11 129.074 15.5791   8
   5  -1  12 104.659 12.9364   8
   5   1  12 109.191 14.4370   8
   5  -1  12 110.283 12.5425   4
   5   1  12 104.907 14.7345   7
   5  -1  12 104.909 14.4637   7
  -5  -1 -12 111.251 7.20272   6
   5   1  12 102.415 6.04772   3
   5   1  12 110.621 6.43144   3
   5  -1  13 28.9550 6.99312   8
   5   1  13 17.1269 6.61995   8
   5   1  13 22.3813 8.78349   7
   5   1  13 6.08127 5.30414   4
   5   1  13 16.3652 2.85558   3
   5  -1  13 21.6814 6.28154   4
  -5  -1 -13 21.4580 3.39530   6
   5   1  14 369.332 26.4195   4
   5  -1  14 390.033 26.0081   8
   5  -1  14 376.938 25.1843   4
  -5  -1 -14 334.964 14.6830   6
   5   1  14 356.706 14.3744   3
   5   1  14 383.296 27.8467   8
   5  -1  15 26.0987 7.56596   8
   5   1  15 17.4792 7.55522   4
   5  -1  15 14.2232 6.83495   4
   5   1  15 16.2806 7.41851   8
  -5  -1 -15 24.7377 3.66978   6
   5   1  16 488.011 33.1629   4
   5  -1  16 566.384 32.5785   8
   5   1  16 528.323 34.2262   8
   5  -1  16 505.604 32.2615   4
  -5  -1 -16 506.989 19.2924   6
   5  -1  17 31.6295 9.03039   8
   5   1  17 24.6252 9.32177   8
   5   1  17 17.5734 8.21701   4
   5  -1  17 21.5678 8.49984   4
  -5  -1 -17 14.7571 3.23274   6
   5   2 -18 32.8339 3.94673   8
  -5   2  18 91.7398 16.3238   4
  -5  -2  18 65.5358 13.9473   4
   5  -2 -18 49.3355 10.4241   1
   5   2 -18 74.7327 14.5499   1
   5   2 -17 378.512 16.5399   8
  -5  -2  17 431.454 32.9386   4
   5  -2 -17 436.478 28.7239   1
   5   2 -17 475.012 36.1892   1
   5  -2 -16-1.47503 4.02180   1
   5   2 -16-1.49446 2.63036   8
  -5   2  16 6.49146 6.25760   4
  -5  -2  16-4.21233 6.42033   4
   5   2 -15 49.3968 5.76567   8
   5  -2 -15 60.2078 10.0464   1
  -5  -2  15 51.6481 11.5654   4
   5  -2 -14 218.565 17.8200   1
   5   2 -14 217.468 20.7073   5
  -5  -2  14 211.529 19.2752   5
  -5  -2  14 167.937 18.7946   4
   5  -2 -14 194.093 18.9421   3
  -5  -2  13 3050.53 105.421   4
   5   2 -13 3073.30 103.960   5
   5  -2 -13 3019.51 96.6880   1
  -5   2  13 3059.73 101.307   3
  -5  -2  13 3008.26 101.064   5
   5  -2 -13 2900.12 101.773   3
  -5  -2  12 21.3209 7.99926   3
  -5  -2  12 11.3559 6.82803   4
   5  -2 -12 10.4020 6.25649   3
   5  -2 -12 15.8758 4.80182   1
   5   2 -12 17.1583 6.73614   5
  -5   2  12 15.3004 6.92927   5
  -5   2  12 13.6521 6.45932   3
  -5  -2  12 23.3324 7.61061   5
  -5   2  11 60.0953 9.42590   3
  -5  -2  11 52.7113 9.74582   3
  -5  -2  11 54.2296 9.71587   4
   5   2 -11 35.8699 8.97198   5
  -5   2  11 52.3661 9.79777   5
   5  -2 -11 46.8326 7.53629   1
  -5  -2  11 51.1555 9.37832   5
  -5   2  10-1.24707 3.98716   3
   5  -2 -10-1.70634 2.96550   1
  -5  -2  10 1.28034 5.51960   3
  -5  -2  10-1.37903 3.98815   4
   5   2 -10-1.41987 4.10624   5
  -5   2  10-1.38294 4.61811   5
  -5  -2  10-1.25270 4.83035   5
  -5  -2   9 642.942 32.3835   4
   5   2  -9 549.059 31.7830   5
  -5   2   9 620.381 31.2323   3
  -5  -2   9 587.036 30.8638   5
   5  -2  -9 654.728 27.2448   1
   5  -2  -8 15.2577 3.63882   1
   5   2  -8 29.7773 6.63577   4
   5  -2  -8 6.11801 4.10491   3
  -5  -2   8 18.8648 5.36303   4
  -5  -2   8 14.7289 5.58288   5
  -5   2   8 20.3248 5.66955   3
   5   2  -7 2133.61 70.9316   4
  -5   2   7 2130.77 71.4258   3
  -5  -2   7 2086.30 70.9721   5
   5  -2  -7 2036.02 71.6610   3
  -5   2   6 47.1544 7.54649   3
   5  -2  -6 35.1585 6.71108   3
   5   2  -6 49.5647 7.35632   4
  -5  -2   6 42.1144 7.32205   3
  -5   2   6 48.8513 8.25180   5
  -5  -2   6 47.8970 7.81818   5
   5   2  -5 3677.88 105.975   4
   5  -2  -5 3647.35 110.389   5
  -5   2   5 3679.08 108.042   3
  -5   2   5 3488.58 108.013   5
   5   2  -5 3353.14 109.290   5
  -5  -2   5 3476.56 107.094   3
  -5   2   4 20.2965 5.06770   3
   5   2  -4 25.4554 4.79406   4
  -5  -2   4 21.6192 5.10726   3
  -5  -2   4 24.9457 4.49723   4
   5  -2  -4 28.7943 6.22076   5
   5   2  -4 23.6178 5.88575   5
  -5   2   3 25.8983 5.61227   2
  -5  -2   3 41.9284 6.56092   3
   5   2  -3 26.3433 4.77935   4
  -5  -2   3 34.6430 5.33286   4
   5  -2  -3 19.1209 5.26984   5
   5   2  -3 50.1389 8.46262   5
  -5   2   2 2.22934 2.68182   2
   5  -2  -2 11.4555 3.79986   3
  -5  -2   2 2.87902 2.50324   3
   5   2  -2 4.02411 2.28665   4
   5  -2  -2 0.87656 3.04794   5
   5   2  -2 3.89722 3.25473   5
   5   2  -1 757.725 28.2390   4
   5  -2  -1 789.363 27.8783   1
   5  -2  -1 868.405 33.6968   5
  -5   2   1 868.768 32.6453   2
   5  -2  -1 793.350 32.9334   3
  -5   2   1 864.184 32.6554   5
   5   2  -1 747.441 33.2149   5
  -5  -2   1 802.440 30.4909   3
   5   2   0 3.64830 3.17138   5
   5  -2   0 4.93619 3.07287   3
   5   2   0 2.90183 3.20600   6
   5   2   0 1.88097 2.02932   4
  -5   2   0 2.20422 1.51454   4
   5  -2   0 6.16981 2.71621   1
   5  -2   0 3.68056 3.25305   5
  -5   2   0 5.99072 3.07863   2
  -5  -2   0 4.47740 2.64465   3
  -5   2   0 6.50492 3.25956   5
  -5   2  -1 10393.2 280.164   4
   5  -2   1 10731.4 284.058   6
   5   2   1 11063.4 283.981   4
   5   2   1 10652.6 288.393   6
   5  -2   1 10854.6 286.643   1
  -5   2  -1 11017.2 287.655   2
   5  -2   1 11049.6 288.371   5
   5  -2   1 10810.3 290.346   3
  -5   2  -1 10986.8 286.042   5
  -5  -2  -1 10837.7 284.002   3
   5   2   1 10989.7 292.396   5
  -5   2  -2 98.4849 6.07847   4
   5  -2   2 101.340 6.86604   6
   5  -2   2 105.225 9.11818   1
   5  -2   2 98.7607 9.45828   3
   5  -2   2 102.307 8.68111   5
  -5  -2  -2 100.772 6.64141   3
  -5   2  -2 106.256 7.96000   5
   5   2   2 128.924 11.2851   5
   5   2   2 93.9157 8.66055   6
  -5   2  -3 1107.51 34.6104   4
   5   2   3 1061.98 38.3273   6
   5  -2   3 1138.66 33.6289   6
   5  -2   3 1123.39 40.7099   1
   5  -2   3 1100.09 40.9452   3
  -5  -2  -3 1102.19 32.8968   3
   5  -2   3 1158.84 37.9768   5
   5   2   3 1132.92 42.8041   5
   5  -2   3 1120.75 38.3941   2
  -5   2  -3 1123.94 35.6065   5
   5   2   4 272.091 19.6807   8
   5  -2   4 276.373 9.94488   6
   5   2   4 264.956 14.4462   6
   5  -2   4 296.356 17.1189   3
   5  -2   4 270.559 17.0626   1
   5  -2   4 255.040 13.3197   5
   5  -2   4 266.225 14.3826   2
   5   2   4 282.719 17.6616   5
   5   2   5 168.243 15.4143   8
   5   2   5 165.866 14.8750   1
   5  -2   5 167.206 13.1322   7
   5  -2   5 134.776 8.47084   4
   5  -2   5 153.673 12.9187   1
   5  -2   5 151.764 9.34339   5
   5  -2   5 136.509 9.92719   2
   5   2   5 136.142 9.72194   6
   5  -2   6 3.11748 3.01274   7
  -5   2  -6 5.54723 3.86194   1
   5   2   6 6.99185 4.47585   8
   5   2   6 11.5856 4.81074   1
   5  -2   6 13.4436 3.23726   4
   5   2   6 8.38673 2.95978   6
   5  -2   6 6.44962 4.15031   1
   5  -2   6 9.40073 2.80187   5
   5  -2   6 10.6470 3.33160   2
   5   2   7 1913.06 69.6331   8
  -5   2  -7 1761.53 65.3049   1
   5   2   7 1765.08 68.1329   7
   5  -2   7 1693.58 56.5970   4
   5  -2   7 1844.89 65.1850   7
   5   2   7 1804.34 67.6763   1
   5   2   7 1884.72 56.1701   6
   5  -2   7 1787.97 56.5571   2
   5  -2   7 1833.36 53.4230   5
   5  -2   7 1780.44 64.8751   1
   5   2   8 191.942 17.9015   8
  -5   2  -8 197.391 17.1556   1
   5  -2   8 178.637 12.7234   4
   5   2   8 204.091 18.5244   7
   5  -2   8 194.847 16.4993   7
   5   2   8 162.546 16.6339   1
   5   2   8 181.462 11.3795   6
   5  -2   8 188.543 12.1182   2
   5  -2   8 191.313 10.0502   5
   5  -2   8 196.078 17.0730   1
   5   2   9 2841.03 97.9198   8
   5   2   9 2791.01 98.4005   7
  -5   2  -9 2837.78 95.8118   1
   5  -2   9 2903.53 87.1808   4
   5  -2   9 2927.95 94.5660   7
  -5  -2  -9 2800.08 82.9666   6
   5   2   9 2630.45 95.2288   1
   5  -2   9 2761.61 78.4482   5
   5  -2   9 2807.21 94.6981   1
   5  -2  10 37.8145 8.09217   8
   5   2  10 38.3237 8.97214   8
  -5   2 -10 41.1512 8.66091   1
   5   2  10 23.2207 7.54007   7
   5  -2  10 24.4752 6.97676   7
   5  -2  10 28.8082 6.39295   4
  -5  -2 -10 22.5307 4.53225   6
   5   2  10 29.8660 8.05048   1
   5  -2  10 37.4649 9.50037   1
   5  -2  10 26.6390 3.90019   5
   5  -2  11 394.081 25.1342   8
   5   2  11 398.095 28.4152   8
   5  -2  11 430.844 24.5797   4
  -5   2 -11 406.253 28.5553   1
   5   2  11 458.962 31.3201   7
  -5  -2 -11 393.912 19.1960   6
   5  -2  11 412.578 16.7393   5
   5  -2  11 469.066 29.8548   1
   5  -2  12-0.86074 2.30987   5
   5  -2  12-6.57554 4.00887   8
   5   2  12 1.79637 4.58147   8
  -5   2 -12 7.32591 4.99352   1
   5   2  12 6.02294 5.80589   7
   5  -2  12 2.49011 3.79533   4
  -5  -2 -12 0.64401 2.48322   6
   5  -2  13 12.8318 3.22719   5
   5  -2  13 24.4127 6.79862   8
  -5   2 -13 5.87223 4.99934   1
   5   2  13 8.42018 5.74562   7
   5  -2  13 8.18524 5.58566   4
  -5  -2 -13 8.55861 3.59995   6
   5  -2  13 9.29100 3.31046   5
   5   2  13 12.9743 6.92493   8
   5  -2  14 22.4696 4.09282   5
   5  -2  14 6.86120 4.78879   8
   5   2  14 22.8304 8.41532   8
  -5   2 -14 18.7593 7.25727   1
   5   2  14 22.2225 8.57949   7
   5  -2  14 23.6272 7.40915   4
  -5  -2 -14 13.3636 4.09635   6
   5   2  15 769.896 44.0065   8
   5  -2  15 744.338 39.7811   4
  -5  -2 -15 740.014 29.7975   6
   5  -2  15 795.174 39.0211   8
   5  -2  16 1.42429 4.75615   8
   5   2  16-2.01146 6.43088   8
  -5   2 -16-2.33765 8.12481   1
   5  -2  16-1.69439 5.88911   4
  -5  -2 -16-0.67829 3.20329   6
   5  -2  17 4.30180 5.17235   8
   5   2  17-2.04547 6.23559   8
  -5   2 -17 7.39014 6.71672   1
   5   2  17 6.16702 6.26668   4
   5  -2  17 1.79746 6.00256   4
  -5  -2 -17 1.34776 3.31294   6
  -5  -3  18 419.465 34.2770   4
   5  -3 -18 467.695 29.2415   1
   5  -3 -18 433.250 32.2908   6
   5   3 -18 426.577 36.2773   1
  -5  -3  17-2.26046 6.89142   4
   5  -3 -17 8.65026 5.20106   1
   5   3 -17 2.49367 7.21219   1
  -5  -3  16 249.002 24.3751   4
   5  -3 -16 241.226 19.1737   1
   5   3 -16 271.538 23.8197   5
   5  -3 -16 209.730 20.6494   3
  -5  -3  15 4.03845 5.84189   4
   5  -3 -15 8.54228 6.38068   3
   5  -3 -15 9.78631 4.86502   1
   5   3 -15 3.49909 6.74817   5
  -5  -3  14 720.668 41.6113   4
   5  -3 -14 722.945 33.8434   1
   5   3 -14 765.934 40.8669   5
  -5  -3  14 745.210 38.2018   5
   5  -3 -14 689.016 38.5504   3
  -5  -3  13 28.3715 8.39685   4
   5  -3 -13 28.5643 8.11823   3
   5   3 -13 19.3552 2.79973   8
   5  -3 -13 36.6759 6.64903   1
   5   3 -13 26.0787 8.03544   5
  -5  -3  13 44.3727 9.28150   5
  -5  -3  12 1442.29 59.3024   4
   5   3 -12 1198.35 40.0667   8
   5   3 -12 1341.35 56.7910   5
  -5   3  12 1389.03 55.5794   3
  -5  -3  12 1457.94 55.5322   5
   5  -3 -12 1396.34 56.9246   3
   5  -3 -12 1405.40 48.6480   1
   5   3 -11 230.337 12.1100   8
   5  -3 -11 232.825 14.7062   1
   5   3 -11 216.007 19.3208   5
  -5   3  11 250.910 19.7400   3
  -5  -3  11 254.305 19.3613   5
  -5  -3  11 210.059 19.4304   4
   5  -3 -11 218.280 19.0797   3
   5   3 -10 1536.43 58.8040   4
  -5  -3  10 1341.33 56.5367   4
   5  -3 -10 1429.53 47.1039   1
   5   3 -10 1453.33 58.1397   5
  -5   3  10 1424.15 56.1173   3
  -5  -3  10 1324.12 54.2066   5
  -5  -3   9 48.3585 8.77364   5
  -5   3   9 34.7185 7.60614   3
   5   3  -9 30.3415 7.46251   4
  -5  -3   9 36.4876 7.68712   4
   5   3  -9 51.9767 9.17358   5
   5  -3  -9 24.7256 4.26122   1
   5   3  -8 2987.39 90.6766   8
   5   3  -8 3166.57 100.179   4
  -5  -3   8 2914.60 98.1537   4
   5  -3  -8 3074.73 86.5213   1
  -5   3   8 3256.50 100.138   3
  -5   3   8 3172.69 101.142   5
   5   3  -8 3150.69 101.512   5
  -5  -3   8 3088.42 98.8455   5
  -5  -3   8 3254.27 99.5591   3
   5   3  -7 98.5345 9.20268   8
   5   3  -7 113.829 12.1377   4
  -5  -3   7 116.870 12.0795   4
   5  -3  -7 106.752 6.41808   1
  -5   3   7 114.887 12.2608   3
  -5   3   7 118.089 12.8093   5
   5   3  -7 123.734 13.4470   5
  -5  -3   7 113.325 12.1166   5
  -5   3   7 146.157 13.2014   2
   5  -3  -7 118.295 12.6822   3
  -5  -3   7 129.099 12.8129   3
  -5  -3   6 19.2485 5.76584   5
  -5   3   6 25.1719 5.99337   3
  -5   3   6 23.8317 5.93479   2
   5  -3  -6 30.2475 6.46577   3
   5   3  -6 34.3442 6.90732   4
   5  -3  -6 20.2301 2.06808   1
  -5  -3   6 14.3377 5.06398   3
  -5  -3   6 24.5522 5.38366   4
   5   3  -6 26.7052 4.93774   8
  -5   3   6 14.8942 5.32526   5
  -5   3   5 27.5624 6.42714   3
  -5  -3   5 36.7454 6.99909   5
   5   3  -5 26.1030 5.18995   8
   5  -3  -5 40.5225 7.27785   3
   5   3  -5 28.5521 5.87177   4
  -5  -3   5 32.4169 6.67135   3
  -5   3   5 23.6393 6.34651   5
   5   3  -4 3428.32 100.045   4
   5  -3  -4 3224.24 100.703   6
  -5   3   4 3465.61 102.785   3
  -5   3   4 3302.71 101.669   5
   5  -3  -4 3335.58 102.819   3
  -5  -3   4 3232.75 101.385   5
  -5  -3   4 3226.42 99.7929   3
   5   3  -3 230.917 15.0278   4
   5  -3  -3 229.961 15.2685   6
   5  -3  -3 208.949 15.9134   3
   5   3  -3 235.717 17.1303   5
  -5  -3   3 245.311 15.3892   3
   5   3  -2 1093.38 39.7082   4
   5   3  -2 1100.31 42.8391   6
   5  -3  -2 1199.55 41.8419   6
  -5   3   2 1198.28 42.6724   2
   5  -3  -2 1217.85 44.7099   3
   5   3  -2 1104.24 43.9689   5
   5  -3  -2 1050.25 31.6142   1
  -5  -3   2 1133.50 40.3120   3
   5   3  -1 3.09833 3.14961   5
   5  -3  -1 3.97851 3.03338   3
   5  -3  -1 4.82346 1.80986   1
  -5  -3   1 5.33927 3.15318   3
   5   3  -1 2.70060 3.13014   6
   5   3  -1 0.68161 2.18116   4
   5  -3  -1 7.84595 3.15220   6
  -5   3   1 1.68870 2.57554   2
  -5   3   1 4.63382 3.15990   5
   5   3   0 1620.16 60.6461   8
   5   3   0 1786.57 55.1874   4
  -5   3   0 1691.15 51.8273   4
   5   3   0 1707.44 58.0227   6
   5  -3   0 1709.97 54.6647   6
   5  -3   0 1756.16 60.0109   3
  -5   3   0 1762.38 55.8305   5
   5   3   0 1704.06 60.1600   5
   5  -3   0 1702.85 51.4990   1
  -5  -3   0 1738.93 54.2870   3
   5   3   1 639.539 33.2865   8
  -5   3  -1 751.916 26.6452   4
   5   3   1 767.977 28.9026   4
   5   3   1 758.129 31.6718   6
   5  -3   1 739.132 27.7657   6
   5  -3   1 730.688 32.6113   3
  -5   3  -1 720.685 28.0279   5
   5   3   1 731.978 33.3455   5
   5  -3   1 769.508 27.9165   1
  -5  -3  -1 764.620 27.3067   3
  -5   3  -2 1846.81 56.6259   4
   5   3   2 1826.55 61.3607   6
   5  -3   2 1852.35 56.6189   6
   5  -3   2 1947.15 64.4205   3
  -5   3  -2 1850.33 56.0644   5
   5  -3   2 1839.75 61.2820   2
   5   3   2 2034.95 66.0325   5
  -5  -3  -2 1881.98 55.1397   3
   5  -3   2 1934.68 59.6687   1
   5   3   3 243.166 15.2418   6
   5  -3   3 235.676 11.7587   6
   5  -3   3 244.167 16.6235   3
   5  -3   3 237.435 15.1893   2
  -5  -3  -3 226.578 9.76930   3
  -5   3  -3 210.889 12.2945   4
  -5   3  -3 246.427 11.2840   5
   5   3   3 251.455 17.2933   5
   5  -3   3 226.811 14.7155   1
   5  -3   4 45.3984 7.10250   1
  -5   3  -4 54.6722 7.22732   1
   5  -3   4 45.5791 6.42047   7
   5  -3   4 59.9234 4.99396   6
   5   3   4 51.4999 7.15962   6
  -5  -3  -4 50.5315 4.08386   2
   5  -3   4 64.0609 7.68434   2
  -5   3  -4 56.8155 6.73058   4
  -5   3  -5 5.49558 3.03506   4
   5   3   5-1.46052 3.44905   8
  -5   3  -5 0.98784 2.69394   1
   5  -3   5 5.02010 3.74884   1
   5  -3   5 3.42085 3.08511   7
   5  -3   5 4.13329 1.57245   6
   5   3   5-0.75381 2.90711   6
   5  -3   5 5.54511 2.95799   2
   5   3   6 546.174 31.9043   8
   5   3   6 518.797 30.1943   1
  -5   3  -6 599.398 29.2372   1
   5  -3   6 517.776 22.6942   4
   5   3   6 526.029 24.3729   6
   5  -3   6 550.328 25.1662   2
   5  -3   6 539.588 26.5452   7
  -5   3  -6 532.814 24.7880   4
   5  -3   7 93.7110 11.6287   1
   5   3   7 117.113 14.1756   8
  -5   3  -7 129.499 13.0838   1
   5  -3   7 100.124 9.14906   4
  -5  -3  -7 104.414 10.2343   6
   5   3   7 111.369 9.87714   6
   5  -3   7 91.3884 9.40654   2
   5  -3   7 113.989 11.4438   7
   5  -3   8 288.742 20.9997   1
   5   3   8 241.181 21.2051   8
  -5   3  -8 273.539 20.4713   1
   5  -3   8 234.435 15.4133   4
   5  -3   8 277.538 19.2036   7
  -5  -3  -8 284.766 17.1441   6
   5   3   8 271.970 15.9058   6
   5  -3   8 260.088 16.2135   2
   5  -3   9 319.557 23.0397   1
   5  -3   9 273.932 17.7228   4
  -5   3  -9 327.348 23.5676   1
  -5  -3  -9 300.419 18.0818   6
   5   3   9 298.172 17.2351   6
   5   3   9 282.566 23.7404   8
   5   3  10 763.486 42.6551   8
   5  -3  10 762.495 34.1631   4
  -5   3 -10 798.829 40.9923   1
  -5  -3 -10 791.717 32.7369   6
   5  -3  11 546.101 28.4397   4
  -5   3 -11 594.906 35.1808   1
  -5  -3 -11 553.485 26.3732   6
   5  -3  11 539.611 29.6668   8
   5   3  11 521.696 34.8516   8
   5  -3  12 53.2996 9.06523   8
   5   3  12 54.1649 11.4406   8
  -5  -3 -12 60.0657 8.21466   6
  -5   3 -12 56.1110 11.0681   1
   5  -3  12 67.6216 9.88655   4
   5  -3  13 5.04036 4.38293   8
  -5   3 -13 12.0003 7.71376   1
   5  -3  13 2.68190 4.66377   4
  -5  -3 -13 8.94704 4.40103   6
   5   3  13 10.0007 6.95381   8
   5  -3  14 66.4092 10.1022   8
   5   3  14 76.2990 13.9875   8
  -5   3 -14 38.2260 10.5351   1
   5  -3  14 55.0711 9.88230   4
  -5  -3 -14 53.4052 7.78800   6
   5  -3  15 37.0561 8.22473   8
   5   3  15 33.8834 10.4518   8
  -5   3 -15 24.7431 9.49837   1
   5  -3  15 37.2546 9.02742   4
  -5  -3 -15 45.6951 7.43080   6
   5  -3  16 174.965 16.1510   8
   5   3  16 204.466 22.1038   8
  -5   3 -16 173.309 21.0624   1
  -5  -3 -16 157.945 13.3882   6
   5  -3  16 176.736 18.1994   4
  -5  -4  17 13.8251 8.01126   4
   5  -4 -17 3.67475 5.87806   3
   5   4 -17 13.2731 8.09488   1
   5  -4 -16 4.56927 4.26483   1
  -5  -4  16-2.19062 5.58704   4
   5  -4 -16-1.80213 6.72814   3
   5   4 -16 1.78861 5.71843   5
   5  -4 -15 97.7591 10.7591   1
   5  -4 -15 108.795 14.5789   3
  -5  -4  15 120.445 16.7040   4
   5   4 -15 83.6621 13.5786   5
   5  -4 -14 72.9650 8.96028   1
   5  -4 -14 44.1147 9.65240   3
  -5  -4  14 58.7350 11.8797   4
   5  -4 -14 70.2559 13.1560   6
   5   4 -14 47.3672 10.4204   5
   5  -4 -13 744.026 31.2848   1
  -5  -4  13 737.653 41.9482   4
   5  -4 -13 843.178 43.7223   6
   5   4 -13 777.855 40.9244   5
  -5  -4  13 751.344 38.0608   5
   5  -4 -13 801.073 41.3957   3
  -5  -4  12 45.4128 9.47596   5
   5  -4 -12 51.0896 9.83238   3
  -5  -4  12 73.1228 12.1818   4
   5  -4 -12 56.9870 11.0040   6
   5   4 -12 53.6762 10.3029   5
  -5  -4  11 25.9552 7.52416   5
  -5   4  11 36.4291 8.55812   3
   5   4 -11 27.2079 8.03361   4
   5  -4 -11 20.0634 6.67381   3
  -5  -4  11 29.3417 8.18170   4
   5  -4 -11 24.6609 7.45182   6
   5   4 -11 17.4461 2.44003   8
   5   4 -11 16.8169 6.93212   5
  -5  -4  10 29.0631 7.82038   5
  -5   4  10 20.2231 6.65136   2
  -5   4  10 25.8063 7.19395   3
   5   4 -10 19.8641 3.33397   8
   5  -4 -10 37.0990 8.23733   3
   5   4 -10 22.4890 7.80378   4
  -5  -4  10 13.6254 6.55148   4
  -5  -4  10 32.5646 8.29198   3
   5  -4 -10 26.5371 7.23912   6
  -5   4  10 21.3890 7.08603   5
   5   4 -10 17.4987 6.61792   5
   5   4  -9 324.367 22.9267   4
  -5  -4   9 272.505 21.1692   4
   5  -4  -9 342.761 23.7095   6
  -5   4   9 314.940 22.1818   3
  -5   4   9 277.929 21.8021   5
   5   4  -9 319.662 22.9654   5
  -5   4   9 293.970 21.0499   2
  -5  -4   9 270.064 20.0070   5
   5  -4  -9 244.614 20.4544   3
   5   4  -9 283.037 14.5291   8
  -5  -4   9 288.552 21.1550   3
  -5   4   8 34.6999 7.75808   3
  -5  -4   8 23.4263 6.79899   5
   5   4  -8 20.8713 4.16276   8
   5   4  -8 28.6394 7.12194   4
  -5  -4   8 21.8873 6.59238   4
  -5  -4   8 22.9112 6.49748   3
   5  -4  -8 14.0684 5.78231   6
  -5   4   8 28.7544 8.04929   5
   5   4  -8 15.1985 5.67995   5
  -5   4   8 30.1456 7.08353   2
   5   4  -7 319.434 21.5916   4
  -5  -4   7 310.487 21.3021   4
   5  -4  -7 321.642 22.1326   6
  -5   4   7 319.752 21.8494   3
  -5   4   7 314.311 22.0529   5
   5   4  -7 324.744 22.5890   5
  -5   4   7 352.848 22.2918   2
   5   4  -7 282.747 16.6449   8
  -5  -4   7 304.187 20.9316   5
  -5  -4   7 314.477 20.9664   3
   5   4  -6 39.2641 6.16079   8
   5   4  -6 39.7572 7.54993   4
  -5  -4   6 28.4657 6.55712   3
  -5  -4   6 20.2540 5.58914   4
   5  -4  -6 29.2990 6.70555   6
  -5   4   6 38.6948 7.86071   5
   5   4  -6 35.0574 7.55288   5
  -5   4   6 29.8598 7.21970   2
   5   4  -5 598.331 29.6279   4
  -5  -4   5 595.608 29.1276   4
   5   4  -5 626.970 31.1472   6
   5  -4  -5 557.099 29.3951   6
  -5   4   5 590.477 29.9058   5
   5   4  -5 582.381 30.9082   5
   5  -4  -5 569.335 30.3506   3
  -5  -4   5 634.689 29.1843   3
   5  -4  -4 13.1767 5.17132   3
   5   4  -4 13.1920 5.27489   4
   5   4  -4 3.44261 3.84172   6
  -5  -4   4 14.5610 4.89211   3
   5  -4  -4 13.7216 4.88730   6
  -5   4   4 11.5759 4.87277   5
   5   4  -3 1747.02 57.8036   4
   5   4  -3 1600.80 58.6368   6
   5  -4  -3 1557.36 56.6253   6
  -5   4   3 1554.13 56.3859   5
   5  -4  -3 1540.49 58.7714   3
  -5  -4   3 1662.96 55.6168   3
   5  -4  -2 11.6637 4.49857   3
   5   4  -2 2.22511 3.21909   8
   5   4  -2 2.12991 3.70285   6
   5   4  -2 3.58474 3.56344   4
  -5  -4   2 3.90772 3.37084   3
   5  -4  -2 3.63447 3.27889   6
  -5   4   2 5.08011 4.15659   2
   5   4  -1 206.578 16.5582   8
   5   4  -1 193.384 14.0250   4
   5   4  -1 180.167 14.7380   6
   5  -4  -1 180.367 13.3007   6
   5  -4  -1 206.478 16.2038   3
   5   4  -1 158.286 14.7581   5
  -5  -4   1 189.973 12.7483   3
   5   4   0 54.3803 8.65154   5
   5  -4   0 55.0403 8.54341   3
   5  -4   0 51.5074 7.74221   2
   5   4   0 55.3823 8.95268   8
  -5   4   0 54.8385 6.71246   4
   5  -4   0 63.9813 7.58722   6
   5   4   0 68.9486 9.02319   6
   5   4   0 56.2896 7.49987   4
  -5   4   0 60.5046 7.39424   5
  -5  -4   0 54.0315 6.51877   3
   5   4   1 1917.72 69.5865   8
  -5   4  -1 1848.43 59.9648   4
   5   4   1 1947.10 62.9247   4
   5   4   1 1885.42 64.8442   6
   5  -4   1 1864.24 60.9456   6
   5  -4   1 1873.43 67.0373   3
  -5   4  -1 1910.08 59.4997   5
   5  -4   1 1866.66 64.8751   2
   5   4   1 2062.17 69.2052   5
  -5  -4  -1 1958.81 58.9124   3
   5   4   2 97.9594 12.1320   8
   5  -4   2 105.102 7.95241   7
  -5   4  -2 115.736 9.68440   4
   5   4   2 104.034 10.2593   4
   5   4   2 97.9791 10.4858   6
   5  -4   2 91.0541 8.51223   6
   5  -4   2 102.156 11.5161   3
  -5   4  -2 104.328 7.89952   5
   5  -4   2 116.265 11.4026   2
   5   4   2 111.391 12.3977   5
  -5  -4  -2 105.505 7.87314   3
  -5   4  -3 53.8084 6.61314   1
   5  -4   3 60.9148 6.29086   7
  -5   4  -3 55.1836 7.00838   4
   5  -4   3 40.7097 5.56684   6
   5   4   3 52.6993 7.84521   6
  -5   4  -3 54.4783 4.74485   5
  -5  -4  -3 55.7008 4.96427   3
   5  -4   3 46.1157 7.29346   2
   5  -4   3 61.0052 8.93558   3
  -5   4  -4 75.7860 8.50180   4
  -5   4  -4 81.4889 8.85257   1
   5  -4   4 75.9427 7.49788   7
   5  -4   4 75.7813 6.94265   6
   5   4   4 83.7705 9.44790   6
  -5  -4  -4 68.3384 6.18120   2
   5  -4   4 77.8660 9.16462   2
  -5  -4  -4 73.2121 4.55973   3
   5  -4   5 42.1077 5.97364   7
  -5   4  -5 39.0821 6.82899   1
  -5   4  -5 42.6794 6.42324   4
   5  -4   5 34.7203 4.62113   6
   5   4   5 36.4832 6.63391   6
  -5  -4  -5 36.5223 4.14525   2
   5  -4   5 33.8485 6.29219   2
   5   4   6 3.37404 3.98359   8
   5  -4   6 0.81841 2.61681   7
  -5   4  -6 1.84888 2.95576   4
  -5   4  -6 1.13272 3.62162   1
  -5  -4  -6 1.06551 3.24822   6
   5   4   6 0.92800 3.22560   6
   5  -4   6 2.02152 3.64581   2
  -5   4  -7 902.983 37.4257   4
   5   4   7 892.671 45.6236   8
   5   4   7 763.676 40.9757   1
   5   4   7 941.157 44.8429   7
  -5   4  -7 903.439 40.2496   1
  -5  -4  -7 914.088 38.4500   6
   5   4   7 846.846 35.7151   6
   5  -4   7 887.851 37.6237   2
  -5   4  -8 274.422 18.9741   4
   5   4   8 244.456 22.3358   8
   5   4   8 238.957 21.3389   1
   5   4   8 281.640 23.2522   7
   5  -4   8 287.458 17.8212   4
  -5   4  -8 269.621 20.7202   1
  -5  -4  -8 263.968 18.5694   6
   5   4   8 285.667 17.8558   6
   5  -4   8 267.032 18.4135   2
  -5   4  -9 3079.69 97.3394   4
   5   4   9 2970.61 106.904   8
   5   4   9 2987.49 105.971   7
   5  -4   9 2973.62 93.2851   4
  -5   4  -9 3193.87 102.706   1
  -5  -4  -9 2843.56 94.5601   6
   5   4   9 3004.39 93.0937   6
   5   4  10 52.8716 11.7163   8
   5   4  10 69.8739 12.7632   7
  -5  -4 -10 49.8857 8.79078   6
  -5   4 -10 47.4620 9.69346   1
   5  -4  10 54.7805 8.60578   4
   5   4  10 54.0288 8.48136   6
   5   4  11 154.068 18.5359   8
   5   4  11 160.362 18.8940   7
   5  -4  11 121.829 12.9794   4
  -5   4 -11 116.523 15.2143   1
  -5  -4 -11 130.198 12.8395   6
   5  -4  12 46.7295 8.71328   8
   5   4  12 37.7613 10.5655   8
   5   4  12 53.9843 11.4543   7
  -5   4 -12 39.8563 9.57013   1
  -5  -4 -12 32.1438 7.17253   6
   5  -4  12 60.2105 9.88504   4
   5   4  13 2.15881 5.10256   8
   5  -4  13 7.07452 4.40797   8
   5   4  13 17.9105 8.07822   7
  -5   4 -13 24.3861 8.54191   1
  -5  -4 -13 11.2025 4.95391   6
   5  -4  13 6.81814 5.26293   4
   5  -4  14 1.18402 4.11525   8
   5   4  14 8.83212 8.24350   8
   5   4  14-2.35848 6.01511   7
  -5   4 -14-2.16448 6.25944   1
  -5  -4 -14-1.13001 3.92752   6
   5  -4  14 4.41745 5.85244   4
   5  -4  15 880.164 39.3274   8
   5  -4  15 915.324 44.4628   4
  -5   4 -15 861.326 50.2241   1
  -5  -4 -15 861.892 38.8061   6
   5  -5 -16 1.84748 6.42441   3
  -5  -5  16 20.4037 9.77546   4
   5   5 -16 10.6861 7.28682   5
   5  -5 -15 92.0440 13.7264   3
  -5  -5  15 64.4284 13.0741   4
   5  -5 -15 63.8948 12.7156   6
   5   5 -15 88.6088 14.0474   5
  -5  -5  14 596.538 38.4233   4
   5  -5 -14 677.907 39.9589   6
   5   5 -14 665.590 37.6596   5
   5  -5 -14 611.035 36.8401   3
   5  -5 -13 140.744 15.6026   7
   5  -5 -13 143.259 17.8962   6
  -5  -5  13 118.684 16.8570   4
   5   5 -13 140.287 16.2748   5
   5  -5 -13 129.177 15.9478   3
   5  -5 -12 1070.12 46.7121   7
  -5  -5  12 1014.70 50.3454   4
   5  -5 -12 1093.13 51.8331   6
   5   5 -12 1026.75 48.7418   5
  -5  -5  12 1012.47 45.5940   5
   5  -5 -12 1011.33 48.7329   3
   5  -5 -11 6.49714 5.43083   3
  -5  -5  11 11.6848 5.60370   5
   5  -5 -11 5.05258 5.02786   7
  -5  -5  11 15.2853 7.14147   4
   5  -5 -11 22.6959 7.53123   6
   5   5 -11 12.4436 6.54144   5
  -5  -5  10 591.474 34.1477   4
   5  -5 -10 616.726 35.4373   6
   5   5 -10 519.348 31.9617   5
   5  -5 -10 589.584 33.8009   3
   5  -5  -9-1.52624 4.41378   3
   5   5  -9 6.03213 5.24141   4
  -5  -5   9 1.51627 4.62216   4
   5  -5  -9-1.57757 4.02352   6
  -5   5   9 1.54255 6.30869   5
   5   5  -9 2.98985 5.58123   5
   5   5  -8 1282.31 44.7326   8
   5   5  -8 1376.32 55.9801   4
  -5  -5   8 1328.14 55.2767   4
   5  -5  -8 1433.55 57.1290   6
  -5   5   8 1385.31 56.3959   5
  -5   5   8 1332.24 54.3733   2
   5   5  -8 1296.40 55.3251   5
   5  -5  -8 1387.44 56.2464   3
   5   5  -7 113.185 10.0619   8
  -5  -5   7 93.8657 12.2380   4
   5   5  -7 90.6418 11.9623   4
   5  -5  -7 109.118 13.0864   6
   5   5  -7 88.1318 11.9760   6
  -5   5   7 119.801 13.5718   2
  -5   5   7 119.827 13.6690   5
   5   5  -7 100.845 12.9714   5
   5   5  -6 30.8654 7.55019   4
   5   5  -6 16.2447 5.84789   6
   5  -5  -6 9.38046 4.84790   6
  -5   5   6 19.4299 6.37791   5
  -5   5   6 3.86033 4.81868   2
   5   5  -6 27.7950 7.22407   5
   5   5  -5 11.1806 5.36577   4
   5   5  -5 7.89435 5.39124   6
   5  -5  -5 13.8862 5.31472   6
  -5   5   5 15.0425 5.92910   2
  -5   5   5 12.1184 5.36352   5
   5   5  -5 21.5243 6.74652   5
   5   5  -4 2321.73 77.4054   4
   5   5  -4 2122.67 77.1849   6
   5  -5  -4 2306.37 77.2833   6
  -5   5   4 2213.94 75.7916   5
   5   5  -4 2299.59 79.6736   5
   5   5  -3 86.6216 10.7853   8
   5   5  -3 99.5805 11.5241   4
   5   5  -3 93.5877 11.6716   6
   5  -5  -3 108.285 11.4991   6
  -5   5   3 86.6162 10.4511   5
   5  -5  -3 101.226 12.4245   3
   5   5  -3 101.851 12.6994   5
   5   5  -2 1901.97 69.2896   8
   5   5  -2 2069.01 68.7796   4
   5   5  -2 1913.95 69.3585   6
   5  -5  -2 1957.44 67.6165   6
  -5   5   2 1944.72 65.7569   5
   5  -5  -2 2008.58 71.4376   3
   5   5  -1 1.31664 4.01372   8
   5  -5  -1 1.31819 4.01842   3
   5   5  -1-1.19194 3.63358   6
   5   5  -1-1.05504 4.87758   4
   5  -5  -1 4.04691 3.37862   6
  -5   5   1 5.10814 3.76099   4
   5   5   0 1453.14 57.1316   8
   5   5   0 1638.72 54.5311   4
  -5   5   0 1616.93 51.4996   4
   5   5   0 1505.66 55.2857   6
   5  -5   0 1620.20 52.9356   6
   5  -5   0 1566.77 57.8459   3
  -5   5   0 1482.23 49.4478   5
   5  -5   0 1536.84 55.5354   2
   5  -5   1-1.33745 3.41130   3
   5  -5   1 2.37452 3.43369   2
   5  -5   1 2.28839 1.39582   7
   5   5   1 3.43643 3.98147   6
  -5   5  -1 1.69776 4.00900   4
   5  -5   1-0.90508 2.89397   6
   5   5   1 2.01877 4.24147   4
   5   5   1 8.81728 4.90739   8
  -5   5  -1 1.33756 2.95460   5
   5   5   2 2216.05 81.7042   8
  -5   5  -2 2292.46 73.1255   4
   5   5   2 2299.97 75.4098   4
  -5   5  -2 2226.36 68.0391   1
   5  -5   2 2343.29 72.6816   6
   5   5   2 2256.30 76.7463   6
   5  -5   2 2208.71 79.4097   3
  -5   5  -2 2268.17 67.5238   5
   5  -5   2 2234.19 77.2089   2
   5   5   2 2344.64 80.4180   5
   5   5   3 148.666 16.1276   8
  -5   5  -3 141.655 12.1470   4
  -5   5  -3 115.567 9.91991   1
   5  -5   3 117.990 10.4595   6
   5   5   3 135.137 13.1006   6
   5  -5   3 120.694 13.8319   3
   5  -5   3 125.591 13.1290   2
  -5   5  -3 129.477 7.72755   5
  -5  -5  -3 114.993 8.42771   3
  -5   5  -4 103.023 11.1939   4
   5   5   4 57.3168 11.2255   8
  -5   5  -4 91.1397 9.62136   1
   5  -5   4 88.2577 9.11218   6
   5   5   4 79.1072 10.4095   6
   5  -5   4 116.059 12.5826   2
  -5  -5  -4 75.2300 6.00492   3
  -5   5  -5 336.810 20.3989   4
  -5   5  -5 350.481 20.5996   1
   5  -5   5 330.183 17.1453   6
   5   5   5 336.010 21.2574   6
  -5  -5  -5 311.581 10.8339   3
   5  -5   5 306.326 20.9602   2
  -5  -5  -5 296.108 15.2873   2
  -5  -5  -5 295.807 11.0193   3
  -5   5  -6 848.688 36.4039   4
  -5  -5  -6 778.730 38.4200   6
  -5   5  -6 842.457 36.9861   1
   5   5   6 781.243 35.8993   6
   5  -5   6 777.983 36.8212   2
  -5  -5  -6 803.994 29.0971   2
   5   5   7 47.0395 9.93463   1
   5   5   7 54.6080 10.4472   7
  -5   5  -7 30.1521 7.13385   4
  -5  -5  -7 33.6869 7.75755   6
  -5   5  -7 35.5493 7.40445   1
   5   5   7 32.0713 7.05489   6
   5  -5   7 42.0885 7.79157   2
  -5   5  -8 208.000 17.2068   4
   5   5   8 184.250 20.3087   8
   5   5   8 188.473 19.2219   7
  -5  -5  -8 180.598 16.3848   6
  -5   5  -8 177.433 16.5620   1
   5   5   8 170.682 15.1007   6
   5  -5   8 188.996 16.2970   2
  -5   5  -9 144.673 15.0642   4
   5   5   9 135.639 17.6098   8
   5   5   9 152.294 17.9343   7
  -5  -5  -9 122.944 13.7213   6
  -5   5  -9 135.782 15.1034   1
   5   5   9 125.701 12.9591   6
   5  -5   9 138.040 14.2514   2
  -5   5 -10 1315.46 54.2168   4
   5   5  10 1247.82 60.9494   8
   5   5  10 1268.39 60.2255   7
  -5  -5 -10 1268.43 52.3665   6
  -5   5 -10 1224.33 55.4801   1
   5   5  10 1363.74 51.3830   6
   5  -5  10 1209.43 49.7935   4
   5   5  11 41.4335 10.7548   8
   5   5  11 44.6870 10.6949   7
  -5  -5 -11 29.0019 7.88275   6
  -5   5 -11 39.2427 9.61398   1
   5  -5  11 27.3475 7.34171   4
   5   5  11 35.7754 7.67720   6
   5   5  12 20.1187 9.15145   8
   5   5  12 26.6226 8.82719   7
  -5  -5 -12 13.2570 5.72972   6
  -5   5 -12 22.9678 9.23415   1
   5  -5  12 9.30514 6.15903   4
   5   5  13 16.1342 8.31829   7
  -5  -5 -13 10.7071 5.48122   6
  -5   5 -13 18.4100 7.89259   1
   5  -5  13 11.2903 6.24087   4
   5  -5  13 7.90769 4.49909   8
   5   5  14 16.8774 8.05585   7
  -5  -5 -14 13.4749 5.66856   6
  -5   5 -14 4.36484 5.57285   1
   5  -5  14 11.9979 6.47118   4
   5  -6 -14 126.786 16.4037   3
  -5  -6  14 141.528 18.6727   4
   5  -6 -14 135.336 17.8974   6
   5   6 -14 82.0884 13.8118   5
  -5  -6  13 882.722 49.4053   4
   5  -6 -13 1017.75 52.1512   6
   5   6 -13 1036.38 49.0007   5
   5  -6 -13 1011.87 49.6185   3
   5  -6 -12 17.6009 7.61412   3
  -5  -6  12 17.3635 8.74601   4
   5  -6 -12 29.3477 9.26119   6
   5   6 -12 39.5300 9.27962   5
   5  -6 -11 10.7667 4.76218   7
   5  -6 -11 6.92561 5.78776   3
  -5  -6  11 12.8757 7.09739   4
   5  -6 -11 18.7335 7.45045   6
   5   6 -11 6.42376 6.19800   5
   5  -6 -10 103.088 11.2714   7
   5  -6 -10 77.2759 12.2401   3
   5  -6 -10 102.035 14.2166   6
  -5  -6  10 87.7393 13.9441   4
   5   6 -10 92.5931 13.6225   5
   5  -6  -9 1.61897 4.41415   3
   5  -6  -9 0.97130 3.37593   7
   5  -6  -9-1.70572 5.19963   6
  -5  -6   9 8.35661 5.80891   4
   5   6  -9-1.57028 5.86254   5
   5  -6  -8 68.7684 11.1899   3
   5  -6  -8 69.0850 8.42108   7
   5  -6  -8 71.4409 11.9279   6
   5   6  -8 47.8593 9.66689   5
   5  -6  -7 766.423 30.9402   7
   5  -6  -7 810.618 40.6677   6
  -5   6   7 790.115 39.5359   5
   5   6  -7 792.839 40.3549   5
   5  -6  -7 775.665 39.8472   3
   5  -6  -6 36.4618 5.31703   7
   5   6  -6 39.5640 10.0238   4
   5  -6  -6 37.2066 8.88398   6
   5  -6  -6 44.3329 9.12333   3
  -5   6   6 24.9229 7.94138   5
   5   6  -6 19.3342 7.63313   5
   5   6  -5 2909.54 93.3700   4
   5  -6  -5 2554.73 75.9009   7
   5  -6  -5 2755.37 91.8976   6
  -5   6   5 2664.91 89.6696   5
   5   6  -5 2735.40 92.9718   5
   5   6  -4 28.8428 6.87289   8
   5  -6  -4 16.5455 2.63942   7
   5   6  -4 18.8428 7.00366   4
   5  -6  -4 28.7085 7.35334   6
  -5   6   4 20.6644 6.84968   5
   5   6  -4 17.3483 6.40472   5
   5   6  -3 25.1375 6.90185   8
   5   6  -3 31.4182 8.21850   4
   5  -6  -3 33.8074 7.76934   6
  -5   6   3 28.1922 7.33739   5
   5   6  -3 47.5460 9.14367   5
   5   6  -2 21.7198 7.15929   5
   5  -6  -2 38.6752 8.63822   3
   5   6  -2 51.3420 8.77116   8
   5   6  -2 31.9383 7.72960   4
   5   6  -2 27.3018 7.12856   6
   5  -6  -2 27.2830 6.70090   6
  -5   6   2 25.9453 6.37442   5
   5   6  -1-1.47621 5.32457   5
   5  -6  -1 1.48661 4.29932   3
   5   6  -1 2.88256 4.81300   8
   5  -6  -1 5.55234 4.23154   2
   5   6  -1-1.34112 3.87860   6
   5   6  -1 3.74753 4.34187   4
   5  -6  -1 3.57110 3.80596   6
  -5   6   1 2.09097 4.50727   4
  -5   6   1 0.94223 4.26041   5
   5   6   0 233.526 20.3975   8
   5   6   0 294.373 20.3822   4
  -5   6   0 265.524 18.3516   4
   5   6   0 287.721 20.8959   6
   5  -6   0 246.047 18.5155   6
   5  -6   0 263.150 21.4306   3
   5  -6   0 264.980 20.6497   2
   5   6   0 276.379 22.1101   5
   5   6   1 2669.01 96.2105   8
  -5   6  -1 2845.40 89.2781   4
   5   6   1 2982.89 92.4275   4
   5  -6   1 2834.44 89.5171   6
   5   6   1 2706.54 92.5756   6
   5  -6   1 2734.74 95.1812   3
  -5   6  -1 2659.73 83.3519   5
   5  -6   1 2786.28 93.9509   2
   5  -6   2 36.8036 8.40291   3
   5   6   2 49.0085 10.3362   8
  -5   6  -2 27.4411 4.74774   1
  -5   6  -2 34.7376 7.44550   4
   5  -6   2 31.1915 6.92072   6
   5   6   2 36.6193 8.01620   6
   5   6   2 28.8463 8.39577   4
  -5   6  -2 29.2793 5.15398   5
   5  -6   2 40.3935 8.84335   2
   5   6   3 427.928 30.3972   8
   5   6   3 534.535 28.4732   4
  -5   6  -3 505.980 26.8616   4
  -5   6  -3 451.581 21.9604   1
   5  -6   3 476.880 24.8923   6
   5   6   3 453.368 27.1945   6
   5  -6   3 465.517 29.3250   3
   5  -6   3 415.375 27.3678   2
  -5   6  -3 473.124 18.4225   5
   5   6   4 16.5974 7.11851   8
  -5   6  -4 10.4686 6.15033   4
   5  -6   4 11.3422 4.28635   6
  -5   6  -4 8.02490 3.85815   1
   5   6   4 19.4072 6.60781   6
  -5  -6  -4 19.2859 4.65951   2
   5  -6   4 12.4381 5.66178   2
   5   6   5 47.9677 10.7495   8
   5  -6   5 74.7677 8.87809   6
  -5   6  -5 71.7254 10.3457   4
   5   6   5 59.0718 9.80497   6
  -5   6  -5 71.9165 9.32801   1
  -5  -6  -5 65.0385 5.53782   3
  -5  -6  -5 64.3381 7.53325   2
   5  -6   5 69.8119 10.6379   2
  -5  -6  -5 58.2932 5.40477   3
  -5  -6  -6 4.19362 1.33886   3
   5   6   6 3.97445 6.35450   8
   5   6   6 5.11083 5.44795   7
  -5  -6  -6 4.34188 1.56447   3
  -5   6  -6 5.05024 5.01951   4
  -5  -6  -6 9.10456 5.47441   6
   5   6   6 8.85385 6.09746   6
  -5   6  -6 4.65230 4.04420   1
   5  -6   6 12.7175 6.24322   2
  -5   6  -7 1066.11 45.8756   4
   5   6   7 984.357 49.4005   7
  -5  -6  -7 1127.78 48.9151   6
  -5   6  -7 958.198 43.7410   1
   5  -6   7 970.783 45.3964   2
  -5   6  -8 12.5883 6.60562   4
  -5  -6  -8 4.58309 5.10186   6
  -5   6  -8 1.42520 5.49580   1
   5   6   8-1.87780 5.12029   7
   5  -6   8 1.46282 5.98295   2
  -5   6  -9 1343.41 54.7771   4
   5   6   9 1147.11 57.3060   7
  -5  -6  -9 1271.44 54.5510   6
  -5   6  -9 1212.89 53.5342   1
   5  -6   9 1187.76 52.6127   2
   5   6  10 10.4403 7.80213   7
  -5   6 -10 3.14657 6.44224   4
  -5  -6 -10 21.5354 7.56759   6
  -5   6 -10 13.4944 6.71182   1
   5  -6  10 16.5771 7.12389   2
   5   6  11 72.4655 13.8502   7
  -5  -6 -11 69.4425 11.4882   6
  -5   6 -11 83.5661 13.0090   1
   5   6  12 71.8691 13.8414   7
  -5  -6 -12 83.6130 12.4737   6
  -5   6 -12 81.5846 13.5247   1
  -5  -7  12 464.801 34.0111   4
   5  -7 -12 518.307 35.4333   6
   5   7 -12 427.861 30.2267   5
   5  -7 -12 446.620 31.4089   3
   5  -7 -11 9.11551 6.80905   3
   5  -7 -11 8.12996 6.19861   6
   5   7 -11 5.02080 6.84725   5
   5   7 -10 385.393 28.1301   5
   5  -7 -10 417.698 29.5407   3
   5  -7  -9 5.14360 6.40179   3
   5  -7  -9 1.88405 5.44932   6
   5   7  -9 4.97427 6.19107   5
   5  -7  -8 467.977 31.5825   6
   5   7  -8 438.582 29.5794   5
   5  -7  -8 448.306 29.8218   3
   5  -7  -7 174.219 18.5562   6
   5   7  -7 159.351 17.6231   5
   5  -7  -7 155.140 17.3937   3
   5  -7  -6 35.0156 8.84190   3
   5  -7  -6 34.9951 8.83679   6
  -5   7   6 33.9983 8.58889   5
   5   7  -6 25.7135 8.23855   5
   5  -7  -5 16.5453 6.80702   3
   5  -7  -5 35.1609 8.88114   6
  -5   7   5 34.7068 8.39006   5
   5   7  -5 38.4652 9.17005   5
   5  -7  -4 265.146 21.3577   6
  -5   7   4 221.397 18.4601   5
   5  -7  -4 237.233 21.0989   3
   5   7  -4 231.325 20.7001   5
   5  -7  -3 317.957 23.2031   6
  -5   7   3 287.959 20.7396   5
   5   7  -3 295.867 23.8451   5
  -5   7   2 592.275 31.1509   4
   5  -7  -2 572.681 32.2067   6
  -5   7   2 556.888 28.9348   5
   5   7  -2 540.410 33.2334   5
   5   7  -1-1.63613 6.30879   5
   5  -7  -1-1.57114 5.66695   2
   5  -7  -1 2.75743 3.75927   6
  -5   7   1-6.19597 5.72894   4
  -5   7   1-1.02207 4.92634   5
  -5   7   0 466.939 26.6546   4
   5  -7   0 415.073 25.7042   6
   5  -7   0 406.998 28.2602   3
  -5   7   0 389.160 21.7561   5
   5  -7   0 392.835 27.5255   2
   5   7   0 462.435 30.3243   5
   5  -7   1 18.6395 7.13162   3
   5  -7   1 12.5543 6.94420   2
   5   7   1 10.0940 6.49964   5
   5  -7   1 17.9687 6.19952   6
  -5   7  -1 21.4804 7.21740   4
  -5   7  -2 249.998 19.3927   4
  -5   7  -2 214.878 12.4891   1
   5  -7   2 229.716 18.0098   6
   5  -7   2 232.335 21.0616   3
  -5   7  -2 205.891 13.3915   5
   5  -7   2 258.058 21.6036   2
   5   7   2 265.666 22.5944   5
  -5   7  -3 46.8228 6.45227   1
  -5   7  -3 56.4916 9.72709   4
   5  -7   3 47.8241 8.16593   6
  -5   7  -3 54.0021 5.61843   5
  -5  -7  -3 63.0062 8.65770   2
   5  -7   3 27.1013 8.08446   2
   5  -7   3 53.5844 10.6137   3
  -5   7  -4 39.1638 9.52458   4
   5  -7   4 52.9207 8.85322   6
  -5   7  -4 33.0508 6.28122   1
  -5  -7  -4 36.8429 6.80589   2
   5  -7   4 30.0789 7.98603   2
   5   7   5 42.5096 9.68776   7
  -5   7  -5 62.4018 10.8804   4
   5  -7   5 69.4990 9.70067   6
  -5   7  -5 71.7633 9.48437   1
  -5  -7  -5 58.2850 6.15872   3
   5  -7   5 78.0198 12.1887   2
  -5  -7  -5 63.1744 8.45457   2
  -5   7  -6 293.674 22.5520   4
   5   7   6 228.583 21.5167   7
  -5   7  -6 262.359 19.1313   1
   5  -7   6 286.439 22.9565   2
  -5  -7  -6 264.037 12.1671   3
  -5  -7  -6 265.450 16.8420   2
   5   7   7-5.56058 5.36020   7
  -5  -7  -7 6.97628 5.82392   6
  -5   7  -7 1.31032 3.78930   1
   5  -7   7 4.88902 5.21024   2
  -5  -7  -8 12.2397 6.96128   6
  -5   7  -8 11.5391 5.57629   1
   5   7   8 23.3710 8.61278   7
   5  -7   8 21.5401 7.15440   2
   5   7   9 40.9202 10.2989   7
  -5  -7  -9 57.8971 11.2647   6
  -5   7  -9 31.4535 8.50218   1
   5  -7   9 37.0630 9.79710   2
   5   7  10 87.9976 15.2678   7
  -5  -7 -10 103.668 14.5875   6
  -5   7 -10 105.543 14.4290   1
   5  -7  10 93.9352 13.7056   2
   5  -8  -8 18.0827 8.01261   3
   5  -8  -8 29.7378 9.18675   6
   5   8  -8 28.0541 8.96573   5
   5  -8  -7 83.6595 13.3875   3
   5  -8  -7 70.7096 12.7882   6
   5   8  -7 82.6390 13.3892   5
   5  -8  -6 18.0317 7.58570   3
   5  -8  -6 3.70051 6.68387   6
   5   8  -6 29.3965 8.98416   5
   5  -8  -5 304.236 25.0792   6
   5  -8  -5 346.864 26.6789   3
   5   8  -5 332.012 25.8364   5
   5  -8  -4 3.59977 5.48662   3
   5  -8  -4 1.73169 6.01868   6
  -5   8   4 6.93775 5.00464   5
   5   8  -4-6.90695 7.06192   5
   5  -8  -3 424.360 28.8578   6
  -5   8   3 389.501 25.3732   5
   5  -8  -3 360.288 27.9227   3
   5   8  -3 460.207 30.6057   5
   5   8  -2 12.3059 7.40847   5
   5  -8  -2 27.1960 8.21718   3
   5  -8  -2 24.1225 7.92488   6
  -5   8   2 26.4209 7.34368   5
   5   8  -1 41.2519 10.7138   5
   5  -8  -1 31.5480 8.84686   2
   5  -8  -1 48.5795 9.61638   6
  -5   8   1 50.4111 8.77974   5
   5   8   0 9.18292 6.85677   5
   5  -8   0-1.52622 4.87956   6
  -5   8   0 0.98198 4.01614   5
   5  -8   1 519.869 30.6577   6
  -5   8  -1 482.254 24.4694   5
   5  -8   1 554.772 34.2243   2
   5   8   1 573.174 35.6372   5
   5  -8   2 14.1238 6.59178   2
   5  -8   2 3.79807 5.78947   3
   5   8   2 1.87604 6.76704   5
  -5   8  -2 3.56131 2.73187   1
   5  -8   2 1.43887 4.80551   6
  -5  -8  -2 1.25785 3.43055   2
   5  -8   3 84.4862 14.2442   3
   5   8   3 85.7853 14.0240   5
  -5   8  -3 82.3755 8.32610   1
   5  -8   3 71.1162 11.1103   6
  -5  -8  -3 86.1525 11.1323   2
  -5   8  -3 77.1730 7.01097   5
   5  -8   3 82.2330 13.0570   2
   5   8   4 104.202 14.1122   7
   5  -8   4 110.960 13.5202   6
  -5   8  -4 104.018 10.3069   1
   5   8   4 124.842 16.7272   5
  -5  -8  -4 100.281 9.49190   3
  -5  -8  -4 107.611 11.7263   2
   5  -8   4 116.611 15.6145   2
   5  -8   4 114.156 15.8447   3
   5   8   5 26.2154 8.30755   7
  -5   8  -5 41.2002 7.29013   1
   5  -8   5 41.1186 9.94505   2
  -5  -8  -5 39.5337 7.61892   2
  -5  -8  -6 11.3511 4.87884   2
   5   8   6 20.0389 8.24006   7
  -5  -8  -6 8.05639 3.26454   3
  -5   8  -6 9.38145 5.18559   1
   5  -8   6 5.40474 5.21529   2
   5   8   7 420.813 30.6258   7
   5  -8   7 453.231 31.2175   2
  -5   8  -7 389.100 25.5573   1
   6   0 -18 135.413 13.9095   8
  -6   0  18 138.710 19.0749   4
   6   0 -18 157.175 18.7797   1
   6   0 -17 5.77610 6.15569   1
  -6   0  17-2.16130 6.25033   4
  -6   0  16 163.614 19.3380   4
   6   0 -16 189.834 19.6574   1
  -6   0  15-3.86834 5.27361   4
   6   0 -15 1.75829 5.62153   1
  -6   0  14 81.4834 13.1288   4
   6   0 -14 90.1349 13.0195   1
  -6   0  13 1.68985 4.88705   4
  -6   0  12 995.587 46.0227   4
  -6   0  12 937.709 45.3997   5
  -6   0  12 928.245 44.1204   3
  -6   0  11-1.41326 4.91194   3
  -6   0  11 1.43545 3.66099   4
   6   0 -11 1.66504 5.32329   5
  -6   0  11-1.48305 5.34909   5
  -6   0  10 52.5277 9.45009   3
  -6   0  10 52.2730 8.91121   4
   6   0 -10 44.3878 8.86177   3
   6   0 -10 54.1047 10.5945   5
  -6   0  10 49.8288 10.0733   5
  -6   0   9-3.83277 4.76987   3
   6   0  -9 1.34936 3.44155   3
   6   0  -9-1.51544 4.84510   5
  -6   0   9-1.35987 4.34774   5
   6   0  -8 3530.00 112.042   5
  -6   0   8 3377.06 109.098   5
   6   0  -8 3336.84 108.338   3
   6   0  -7-1.21750 3.71155   3
   6   0  -7 4.11660 3.96845   5
  -6   0   7 3.71996 4.78137   5
  -6   0   6 714.244 29.7500   4
   6   0  -6 754.096 36.2643   5
   6   0  -6 690.113 33.5126   3
  -6   0   5-0.99535 3.32376   3
  -6   0   5 3.20338 2.39194   4
   6   0  -5 1.07673 3.11380   3
   6   0  -5-1.24196 3.38624   5
  -6   0   4 2274.07 66.1952   4
   6   0  -4 2192.76 75.7668   5
  -6   0   4 2226.14 73.0150   3
   6   0  -4 2201.23 73.6800   3
  -6   0   3-0.87579 3.26990   3
   6   0  -3 1.89628 3.03153   3
  -6   0   3 2.94146 1.87585   4
   6   0  -3 1.11532 3.72453   5
  -6   0   3-0.95934 4.23799   5
  -6   0   2 3569.27 94.0048   4
   6   0  -2 3564.79 108.801   5
  -6   0   2 3528.65 104.421   3
  -6   0   2 3431.99 105.313   5
   6   0  -2 3406.23 104.974   3
  -6   0   1-1.51076 2.52241   3
   6   0  -1 0.82107 2.50289   3
   6   0  -1 3.05473 3.40018   5
  -6   0   0 1136.33 40.5878   3
   6   0   0 1236.84 45.2829   5
   6   0   0 1124.97 41.4260   3
  -6   0  -1 1.96886 2.60842   3
  -6   0  -1-0.93934 1.97347   2
   6   0   1 0.70873 2.46326   3
   6   0   1 2.80357 3.48896   5
  -6   0  -2 5397.41 146.003   2
   6   0   2 5544.11 154.718   5
   6   0   2 5401.97 150.410   3
   6   0   3-1.04577 3.63472   1
   6   0   3 1.19054 2.50126   3
   6   0   3 0.40400 1.78470   6
   6   0   3-4.27056 3.77301   5
   6   0   4 3233.68 88.0122   4
   6   0   4 3297.29 104.003   1
   6   0   4 3442.79 90.7140   6
   6   0   4 3396.31 94.8561   3
   6   0   4 3296.89 99.1298   5
   6   0   5-0.53694 2.00462   3
   6   0   5-0.34727 1.57016   4
   6   0   5 1.19557 3.04919   1
   6   0   5 1.13811 1.22169   6
   6   0   5-0.81567 3.42731   5
   6   0   6 86.9431 7.26150   4
   6   0   6 90.8511 11.3136   1
   6   0   6 92.0510 7.40520   3
   6   0   6 88.2314 9.12912   5
   6   0   7 1.66878 3.41246   5
   6   0   7-0.50144 2.10698   3
   6   0   7 1.45576 3.96914   8
   6   0   7-1.46049 3.72484   7
   6   0   7-0.62406 2.48034   4
   6   0   7-1.33170 3.63088   1
   6   0   8 127.499 14.6350   8
   6   0   8 128.300 10.6484   4
   6   0   8 134.965 15.1097   7
   6   0   8 128.346 14.4193   1
   6   0   8 131.338 8.87799   3
   6   0   8 143.137 11.8779   5
   6   0   9 1.49716 2.25654   3
   6   0   9-1.49699 4.56335   1
   6   0   9 1.54007 3.63652   8
   6   0   9-1.65927 3.57660   7
   6   0   9 2.62277 2.91947   4
   6   0   9 0.86626 3.23418   5
   6   0  10 3.54464 3.82390   5
   6   0  10 11.1099 3.26986   3
   6   0  10-1.60586 4.89807   8
   6   0  10 5.33293 4.84965   7
   6   0  10 9.53392 5.93472   1
   6   0  10 9.96184 4.29781   4
   6   0  11 1.03441 1.99464   3
   6   0  11-1.66913 4.55104   8
   6   0  11 3.78211 5.15610   7
   6   0  11-3.34071 4.55438   4
   6   0  11-1.82880 3.63450   5
   6   0  12 363.313 26.8840   8
   6   0  12 336.620 22.3935   4
   6   0  12 357.905 28.1326   7
   6   0  12 348.275 16.2913   3
   6   0  13-0.54683 2.23639   3
   6   0  13 1.75776 5.35821   8
   6   0  13-2.08381 6.02615   7
   6   0  13 4.00087 4.06531   4
   6   0  14 958.713 47.5907   8
   6   0  14 872.233 42.4442   4
   6   0  14 951.910 51.1161   7
   6   0  14 894.447 32.0213   3
   6   0  15 1.85060 5.91655   8
   6   0  15-1.53843 5.74357   4
   6   0  16 73.5655 13.0785   8
   6   0  16 52.2786 11.0215   4
   6  -1 -18 12.4955 7.10291   8
  -6   1  18 27.9240 10.5354   4
  -6  -1  18 22.8639 10.8111   4
   6  -1 -18 27.3915 8.99234   1
   6   1 -18 24.3921 9.57501   1
  -6   1  17 855.145 48.8367   4
   6   1 -17 840.225 35.8815   8
  -6  -1  17 897.633 49.6467   4
   6  -1 -17 905.890 45.4688   1
   6   1 -17 923.416 50.3456   1
   6   1 -16 45.1457 11.7491   1
  -6   1  16 41.6777 11.0519   4
  -6  -1  16 36.9912 10.1549   4
   6  -1 -16 40.9471 9.39870   1
   6  -1 -15 10.8115 6.15183   1
  -6   1  15 19.6475 8.26534   4
  -6  -1  15 21.2614 8.54773   4
  -6   1  14 1.85118 4.37104   4
  -6  -1  14 3.62221 5.23751   4
   6  -1 -14-1.45429 4.43314   1
   6   1 -14-1.86410 5.39076   5
  -6   1  13 1.73435 4.09748   4
   6  -1 -13 8.22420 5.28700   1
  -6  -1  13 5.06525 5.14866   4
   6   1 -13 10.7691 6.47514   5
   6  -1 -12 2.51375 4.19956   1
  -6   1  12 2.87629 5.00056   3
  -6  -1  12 10.4120 6.08495   3
  -6   1  12 14.4433 6.18961   4
  -6  -1  12 7.81186 5.21920   4
  -6   1  12 1.58186 6.10115   5
  -6  -1  12 9.17706 5.89935   5
  -6   1  11 1064.69 47.3773   4
  -6  -1  11 1020.02 46.4339   4
  -6   1  11 1030.12 47.5402   5
  -6  -1  11 996.095 46.5257   5
  -6   1  11 1117.13 47.1234   3
  -6  -1  11 1020.57 46.2698   3
   6  -1 -11 1009.14 46.9291   3
  -6   1  10 22.5573 7.13356   3
  -6   1  10 20.1917 6.50111   4
  -6  -1  10 11.7544 4.89341   4
   6  -1 -10 18.7821 6.39553   3
   6  -1 -10 33.8790 8.52787   5
  -6   1  10 7.25335 6.42150   5
  -6  -1  10 11.1783 6.33115   5
  -6   1   9 638.845 32.4190   4
  -6  -1   9 649.414 32.2209   4
   6  -1  -9 657.672 35.7176   5
  -6   1   9 657.635 34.4876   5
  -6  -1   9 637.503 33.6406   5
  -6   1   9 711.617 34.5261   3
   6  -1  -9 626.736 33.8056   3
  -6  -1   8 135.793 12.7546   4
   6  -1  -8 156.755 15.8257   5
   6   1  -8 119.931 14.1201   5
  -6   1   8 153.944 14.5424   3
  -6  -1   8 159.159 15.2985   5
   6  -1  -8 134.818 14.0074   3
   6  -1  -7 492.570 29.1358   5
   6   1  -7 559.060 30.3300   5
  -6  -1   7 469.893 27.2481   5
  -6  -1   7 501.964 27.5945   3
   6  -1  -7 525.616 28.5484   3
  -6  -1   6 14.2540 5.29117   3
  -6   1   6 11.5144 3.72777   4
   6  -1  -6 12.9515 4.68690   3
   6  -1  -6 9.20194 5.23125   5
   6   1  -6 16.9475 6.16194   5
  -6  -1   6 3.44521 3.68080   5
  -6  -1   5 339.549 17.6645   4
   6  -1  -5 385.125 23.6130   5
   6   1  -5 385.082 23.4683   5
  -6   1   5 323.327 21.3253   5
  -6  -1   5 305.602 20.4467   5
  -6  -1   5 375.646 21.5305   3
   6  -1  -5 338.871 21.3095   3
  -6   1   5 368.931 18.1672   4
   6   1  -5 351.120 21.0874   3
  -6  -1   4 27.4411 5.94384   3
   6  -1  -4 28.4059 6.11647   3
  -6   1   4 26.5956 4.39015   4
  -6  -1   4 25.7115 4.34620   4
   6   1  -4 22.7497 5.34484   3
   6  -1  -4 21.0542 5.99847   5
   6   1  -4 19.3053 5.84850   5
  -6   1   4 21.2033 5.63176   5
  -6   1   3 6278.23 169.808   4
   6  -1  -3 6665.14 183.280   5
  -6   1   3 6341.02 179.251   3
   6   1  -3 6558.80 183.627   5
  -6   1   3 6483.06 180.295   5
  -6  -1   3 6338.99 170.812   4
  -6  -1   3 6444.11 178.254   3
   6  -1  -3 6183.41 180.100   3
   6   1  -3 6264.36 179.105   3
  -6   1   2 14.8454 4.47200   3
  -6  -1   2 13.2230 4.19352   3
   6  -1  -2 14.0116 4.42909   3
   6   1  -2 13.9362 3.40406   4
  -6   1   2 15.9614 2.23492   4
   6   1  -2 12.7604 4.43386   3
   6  -1  -2 25.0805 6.05720   5
   6   1  -2 22.1295 5.75754   5
   6   1  -1 182.031 9.46628   4
  -6   1   1 191.116 13.5396   3
   6  -1  -1 190.308 14.4440   5
  -6  -1   1 162.822 11.8698   3
   6   1  -1 156.569 13.9618   5
   6  -1  -1 176.345 13.2918   3
  -6   1   1 179.570 12.0623   2
   6   1  -1 200.365 13.3211   3
   6   1   0 428.428 15.9845   4
  -6   1   0 459.049 22.2407   3
   6  -1   0 439.116 23.1529   5
  -6  -1   0 452.670 20.3588   3
  -6   1   0 447.906 20.1137   2
   6   1   0 486.868 24.8577   5
   6  -1   0 422.548 21.6822   3
   6   1   0 443.206 21.0273   3
   6  -1   1 2196.02 70.5755   1
   6   1   1 2170.18 61.1608   4
  -6   1  -1 2306.09 67.0174   2
  -6  -1  -1 2237.03 66.8304   3
   6  -1   1 2223.34 71.9898   5
   6  -1   1 2214.54 69.8937   3
   6   1   1 2282.43 73.4831   5
   6   1   1 2236.78 68.0053   3
  -6  -1  -2 5.57309 2.72480   3
   6  -1   2 9.79364 3.48712   3
   6  -1   2 7.10272 3.53304   1
   6   1   2 6.34792 2.73080   3
   6   1   2 4.70965 2.72716   6
   6   1   2 7.38447 1.80187   4
  -6   1  -2 7.47745 2.63103   2
   6  -1   2 5.02364 3.42867   5
   6   1   2 9.47211 4.28625   5
   6   1   3 3739.17 99.1469   4
   6  -1   3 3686.39 111.125   1
   6   1   3 3628.91 103.970   6
  -6  -1  -3 3620.55 98.3395   2
   6  -1   3 3638.45 107.056   3
   6  -1   3 3840.54 109.044   5
   6   1   3 3823.54 111.005   5
   6   1   3 3697.94 103.447   3
   6   1   4 149.444 14.4289   1
   6   1   4 156.397 9.61571   6
   6  -1   4 156.917 13.5477   1
   6  -1   4 149.193 11.3142   3
   6  -1   4 170.174 12.4266   5
   6   1   4 138.750 12.2452   5
   6   1   4 149.727 9.25875   3
   6   1   5 2245.97 79.2527   8
   6   1   5 2163.11 76.7302   1
   6  -1   5 2181.21 60.6293   4
   6   1   5 2204.23 63.9837   6
   6  -1   5 2209.41 74.8747   1
   6  -1   5 2231.41 68.6066   3
   6  -1   5 2290.43 69.2992   5
   6   1   5 2269.28 72.6097   5
   6   1   5 2166.30 63.2315   3
   6   1   6 285.677 21.7368   8
   6  -1   6 271.868 12.5377   4
   6   1   6 261.897 20.6011   1
   6   1   6 265.502 12.4859   6
   6  -1   6 271.040 19.8621   1
   6  -1   6 277.736 15.8196   3
   6  -1   6 277.895 15.8972   5
   6   1   6 334.894 19.4429   5
   6   1   6 274.661 11.9316   3
   6  -1   7 523.233 20.7134   4
   6  -1   7 509.518 29.2865   7
   6   1   7 503.938 29.5999   1
   6   1   7 453.105 17.5561   6
   6  -1   7 458.438 27.3804   1
   6  -1   7 480.226 22.4396   3
   6  -1   7 508.564 22.7154   5
   6   1   7 553.057 26.4719   5
   6   1   7 455.416 16.6423   3
   6   1   7 442.085 28.7260   8
   6  -1   8 1.46587 2.73639   3
   6   1   8 1.58989 4.05488   8
   6   1   8 3.26841 4.16791   7
   6  -1   8-1.47236 4.70732   7
   6   1   8 1.11222 1.32193   3
   6  -1   8 1.37485 4.19102   1
   6  -1   8 3.29059 3.23487   4
   6   1   8 1.00153 3.86180   5
   6   1   8 1.48987 4.76329   1
   6  -1   8-2.74177 2.80334   5
   6   1   9 674.464 38.3344   8
   6  -1   9 747.096 38.4347   8
   6  -1   9 752.021 30.6352   4
   6   1   9 699.312 39.3574   7
   6  -1   9 680.869 37.9400   7
   6   1   9 758.448 39.1507   1
   6  -1   9 744.475 30.0218   3
   6  -1   9 755.931 38.2516   1
   6  -1   9 791.508 29.8757   5
   6   1   9 726.410 21.8558   3
   6  -1  10 0.70485 3.32862   5
   6  -1  10 0.66577 1.78670   2
   6  -1  10 6.06533 4.62228   8
   6   1  10 1.85186 4.37265   7
   6  -1  10-1.68959 4.88613   7
   6   1  10-6.86313 6.18853   8
   6  -1  10 2.70858 3.98835   4
   6  -1  10-4.70730 6.05022   1
   6   1  10 3.30997 5.04493   1
   6  -1  10 2.28407 2.74611   3
   6  -1  11 2580.05 92.1751   8
   6   1  11 2434.20 85.9962   4
   6  -1  11 2613.55 84.1796   4
   6   1  11 2670.06 98.3423   7
   6  -1  11 2689.70 96.1170   7
   6  -1  11 2586.91 72.5958   2
   6  -1  11 2715.51 79.7670   5
   6   1  11 2653.01 95.3225   8
   6  -1  12 9.00413 4.03052   5
   6   1  12 12.8238 7.28303   8
   6   1  12 4.18280 6.05032   7
   6  -1  12 1.87751 4.79122   7
   6   1  12 7.98077 5.28916   4
   6  -1  12 7.99523 4.80201   4
   6  -1  12 9.69347 5.82940   8
   6  -1  12 5.15002 2.32253   2
   6  -1  13 14.5165 4.49881   5
   6  -1  13 21.5317 7.32811   8
   6   1  13 15.1104 7.73569   8
   6   1  13 8.61650 5.50931   7
   6  -1  13 19.8297 8.12031   7
   6   1  13 17.3133 6.53633   4
   6  -1  13 22.6046 6.41888   4
   6  -1  13 16.2197 2.98534   2
   6   1  14 241.618 20.9860   4
   6  -1  14 252.232 22.2111   8
   6   1  14 289.175 25.1577   8
   6  -1  14 263.621 20.3079   4
   6   1  14 250.887 25.3140   7
   6  -1  14 239.702 15.4033   5
   6  -1  15 19.0642 4.99771   5
   6  -1  15 27.5933 8.16578   8
   6   1  15 25.8347 9.00481   8
   6   1  15 24.7864 8.88858   4
   6  -1  15 26.5332 7.93366   4
   6  -1  16 1.74983 5.33542   8
   6   1  16 8.08268 6.74865   8
   6   1  16 8.69589 7.49854   4
   6  -1  16 3.14322 6.77627   4
  -6  -2  18 170.999 21.5700   4
  -6   2  18 162.507 21.0033   4
   6   2 -18 160.757 21.0016   1
   6  -2 -18 150.543 16.6682   1
   6  -2 -17 4.59349 5.90536   1
   6   2 -17 3.54384 3.22337   8
  -6   2  17 22.6962 9.78514   4
  -6  -2  17 2.22844 7.44247   4
   6   2 -17 6.95445 7.74200   1
  -6   2  16 1371.95 64.0161   4
  -6  -2  16 1391.41 64.2719   4
   6  -2 -16 1319.48 55.5063   1
  -6  -2  15 143.537 18.1186   4
  -6   2  15 119.200 16.3889   4
   6  -2 -15 125.424 13.9002   1
   6   2 -15 101.316 15.4335   5
   6  -2 -15 165.373 18.0048   3
  -6   2  14 683.183 39.5540   4
  -6  -2  14 623.932 38.0770   4
   6   2 -14 645.749 38.5409   5
   6  -2 -14 622.862 32.5632   1
   6  -2 -14 676.975 38.1658   3
  -6  -2  13 1.74571 5.58186   4
   6  -2 -13 3.45491 3.84657   1
   6   2 -13 5.33810 6.64365   5
  -6  -2  12 1183.96 53.1906   4
   6   2 -12 1263.38 55.6273   5
  -6  -2  12 1182.73 52.1616   5
   6  -2 -12 1169.99 46.4153   1
  -6   2  11 35.5087 8.90467   3
  -6  -2  11 37.3582 8.55475   4
   6  -2 -11 28.0293 6.22529   1
   6   2 -11 19.7636 7.65061   5
  -6  -2  11 30.0266 8.52934   5
  -6  -2  10 1136.48 48.5390   4
  -6   2  10 1150.11 48.9102   3
  -6  -2  10 1072.55 48.1074   5
   6  -2 -10 1056.76 49.1896   3
   6  -2 -10 1223.21 43.6085   1
  -6   2   9 35.2347 8.18712   3
  -6  -2   9 33.9242 7.99022   3
   6  -2  -9 17.0687 6.17782   3
  -6  -2   9 39.0923 7.66874   4
  -6  -2   9 29.9403 7.66984   5
  -6  -2   8 3922.85 121.115   4
  -6   2   8 4121.51 124.478   3
  -6  -2   8 4027.96 124.209   5
   6  -2  -8 3806.41 124.669   3
  -6  -2   8 4193.97 124.595   3
  -6   2   7 7.20290 5.18628   3
   6   2  -7 21.3493 5.92080   4
   6  -2  -7 11.6394 5.58548   3
  -6  -2   7 16.3948 5.76597   3
  -6  -2   7 16.8343 5.32553   4
  -6   2   7 16.5923 6.51908   5
  -6  -2   7 7.17403 4.90166   5
   6   2  -6 1348.18 49.0890   4
   6  -2  -6 1328.63 53.4301   5
  -6   2   6 1346.11 51.1196   3
   6   2  -6 1310.71 53.5507   5
  -6   2   6 1263.14 51.1073   5
  -6  -2   6 1275.57 50.4838   5
   6  -2  -6 1317.92 51.8210   3
  -6  -2   6 1258.77 50.0620   3
  -6  -2   5 19.9613 5.66822   5
   6  -2  -5 12.9454 4.69147   3
   6   2  -5 12.0799 4.25661   4
  -6  -2   5 18.6157 5.47247   3
   6  -2  -5 18.8029 6.51727   5
  -6   2   5 12.5845 5.06674   5
   6   2  -5 7.79593 5.75111   5
   6   2  -4 361.957 18.9635   4
  -6  -2   4 307.171 17.0969   4
   6  -2  -4 338.554 21.9529   5
  -6   2   4 310.902 20.2837   5
   6   2  -4 355.021 22.8265   5
  -6  -2   4 347.311 21.2891   5
   6  -2  -4 302.723 20.2236   3
  -6   2   4 329.975 19.6818   2
  -6  -2   4 304.452 19.3819   3
  -6  -2   3 2.06026 3.84592   5
  -6   2   3 1.75150 2.92439   2
   6  -2  -3 1.04220 3.01396   3
  -6  -2   3-0.88772 3.31425   3
   6   2  -3-0.66954 2.32710   4
   6  -2  -3 3.30171 4.10890   5
  -6   2   3 3.01133 3.74753   5
   6   2  -3-1.20951 4.03890   5
   6   2  -2 987.345 34.7493   4
  -6   2   2 949.305 39.2946   3
   6  -2  -2 1007.28 40.8064   5
   6   2  -2 988.269 41.6787   5
  -6   2   2 983.572 37.8546   2
   6  -2  -2 975.083 39.5178   3
  -6  -2   2 1041.92 38.2130   3
  -6  -2   2 890.614 38.6557   5
   6  -2  -1 2.92170 2.81727   3
  -6  -2   1 3.63363 3.21101   3
   6  -2  -1 5.81117 2.80174   1
   6   2  -1 1.07812 2.38228   4
  -6   2   1 2.03241 1.49400   4
   6  -2  -1 4.81835 3.83075   5
  -6   2   1 1.57228 3.55512   2
   6   2  -1 3.35187 3.40657   5
  -6  -2   0 0.62220 2.24546   3
   6  -2   0 0.93982 2.56355   3
  -6   2   0 3.19906 1.17671   4
   6   2   0 7.19854 2.57681   4
   6  -2   0 1.30171 2.17470   1
   6  -2   0 6.26484 3.85897   5
  -6   2   0 2.23262 2.77947   2
   6   2   0 9.71062 4.65197   5
  -6   2  -1 9.38756 3.55261   5
   6  -2   1 3.66564 3.19871   3
  -6  -2  -1 19.3719 3.82317   3
   6   2   1 9.20535 3.63462   6
   6   2   1 13.2190 3.24236   4
   6  -2   1 9.36945 3.55482   1
  -6   2  -1 19.3075 4.36963   2
   6  -2   1 10.8207 4.02264   5
   6   2   1 18.0201 5.11754   5
   6   2   2 2797.87 79.3853   4
   6   2   2 2706.13 84.1887   6
   6  -2   2 2762.59 79.3013   6
   6  -2   2 2838.04 85.5795   1
   6  -2   2 2792.87 85.1520   5
  -6  -2  -2 2870.18 79.5476   3
   6  -2   2 2811.91 86.9713   3
   6   2   2 2800.12 89.2458   5
  -6   2  -2 2775.99 82.2722   5
   6  -2   3 30.9977 5.84303   1
   6   2   3 46.9955 7.92624   5
   6  -2   3 41.3020 6.74833   3
   6   2   3 44.2780 8.51503   8
   6   2   3 53.0777 6.59623   6
   6  -2   3 50.2008 4.36612   6
  -6  -2  -3 51.0890 4.62253   3
   6  -2   3 37.9670 6.05221   5
   6   2   4 119.341 13.4191   8
   6   2   4 101.908 8.77734   6
   6  -2   4 118.948 5.91705   6
   6  -2   4 121.395 11.3263   1
   6  -2   4 118.065 10.9140   3
   6  -2   4 122.156 9.72520   5
   6   2   4 139.562 12.9253   5
   6  -2   5 26.1154 5.73498   3
   6   2   5 29.4553 6.34821   5
   6   2   5 28.6375 6.99084   1
   6   2   5 33.1494 7.71747   8
   6  -2   5 25.7610 6.07347   1
   6   2   5 26.4348 4.75517   6
   6  -2   5 26.1305 4.84836   5
   6   2   6 1894.22 74.5645   8
   6   2   6 1952.13 73.4913   1
   6  -2   6 2032.70 70.8413   7
   6  -2   6 1966.99 58.4362   4
   6   2   6 2030.89 61.7858   6
   6  -2   6 2019.54 66.9579   3
   6  -2   6 2029.72 70.4655   1
   6  -2   6 2025.25 61.6294   5
   6  -2   6 2016.73 61.8977   2
   6   2   6 2136.29 70.5378   5
   6  -2   7 283.471 20.5822   7
   6  -2   7 247.998 13.3871   4
   6   2   7 270.150 21.5658   1
   6   2   7 281.640 14.4567   6
   6   2   7 271.212 22.4261   8
   6  -2   7 260.994 17.3533   3
   6  -2   7 266.898 14.2078   5
   6  -2   7 231.823 18.6741   1
   6  -2   7 282.419 14.7965   2
   6   2   8 144.474 16.6541   8
   6   2   8 147.769 16.6628   7
   6  -2   8 140.758 10.5610   4
   6  -2   8 144.169 14.9400   7
   6   2   8 135.979 15.7032   1
   6   2   8 149.034 10.0133   6
   6  -2   8 161.990 10.2803   5
   6  -2   8 148.408 10.3578   2
   6  -2   8 147.800 15.0531   1
   6   2   9-1.76414 3.80273   8
   6  -2   9-1.47265 5.67841   1
   6   2   9 1.81394 4.62640   7
   6  -2   9 2.97785 4.05969   7
   6  -2   9 2.24824 2.79807   4
   6   2   9 3.28698 5.25451   1
   6  -2   9 2.55999 2.83541   5
   6  -2   9 0.60790 2.41634   2
   6  -2  10 25.0889 7.54954   8
   6   2  10 33.0910 8.70046   8
   6   2  10 38.5662 9.12422   7
   6  -2  10 23.3676 6.90536   7
   6  -2  10 23.4423 5.25788   4
   6  -2  10 22.0016 7.28770   1
   6  -2  10 19.4238 4.21751   2
   6  -2  10 18.6843 3.80522   5
   6  -2  11 70.3724 11.2392   8
   6   2  11 74.1986 12.9699   8
   6  -2  11 84.4865 9.78684   4
   6   2  11 63.6023 12.4884   7
   6  -2  11 66.8730 11.7671   7
   6  -2  11 72.2347 7.25565   2
   6  -2  11 71.5093 6.53270   5
   6  -2  12 539.441 32.2159   8
   6  -2  12 578.229 28.8195   4
   6   2  12 606.986 39.0479   7
   6   2  12 510.867 35.2814   8
   6  -2  12 546.822 23.3911   2
   6  -2  12 544.167 21.4160   5
   6  -2  13 10.9202 5.84640   8
   6   2  13 24.3000 8.29734   8
   6   2  13 36.0317 10.4233   7
   6  -2  13 24.3395 6.85926   4
   6  -2  13 18.6483 4.45589   2
   6  -2  13 20.3820 4.21849   5
   6  -2  14 214.168 19.5967   8
   6   2  14 226.428 22.6661   8
   6   2  14 221.549 23.9940   7
   6  -2  14 175.735 16.9451   4
   6  -2  14 218.671 13.4196   2
   6   2  15 19.0517 8.42031   8
   6  -2  15 12.7686 6.53634   8
   6  -2  15 4.33099 5.57687   4
   6  -2  16 12.9486 7.16650   8
   6   2  16 19.4897 9.34819   8
   6   2  16 25.9792 8.40425   4
   6  -2  16 20.0771 7.60667   4
  -6  -3  17 924.863 52.3747   4
   6  -3 -17 998.585 44.4828   1
  -6  -3  16 52.8253 12.3269   4
   6  -3 -16 56.4533 11.4421   3
   6  -3 -16 80.1144 10.7781   1
   6   3 -16 58.7241 12.6197   5
   6   3 -15 0.60560 2.00129   8
   6   3 -15 3.04307 2.17565   8
  -6  -3  15-7.98503 6.08529   4
   6  -3 -15-1.83567 6.12983   3
   6  -3 -15 2.28637 3.48491   1
   6   3 -15 9.54206 6.88335   5
   6   3 -14 39.8692 4.77342   8
  -6  -3  14 31.8779 9.09997   4
   6  -3 -14 53.4358 10.7750   3
   6  -3 -14 40.7370 7.12759   1
   6   3 -14 55.1519 11.1177   5
   6  -3 -13 6.86939 5.97138   3
  -6  -3  13 3.52166 5.63224   4
   6   3 -13 7.14284 6.20888   5
   6  -3 -13 8.47599 4.16388   1
  -6  -3  12 321.355 24.5688   4
   6  -3 -12 291.329 17.5187   1
   6   3 -12 314.936 25.0642   5
   6  -3 -12 284.765 23.3574   3
  -6  -3  11 980.908 45.8700   4
   6  -3 -11 936.559 35.7250   1
   6   3 -11 1031.00 48.2093   5
  -6  -3  11 961.074 44.4671   5
   6   3 -10 222.271 19.1944   4
  -6  -3  10 197.890 18.1245   4
   6  -3 -10 216.769 12.9097   1
  -6   3  10 230.662 19.1415   3
   6   3 -10 202.084 19.2855   5
  -6   3  10 186.637 18.5220   5
  -6  -3  10 181.448 17.1326   5
  -6  -3  10 208.321 18.5904   3
   6   3  -9 519.712 29.4053   4
  -6  -3   9 445.706 27.2929   4
   6  -3  -9 496.205 20.3575   1
  -6   3   9 526.823 29.7341   3
  -6   3   9 493.313 29.8536   5
   6   3  -9 505.085 30.7425   5
  -6  -3   9 477.002 28.2339   5
  -6  -3   9 498.618 28.6760   3
  -6  -3   8 44.5372 9.39868   5
  -6   3   8 68.1987 10.3181   3
   6  -3  -8 64.1288 10.3133   3
   6   3  -8 63.8329 9.70978   4
  -6  -3   8 79.2128 10.8915   3
  -6  -3   8 65.8319 9.43950   4
   6  -3  -8 59.2779 5.42695   1
  -6   3   8 74.6329 11.1027   5
   6   3  -7 793.107 35.4132   4
  -6  -3   7 748.417 34.0276   4
  -6   3   7 801.480 37.1889   3
  -6   3   7 741.439 36.5145   5
   6  -3  -7 716.023 24.3343   1
  -6  -3   7 724.212 35.5641   5
   6  -3  -7 777.774 37.6504   3
  -6  -3   7 792.315 36.0657   3
  -6  -3   6 8.40446 5.43183   5
  -6   3   6 8.54681 4.56231   3
   6  -3  -6 18.3748 5.93727   3
   6  -3  -6 7.02641 1.72089   1
   6   3  -6 4.21210 3.93591   4
  -6  -3   6 7.84116 4.95186   3
  -6  -3   6 15.7909 4.85469   4
  -6   3   6 1.23313 3.76371   5
  -6   3   5 30.3427 6.54799   2
  -6   3   5 24.9726 6.80515   3
  -6  -3   5 27.5870 6.48552   5
   6  -3  -5 18.8512 2.24516   1
   6  -3  -5 27.2271 6.66627   3
   6   3  -5 27.6668 6.05688   4
  -6  -3   5 27.4053 6.53043   3
  -6  -3   5 24.5836 5.36856   4
  -6   3   5 16.3274 5.86879   5
   6   3  -4 86.4684 10.4480   8
   6  -3  -4 94.4699 5.19286   1
   6   3  -4 105.273 10.5091   4
  -6   3   4 119.103 12.0726   5
  -6   3   4 112.339 11.5652   2
   6   3  -4 101.606 12.4740   5
   6  -3  -4 112.364 11.9684   3
  -6  -3   4 134.460 12.7593   5
  -6  -3   4 100.366 10.9182   3
   6   3  -3 2836.30 94.3360   8
   6   3  -3 3062.75 90.6922   4
   6  -3  -3 3083.00 92.7615   6
   6  -3  -3 2790.42 80.5514   1
  -6   3   3 3051.35 93.2323   2
  -6   3   3 3117.18 94.2763   5
   6  -3  -3 3249.78 97.1892   3
   6   3  -3 3101.46 97.6396   5
  -6  -3   3 3077.66 92.3367   3
   6   3  -2 10.7610 4.75847   8
   6  -3  -2 7.72684 2.25898   1
   6  -3  -2 11.3179 4.63517   3
  -6  -3   2 16.6853 4.89784   3
   6   3  -2 5.33295 3.37425   4
   6   3  -2 12.2879 5.03910   6
   6  -3  -2 9.41440 3.87733   6
  -6   3   2 11.3817 4.29535   2
   6   3  -2 12.3522 5.05762   5
   6   3  -1 125.960 10.1240   4
  -6   3   1 121.857 8.22224   4
   6   3  -1 128.034 11.9237   6
   6  -3  -1 137.987 11.0435   6
  -6   3   1 119.931 11.2621   2
   6  -3  -1 140.705 8.65952   1
   6  -3  -1 137.255 12.8614   3
   6   3  -1 136.423 13.4503   5
  -6  -3   1 149.137 11.2550   3
   6   3   0 61.3491 9.59690   8
   6   3   0 74.4955 7.66076   4
  -6   3   0 76.5321 6.15905   4
   6   3   0 66.9256 8.72330   6
   6  -3   0 77.0229 7.84886   6
   6  -3   0 88.2892 9.63744   5
   6  -3   0 59.3137 6.18015   1
   6  -3   0 76.3138 9.46489   3
   6   3   0 79.3550 10.3159   5
  -6  -3   0 78.2497 7.82392   3
   6   3   1 802.097 39.5152   8
  -6   3  -1 861.277 28.9100   4
   6   3   1 884.096 32.3413   4
   6   3   1 805.950 34.9533   6
   6  -3   1 860.151 31.6729   6
   6  -3   1 869.869 34.2204   5
   6  -3   1 860.129 37.5656   3
   6  -3   1 831.493 31.9009   1
  -6   3  -1 917.946 33.1148   5
   6   3   1 894.900 39.1269   5
  -6  -3  -1 888.353 31.4067   3
  -6   3  -2-1.12763 2.43059   5
   6   3   2 2.40500 3.66560   5
   6  -3   2 2.15083 3.10998   3
  -6  -3  -2-0.87943 1.89560   3
  -6   3  -2 0.43199 1.95319   4
   6   3   2-0.87162 3.46426   6
   6   3   2 1.91771 2.54066   4
   6  -3   2 0.52731 2.09579   6
   6  -3   2 2.07434 2.74817   5
   6  -3   2-2.26701 3.41667   1
  -6   3  -3 2555.74 74.6831   4
   6   3   3 2750.43 78.3122   4
   6   3   3 2479.92 80.5313   6
   6  -3   3 2614.76 74.2914   6
   6  -3   3 2605.31 77.2092   5
   6  -3   3 2523.15 84.1078   3
  -6  -3  -3 2591.07 71.8694   3
   6   3   3 2789.10 87.8450   5
  -6   3  -3 2554.85 74.6571   5
   6  -3   3 2559.18 81.1047   1
   6  -3   4 2.17621 3.31901   3
   6   3   4 14.6831 5.40642   5
   6  -3   4 3.30233 3.18554   2
   6  -3   4 0.96533 3.35721   1
  -6   3  -4 7.07283 2.92247   4
   6  -3   4 6.31622 1.97592   6
   6   3   4 2.45829 3.06157   6
   6  -3   4 4.18333 2.57301   5
   6   3   5 3070.58 108.078   8
   6  -3   5 3265.40 99.8954   7
   6  -3   5 3224.51 86.1635   6
   6   3   5 3205.17 96.3222   6
   6  -3   5 3328.97 101.809   3
   6  -3   5 3149.58 90.0151   5
   6  -3   5 3223.30 96.5370   2
   6   3   5 3324.90 104.074   5
   6  -3   5 3238.65 100.992   1
   6  -3   6 35.4562 6.29639   2
   6   3   6 35.0097 8.45709   1
   6   3   6 32.1759 8.19117   8
   6  -3   6 35.9428 7.45594   7
   6   3   6 21.8786 5.26366   6
   6  -3   6 27.1952 6.68160   1
   6  -3   6 22.8562 3.48236   5
   6  -3   6 25.6975 6.40881   3
   6   3   7 487.704 31.5937   8
   6   3   7 407.891 28.1838   1
   6  -3   7 463.024 26.0968   7
   6  -3   7 389.337 19.1585   4
   6   3   7 482.364 22.3678   6
   6  -3   7 471.706 23.1156   2
   6  -3   7 443.198 27.0685   1
   6   3   8 212.041 21.2949   8
  -6   3  -8 273.863 20.7292   1
   6  -3   8 212.052 17.7942   7
   6   3   8 196.498 19.6699   1
   6  -3   8 240.668 14.3602   4
   6   3   8 260.886 15.4258   6
   6  -3   8 228.697 15.2536   2
   6  -3   8 262.017 20.5279   1
   6  -3   9 419.349 27.2934   1
   6   3   9 408.965 29.7252   8
  -6   3  -9 401.521 26.7788   1
   6   3   9 316.800 26.9864   7
   6  -3   9 383.599 25.0104   7
   6  -3   9 371.096 19.7249   4
   6   3   9 403.799 20.1081   6
   6  -3   9 378.618 20.4476   2
   6   3  10 255.117 24.3351   8
  -6   3 -10 324.342 24.3944   1
   6   3  10 265.364 24.7056   7
   6  -3  10 252.589 16.6978   4
   6  -3  10 277.242 21.4512   7
   6  -3  10 286.728 23.2345   1
   6  -3  10 256.354 16.5288   2
   6   3  11 2064.29 84.6744   8
  -6   3 -11 2129.90 81.7698   1
   6   3  11 2109.09 86.0123   7
   6  -3  11 2153.50 71.3492   4
   6  -3  11 2157.69 69.2163   2
   6  -3  12 85.0336 12.1109   8
   6   3  12 67.3633 13.1793   8
  -6   3 -12 105.560 15.1912   1
   6  -3  12 91.3330 10.9610   4
   6   3  12 94.2187 15.2970   7
   6  -3  12 83.4288 9.26529   2
   6  -3  13 55.6567 10.5166   8
   6   3  13 88.3480 14.9333   8
  -6   3 -13 75.5971 13.0291   1
   6   3  13 63.1219 13.4429   7
   6  -3  13 58.3136 9.23273   4
   6  -3  13 74.7395 8.74758   2
   6  -3  14-1.49099 5.18217   8
  -6   3 -14 2.16926 5.12215   1
   6   3  14 2.42591 6.18712   7
   6  -3  14-5.26365 5.38182   4
   6   3  14-2.21319 6.74656   8
   6  -3  14 1.79704 3.46467   2
   6  -3  15 68.5533 11.1727   8
   6   3  15 68.0340 13.7639   8
  -6   3 -15 54.9699 12.8036   1
   6   3  15 86.2396 15.5627   7
   6  -3  15 70.7183 11.5407   4
  -6  -4  16 247.600 24.9375   4
   6  -4 -16 265.904 25.4935   6
   6   4 -16 228.795 23.0056   5
   6  -4 -16 240.329 22.8925   3
   6  -4 -15 56.6500 11.7552   3
  -6  -4  15 72.2785 13.4410   4
   6  -4 -15 80.3223 13.8393   6
   6   4 -15 43.5506 10.4377   5
   6  -4 -14 62.5543 7.70785   1
   6  -4 -14 58.7164 11.4645   3
  -6  -4  14 80.2484 14.1051   4
   6  -4 -14 86.9028 13.8439   6
   6   4 -14 81.4336 13.1095   5
   6  -4 -13 3.95102 3.11408   1
   6  -4 -13 10.7790 6.24608   3
  -6  -4  13 9.25594 6.67892   4
   6  -4 -13 13.2425 6.31929   6
   6   4 -13 3.58931 5.74004   5
   6   4 -12 418.674 17.1318   8
   6  -4 -12 383.321 17.8978   1
  -6  -4  12 442.133 29.9787   4
   6  -4 -12 466.896 31.0739   6
   6   4 -12 464.666 30.8714   5
   6  -4 -12 510.638 31.9684   3
   6   4 -11 192.070 11.7680   8
  -6  -4  11 198.624 18.9207   4
   6  -4 -11 224.136 20.7198   6
   6   4 -11 196.402 19.9739   5
   6  -4 -11 209.016 19.8246   3
  -6  -4  10 68.7653 10.9831   5
   6   4 -10 48.6094 6.35911   8
   6   4 -10 49.1164 10.2256   4
  -6  -4  10 59.7940 10.2711   4
   6  -4 -10 54.0620 10.0712   6
   6   4 -10 35.7647 8.68023   5
  -6   4   9 56.4278 10.7420   3
  -6  -4   9 63.2728 10.6637   5
   6   4  -9 65.7963 7.82868   8
   6   4  -9 85.6639 11.9471   4
  -6  -4   9 69.6997 11.1380   3
  -6  -4   9 55.5122 9.96039   4
   6  -4  -9 60.5886 10.4984   6
  -6   4   9 81.1252 12.1833   5
   6   4  -9 39.8469 9.72784   5
   6   4  -8 1609.96 61.7363   4
  -6  -4   8 1460.49 59.5064   4
   6  -4  -8 1737.29 64.7930   6
  -6   4   8 1663.38 63.3383   3
  -6   4   8 1606.55 62.8285   5
   6   4  -8 1566.51 64.0670   5
  -6   4   8 1565.43 61.4706   2
  -6  -4   8 1572.30 61.1316   5
  -6  -4   8 1673.60 61.6425   3
  -6   4   7 32.5518 7.98089   3
  -6  -4   7 18.9412 6.47555   5
   6  -4  -7 35.0491 7.86643   3
   6   4  -7 27.3348 7.01566   4
  -6  -4   7 31.8291 7.67690   3
  -6  -4   7 17.0356 5.66490   4
   6  -4  -7 34.9350 8.10979   6
  -6   4   7 26.1545 7.53597   5
   6   4  -7 24.2315 7.47391   5
   6   4  -6 1686.90 59.4723   4
  -6  -4   6 1482.72 57.2120   4
   6  -4  -6 1639.60 60.9776   6
  -6   4   6 1575.92 59.9870   5
   6   4  -6 1560.01 62.7683   5
   6  -4  -6 1549.26 60.7732   3
  -6  -4   6 1516.51 58.0280   3
   6   4  -5 13.1706 4.86648   8
   6  -4  -5 24.1432 6.73147   3
   6   4  -5 20.7576 6.24452   4
  -6  -4   5 11.9222 5.44501   3
   6  -4  -5 20.6294 5.86384   6
  -6   4   5 13.4032 5.26954   5
   6   4  -4 1150.12 46.9737   8
   6   4  -4 1218.82 46.0895   4
   6   4  -4 1100.64 47.1438   6
   6  -4  -4 1220.31 47.2032   6
  -6   4   4 1142.85 47.0156   2
  -6   4   4 1086.07 45.6361   5
   6  -4  -4 1144.86 49.1209   3
  -6  -4   4 1199.64 45.6549   3
   6   4  -3 18.4559 5.69730   8
   6  -4  -3 12.9916 5.46840   3
   6   4  -3 5.91533 4.76279   4
   6   4  -3 9.54747 5.40565   6
  -6  -4   3 9.38461 4.79782   3
   6  -4  -3 12.4785 4.81822   6
  -6   4   3 16.9167 5.86335   2
  -6   4   3 21.1879 5.87534   5
   6   4  -2 4251.73 134.210   8
   6   4  -2 4509.46 129.316   4
   6   4  -2 4256.03 132.279   6
   6  -4  -2 4392.44 129.545   6
  -6   4   2 4526.29 132.376   2
  -6   4   2 4392.84 130.056   5
   6  -4  -2 4370.47 134.733   3
   6   4  -2 4490.63 136.121   5
  -6  -4   2 4484.67 128.348   3
   6  -4  -1 41.7995 8.19121   3
   6   4  -1 53.1230 9.08459   8
  -6  -4   1 41.1866 6.54884   3
   6   4  -1 44.7615 8.37567   6
   6   4  -1 55.5858 7.79843   4
  -6   4   1 41.4044 6.08041   4
   6  -4  -1 50.4315 7.33971   6
   6   4   0 281.448 21.8206   8
   6   4   0 371.361 19.7775   4
  -6   4   0 325.631 16.5354   4
   6   4   0 324.033 20.7647   6
   6  -4   0 331.912 18.4245   6
   6  -4   0 328.349 22.1298   3
   6   4   0 340.097 23.1435   5
  -6  -4   0 327.033 17.5104   3
   6   4   1 2.67204 4.98824   5
   6  -4   1 5.00905 3.81771   3
   6   4   1-1.48972 4.30847   8
  -6  -4  -1 1.24552 2.54755   3
  -6   4  -1 1.25224 2.69977   4
   6   4   1 3.17139 3.38022   6
   6   4   1 4.14675 3.39231   4
   6  -4   1 5.23808 3.22639   6
  -6   4  -1 3.44209 2.96829   5
   6   4   2 1625.88 65.4150   8
  -6   4  -2 1667.47 53.2824   4
   6   4   2 1682.37 56.1908   4
   6   4   2 1653.73 58.9566   6
   6  -4   2 1619.72 53.4551   6
   6  -4   2 1630.55 61.9476   3
  -6   4  -2 1636.19 51.7795   5
   6   4   2 1744.88 64.3404   5
  -6  -4  -2 1658.17 51.1498   3
  -6   4  -3 38.2833 4.65533   5
   6  -4   3 41.7365 8.05638   3
   6   4   3 25.9745 7.63548   5
   6  -4   3 40.2430 7.64048   2
   6   4   3 44.2087 9.52233   8
   6  -4   3 43.3805 6.17782   7
  -6   4  -3 43.9557 6.18456   4
   6   4   3 42.3739 7.66081   6
   6  -4   3 29.8021 4.86601   6
   6   4   3 51.2502 7.44534   4
  -6  -4  -3 39.3814 4.31970   3
  -6   4  -4 1139.59 39.4099   4
   6  -4   4 1125.11 40.3463   7
   6  -4   4 1105.61 36.2584   6
   6   4   4 1049.23 42.0176   6
   6  -4   4 1128.45 46.6749   3
  -6  -4  -4 1015.94 29.7337   3
   6  -4   4 1098.10 43.2204   2
   6   4   4 1167.45 48.4069   5
   6  -4   5 66.2450 9.99822   3
   6   4   5 79.4958 11.4877   5
  -6   4  -5 71.4664 8.35871   4
   6  -4   5 56.4743 7.74090   7
   6  -4   5 72.2170 6.11617   6
   6   4   5 68.9908 9.08863   6
  -6  -4  -5 54.7114 4.79872   2
   6  -4   5 83.9819 9.88217   2
  -6   4  -6 44.5683 8.17198   1
   6  -4   6 44.8847 7.52844   7
  -6   4  -6 51.5914 7.40815   4
   6   4   6 48.0746 7.57823   6
   6  -4   6 59.4826 8.45077   2
  -6   4  -7 230.129 18.2651   1
  -6   4  -7 216.054 15.4738   4
   6   4   7 205.274 20.7573   8
   6  -4   7 168.505 14.5704   7
   6   4   7 194.669 14.7639   6
   6  -4   7 232.925 16.5313   2
   6   4   8 135.338 17.7957   8
  -6   4  -8 155.355 15.8372   1
   6   4   8 158.455 18.1380   7
   6   4   8 140.339 12.7245   6
   6  -4   8 166.695 14.0866   2
   6   4   9 6.17261 6.27203   8
  -6   4  -9-1.55036 4.48346   1
   6   4   9 1.97896 4.26562   7
   6  -4   9 0.86916 3.13493   4
   6   4   9-0.95253 3.67282   6
   6  -4   9-1.05489 3.80482   2
   6   4  10 2.11833 6.12599   8
  -6   4 -10-6.70151 6.25490   1
   6  -4  10 0.95232 4.00153   4
   6   4  10 0.96681 3.72794   6
   6  -4  10 5.35844 4.62006   2
   6   4  11 124.145 17.8406   8
  -6   4 -11 120.773 15.7564   1
   6  -4  11 130.769 12.5247   4
   6  -4  11 114.349 12.2801   2
   6  -4  12 127.962 14.4349   8
   6   4  12 152.692 19.3573   8
   6  -4  12 98.1903 11.7588   4
  -6   4 -12 111.875 15.6315   1
  -6  -4 -12 122.441 12.2779   6
   6  -4  12 124.679 12.5477   2
   6   4  13 9.23093 7.03806   8
  -6   4 -13 2.05451 5.24436   1
  -6  -4 -13 4.28252 4.26081   6
   6  -4  13 12.2033 5.52188   4
   6  -4  13 16.8519 6.77207   8
   6  -4  13 13.3809 5.58954   2
   6  -4  14 564.352 31.9276   8
   6   4  14 608.972 41.3330   8
   6  -4  14 530.699 30.7808   4
  -6  -4 -14 531.822 28.4836   6
   6  -4  14 600.698 30.0171   2
  -6   4 -14 640.167 40.2051   1
   6  -5 -15 1.94810 5.93894   3
  -6  -5  15 2.11943 5.40599   4
   6  -5 -15 4.32344 6.91168   6
   6   5 -15 5.72338 8.01659   5
   6  -5 -14 3.83714 6.40680   3
  -6  -5  14 8.03813 7.24819   4
   6  -5 -14-2.08735 5.32382   6
   6   5 -14 1.86127 6.21546   5
   6  -5 -13 24.2415 8.62592   3
  -6  -5  13 3.79742 6.60607   4
   6  -5 -13 18.0637 9.28364   6
   6   5 -13 9.11290 7.03407   5
   6  -5 -12 3.64508 4.96921   3
  -6  -5  12-1.79778 6.00331   4
   6  -5 -12-1.92338 4.90546   6
   6   5 -12-3.57017 6.43852   5
  -6  -5  11 507.012 32.3234   4
   6  -5 -11 549.136 34.4271   6
   6   5 -11 479.093 32.0741   5
   6  -5 -11 553.813 34.0975   3
   6   5 -10 11.1668 3.45229   8
   6  -5 -10 8.65310 6.24541   3
  -6  -5  10 3.22485 4.66747   4
   6  -5 -10 7.00014 7.35619   6
   6   5 -10 6.77843 5.89338   5
   6   5  -9 800.717 31.5737   8
  -6  -5   9 722.223 38.9862   4
   6  -5  -9 870.567 42.9912   6
   6   5  -9 812.970 42.1870   5
   6  -5  -9 727.942 40.3501   3
   6   5  -8 186.910 17.8278   4
  -6  -5   8 134.918 15.5031   4
   6  -5  -8 183.877 18.0711   6
  -6   5   8 193.003 18.3517   5
   6   5  -8 204.354 19.5301   5
  -6  -5   8 204.482 18.0175   3
   6   5  -7 323.658 22.9670   4
   6  -5  -7 345.478 24.6175   6
  -6   5   7 329.881 23.8051   5
   6   5  -7 374.738 26.6611   5
  -6  -5   7 353.710 23.3545   3
   6   5  -6-6.56326 5.36844   4
  -6  -5   6 2.42134 5.34808   3
   6  -5  -6 5.60299 5.05226   6
  -6   5   6 2.72425 4.73424   5
   6   5  -6-1.57814 5.04549   5
   6   5  -5 17.4296 5.49277   8
   6  -5  -5 25.5358 6.79598   3
   6   5  -5 11.3135 5.42463   4
   6   5  -5 5.60544 4.68587   6
  -6  -5   5 15.9433 5.91671   3
   6  -5  -5 7.92832 4.77225   6
  -6   5   5 7.73012 5.27469   5
   6   5  -5 1.52864 4.89332   5
   6  -5  -4 45.5955 9.03461   3
   6   5  -4 44.9144 8.31843   8
   6   5  -4 47.3212 8.89915   4
   6   5  -4 35.1416 8.41512   6
  -6  -5   4 55.4552 8.85230   3
   6  -5  -4 37.2234 7.92026   6
  -6   5   4 40.8711 8.02028   5
   6   5  -4 42.0865 8.99956   5
   6   5  -3 1203.06 50.5277   8
   6   5  -3 1253.85 49.1537   4
   6   5  -3 1184.27 50.2256   6
   6  -5  -3 1257.53 49.0346   6
  -6   5   3 1197.65 47.9880   5
   6  -5  -3 1213.91 51.9171   3
  -6  -5   3 1237.53 47.0928   3
   6   5  -2 87.2811 11.9725   8
   6   5  -2 86.2491 10.7968   4
   6   5  -2 97.3115 12.2763   6
   6  -5  -2 81.8968 10.1900   6
  -6   5   2 101.067 11.1074   5
   6  -5  -2 99.1673 12.6766   3
  -6  -5   2 81.9989 9.71385   3
   6  -5  -1 68.8680 10.6372   3
   6   5  -1 66.8119 10.9943   8
  -6   5   1 98.9026 9.84413   4
   6  -5  -1 79.6934 9.73126   6
   6   5  -1 80.8351 10.9428   6
   6   5  -1 64.6253 9.61851   4
  -6   5   1 77.9922 9.32670   5
  -6  -5   1 95.8431 9.88461   3
   6   5   0 628.033 30.0427   4
  -6   5   0 617.966 27.3351   4
   6   5   0 538.396 30.3893   6
   6  -5   0 633.271 29.1122   6
   6  -5   0 586.134 32.7277   3
   6   5   0 540.878 32.9588   8
   6   5   0 555.795 32.9184   5
  -6  -5   0 675.707 27.5891   3
   6   5   1 119.270 14.8123   8
   6  -5   1 117.357 8.20510   7
  -6   5  -1 134.234 11.4624   4
   6   5   1 131.740 12.6604   4
   6   5   1 137.657 13.5820   6
   6  -5   1 141.087 12.0737   6
   6  -5   1 127.042 14.2887   3
  -6   5  -1 144.475 11.2664   5
   6   5   1 139.734 15.4143   5
  -6  -5  -1 127.434 10.1042   3
   6   5   2 1.52475 5.09157   5
   6  -5   2 5.74608 4.59272   3
   6  -5   2-1.23511 4.12439   2
   6   5   2 3.41448 4.35418   8
   6  -5   2-2.96142 2.60602   7
  -6  -5  -2-0.58926 2.78277   3
  -6   5  -2-4.26122 3.67403   4
   6   5   2 1.19581 4.46448   6
   6  -5   2 3.39521 3.27289   6
   6   5   2-3.05954 4.81618   4
  -6   5  -2 4.54313 2.99841   5
   6   5   3 1620.30 69.6295   8
  -6   5  -3 1869.80 60.7087   4
   6  -5   3 1735.10 54.3227   7
   6   5   3 1865.52 62.5172   4
   6  -5   3 1798.67 58.2725   6
   6   5   3 1612.62 62.6679   6
   6  -5   3 1763.42 67.4263   3
  -6   5  -3 1762.84 51.8020   5
   6  -5   3 1761.55 64.4018   2
   6   5   3 1871.95 69.4939   5
  -6  -5  -3 1705.91 52.9290   3
   6  -5   4 6.17464 4.45644   2
   6  -5   4 8.88399 5.71100   3
   6   5   4 3.11341 5.61655   5
   6   5   4 14.8294 6.44423   8
  -6  -5  -4 5.43021 2.06658   3
   6  -5   4 3.67342 2.70826   7
  -6   5  -4 6.51283 4.30362   4
   6  -5   4 7.86207 3.71298   6
   6   5   4 3.48600 3.88284   6
  -6  -5  -4 5.17512 2.77512   2
   6   5   5 871.852 47.6857   8
  -6   5  -5 972.102 39.9297   1
  -6   5  -5 1012.13 39.6674   4
   6  -5   5 975.753 34.9116   6
   6   5   5 1004.05 42.0159   6
   6  -5   5 982.395 45.4638   3
  -6  -5  -5 909.260 32.3590   2
   6  -5   5 994.167 42.8202   2
   6   5   5 967.768 46.2765   5
  -6   5  -6 337.309 20.4713   4
  -6   5  -6 281.581 19.7741   1
   6   5   6 281.949 20.0311   6
   6  -5   6 320.317 21.6485   2
  -6   5  -7 432.575 24.6749   4
  -6   5  -7 382.475 24.8613   1
   6   5   7 444.531 31.0133   7
   6   5   7 380.834 23.2594   6
   6  -5   7 409.614 25.0401   2
   6   5   8-2.12736 6.80170   8
   6   5   8 5.92404 6.86353   7
  -6   5  -8 8.56959 5.33269   1
  -6   5  -8 1.20030 5.04386   4
   6   5   8 1.12938 4.35522   6
   6  -5   8 11.2881 5.54087   2
  -6   5  -9 494.795 28.3440   4
   6   5   9 439.919 33.9182   8
  -6   5  -9 461.305 29.4977   1
   6   5   9 413.349 31.8841   7
   6   5   9 486.431 26.5947   6
   6  -5   9 492.360 27.9700   2
   6   5  10 9.07060 7.90131   8
   6   5  10 19.5365 8.12348   7
  -6   5 -10 21.9494 7.65443   1
   6   5  10 29.9603 6.87021   6
   6  -5  10 25.6348 7.22610   2
   6   5  11 918.690 52.4735   8
  -6   5 -11 901.197 46.4688   1
   6   5  11 840.320 49.2798   7
  -6  -5 -11 902.233 41.6033   6
   6   5  11 921.057 39.8661   6
   6  -5  11 889.003 41.2386   2
   6   5  12 31.1872 10.6296   8
   6   5  12 26.3020 9.81375   7
  -6   5 -12 46.6355 10.7919   1
  -6  -5 -12 28.7960 7.71916   6
   6  -5  12 35.2082 7.62939   4
   6  -5  12 30.3047 7.45185   2
   6  -5  13 5.42061 5.05938   8
   6   5  13 7.33790 7.45610   8
   6   5  13-2.46159 6.27808   7
  -6   5 -13 8.27990 7.46605   1
  -6  -5 -13 1.30567 4.53806   6
   6  -5  13 3.87811 5.28687   4
   6  -5  13-3.98632 4.43718   2
   6  -6 -13-5.85137 7.28195   3
  -6  -6  13 8.08673 7.02669   4
   6  -6 -13-2.11966 6.46150   6
   6   6 -13 1.86771 6.73660   5
  -6  -6  12 310.946 26.9899   4
   6  -6 -12 407.640 30.8468   6
   6   6 -12 406.879 29.4998   5
   6  -6 -12 384.453 28.8995   3
   6  -6 -11 41.2584 10.7454   3
   6  -6 -11 54.7574 11.8184   6
  -6  -6  11 36.9123 10.5764   4
   6   6 -11 33.8929 9.78250   5
  -6  -6  10 357.189 28.0100   4
   6   6 -10 398.221 29.2286   5
   6  -6 -10 439.837 30.7311   3
   6  -6  -9 10.6719 7.07730   3
   6  -6  -9 12.4748 6.43656   6
   6   6  -9 17.5317 7.93393   5
   6  -6  -8 1159.24 44.3833   7
   6  -6  -8 1302.64 55.6634   6
   6   6  -8 1191.28 54.7058   5
   6  -6  -8 1128.09 53.1105   3
   6   6  -7 8.91047 4.57720   8
   6  -6  -7-1.66511 6.42053   3
   6  -6  -7 1.56614 3.11259   7
   6  -6  -7-1.60474 4.89193   6
   6   6  -7 1.70696 5.45748   5
   6   6  -6 980.992 42.4467   8
   6  -6  -6 1012.92 37.1056   7
   6  -6  -6 1073.02 48.2635   6
  -6   6   6 1040.06 46.9969   5
   6   6  -6 1114.83 50.7743   5
  -6  -6   6 1111.50 46.2719   3
   6   6  -5 1.22242 4.40929   8
   6   6  -5 1.44867 5.40868   4
  -6  -6   5-1.18193 6.02898   3
   6  -6  -5 4.37453 4.86946   6
  -6   6   5 2.69937 4.86830   5
   6   6  -5 4.93117 5.71314   5
   6   6  -4 113.801 13.0353   8
   6   6  -4 139.746 14.8502   4
   6  -6  -4 118.607 13.7754   6
   6   6  -4 119.195 15.4671   5
  -6   6   4 86.0942 12.0778   5
  -6  -6   4 135.584 13.7067   3
   6  -6  -3 9.62812 5.57970   3
   6   6  -3 9.92443 5.46920   8
   6  -6  -3 6.48128 2.19620   7
   6   6  -3 7.96019 5.11820   4
   6  -6  -3 4.00955 4.46601   6
  -6  -6   3 3.11866 4.25470   3
  -6   6   3 5.91575 4.27057   5
   6   6  -3 9.65869 6.40022   5
   6   6  -2 1394.25 59.6873   8
   6   6  -2 1542.19 58.6244   4
  -6   6   2 1611.45 56.1954   4
   6  -6  -2 1569.17 58.4997   6
  -6   6   2 1479.34 55.4033   5
   6  -6  -2 1481.99 61.7541   3
   6   6  -2 1422.80 61.2933   5
  -6  -6   2 1493.60 54.1373   3
   6  -6  -1 62.3715 10.7992   3
   6   6  -1 65.3210 11.0831   8
   6   6  -1 58.6374 10.1094   4
   6  -6  -1 60.2219 9.20723   6
  -6  -6   1 65.5510 8.74564   3
  -6   6   1 72.2512 9.69330   4
  -6   6   1 55.7858 8.32463   5
   6  -6   0 38.3759 8.78378   3
   6   6   0 50.2924 10.1477   8
   6   6   0 57.2793 9.51090   4
  -6   6   0 47.7325 8.20115   4
   6  -6   0 33.2699 7.16042   6
  -6  -6   0 35.9918 6.39065   3
   6  -6   1 86.6367 12.7190   3
   6   6   1 84.4448 13.2659   8
  -6   6  -1 91.0596 10.7342   4
   6   6   1 113.170 12.7197   4
   6  -6   1 89.1377 10.6212   6
   6  -6   1 107.403 13.2628   2
  -6  -6  -1 114.436 10.1965   3
   6   6   2 431.988 30.6212   8
  -6   6  -2 437.394 24.7004   4
   6   6   2 483.463 26.7242   4
   6  -6   2 478.184 25.0669   6
   6  -6   2 429.092 29.2694   3
  -6   6  -2 425.188 19.9481   5
   6  -6   2 439.528 28.0254   2
  -6  -6  -2 463.091 21.2176   3
   6  -6   3-1.64859 4.76761   3
   6  -6   3-1.42670 4.34910   2
   6   6   3-3.41008 5.69363   5
   6   6   3 7.66356 6.39770   8
  -6  -6  -3 1.11962 2.53123   3
  -6   6  -3 1.08801 3.92433   4
   6  -6   3 2.89458 3.94611   6
   6   6   3-1.21375 4.68012   4
  -6   6  -3 1.83067 2.31452   5
   6  -6   4 1.43898 3.92395   2
   6  -6   4-1.67115 5.09463   3
   6   6   4 10.3971 6.46975   5
  -6   6  -4 0.85638 2.47743   1
   6   6   4 1.99167 5.07999   8
  -6  -6  -4 2.11015 2.33795   3
  -6   6  -4 4.56700 4.40291   4
   6  -6   4 6.33241 3.99669   6
   6   6   4 1.22178 4.85643   4
  -6  -6  -4 4.46644 3.28903   2
   6   6   5 37.2565 9.84525   5
   6   6   5 24.8057 7.99648   8
  -6   6  -5 31.2387 6.40215   1
  -6   6  -5 18.7571 6.62066   4
   6  -6   5 28.4956 5.74879   6
  -6  -6  -5 21.0792 2.14388   3
  -6  -6  -5 29.2526 2.45509   3
   6  -6   5 34.9679 8.09374   2
   6  -6   5 20.1635 6.90198   3
   6   6   6 576.259 38.5045   8
  -6   6  -6 605.786 31.1168   4
  -6   6  -6 601.965 30.3541   1
   6  -6   6 557.333 32.4742   2
   6   6   7 84.2493 14.7685   8
   6   6   7 82.5820 13.5299   7
  -6   6  -7 65.8364 10.2023   1
  -6   6  -7 72.4145 10.8819   4
   6  -6   7 67.8818 11.1181   2
   6   6   8 79.8348 13.7136   7
  -6   6  -8 98.6911 13.0552   1
  -6   6  -8 84.5480 12.3960   4
   6  -6   8 88.9375 12.6144   2
   6   6   9 4.29340 5.85325   7
  -6   6  -9 7.82572 5.84360   1
  -6   6  -9-1.44732 4.62758   4
   6  -6   9 1.47285 4.91857   2
   6   6  10-2.40429 8.02859   8
   6   6  10-2.24944 5.73704   7
  -6   6 -10 4.54127 5.83686   4
  -6   6 -10 1.70085 4.33793   1
   6  -6  10 2.97792 4.30596   2
   6   6  11 4.91715 6.70367   8
   6   6  11 7.05147 5.99512   7
  -6   6 -11-1.82920 7.27055   1
  -6  -6 -11 6.15109 5.92985   6
   6  -6  11 1.50384 6.64351   2
   6  -7 -10 77.2333 13.1639   3
   6  -7 -10 94.2987 14.8489   6
   6   7 -10 55.9084 12.5876   5
   6  -7  -9 56.0869 11.3381   3
   6  -7  -9 44.4339 10.2921   6
   6   7  -9 64.5464 12.2645   5
   6  -7  -8-1.82346 5.55963   3
   6  -7  -8 11.1191 6.18929   6
   6   7  -8 5.49800 6.37064   5
   6  -7  -7 404.810 28.7097   6
   6   7  -7 330.460 26.9483   5
   6  -7  -7 416.390 29.2951   3
   6  -7  -6 5.41022 5.49795   3
   6  -7  -6 1.70976 5.21250   6
   6   7  -6 3.58093 5.17845   5
   6  -7  -5 26.0822 8.20109   6
  -6   7   5 34.1148 8.48133   5
   6   7  -5 30.2422 8.94349   5
   6  -7  -4 143.639 16.1273   6
  -6   7   4 111.958 13.5131   5
   6   7  -4 143.791 17.7615   5
  -6   7   3 365.571 23.7596   4
   6  -7  -3 349.087 24.5147   6
  -6   7   3 335.737 22.6907   5
   6   7  -3 349.426 26.9099   5
   6  -7  -2 26.5462 8.21644   3
   6  -7  -2 31.7632 7.90918   6
  -6   7   2 39.3704 8.50335   4
  -6   7   2 22.9758 6.68725   5
   6   7  -2 31.6887 8.51884   5
   6   7  -1 17.7622 8.21358   5
   6  -7  -1 3.53197 4.81853   3
   6   7  -1 6.76204 6.10019   8
   6  -7  -1 5.52917 4.42323   6
  -6   7   1 10.9521 5.74973   4
  -6   7   1 7.27933 4.59746   5
   6   7   0 52.3527 11.2062   5
   6  -7   0 51.3169 10.8538   3
   6   7   0 33.9290 9.34610   8
   6  -7   0 44.7685 8.78276   6
  -6   7   0 40.5170 8.36992   4
  -6   7   0 57.7893 7.99795   5
   6   7   1 58.9841 10.9920   5
   6  -7   1 42.6896 9.89305   3
   6  -7   1 42.1534 9.80368   2
   6   7   1 20.6095 8.12965   8
  -6   7  -1 33.8173 8.15172   4
   6  -7   1 51.8763 8.92734   6
  -6  -7  -1 28.7071 5.66653   3
   6  -7   2 8.98899 6.25003   3
   6  -7   2 8.08626 5.83482   2
   6   7   2 1.95677 5.96651   8
  -6   7  -2 12.6509 6.45451   4
   6  -7   2 1.21213 4.05005   6
  -6  -7  -2 8.23777 4.14938   3
  -6   7  -2 4.85821 3.10078   5
   6   7   3 744.471 43.1467   8
  -6   7  -3 707.013 36.0412   4
   6  -7   3 815.940 35.7013   6
  -6  -7  -3 711.472 32.0636   2
   6  -7   3 729.125 41.0801   3
  -6   7  -3 685.242 23.8714   5
   6  -7   3 725.905 39.2720   2
  -6  -7  -3 724.767 28.6241   3
   6  -7   4 83.4392 12.9184   2
   6  -7   4 42.7748 10.4301   3
  -6   7  -4 59.0779 7.93582   1
   6   7   4 59.2404 13.1630   8
  -6   7  -4 75.5448 11.8195   4
   6  -7   4 66.8454 9.35580   6
  -6  -7  -4 59.7131 8.39183   2
  -6  -7  -4 73.8596 7.14156   3
   6   7   5 1256.42 61.8368   8
  -6   7  -5 1391.71 54.7973   4
  -6   7  -5 1250.98 47.7610   1
   6  -7   5 1342.14 49.3373   6
   6  -7   5 1365.26 60.4200   3
  -6  -7  -5 1195.76 37.9731   3
  -6  -7  -5 1270.17 46.1709   2
   6  -7   5 1439.96 58.7023   2
   6   7   5 1484.97 62.7786   5
  -6  -7  -5 1257.24 38.6630   3
  -6  -7  -6 10.8259 4.60211   2
   6   7   6 13.7301 8.02585   7
  -6   7  -6 18.0133 6.23955   1
  -6   7  -6 1.41116 7.32991   4
   6  -7   6 14.9380 7.50881   2
   6  -7   6 1.89380 6.58706   3
   6   7   7 185.127 20.6046   7
  -6   7  -7 177.231 16.0344   1
   6  -7   7 130.797 16.0900   2
   6   7   8-2.12319 5.41506   7
  -6   7  -8 2.83183 4.52692   1
   6  -7   8 1.65485 5.04459   2
   6  -8  -6 573.768 35.6472   6
   6  -8  -6 473.796 33.9450   3
   6   8  -6 600.568 37.1053   5
   6  -8  -5 32.6400 9.29251   3
   6  -8  -5 27.0594 8.56083   6
   6   8  -5 43.9698 11.0892   5
   6  -8  -4 297.952 23.9812   6
   6  -8  -4 241.122 23.0509   3
   6   8  -4 249.427 23.9065   5
   6  -8  -3 21.7976 7.59365   6
  -6   8   3 16.9525 6.54629   5
   6   8  -3 11.4253 8.42296   5
   6  -8  -2 1218.23 53.1833   6
   6   8  -2 1233.82 56.8084   5
   6   8  -1 48.3350 11.8280   5
   6  -8  -1 46.5602 10.0839   6
  -6   8   1 30.3967 7.39080   5
   6   8   0 104.073 15.8281   5
   6  -8   0 104.549 15.7233   3
   6  -8   0 102.600 13.5079   6
  -6   8   0 101.724 10.8511   5
   6   8   1 10.0269 7.23364   5
   6  -8   1 1.94682 6.50157   3
   6  -8   1-1.80232 6.01911   2
   6  -8   1 5.81621 4.85632   6
   6  -8   2 277.959 21.3487   6
  -6  -8  -2 277.934 20.0402   2
   6  -8   2 265.171 24.5967   3
   6  -8   2 277.650 23.8619   2
   6   8   2 350.022 28.0148   5
   6  -8   3 127.829 17.5845   3
   6  -8   3 175.122 16.2927   6
  -6  -8  -3 153.313 14.2170   2
   6  -8   3 164.313 18.7789   2
   6   8   3 178.907 20.5209   5
   6  -8   4 189.379 17.0392   6
   6  -8   4 167.162 19.9139   3
  -6  -8  -4 180.337 15.2370   2
   6  -8   4 174.525 19.3691   2
   6   8   4 216.630 22.6684   5
  -7   0  17 6.32199 7.32479   4
   7   0 -17 1.93166 5.26740   1
   7   0 -16-1.86404 5.39067   1
  -7   0  16 5.98333 6.93197   4
   7   0 -15 1759.20 72.0305   1
  -7   0  15 1798.06 73.3516   4
  -7   0  14 1.75885 5.08658   4
  -7   0  13 332.299 24.7922   4
  -7   0  12 1.51265 3.85826   4
   7   0 -12 3.76884 6.29280   5
  -7   0  11 264.149 20.6456   4
   7   0 -11 305.589 24.9003   5
  -7   0  10 6.27617 4.52761   4
   7   0 -10 1.51885 4.14137   3
   7   0 -10-1.73997 4.74424   5
  -7   0  10 1.53856 5.34760   5
  -7   0   9 350.579 21.9912   4
   7   0  -9 343.511 25.8869   5
  -7   0   9 373.164 25.4493   5
   7   0  -9 389.714 25.9327   3
   7   0  -8-1.40583 4.69449   3
   7   0  -8-1.60506 4.89278   5
  -7   0   8 1.39997 5.04948   5
   7   0  -7 3408.46 111.057   5
  -7   0   7 3355.18 106.161   3
   7   0  -7 3247.78 107.284   3
  -7   0   6-1.18008 5.21299   3
  -7   0   6 3.71383 3.35841   4
   7   0  -6-1.27189 4.58755   3
   7   0  -6 4.42526 4.92576   5
  -7   0   5 92.8451 8.77554   4
   7   0  -5 97.3243 13.7102   5
  -7   0   5 77.0298 11.1668   3
  -7   0   4-1.05036 3.92150   3
   7   0  -4-4.57210 3.65443   3
  -7   0   4 2.29879 2.03107   4
   7   0  -4 1.34154 4.28909   5
  -7   0   4 1.13775 3.63756   5
  -7   0   3 1376.43 40.5253   4
   7   0  -3 1406.56 54.9788   5
  -7   0   3 1404.39 50.9924   3
  -7   0   3 1391.34 51.9941   5
   7   0  -3 1306.09 51.3246   3
  -7   0   2-1.03042 3.58147   5
  -7   0   2 0.93154 3.59200   3
   7   0  -2 5.06835 4.25936   3
   7   0  -2 1.24523 3.39524   5
  -7   0   1 3716.84 109.192   3
   7   0  -1 3680.96 114.420   5
  -7   0   1 3618.40 110.729   5
   7   0  -1 3645.72 110.323   3
  -7   0   0-0.81272 2.82480   3
  -7   0   0 0.93384 3.36824   5
   7   0   0-0.89409 3.33805   3
   7   0   0-2.29733 4.69779   5
  -7   0  -1 117.161 10.1569   3
   7   0   1 104.261 11.4596   5
  -7   0  -1 93.3009 7.86495   2
   7   0   1 98.7075 9.88677   3
   7   0   2 0.78946 3.04407   3
  -7   0  -2-0.47556 2.24581   2
   7   0   2 3.22430 4.01255   5
   7   0   3 1193.57 48.7051   1
   7   0   3 1200.81 39.0163   6
   7   0   3 1210.60 46.7640   5
   7   0   3 1210.40 42.7170   3
   7   0   4 2.05340 2.63937   3
   7   0   4-1.25556 3.42342   1
   7   0   4 1.56003 1.91723   6
   7   0   4 1.00219 3.61485   5
   7   0   5 246.310 19.4638   1
   7   0   5 245.882 10.4152   6
   7   0   5 249.885 17.1257   5
   7   0   5 224.477 13.5879   3
   7   0   6-0.59590 2.36845   3
   7   0   6-1.26314 1.90104   4
   7   0   6 0.93650 0.94773   6
   7   0   6 4.17920 4.84177   1
   7   0   6-0.96467 3.60153   5
   7   0   7 2493.68 91.7322   8
   7   0   7 2487.36 73.5352   4
   7   0   7 2561.61 89.4361   1
   7   0   7 2562.44 75.4172   3
   7   0   7 2752.50 82.7253   5
   7   0   8-1.93031 4.16076   5
   7   0   8-5.13439 5.47172   8
   7   0   8 2.20885 2.49678   3
   7   0   8 5.15848 5.74184   7
   7   0   8-1.19682 2.99739   4
   7   0   8-1.55145 4.48662   1
   7   0   9 1022.53 49.9093   8
   7   0   9 992.252 37.7431   4
   7   0   9 1079.70 51.5400   7
   7   0   9 1040.86 48.7236   1
   7   0   9 1001.90 34.7088   3
   7   0   9 1091.16 41.7167   5
   7   0  10-1.99465 4.19059   5
   7   0  10 3.60247 4.59388   8
   7   0  10-0.51198 2.15128   3
   7   0  10 1.92610 5.87135   7
   7   0  10-0.85137 3.07076   4
   7   0  11 14.2976 5.48470   5
   7   0  11 7.43197 2.53488   3
   7   0  11 1.86689 5.09384   8
   7   0  11 10.1861 6.51618   7
   7   0  11 8.71767 4.07473   4
   7   0  12 3.13484 4.15322   5
   7   0  12 0.48085 2.31771   3
   7   0  12 1.91719 5.54433   8
   7   0  12-2.15449 5.87424   7
   7   0  12 1.08168 3.90149   4
   7   0  13 406.193 30.3024   8
   7   0  13 398.146 24.4973   4
   7   0  13 422.252 32.7525   7
   7   0  13 446.864 24.3460   5
   7   0  14 3.21575 4.73515   5
   7   0  14 4.00109 6.39598   8
   7   0  14-2.32926 5.94060   7
   7   0  14-1.28549 4.79930   4
   7   0  15 7.56365 4.99794   5
   7   0  15 6.11787 6.81169   8
   7   0  15 5.52708 4.80529   4
  -7   1  17 19.5122 7.85517   4
  -7  -1  17 49.0691 12.0149   4
   7  -1 -17 44.5371 9.65711   1
   7   1 -17 19.3612 8.32836   1
  -7   1  16 162.471 19.4421   4
   7   1 -16 162.145 19.6644   1
  -7  -1  16 163.594 19.1084   4
   7  -1 -16 150.188 16.7746   1
  -7   1  15 21.2866 8.57588   4
  -7  -1  15 36.1105 9.54436   4
   7  -1 -15 21.7163 7.35733   1
   7   1 -15 33.2602 9.42390   5
  -7   1  14 627.159 37.6059   4
  -7  -1  14 696.011 39.0354   4
   7   1 -14 636.250 39.7342   5
   7  -1 -14 634.176 34.8801   1
  -7   1  13-1.68617 6.29516   4
  -7  -1  13 4.97522 5.53787   4
   7  -1 -13-1.72410 5.51213   3
   7  -1 -13 5.48591 5.12030   1
  -7   1  12 2133.12 78.4487   4
  -7  -1  12 2082.60 77.6407   4
   7  -1 -12 2101.69 80.1845   3
  -7   1  11-2.86227 4.57608   4
   7  -1 -11 1.63464 3.86045   3
  -7   1  10 836.327 39.0560   4
  -7  -1  10 805.896 38.6853   4
   7  -1 -10 901.144 45.0789   5
   7   1 -10 779.715 42.2307   5
  -7   1  10 883.939 41.3783   3
  -7  -1  10 822.444 41.2094   5
   7  -1 -10 768.617 40.4894   3
  -7   1   9 145.374 13.7731   4
  -7  -1   9 153.425 14.4381   4
   7  -1  -9 133.314 16.2737   5
   7   1  -9 150.059 16.7188   5
  -7  -1   9 126.707 14.8181   5
  -7  -1   9 158.470 15.7692   3
   7  -1  -9 139.272 15.1715   3
  -7  -1   8 3.97448 5.41846   3
   7  -1  -8 8.61375 4.98995   3
  -7  -1   8-1.03309 3.30329   4
   7  -1  -8 1.61362 4.91909   5
   7   1  -8 6.46109 5.16445   5
  -7  -1   8 1.37911 4.79353   5
  -7  -1   7 31.2644 7.57355   3
   7  -1  -7 34.4816 8.01996   3
   7  -1  -7 29.2492 8.03388   5
   7   1  -7 37.1164 8.60360   5
  -7   1   7 30.0748 8.05810   5
  -7  -1   7 32.7806 8.23298   5
  -7   1   6 4277.35 125.645   4
   7  -1  -6 4577.71 138.451   5
   7   1  -6 4468.17 137.887   5
  -7   1   6 4404.50 133.378   3
  -7   1   6 4417.99 134.733   5
  -7  -1   6 4380.59 133.852   5
  -7  -1   6 4543.40 133.552   3
   7  -1  -6 4326.28 134.492   3
   7   1  -6 4257.25 132.874   3
  -7   1   5 166.092 11.3777   4
  -7  -1   5 189.716 12.4215   4
   7  -1  -5 178.004 16.9683   5
   7   1  -5 171.083 16.7944   5
  -7   1   5 187.998 15.7357   3
  -7   1   5 187.061 16.1772   5
  -7  -1   5 191.294 15.4964   3
   7  -1  -5 179.859 15.9169   3
   7   1  -5 190.495 16.0062   3
  -7   1   4 466.235 18.8538   4
  -7  -1   4 452.668 19.6938   4
   7  -1  -4 500.111 28.3696   5
  -7   1   4 511.354 26.6628   3
   7   1  -4 467.351 28.2167   5
  -7   1   4 484.059 26.5043   5
  -7  -1   4 451.279 24.6938   3
   7  -1  -4 483.332 26.6125   3
   7   1  -4 425.343 25.0783   3
  -7   1   3 7.31914 4.39428   3
  -7  -1   3 4.79953 3.81620   3
   7  -1  -3 3.37801 4.20477   3
  -7   1   3 2.71787 1.57016   4
   7   1  -3 4.15875 4.36948   3
   7  -1  -3 2.55603 4.08691   5
   7   1  -3 1.33367 4.26481   5
  -7   1   3 6.53214 4.19877   5
  -7   1   2 2117.97 70.3087   3
   7  -1  -2 2070.40 73.0696   5
   7   1  -2 2112.83 74.5943   5
  -7  -1   2 2166.11 69.0789   3
  -7   1   2 2069.70 70.0971   5
  -7  -1   2 2116.41 71.2760   5
   7  -1  -2 1993.91 70.6976   3
   7   1  -2 2115.47 69.8149   3
  -7   1   1 141.576 12.7188   3
   7  -1  -1 147.651 14.0017   5
  -7  -1   1 171.408 12.7767   3
   7   1  -1 140.555 14.2981   5
  -7   1   1 129.568 12.1510   5
  -7   1   1 153.998 11.7158   2
   7  -1  -1 164.884 13.8137   3
  -7  -1   1 149.881 13.3125   5
   7   1  -1 152.899 12.5792   3
  -7   1   0 3776.59 110.690   3
  -7  -1   0 3680.48 107.726   3
   7  -1   0 3579.97 112.952   5
  -7   1   0 3755.46 107.368   2
   7   1   0 3839.13 115.851   5
   7  -1   0 3558.46 110.650   3
  -7   1   0 3741.85 110.215   5
   7   1   0 3642.55 109.144   3
  -7   1  -1-1.67225 3.69353   5
  -7  -1  -1 0.67492 2.90955   3
   7  -1   1 0.95421 3.18637   1
   7  -1   1 2.70027 2.87768   3
   7   1   1 0.18107 1.15780   4
   7   1   1-3.03501 3.43061   3
  -7   1  -1-0.65073 2.80528   2
   7  -1   1 1.05524 3.93965   5
   7   1   1-2.31034 3.85741   5
  -7  -1  -2 11.0706 4.15440   3
  -7  -1  -2 2.78670 2.72016   2
   7  -1   2 12.8913 4.76285   3
   7  -1   2 8.20412 6.63416   1
   7   1   2 10.0961 1.72141   4
   7   1   2 0.69222 3.20573   3
   7   1   2 5.35601 4.08610   6
  -7   1  -2 8.45299 5.17663   2
   7  -1   2 15.1595 6.00846   5
   7   1   2 7.92808 5.67616   5
   7   1   3 226.602 9.23365   4
   7  -1   3 274.784 18.6160   1
   7   1   3 242.083 13.8203   6
  -7  -1  -3 258.320 10.7081   2
   7  -1   3 282.793 17.8416   5
   7  -1   3 257.807 16.2448   3
   7   1   3 264.071 18.4571   5
   7   1   3 268.649 14.5578   3
   7  -1   4 23.6468 5.00217   3
   7   1   4 18.8651 6.38771   1
   7  -1   4 26.5204 3.10954   6
   7   1   4 22.9407 4.38382   3
   7   1   4 15.6457 3.75530   6
   7   1   4 19.2553 2.76950   4
   7  -1   4 23.2212 5.94834   1
   7  -1   4 24.2575 5.99147   5
   7   1   4 26.1958 6.59414   5
   7   1   5 9.77011 4.69586   5
   7   1   5 9.74022 5.20452   8
   7  -1   5 16.7066 4.21822   3
   7   1   5 11.3004 5.46033   1
   7   1   5 16.6898 3.46656   3
   7   1   5 21.1035 3.63172   6
   7  -1   5 12.2994 4.75827   1
   7  -1   5 16.2781 5.02279   5
   7   1   6 15.3465 5.79489   5
   7  -1   6 10.1569 3.77681   3
   7   1   6 13.3761 5.59078   8
   7   1   6 10.9202 2.84882   3
   7   1   6 19.4579 6.77363   1
   7  -1   6 11.5623 2.01297   4
   7   1   6 12.0813 2.79726   6
   7  -1   6 13.2172 5.84577   1
   7  -1   6 5.23680 3.77372   5
   7   1   7 4.46555 4.93171   5
   7  -1   7 0.77697 3.17785   3
   7   1   7-1.71585 4.05167   8
   7  -1   7 1.53869 3.92446   7
   7   1   7 2.42061 2.21144   3
   7  -1   7 2.47734 2.28883   4
   7   1   7-1.55593 3.96843   1
   7  -1   7-1.39249 4.65004   1
   7   1   7 2.43935 1.80937   6
   7  -1   7 2.53457 3.25786   5
   7   1   8 585.328 35.7618   8
   7  -1   8 588.170 22.5979   4
   7   1   8 613.056 36.7511   7
   7  -1   8 535.873 33.0806   7
   7   1   8 632.656 35.4167   1
   7  -1   8 635.630 33.9925   1
   7  -1   8 568.164 25.6065   3
   7  -1   8 562.839 26.2667   5
   7   1   8 592.514 29.9223   5
   7   1   8 560.792 19.2181   3
   7   1   9 90.6817 9.66780   4
   7  -1   9 85.0739 13.1836   8
   7   1   9 87.0355 13.7531   8
   7  -1   9 90.0198 8.26078   4
   7   1   9 72.2376 12.8651   7
   7  -1   9 107.222 14.4907   7
   7  -1   9 117.169 14.8654   1
   7  -1   9 84.0474 8.59887   3
   7  -1   9 84.7450 9.24520   5
   7   1   9 96.5017 11.5088   5
   7   1   9 72.4886 4.13963   3
   7  -1  10 200.784 19.9708   8
   7   1  10 215.699 21.4649   8
   7   1  10 196.871 15.4811   4
   7  -1  10 228.641 14.7810   4
   7   1  10 233.245 22.9410   7
   7  -1  10 250.130 22.6947   7
   7  -1  10 248.792 15.1093   3
   7  -1  10 277.458 16.1909   5
   7   1  10 203.741 17.0093   5
   7   1  11 4.80088 4.32966   5
   7  -1  11 8.80426 6.12053   8
   7   1  11 1.95627 5.33431   8
   7   1  11 14.9053 6.80810   7
   7  -1  11 1.94750 5.63247   7
   7   1  11 2.23722 3.73613   4
   7  -1  11 6.20934 3.34692   3
   7  -1  11-0.89422 3.85571   4
   7  -1  11 1.62305 3.22635   5
   7  -1  12 2.34570 3.61474   3
   7   1  12 1.22468 3.73324   5
   7  -1  12 1.81472 3.91162   8
   7   1  12 6.04322 6.14056   8
   7   1  12-2.23703 5.70534   7
   7  -1  12-2.00691 5.47186   7
   7   1  12 1.22716 3.54883   4
   7  -1  12-1.01386 3.90930   4
   7  -1  12-0.81181 2.92808   5
   7   1  13 92.5226 11.7838   5
   7  -1  13 111.634 15.3890   8
   7  -1  13 103.428 11.7442   4
   7   1  13 80.9619 14.4724   8
   7   1  13 102.846 16.4077   7
   7  -1  13 65.8173 13.3024   7
   7   1  13 80.6469 11.2708   4
   7  -1  13 78.0333 8.73080   3
   7  -1  13 102.776 9.89724   5
   7  -1  14 97.4819 14.8152   8
   7   1  14 108.181 16.4509   8
   7   1  14 122.884 18.1910   7
   7   1  14 99.0627 12.9334   4
   7  -1  14 101.049 12.3520   4
   7   1  14 112.365 13.1287   5
   7   1  15-2.60283 5.88427   5
   7  -1  15 5.75354 6.40425   8
   7   1  15 2.16470 6.26012   8
   7   1  15 2.52354 7.29784   7
   7   1  15 6.05138 5.83336   4
   7  -1  15-1.33598 5.30994   4
   7   2 -17 2.30647 5.88310   1
   7  -2 -17 1.48908 4.30718   1
  -7   2  17 6.67707 6.06899   4
  -7  -2  17 6.57282 7.31667   4
  -7   2  16 23.2983 8.67386   4
   7  -2 -16 18.3943 6.55675   1
  -7  -2  16 14.5529 7.77476   4
   7   2 -16 14.8549 8.19496   5
  -7   2  15 743.149 43.1430   4
  -7  -2  15 762.050 43.4803   4
   7   2 -15 796.525 45.0391   5
   7  -2 -15 717.345 36.4536   1
   7  -2 -15 826.748 44.0964   3
  -7   2  14-1.87131 6.24881   4
  -7  -2  14-1.82858 6.10612   4
   7  -2 -14 1.23477 3.76397   1
   7   2 -14 2.00148 5.45704   5
   7  -2 -13 1.14998 3.50689   1
  -7   2  13 13.9618 6.51637   4
  -7  -2  13 3.38418 5.15897   4
   7   2 -13 3.86944 5.89845   5
  -7   2  12 85.7923 12.9082   4
  -7  -2  12 64.0089 10.8041   4
   7   2 -12 61.8803 12.2686   5
   7  -2 -12 81.3575 10.1776   1
   7  -2 -11 673.865 30.7659   1
  -7   2  11 651.936 35.4552   4
  -7  -2  11 632.566 34.3347   4
   7  -2 -11 596.447 35.8146   3
  -7   2  10 66.9585 10.2853   4
  -7  -2  10 46.8963 9.77115   3
   7  -2 -10 42.0194 9.43661   3
  -7  -2  10 52.8428 9.18607   4
  -7  -2  10 47.0050 9.89522   5
  -7  -2   9 216.936 17.2301   4
  -7   2   9 214.054 18.7220   3
  -7   2   9 200.696 18.7429   5
  -7  -2   9 201.846 18.5029   5
  -7  -2   9 209.980 18.0940   3
   7  -2  -9 177.794 17.5915   3
  -7  -2   8 141.725 13.0738   4
  -7   2   8 150.293 15.3129   3
  -7   2   8 148.568 15.3827   5
  -7  -2   8 144.763 14.8861   5
  -7  -2   8 139.664 14.6885   3
   7  -2  -8 119.297 14.2124   3
   7   2  -8 105.290 14.3856   5
  -7  -2   7 5.28054 4.93283   5
  -7  -2   7 20.2023 6.32773   3
   7  -2  -7 5.73264 4.37350   3
  -7  -2   7 0.98357 3.42461   4
   7  -2  -7 9.31964 5.99266   5
   7   2  -7 6.25864 4.52942   5
  -7  -2   6 73.0596 10.6216   5
   7   2  -6 65.1254 8.67660   4
  -7  -2   6 76.7968 10.7374   3
   7  -2  -6 75.5468 10.9711   3
   7  -2  -6 66.5928 10.9038   5
   7   2  -6 62.6816 10.6615   5
  -7   2   6 52.8657 9.51580   5
   7   2  -5 641.442 28.4882   4
   7  -2  -5 574.609 32.6783   5
   7   2  -5 666.366 35.1307   5
  -7   2   5 561.899 30.7297   5
  -7  -2   5 550.552 30.5448   5
  -7  -2   5 578.328 30.2425   3
   7  -2  -5 526.886 30.2784   3
  -7  -2   4 1.20993 4.36516   5
  -7   2   4 1.17023 4.51332   3
  -7   2   4 6.14880 3.95274   2
  -7  -2   4 1.05685 4.20165   3
   7  -2  -4 7.56008 4.02963   3
   7   2  -4 9.54326 3.75695   4
   7  -2  -4 2.66161 4.80101   5
   7   2  -4 1.42788 4.13047   5
  -7   2   4 3.57027 4.86819   5
  -7   2   3 786.993 27.7678   4
   7   2  -3 792.903 31.2811   4
  -7   2   3 850.375 37.3506   3
   7  -2  -3 800.441 37.9401   5
   7   2  -3 814.651 39.1473   5
  -7   2   3 745.531 35.3913   5
  -7   2   3 839.183 35.0731   2
  -7  -2   3 865.511 35.5543   3
   7  -2  -3 821.982 37.4358   3
   7  -2  -2 0.66039 2.01347   1
  -7  -2   2 0.87764 3.05059   3
   7  -2  -2-1.13066 3.77578   3
  -7   2   2 1.70769 1.50323   4
   7   2  -2 1.22270 3.06243   4
   7  -2  -2 7.16082 4.74363   5
   7   2  -2 4.04568 4.68723   5
  -7   2   2 1.02434 3.69482   5
  -7   2   2 8.36279 4.00594   2
  -7   2   2-1.09024 3.78947   3
   7   2  -1 660.666 25.7115   4
   7  -2  -1 642.979 27.6122   1
   7  -2  -1 700.329 33.4323   5
  -7   2   1 722.566 30.4033   2
   7   2  -1 673.798 34.3346   5
  -7  -2   1 725.279 29.4495   3
  -7   2   1 707.072 31.1033   5
   7  -2  -1 674.702 32.2448   3
  -7  -2   0 13.5839 3.84829   3
   7  -2   0 11.6627 4.34596   3
   7   2   0 9.81440 3.00598   4
   7  -2   0 12.5645 3.79617   1
   7   2   0 8.97254 4.06734   6
   7  -2   0 13.7295 5.29803   5
  -7   2   0 14.8317 4.64068   2
   7   2   0 20.2666 7.02027   5
  -7   2   0 6.88767 3.81443   5
   7   2   1 362.275 16.0756   4
   7   2   1 372.333 20.3478   6
   7  -2   1 398.787 20.7770   1
  -7   2  -1 393.547 20.1531   2
   7  -2   1 423.453 22.8777   5
  -7  -2  -1 361.704 17.8386   3
   7  -2   1 411.700 22.7327   3
   7   2   1 382.455 23.7646   5
  -7  -2  -2 16.5431 3.77096   3
   7  -2   2 16.1615 4.88845   3
   7   2   2 25.5068 5.05780   6
   7   2   2 14.8659 3.10002   4
   7  -2   2 20.9119 3.65042   6
   7  -2   2 15.6184 4.27018   1
   7  -2   2 17.9052 5.31531   5
   7   2   2 12.1981 5.65645   5
   7   2   3 554.871 20.7762   4
   7   2   3 546.747 24.5343   6
   7  -2   3 503.940 19.7073   6
   7  -2   3 538.611 27.1443   1
  -7  -2  -3 545.604 20.6906   3
   7  -2   3 572.383 26.4633   5
   7  -2   3 559.689 27.4446   3
   7   2   3 565.668 29.7042   5
   7   2   4 1.21646 4.54202   5
   7  -2   4 2.16569 3.30154   1
   7  -2   4 0.98759 3.15813   3
   7   2   4-1.63029 3.85004   8
   7   2   4 6.27560 2.93065   6
   7  -2   4 3.50125 1.52619   6
   7   2   4 2.31799 2.44865   4
   7  -2   4 1.64717 3.46120   5
   7   2   5 553.951 32.1760   1
   7   2   5 544.826 23.5966   6
   7  -2   5 501.068 28.0644   1
   7  -2   5 562.830 27.3042   3
   7  -2   5 560.190 25.1238   5
   7   2   5 568.659 30.1810   5
   7   2   5 541.812 33.4995   8
   7   2   6 2.52699 4.72029   5
   7  -2   6 9.79768 4.63010   3
   7   2   6 1.76228 4.80794   8
   7  -2   6 8.13139 5.22841   7
   7   2   6 6.28542 5.24999   1
   7  -2   6 8.91948 5.06731   1
   7   2   6 12.4485 3.93820   6
   7  -2   6 3.70984 3.72044   5
   7   2   7 4295.80 143.509   8
   7  -2   7 4477.64 138.700   7
   7   2   7 4407.91 141.578   1
   7  -2   7 4359.04 120.155   4
   7   2   7 4394.21 123.900   6
   7  -2   7 4547.71 131.220   3
   7  -2   7 4551.38 126.495   5
   7  -2   7 4486.08 137.465   1
   7   2   7 4609.48 136.935   5
   7  -2   8 3.95877 4.37771   3
   7   2   8 5.19172 5.00970   5
   7   2   8 5.70114 6.07990   8
   7   2   8 9.49407 6.34465   7
   7  -2   8 12.2484 6.26568   7
   7  -2   8 10.0622 3.30623   4
   7   2   8 9.94394 3.45856   6
   7  -2   8 4.39205 5.47043   1
   7  -2   8 15.3553 4.46443   5
   7  -2   9 6.23946 5.42313   1
   7  -2   9 7.04504 4.55243   3
   7   2   9 9.25929 5.70392   5
   7   2   9 1.94420 4.59262   8
   7   2   9 7.96651 6.65190   7
   7  -2   9 1.63328 4.98054   7
   7  -2   9 5.96760 3.40586   4
   7   2   9 9.82987 3.27302   6
   7  -2   9 1.27100 3.12649   5
   7  -2  10 74.7534 9.42945   3
   7  -2  10 62.6672 11.5664   8
   7   2  10 50.3072 10.9458   8
   7  -2  10 68.6752 7.80725   4
   7   2  10 62.7696 12.0642   7
   7  -2  10 72.9964 12.4394   7
   7  -2  10 72.2206 7.33629   5
   7   2  10 92.0354 11.8763   5
   7  -2  11 10.4083 4.60296   3
   7   2  11 9.75309 6.15867   5
   7  -2  11 1.72055 4.98044   8
   7   2  11 2.20162 4.75057   7
   7  -2  11 14.3800 5.75093   7
   7  -2  11 12.5314 4.76932   4
   7   2  11 8.33686 5.68680   8
   7  -2  11 9.84596 3.66754   5
   7  -2  12 7.33651 4.53339   3
   7  -2  12 14.2311 3.48415   2
   7  -2  12 20.7056 7.44765   8
   7   2  12 27.8751 10.1328   8
   7   2  12 30.1756 9.50036   7
   7  -2  12 7.62216 7.12380   7
   7  -2  12 11.3711 4.58224   4
   7  -2  12 19.3659 4.41388   5
   7  -2  13 683.577 39.4313   8
   7   2  13 763.392 44.8870   8
   7  -2  13 731.119 33.5066   4
   7   2  13 816.227 48.6345   7
   7  -2  13 709.081 33.1591   3
   7  -2  14 95.1199 14.3101   8
   7   2  14 67.6241 13.8962   8
   7   2  14 79.5487 15.4816   7
   7   2  14 68.2550 11.7647   4
   7  -2  14 82.8014 10.8039   4
   7  -2  14 89.1458 10.5354   3
   7   3 -16 104.017 7.94858   8
  -7  -3  16 151.895 19.1687   4
  -7   3  16 122.212 17.9888   4
   7   3 -16 154.280 19.3551   5
   7  -3 -16 158.801 19.0348   3
  -7  -3  15-1.97082 6.00773   4
   7  -3 -15-1.96504 6.56183   3
   7   3 -15 4.11003 7.41210   5
   7  -3 -15-1.08438 3.62110   1
  -7  -3  14 371.705 28.4893   4
   7  -3 -14 400.515 22.6415   1
   7   3 -14 394.851 30.3902   5
   7  -3 -14 418.441 30.1047   3
  -7  -3  13 177.080 18.5762   4
   7  -3 -13 179.891 13.7842   1
   7   3 -13 167.246 19.6389   5
  -7  -3  12 1546.44 63.1728   4
   7  -3 -12 1502.73 51.8086   1
   7   3 -12 1570.85 66.9520   5
   7  -3 -11 9.11242 3.71371   1
  -7  -3  11 18.1828 6.70052   4
   7   3 -11 16.5451 7.52466   5
  -7  -3  10 851.910 40.3217   4
   7   3 -10 904.886 45.2284   5
   7  -3 -10 776.006 30.0612   1
   7  -3 -10 818.667 42.6386   3
   7   3  -9 209.088 17.8788   4
  -7  -3   9 172.237 15.9410   4
  -7   3   9 175.286 18.1858   5
   7  -3  -9 143.520 9.99379   1
   7  -3  -9 174.354 17.8522   3
  -7  -3   9 169.821 17.0117   3
  -7  -3   8-1.40985 5.26417   5
  -7   3   8 5.74349 5.36132   3
   7   3  -8-1.27308 5.34986   4
   7  -3  -8 11.0043 6.06213   3
   7  -3  -8 4.06257 2.30394   1
  -7  -3   8 6.73407 5.02887   3
  -7  -3   8 1.17196 4.22784   4
  -7   3   8 8.92321 5.91147   5
  -7  -3   7 4.13579 5.31580   5
  -7   3   7-1.38982 5.35907   3
  -7   3   7-1.28157 4.78477   2
   7  -3  -7 4.55317 5.27516   3
   7   3  -7 2.36308 5.21952   4
  -7  -3   7 3.83793 4.93298   3
  -7  -3   7-1.07576 3.88028   4
   7  -3  -7 1.97907 2.12473   1
  -7   3   7 2.84980 5.13950   5
   7   3  -6 5045.37 146.721   4
  -7  -3   6 4784.91 144.277   4
  -7   3   6 4996.24 150.712   5
  -7   3   6 4985.17 148.803   2
  -7  -3   6 4932.02 150.349   5
   7  -3  -6 5000.32 152.583   3
  -7  -3   6 5170.10 149.280   3
   7   3  -5 126.139 12.2406   4
   7  -3  -5 97.7801 6.52930   1
  -7  -3   5 111.545 10.9783   4
  -7   3   5 143.737 14.5150   5
   7   3  -5 137.145 15.6448   5
  -7   3   5 128.914 13.4252   2
   7  -3  -5 106.217 13.1155   3
  -7  -3   5 132.669 14.0600   5
  -7  -3   5 138.165 13.5326   3
   7   3  -4 278.959 20.3377   8
   7   3  -4 261.722 17.1346   4
   7  -3  -4 256.043 11.8676   1
  -7   3   4 288.181 19.5419   2
  -7   3   4 309.662 20.7323   5
   7   3  -4 303.201 22.7155   5
   7  -3  -4 251.956 19.8062   3
  -7  -3   4 316.377 19.8798   3
   7   3  -3 8.09124 4.11302   8
   7  -3  -3 3.82862 4.26376   3
  -7  -3   3 1.98707 3.95117   3
   7   3  -3 4.97966 3.75495   4
   7  -3  -3 6.22880 2.53529   1
  -7   3   3 3.21780 3.73043   2
  -7   3   3 5.68526 4.65224   5
   7   3  -3 10.1892 5.61424   5
   7   3  -2 1207.89 43.4777   4
   7   3  -2 1193.85 47.7205   6
   7   3  -2 1165.06 50.5210   8
   7  -3  -2 1232.36 45.5190   6
   7  -3  -2 1177.27 39.0662   1
   7  -3  -2 1276.25 49.5758   5
  -7   3   2 1260.20 47.4135   2
  -7   3   2 1194.82 46.8566   5
   7   3  -2 1261.48 52.0729   5
   7  -3  -2 1108.54 48.4644   3
  -7  -3   2 1294.57 46.0293   3
   7  -3  -1 20.5165 4.10734   1
   7   3  -1 33.2614 7.77909   8
   7  -3  -1 18.4499 5.83185   3
  -7  -3   1 23.2431 5.51053   3
   7   3  -1 16.7683 4.58423   4
   7   3  -1 24.5606 6.36678   6
  -7   3   1 16.4194 3.19623   4
   7  -3  -1 26.2179 5.37131   6
   7  -3  -1 16.3375 5.57997   5
  -7   3   1 26.1053 6.44117   2
  -7   3   1 27.6642 6.32565   5
   7   3  -1 13.8803 6.15359   5
   7   3   0 2076.23 78.7767   8
  -7   3   0 2081.38 61.7295   4
   7   3   0 2260.27 68.3326   4
   7   3   0 2275.42 73.8302   6
   7  -3   0 2306.47 69.7595   6
   7  -3   0 2209.30 67.8048   1
   7  -3   0 2310.23 74.2585   5
   7  -3   0 2150.39 75.5898   3
   7   3   0 2290.18 78.7742   5
  -7  -3   0 2313.80 69.1758   3
  -7   3  -1 43.3028 4.00416   4
   7   3   1 41.9262 8.67760   8
   7  -3   1 53.3626 6.79569   1
   7  -3   1 55.9536 6.48303   6
   7   3   1 54.9772 8.05902   6
   7   3   1 45.1198 6.31683   4
  -7  -3  -1 50.3760 6.15095   3
   7  -3   1 37.3022 7.06026   5
   7  -3   1 59.2600 8.99906   3
   7   3   1 24.2038 6.95734   5
   7   3   2 60.3356 9.90938   5
  -7   3  -2 65.4233 5.10645   4
   7   3   2 55.1133 10.6231   8
   7   3   2 74.9102 7.51864   4
   7   3   2 64.8330 9.22041   6
   7  -3   2 77.4629 7.23138   6
   7  -3   2 78.9350 10.6117   3
   7  -3   2 63.3567 8.70983   1
  -7  -3  -2 63.7823 6.54386   3
   7  -3   2 70.7649 8.90535   5
   7   3   3 277.579 15.0601   4
   7   3   3 261.543 17.1773   6
   7  -3   3 269.649 13.2898   6
   7  -3   3 274.718 16.5091   5
  -7  -3  -3 263.340 12.0726   3
   7  -3   3 288.750 19.7359   3
   7  -3   3 267.941 17.5877   1
   7   3   3 262.608 20.6008   5
  -7   3  -3 250.656 14.0559   5
   7   3   4 400.960 19.0878   4
   7  -3   4 379.422 15.0982   6
   7   3   4 352.526 20.3766   6
   7  -3   4 376.979 19.0873   5
   7  -3   4 402.634 23.9216   3
   7  -3   4 362.463 21.9764   1
   7   3   4 419.514 26.2909   5
   7   3   5 9.87533 5.26855   5
   7  -3   5 11.7199 5.17881   3
   7  -3   5 3.48341 3.87952   1
   7   3   5-1.82523 4.31172   8
   7  -3   5 3.49567 3.55435   7
   7  -3   5 5.49744 1.28986   6
   7   3   5 5.86200 3.61247   6
   7  -3   5 4.20528 2.78032   5
   7   3   6 24.1186 7.77261   5
   7  -3   6 30.6900 7.05409   3
   7   3   6 28.1626 8.89802   8
   7  -3   6 38.3943 7.77352   7
   7  -3   6 41.5617 8.17856   1
   7   3   6 36.6224 6.17283   6
   7  -3   6 21.4900 4.25176   5
   7  -3   7-1.19899 4.00376   3
   7   3   7 7.20533 5.72756   5
   7  -3   7-1.63806 3.25527   2
   7   3   7 1.94054 4.18284   8
   7  -3   7-1.32862 4.43665   7
   7   3   7-0.77817 2.90526   6
   7  -3   7-1.36459 4.92183   1
   7  -3   7-0.41498 2.46599   5
   7   3   8 547.323 37.0341   8
   7   3   8 568.393 37.0384   7
   7  -3   8 627.010 33.3965   7
   7   3   8 599.847 26.1499   6
   7  -3   8 605.805 30.9057   3
   7  -3   8 533.575 19.6817   5
   7  -3   8 644.841 27.3203   2
   7   3   8 664.915 34.8774   5
   7  -3   8 649.911 34.6972   1
   7   3   9 405.184 30.8443   8
   7   3   9 400.854 30.3596   7
   7  -3   9 341.040 24.4854   7
   7  -3   9 324.495 17.5555   4
   7   3   9 352.763 19.0548   6
   7  -3   9 348.535 22.9897   3
   7  -3   9 380.021 19.9258   2
   7   3   9 384.586 26.1169   5
   7  -3   9 374.300 26.4767   1
   7   3  10 213.040 23.2361   8
   7   3  10 284.653 25.9337   7
   7  -3  10 296.207 22.7754   7
   7  -3  10 235.612 14.9803   4
   7   3  10 247.723 15.1883   6
   7  -3  10 243.780 18.9807   3
   7  -3  10 258.608 16.0310   2
   7  -3  11 15.2006 4.71502   2
   7   3  11 15.5073 8.55516   8
   7   3  11 25.1344 8.82318   7
   7  -3  11 23.4559 7.76001   7
   7  -3  11 19.2691 5.06573   4
   7  -3  11 18.9657 6.58068   3
   7  -3  12 5.06636 5.14979   8
   7   3  12 11.4001 6.59498   8
   7   3  12 2.39809 6.11764   7
   7  -3  12 2.81468 3.94465   4
   7  -3  12 7.16898 3.84170   2
   7  -3  13 73.7918 12.4854   8
   7   3  13 72.3342 14.5509   8
   7   3  13 113.066 17.7542   7
   7  -3  13 80.3490 10.0714   4
   7  -3  14 212.089 20.2052   8
   7   3  14 230.607 24.5669   8
   7  -3  14 216.218 17.1491   4
   7   3  14 221.249 25.2969   7
  -7  -4  15 838.422 47.3144   4
   7  -4 -15 889.916 49.0369   6
   7   4 -15 856.579 47.6043   5
   7  -4 -15 871.996 47.3166   3
   7   4 -14 9.79291 2.69128   8
   7  -4 -14 13.7701 7.34980   3
  -7  -4  14 17.4024 8.34060   4
   7  -4 -14 12.4193 7.19980   6
   7   4 -14 14.0862 8.23483   5
   7   4 -13 229.948 13.0421   8
  -7  -4  13 244.551 22.5832   4
   7  -4 -13 236.413 22.9959   6
   7   4 -13 248.387 23.4352   5
   7  -4 -13 268.645 24.3458   3
   7   4 -12 213.735 13.8570   8
  -7  -4  12 250.319 22.0140   4
   7  -4 -12 268.313 23.7416   6
   7   4 -12 247.839 23.3760   5
   7  -4 -12 229.227 21.9436   3
  -7  -4  11 197.815 18.6843   4
   7  -4 -11 176.249 18.9325   6
   7   4 -11 163.920 19.0459   5
   7   4 -10 42.0008 9.58559   4
  -7  -4  10 53.2317 9.97303   4
   7  -4 -10 74.2747 12.3148   6
   7   4 -10 57.5777 11.3266   5
  -7  -4   9 105.234 13.0922   4
   7   4  -9 82.2248 12.4083   4
   7  -4  -9 119.656 14.6777   6
   7   4  -9 76.0974 12.6476   5
   7   4  -8 20.4246 5.77991   8
   7  -4  -8 21.7613 7.04212   3
   7   4  -8 5.46154 5.27609   4
  -7  -4   8 19.3348 7.17757   3
  -7  -4   8 20.8642 6.77810   4
   7  -4  -8 6.19455 5.98134   6
  -7   4   8 10.6393 7.18594   5
   7   4  -8 10.4497 6.06306   5
   7   4  -7 1377.08 54.2493   8
   7   4  -7 1566.70 58.1117   4
  -7  -4   7 1356.00 55.0892   4
   7  -4  -7 1537.21 59.8950   6
  -7   4   7 1497.60 59.4249   5
   7   4  -7 1384.42 61.0452   5
   7  -4  -7 1462.85 60.9156   3
  -7  -4   7 1490.89 57.5659   3
   7   4  -6-2.43836 3.89791   8
   7  -4  -6-3.08791 4.70651   3
   7   4  -6 4.76310 5.13344   4
  -7  -4   6-3.72501 5.21732   3
   7  -4  -6 1.38720 4.01168   6
  -7   4   6 9.67353 6.24829   5
  -7   4   6-1.32695 4.43109   2
   7   4  -5 81.8757 11.1254   4
   7   4  -5 56.6586 9.42055   8
   7  -4  -5 14.8262 6.13904   3
  -7  -4   5 39.8195 8.42740   3
   7  -4  -5 27.2054 8.14993   6
  -7   4   5 36.8600 9.37438   5
  -7   4   5 56.4800 10.3231   2
   7   4  -4 2.71337 4.53033   8
  -7  -4   4-2.19270 5.17744   3
   7   4  -4 1.05213 4.30295   4
   7   4  -4 3.95731 4.02105   6
   7  -4  -4-1.19493 3.64252   6
  -7   4   4-1.24304 3.97413   2
  -7   4   4-1.24227 4.48064   5
   7   4  -3 192.088 17.5830   8
   7   4  -3 246.942 16.9426   4
   7   4  -3 167.175 16.2299   6
   7  -4  -3 243.942 17.4994   6
  -7   4   3 190.427 16.6218   2
  -7   4   3 200.203 16.6392   5
   7  -4  -3 209.078 18.3208   3
   7   4  -3 211.015 19.2495   5
  -7  -4   3 240.774 16.9723   3
   7   4  -2 14.9139 6.11209   8
   7  -4  -2 8.41141 5.41981   3
  -7  -4   2 18.8864 5.69834   3
   7   4  -2 21.0640 5.77724   4
   7   4  -2 24.6958 6.63891   6
  -7   4   2 15.2976 4.35232   4
   7  -4  -2 9.12335 4.70284   6
  -7   4   2 29.3873 7.44082   2
  -7   4   2 11.8874 5.90603   5
   7   4  -2 12.1754 5.88149   5
   7   4  -1 2365.72 88.3312   8
   7   4  -1 2591.66 80.5154   4
  -7   4   1 2578.97 75.2581   4
   7   4  -1 2444.72 84.2942   6
   7  -4  -1 2526.49 80.7906   6
   7  -4  -1 2567.80 87.6593   3
  -7   4   1 2571.07 81.8841   5
   7   4  -1 2625.10 89.7074   5
  -7  -4   1 2551.89 79.8795   3
   7  -4   0 47.7482 9.17942   3
   7   4   0 40.5163 8.90786   8
  -7  -4   0 45.3097 6.79617   3
   7   4   0 40.7415 6.87992   4
   7   4   0 43.0758 8.24630   6
  -7   4   0 50.8932 6.12378   4
   7  -4   0 42.2684 6.81223   6
   7   4   0 34.0677 9.09932   5
   7   4   1 666.097 38.5161   8
  -7   4  -1 747.111 27.8670   4
   7   4   1 765.516 31.7759   4
   7   4   1 687.757 33.7854   6
   7  -4   1 743.812 30.5355   6
   7  -4   1 778.691 37.8459   3
   7   4   1 757.354 38.7228   5
  -7  -4  -1 777.435 29.5665   3
  -7   4  -2 10.1057 4.13822   5
   7   4   2 16.4330 6.44588   5
   7  -4   2 17.6216 6.40700   3
   7   4   2 19.0734 6.69129   8
  -7  -4  -2 6.68574 3.18587   3
  -7   4  -2 9.72421 3.58368   4
   7   4   2 14.1957 6.14377   6
   7   4   2 9.93059 4.44977   4
   7  -4   2 9.71773 3.96772   6
   7  -4   2 10.2063 4.42117   1
   7   4   3 1473.58 63.4577   8
   7  -4   3 1461.25 52.2926   1
  -7   4  -3 1422.77 47.2711   4
   7   4   3 1648.12 52.4215   4
   7   4   3 1460.71 54.4034   6
   7  -4   3 1477.67 47.8156   6
   7  -4   3 1500.57 58.5344   3
  -7  -4  -3 1429.12 43.6579   3
   7   4   3 1509.05 60.7202   5
  -7   4  -3 1441.35 46.2373   5
   7   4   4 63.6553 10.8965   5
   7  -4   4 67.9220 10.5833   3
   7  -4   4 62.2996 8.82398   1
   7  -4   4 57.5042 8.14103   7
  -7   4  -4 52.7721 6.50287   4
   7  -4   4 58.9592 5.97225   6
   7   4   4 52.1276 8.60063   6
   7   4   4 66.2489 8.40449   4
  -7   4  -5 549.847 23.6578   4
   7  -4   5 509.106 26.6892   7
   7  -4   5 500.190 19.0720   6
   7   4   5 520.164 26.8343   6
   7  -4   5 603.808 31.6913   3
   7   4   5 493.768 30.9653   5
   7  -4   5 541.736 27.3311   2
   7  -4   6-1.39290 4.45341   3
   7   4   6 6.34072 5.29347   5
   7  -4   6 6.27256 4.83316   2
   7  -4   6-1.11096 4.14783   7
   7   4   6 1.99562 4.19279   6
   7   4   7 914.769 49.9905   8
   7  -4   7 949.531 41.1966   7
   7   4   7 935.264 38.5353   6
   7  -4   7 953.441 43.8008   3
   7  -4   7 939.261 39.7400   2
   7   4   7 1041.24 47.5782   5
   7  -4   8 4.30430 4.79222   3
   7  -4   8 7.28454 4.59820   2
   7   4   8 4.96457 5.75260   5
   7   4   8 2.15775 6.57835   8
   7  -4   8 5.04469 5.01366   7
   7   4   8 1.91775 3.58142   6
   7   4   9 529.562 36.9251   8
   7   4   9 506.965 25.9297   6
   7  -4   9 570.268 31.7676   3
   7  -4   9 543.842 27.5867   2
   7   4  10 261.145 26.3651   8
   7   4  10 273.889 18.0991   6
   7  -4  10 296.199 22.2040   3
   7  -4  10 288.885 19.2185   2
   7   4  11 58.7659 13.4711   8
   7  -4  11 54.4219 7.83550   4
   7  -4  11 47.1882 8.13257   2
   7  -4  12 9.85787 5.71604   8
   7   4  12 12.0157 7.68730   8
   7  -4  12 7.92183 5.05740   4
   7  -4  12 11.4294 5.30604   2
   7  -4  13 393.363 28.1150   8
   7   4  13 465.218 36.0661   8
   7  -4  13 413.217 23.8098   4
  -7  -5  14 197.841 21.3937   4
   7  -5 -14 196.195 21.8844   6
   7   5 -14 241.394 23.9055   5
   7  -5 -14 207.872 22.2916   3
   7  -5 -13 8.03780 7.50222   3
  -7  -5  13-3.76229 6.28177   4
   7  -5 -13 6.29285 6.39434   6
   7   5 -13-1.99434 6.93167   5
   7   5 -12 804.830 29.0721   8
  -7  -5  12 873.039 45.0378   4
   7  -5 -12 935.372 48.5446   6
   7   5 -12 856.703 46.6755   5
   7  -5 -12 877.343 46.8094   3
   7   5 -11 15.0312 4.49709   8
   7  -5 -11 23.0509 8.08804   3
  -7  -5  11 22.1186 7.53391   4
   7   5 -11 17.0923 8.60250   5
  -7  -5  10 413.523 28.5058   4
   7  -5 -10 480.585 31.5974   6
   7   5 -10 385.669 29.4802   5
  -7  -5   9 164.247 16.9394   4
   7  -5  -9 191.504 19.1373   6
   7   5  -9 170.788 19.3719   5
   7   5  -8 20.3919 5.59716   8
   7  -5  -8 24.7520 7.48014   6
   7   5  -8 18.2050 7.86646   5
   7   5  -7 46.9547 8.25220   8
   7  -5  -7 35.9051 9.25876   3
   7   5  -7 71.3532 11.1077   4
  -7  -5   7 45.8602 9.27604   3
   7  -5  -7 46.6904 9.56803   6
  -7   5   7 52.6442 10.8231   5
   7   5  -7 46.4608 10.9638   5
   7   5  -6 1847.69 67.9185   8
   7   5  -6 1834.47 68.7328   4
   7  -5  -6 1978.74 72.0002   6
  -7   5   6 1863.20 70.3362   5
   7   5  -6 1857.60 74.9348   5
   7  -5  -6 1842.25 73.0333   3
  -7  -5   6 1956.45 69.1863   3
   7   5  -5 243.042 19.5047   8
   7   5  -5 258.357 19.7257   4
   7  -5  -5 260.642 20.1865   6
  -7   5   5 252.875 20.0762   5
   7   5  -5 208.851 20.6758   5
   7  -5  -5 243.135 21.2008   3
  -7  -5   5 262.305 19.1878   3
   7   5  -4 42.9458 8.56015   8
   7  -5  -4 48.2325 9.34797   3
   7   5  -4 31.8757 7.62750   4
  -7  -5   4 31.6348 7.20551   3
   7  -5  -4 45.3709 8.34392   6
  -7   5   4 31.8341 7.62693   5
   7   5  -3 7.54939 5.24909   8
   7  -5  -3 7.88683 5.04439   3
  -7  -5   3 6.35931 4.68346   3
   7   5  -3 3.56024 4.28201   4
   7  -5  -3 3.62275 3.86258   6
  -7   5   3 1.20112 4.33382   5
   7   5  -2 341.341 25.2043   8
   7   5  -2 418.354 23.7759   4
  -7   5   2 373.132 20.0518   4
   7   5  -2 373.314 24.9446   6
   7  -5  -2 356.763 22.2570   6
  -7   5   2 380.626 22.8248   5
   7  -5  -2 373.561 26.1093   3
  -7  -5   2 385.573 21.8360   3
   7   5  -1 207.200 16.3927   4
  -7   5   1 220.121 14.5473   4
   7   5  -1 204.285 17.7624   6
   7   5  -1 196.181 19.3819   8
   7  -5  -1 214.569 16.1440   6
   7  -5  -1 195.733 18.4427   3
  -7   5   1 228.705 16.5084   5
   7   5  -1 219.966 20.0357   5
  -7  -5   1 203.647 14.9597   3
   7   5   0 230.667 21.1199   8
   7   5   0 276.506 18.6908   4
  -7   5   0 213.876 14.8550   4
   7   5   0 214.460 18.1318   6
   7  -5   0 246.201 17.1379   6
   7  -5   0 260.459 21.2817   3
  -7   5   0 281.590 17.3385   5
   7   5   0 258.382 22.0131   5
  -7  -5   0 223.664 15.1170   3
   7   5   1 49.0878 10.0517   5
   7  -5   1 59.8955 10.3307   3
   7   5   1 41.5727 9.46375   8
  -7  -5  -1 48.4268 6.76925   3
  -7   5  -1 50.2154 6.87654   4
   7   5   1 36.9437 8.05352   6
   7   5   1 59.5210 8.74656   4
   7  -5   1 46.0036 7.09177   6
   7   5   2 14.9704 6.84572   5
   7  -5   2 47.6123 10.2859   3
   7   5   2 26.2932 9.43822   8
   7  -5   2 28.6853 5.31904   7
  -7  -5  -2 20.0887 4.51374   3
  -7   5  -2 57.6936 8.25093   4
   7   5   2 17.5414 6.98038   6
   7  -5   2 47.5981 7.63667   6
   7   5   2 36.7977 7.21399   4
  -7   5  -2 35.1916 5.72211   5
  -7   5  -3 16.7168 3.62929   5
   7   5   3 28.8430 8.67006   5
   7  -5   3 24.6332 7.43885   3
   7   5   3 19.5106 7.77213   8
  -7  -5  -3 20.7873 3.48716   3
   7  -5   3 20.1512 4.63143   7
  -7   5  -3 28.8486 5.91564   4
   7  -5   3 13.6696 4.17401   6
   7   5   3 23.4531 6.64563   6
   7   5   3 29.6345 6.70139   4
   7   5   4 349.847 28.0152   8
  -7   5  -4 365.539 19.8116   4
   7  -5   4 352.574 18.4822   7
   7   5   4 362.349 21.3324   4
   7  -5   4 356.953 17.5445   6
   7   5   4 354.048 22.5300   6
  -7  -5  -4 337.610 15.5567   2
   7  -5   4 400.051 26.2674   3
  -7  -5  -4 280.335 10.2448   3
   7   5   4 372.163 26.7893   5
   7  -5   4 362.981 23.3507   2
   7  -5   5 1.57404 4.55203   3
   7   5   5-1.73803 6.26880   5
   7  -5   5 2.51885 4.54260   2
   7   5   5 2.09331 4.94284   8
   7  -5   5 1.67276 2.79303   7
  -7   5  -5 2.73969 3.52139   4
   7  -5   5 0.57265 2.40632   6
   7   5   5 2.37525 4.12782   6
   7   5   5-1.04938 4.29178   4
  -7  -5  -5 0.79010 1.82653   2
   7  -5   6 16.0031 6.92028   3
   7  -5   6 22.6002 6.54041   2
   7   5   6 21.1700 8.17383   5
  -7   5  -6 22.3091 5.93844   4
   7   5   6 23.3942 6.19976   6
   7  -5   7 3.24770 4.95414   3
   7  -5   7 8.80940 5.29179   2
   7   5   7 19.7738 7.94343   5
  -7   5  -7 7.23665 4.78356   4
   7   5   7 7.96535 4.65814   6
   7  -5   8 24.5518 7.74235   3
   7  -5   8 13.9727 5.88911   2
   7   5   8 22.1308 8.89993   5
   7   5   8 12.9388 7.79065   7
   7   5   8 17.1391 6.53126   6
   7   5   9 14.1285 8.50136   8
   7   5   9 20.1714 8.37586   7
   7   5   9 15.8659 6.19100   6
   7  -5   9 11.4769 5.37116   2
   7  -5   9 14.8947 7.32021   3
   7   5  10 268.599 26.7547   8
   7   5  10 224.865 24.5413   7
   7  -5  10 297.392 21.0877   2
  -7   5 -11 7.35042 6.13684   1
   7   5  11 4.96974 7.57515   8
   7   5  11 2.44914 5.78358   7
   7  -5  11 1.26787 4.40746   2
   7  -6 -12-2.05587 6.57285   3
  -7  -6  12-1.92467 7.18562   4
   7  -6 -12 2.11158 7.61610   6
   7   6 -12 2.00362 7.72570   5
  -7  -6  11 220.878 21.9434   4
   7  -6 -11 212.630 22.1190   6
   7   6 -11 204.147 21.7291   5
   7  -6 -11 195.400 21.4897   3
   7  -6 -10 9.93347 7.17715   3
   7  -6 -10 13.5771 7.94279   6
   7   6 -10 31.3125 9.99072   5
   7  -6  -9 32.9234 9.77566   3
   7  -6  -9 62.9232 12.2900   6
   7   6  -9 54.2288 11.7216   5
   7   6  -8 44.1727 7.46510   8
   7  -6  -8 51.0285 11.0494   6
   7   6  -8 36.3464 10.8105   5
   7  -6  -7-1.66652 4.25072   6
   7   6  -7-1.89337 5.16262   5
   7   6  -6 1.29173 3.73584   8
   7  -6  -6 1.57459 4.80008   6
   7   6  -6 3.75578 6.00399   5
   7   6  -5 291.393 21.5307   8
   7  -6  -5 227.404 20.3103   6
  -7   6   5 228.215 20.0284   5
   7   6  -5 319.080 25.8917   5
   7  -6  -5 216.103 21.0866   3
  -7  -6   5 276.167 20.3742   3
   7  -6  -4 3.49603 5.58945   3
   7   6  -4 1.50092 3.54536   8
  -7  -6   4 21.4469 6.79565   3
   7  -6  -4 4.28891 4.35910   6
  -7   6   4 1.31137 4.55887   5
   7   6  -4 1.81186 5.79354   5
   7  -6  -3 15.5557 6.89220   3
   7   6  -3 19.1338 6.72288   8
   7   6  -3 27.2507 7.79036   4
  -7  -6   3 30.1269 6.90975   3
   7  -6  -3 23.1371 6.58346   6
  -7   6   3 15.4474 5.09250   4
  -7   6   3 31.9727 7.42382   5
   7   6  -3 19.8404 7.79556   5
   7  -6  -2 92.4894 13.6285   3
   7   6  -2 85.8276 12.8979   8
   7   6  -2 103.516 12.7349   4
   7  -6  -2 113.530 12.7897   6
  -7   6   2 85.1343 10.4544   4
  -7   6   2 90.6269 11.2101   5
  -7  -6   2 96.3108 11.0645   3
   7   6  -1 383.510 28.1322   8
   7   6  -1 499.203 27.5471   4
   7  -6  -1 317.197 14.0859   7
  -7   6   1 479.461 24.2894   4
   7  -6  -1 435.717 25.1634   6
   7  -6  -1 406.957 28.3572   3
  -7   6   1 429.212 23.6732   5
  -7  -6   1 450.033 23.2063   3
   7  -6   0 42.8609 10.3561   3
   7   6   0 29.5776 8.40181   8
   7  -6   0 29.4301 3.36344   7
  -7  -6   0 36.4198 6.99582   3
   7   6   0 34.1753 8.04649   4
  -7   6   0 43.9332 7.50432   4
   7  -6   0 36.8574 7.33064   6
  -7   6   0 34.8914 6.61953   5
   7   6   1 828.724 45.2167   8
  -7   6  -1 843.114 35.6723   4
   7   6   1 854.109 38.7122   4
   7  -6   1 800.981 35.8434   6
   7  -6   1 717.433 40.7332   3
   7   6   1 788.434 42.9065   5
  -7  -6  -1 796.474 32.3831   3
   7   6   2 18.3621 7.91847   5
   7  -6   2 17.1471 7.39487   3
   7   6   2 14.0169 7.47861   8
  -7  -6  -2 6.56211 3.58409   3
  -7   6  -2 3.04204 4.69220   4
   7  -6   2 11.0536 4.74979   6
   7   6   2 13.3966 6.32535   4
  -7   6  -2 3.47992 3.45243   5
   7   6   3 452.693 32.8760   8
  -7   6  -3 535.820 26.9769   4
   7   6   3 515.160 28.3294   4
   7  -6   3 481.723 24.3798   6
   7  -6   3 508.916 32.4698   3
  -7   6  -3 425.052 17.5387   5
   7   6   3 496.575 33.2640   5
   7  -6   3 501.491 29.9473   2
  -7  -6  -3 493.031 19.9390   3
   7   6   4 3.80143 7.32968   5
   7  -6   4 5.22739 5.57190   3
   7  -6   4 5.86619 5.29069   2
   7   6   4 10.7319 6.86306   8
  -7  -6  -4 4.07821 1.95158   3
  -7   6  -4 5.34943 4.61353   4
   7  -6   4 1.70894 3.08384   6
   7   6   4 6.10092 5.99851   4
   7   6   5 590.803 39.3288   8
  -7   6  -5 586.006 30.0156   4
   7  -6   5 633.003 26.8158   6
   7  -6   5 573.502 35.6269   3
   7  -6   5 565.787 33.0717   2
   7   6   5 648.514 38.4313   5
   7  -6   6 23.4207 8.35190   3
   7  -6   6 23.4228 7.75421   2
   7   6   6 23.3367 9.01190   5
   7   6   6 22.9534 8.59194   8
  -7   6  -6 27.9345 7.71704   4
  -7   6  -7 1173.80 48.2755   4
   7   6   7 1173.23 60.2087   8
   7   6   7 1074.10 56.6393   7
   7  -6   7 1170.90 54.7742   3
   7  -6   7 1102.94 50.0856   2
   7   6   7 1234.29 57.7950   5
   7  -6   8 36.7581 9.42835   3
   7   6   8 44.5829 11.6003   5
   7   6   8 47.0609 11.4748   7
  -7   6  -8 41.1596 8.99705   4
   7  -6   8 32.5794 8.62366   2
  -7   6  -9 1.55337 4.73535   1
   7   6   9 6.96711 7.42497   7
  -7   6  -9 1.34486 4.85084   4
   7  -6   9-1.49483 4.77932   2
   7  -6   9 3.71244 5.36815   3
   7  -7  -8 7.88211 6.84988   3
   7  -7  -8 1.89759 5.78572   6
   7   7  -8 6.05346 8.02078   5
   7  -7  -7 7.72896 6.97195   3
   7  -7  -7 7.26765 6.55616   6
   7   7  -7 8.03458 7.74748   5
   7  -7  -6 1723.60 70.2571   6
   7   7  -6 1720.95 73.1687   5
   7   7  -5 37.1798 8.43457   8
   7  -7  -5 44.9580 10.1927   6
   7   7  -5 25.5108 9.87175   5
   7  -7  -4 115.610 15.7063   3
   7   7  -4 111.770 14.3792   8
  -7   7   4 130.822 14.7941   4
   7  -7  -4 134.673 15.5124   6
  -7   7   4 117.272 14.0728   5
   7   7  -4 125.066 17.2375   5
   7  -7  -3 3.76548 5.44481   3
   7   7  -3-1.66369 5.55564   8
  -7  -7   3-2.37097 4.84849   3
   7  -7  -3 4.55172 4.38786   6
  -7   7   3 4.87747 5.12369   4
  -7   7   3 3.79752 5.45713   5
   7   7  -3 1.94764 6.22693   5
   7   7  -2 226.185 21.3745   8
  -7   7   2 262.559 19.4388   4
   7  -7  -2 237.618 20.0469   6
  -7   7   2 248.813 18.7786   5
   7  -7  -2 205.968 21.3555   3
   7   7  -2 273.877 24.6157   5
  -7  -7   2 258.609 18.8599   3
   7  -7  -1 31.9663 9.61483   3
   7   7  -1 24.2208 8.05990   8
  -7  -7   1 27.5566 6.84913   3
  -7   7   1 23.7521 7.18073   4
   7  -7  -1 34.7533 7.95607   6
  -7   7   1 23.4354 6.60921   5
   7   7  -1 21.3297 8.17516   5
   7   7   0 269.687 24.6595   8
  -7   7   0 344.389 22.7067   4
   7  -7   0 289.385 21.2365   6
   7  -7   0 301.130 25.6434   3
  -7   7   0 331.256 19.6093   5
   7   7   0 371.889 28.6180   5
  -7  -7   0 315.946 19.2201   3
   7  -7   1 118.705 16.2138   3
   7   7   1 124.571 17.3064   8
  -7   7  -1 131.580 13.8933   4
   7  -7   1 121.005 13.3439   6
  -7  -7  -1 103.141 10.2930   3
   7  -7   2 86.9646 14.8092   3
   7   7   2 76.5076 14.0176   8
  -7   7  -2 90.1227 11.5918   4
   7  -7   2 59.1644 9.24143   6
  -7   7  -2 70.5244 7.35042   5
  -7  -7  -2 71.9038 8.10488   3
   7  -7   3 100.938 15.4359   3
   7  -7   3 109.683 14.7020   2
   7   7   3 79.4194 14.9260   8
   7  -7   3 110.427 11.8733   6
  -7   7  -3 98.8448 12.6258   4
  -7  -7  -3 104.029 10.5843   2
  -7   7  -3 81.9640 5.38736   5
  -7  -7  -3 108.883 8.91223   3
   7   7   4 518.204 37.4172   8
  -7   7  -4 532.595 29.9026   4
   7  -7   4 558.319 27.3891   6
  -7  -7  -4 472.796 18.2637   3
   7  -7   4 550.666 35.2822   3
  -7  -7  -4 508.517 24.5110   2
   7  -7   4 501.460 32.0275   2
   7  -7   5 25.3835 9.24783   3
   7   7   5 37.6717 10.8871   5
   7  -7   5 18.2461 7.36119   2
   7   7   5 40.0392 10.9111   8
  -7   7  -5 29.9752 8.26824   4
  -7  -7  -5 26.9866 5.40522   2
   7  -7   6 9.92814 6.90406   3
   7  -7   6 6.65211 6.41538   2
   7   7   6 12.7251 7.92041   5
   7   7   6 14.5276 8.73524   8
   7   7   6 2.16192 5.89772   7
  -7   7  -6 6.73514 5.35737   4
   8   0 -16 241.762 23.5301   1
  -8   0  16 382.607 28.5651   4
  -8   0  15 1.84319 6.40638   4
  -8   0  14 8.61288 6.84993   4
  -8   0  13 6.40444 6.36365   4
   8   0 -13-6.30926 7.02277   5
  -8   0  12 335.752 23.8228   4
   8   0 -12 283.728 25.8332   5
  -8   0  11 2.69696 4.50371   4
   8   0 -11 3.94309 4.65600   5
  -8   0  10 2442.35 81.4508   4
   8   0 -10 2535.25 92.1051   5
   8   0 -10 2233.71 85.5778   3
  -8   0   9-1.08916 3.92858   4
   8   0  -9 3.18118 4.84877   3
   8   0  -9-3.67510 6.38672   5
   8   0  -8 99.3677 13.0504   3
  -8   0   8 115.848 13.5512   3
   8   0  -8 106.093 14.6192   5
  -8   0   7-1.34975 4.69141   3
   8   0  -7 2.92933 3.99366   3
   8   0  -7 3.39776 4.91318   5
  -8   0   6 418.177 19.7907   4
   8   0  -6 421.249 28.5332   5
  -8   0   6 412.009 25.4411   3
  -8   0   6 454.307 27.2701   5
   8   0  -6 352.095 24.8875   3
  -8   0   5 1.22509 4.41868   3
   8   0  -5-1.32834 4.24685   3
  -8   0   5-0.53608 2.31104   4
   8   0  -5-1.58562 4.83349   5
  -8   0   5 1.31614 4.39494   5
  -8   0   4 799.588 26.6269   4
   8   0  -4 803.536 40.5707   5
  -8   0   4 807.715 36.7302   3
  -8   0   4 777.418 37.2635   5
   8   0  -4 805.779 37.8494   3
  -8   0   3-1.20768 4.79999   5
  -8   0   3-1.10809 3.37784   3
   8   0  -3-1.20846 4.35872   3
   8   0  -3 2.91324 4.86407   5
  -8   0   2 33.8894 7.23250   5
  -8   0   2 14.6281 5.26042   3
   8   0  -2 21.7952 6.37430   3
   8   0  -2 18.4032 6.84365   5
  -8   0   1-4.44799 4.54802   5
  -8   0   1 1.96425 3.54263   3
   8   0  -1-1.08195 3.76071   3
   8   0  -1-1.38061 3.99282   5
  -8   0   0 668.101 30.6629   3
   8   0   0 740.076 36.2366   5
  -8   0   0 715.374 28.5413   2
  -8   0   0 683.954 32.0946   5
   8   0   0 720.834 32.5492   3
   8   0   1 4.83322 3.60906   3
   8   0   1-3.86136 5.11581   5
  -8   0  -1-1.26160 3.04055   2
   8   0   2 192.144 16.5322   1
  -8   0  -2 176.819 11.1290   2
   8   0   2 195.539 16.6794   5
   8   0   2 194.929 14.4668   3
   8   0   3-1.31808 4.21409   1
   8   0   3-1.71047 3.29772   3
   8   0   3-0.55327 2.50159   6
   8   0   3 3.66944 5.13947   5
   8   0   4 1392.09 56.0902   1
   8   0   4 1300.24 42.1383   6
   8   0   4 1431.57 53.9510   5
   8   0   4 1408.44 48.2113   3
   8   0   5 0.75831 2.83123   3
   8   0   5 1.46222 4.67494   1
   8   0   5-1.97795 2.08400   6
   8   0   5-1.15469 4.16483   5
   8   0   6 208.660 18.8677   1
   8   0   6 163.581 6.72380   6
   8   0   6 208.012 16.3415   5
   8   0   6 199.352 12.8701   3
   8   0   7-1.87928 4.05076   8
   8   0   7 0.66133 2.70468   3
   8   0   7 0.59360 1.32147   4
   8   0   7-1.58739 5.51717   1
   8   0   7-1.12517 3.59727   5
   8   0   8 329.737 27.1005   8
   8   0   8 329.152 14.2150   4
   8   0   8 358.674 27.6972   7
   8   0   8 316.668 20.9597   5
   8   0   8 332.095 16.6731   3
   8   0   9 1.95301 4.98105   8
   8   0   9 1.70304 2.44740   3
   8   0   9-1.98375 4.68415   7
   8   0   9 0.53470 2.41775   4
   8   0   9 2.20669 3.83490   5
   8   0  10 42.1120 10.6471   8
   8   0  10 42.5689 5.21343   3
   8   0  10 45.9784 10.9069   7
   8   0  10 52.4952 6.37556   4
   8   0  10 35.4714 7.33348   5
   8   0  11 2.06838 4.88429   8
   8   0  11 2.20273 5.20147   7
   8   0  11 1.57319 3.47528   4
   8   0  11 4.43451 4.65866   5
   8   0  12 531.892 36.1903   8
   8   0  12 488.828 25.1627   4
   8   0  12 564.885 38.3372   7
   8   0  12 507.388 27.3306   5
   8   0  13 1.11869 4.82277   5
   8   0  13-2.14690 5.47558   8
   8   0  13 9.55844 7.97962   7
  -8   1  16 7.91476 7.13961   4
  -8  -1  16 15.9036 7.66789   4
   8  -1 -16 4.88276 4.71111   1
   8  -1 -15 20.4698 7.47111   1
  -8   1  15 31.7047 9.36953   4
  -8  -1  15 33.7425 9.58926   4
   8   1 -15 33.3038 10.2897   5
   8  -1 -14 40.1068 9.21450   1
  -8   1  14 41.9617 10.4299   4
  -8  -1  14 28.1627 8.70023   4
  -8   1  13 338.871 25.3474   4
  -8  -1  13 414.401 27.9839   4
   8  -1 -13 354.839 27.3917   3
  -8   1  12 6.01127 5.22694   4
  -8  -1  12 7.56011 5.45715   4
   8  -1 -12 10.8853 6.77606   3
  -8   1  11 274.237 20.7779   4
  -8  -1  11 259.014 20.4517   4
   8  -1 -11 219.855 22.4741   5
   8   1 -11 236.398 23.3104   5
   8  -1 -11 279.046 23.6675   3
  -8   1  10 55.7704 8.93796   4
  -8  -1  10 43.4670 8.37741   4
   8  -1 -10 38.9620 9.31219   3
   8  -1 -10 57.3202 11.8521   5
   8   1 -10 38.0502 10.2787   5
  -8   1   9 175.664 14.8398   4
  -8  -1   9 138.378 13.2474   4
   8  -1  -9 164.139 18.2796   5
   8   1  -9 137.793 17.0571   5
   8  -1  -9 144.968 16.0935   3
  -8   1   8 10.0814 5.89265   3
  -8  -1   8 8.29456 5.49726   3
   8  -1  -8 6.24361 5.83010   3
  -8  -1   8 6.91175 3.92829   4
   8  -1  -8 10.6038 5.90408   5
   8   1  -8 7.14631 6.21191   5
  -8   1   8 1.53426 5.12627   5
   8  -1  -7 129.392 15.9654   5
  -8   1   7 145.262 14.9401   3
  -8   1   7 116.520 13.8966   5
  -8  -1   7 127.549 13.6574   3
   8   1  -7 110.241 14.9024   5
   8  -1  -7 110.065 13.8368   3
  -8   1   6 171.787 11.7746   4
   8  -1  -6 145.486 16.6055   5
   8   1  -6 155.407 17.5968   5
  -8   1   6 153.411 15.5426   3
  -8   1   6 176.690 16.6079   5
  -8  -1   6 150.966 14.7979   3
   8  -1  -6 137.673 15.4110   3
   8   1  -6 119.719 13.9372   3
  -8   1   5 1187.03 39.2952   4
  -8  -1   5 1176.26 40.5106   4
   8  -1  -5 1207.44 53.1628   5
  -8   1   5 1181.82 49.3980   3
   8   1  -5 1139.57 52.9410   5
  -8  -1   5 1282.38 49.2760   3
  -8   1   5 1260.28 50.8639   5
   8  -1  -5 1154.24 50.1422   3
   8   1  -5 1151.92 49.0740   3
  -8  -1   4 2.58855 4.49863   5
  -8   1   4-1.21972 4.23954   3
  -8  -1   4 1.13511 3.79070   3
   8  -1  -4 5.29694 4.60276   3
  -8   1   4 2.10432 1.97187   4
   8   1  -4 1.22392 4.41468   3
  -8  -1   4 2.99911 2.40963   4
   8  -1  -4-1.50179 5.01507   5
   8   1  -4 1.55973 5.20855   5
  -8   1   4 1.25715 4.36962   5
  -8   1   3 203.813 16.7820   3
   8  -1  -3 222.742 19.2109   5
   8   1  -3 224.422 19.6340   5
  -8  -1   3 213.597 16.3054   3
  -8   1   3 255.317 18.7323   5
  -8  -1   3 207.075 17.4609   5
   8  -1  -3 215.036 17.7841   3
   8   1  -3 209.329 16.8629   3
  -8   1   2 43.9349 7.82768   5
  -8   1   2 31.3452 7.15575   3
  -8  -1   2 50.2687 8.38739   5
  -8   1   2 50.1695 7.58760   2
  -8  -1   2 34.6469 6.89705   3
   8  -1  -2 50.6877 8.21261   3
   8   1  -2 46.8155 8.06313   3
   8  -1  -2 38.8599 8.73512   5
   8   1  -2 32.3386 8.45002   5
  -8   1   1 1879.58 63.2979   3
   8  -1  -1 1707.17 65.3420   5
  -8  -1   1 1790.83 60.2063   3
   8   1  -1 1686.23 66.4395   5
  -8   1   1 1769.58 59.0664   2
  -8   1   1 1688.93 61.5714   5
  -8  -1   1 1808.38 63.6434   5
   8  -1  -1 1740.99 63.5281   3
   8   1  -1 1721.90 61.4333   3
  -8   1   0-2.04767 3.82320   5
  -8  -1   0 5.95956 3.93664   3
   8  -1   0 3.08909 3.84507   1
   8  -1   0 2.21006 3.69081   3
   8   1   0 3.78445 3.64890   3
   8  -1   0 6.32023 5.44982   5
   8   1   0 1.39041 4.64361   5
  -8   1   0 8.72980 3.90162   2
   8  -1   1 819.834 37.4496   1
  -8  -1  -1 870.501 34.3785   3
  -8   1  -1 891.498 33.8878   2
   8  -1   1 978.664 41.2790   5
   8   1   1 843.029 40.9657   5
   8  -1   1 882.246 37.8702   3
  -8   1  -1 919.826 37.1872   5
   8   1   1 879.959 35.7237   3
   8  -1   2 65.7968 8.81371   3
   8  -1   2 42.9342 7.95375   1
   8   1   2 60.9165 7.65946   3
   8   1   2 49.9546 6.92298   6
  -8  -1  -2 57.2431 5.73918   2
   8  -1   2 50.9927 8.89119   5
   8   1   2 56.3578 9.88568   5
   8  -1   3 3787.60 121.514   1
   8   1   3 3911.10 112.853   6
  -8  -1  -3 3875.92 106.819   2
   8  -1   3 4150.80 121.750   5
   8   1   3 4086.12 123.893   5
   8  -1   3 4061.90 117.918   3
   8   1   3 3967.55 114.000   3
   8   1   4 7.41631 5.35438   1
   8  -1   4 9.98962 4.29431   3
   8   1   4 11.7922 3.94993   3
   8  -1   4 7.29150 2.46389   6
   8   1   4 7.16584 3.10769   6
   8  -1   4 18.0391 6.69238   1
   8  -1   4 4.42101 4.26737   5
   8   1   4 13.9806 5.75074   5
   8   1   5 1015.26 49.3470   8
   8   1   5 821.490 27.1737   4
   8   1   5 927.129 45.3093   1
   8   1   5 910.149 26.6213   4
   8   1   5 1006.37 32.8361   6
   8  -1   5 964.346 43.3661   1
   8  -1   5 1055.30 41.0457   5
   8  -1   5 1016.35 38.1115   3
   8   1   5 1071.41 43.5515   5
   8   1   5 981.816 33.5893   3
   8   1   6 52.0039 5.19150   4
   8   1   6 75.3291 12.5377   8
   8  -1   6 46.9194 7.26722   3
   8   1   6 67.5455 5.90781   6
   8   1   6 55.5871 10.5636   1
   8  -1   6 64.9177 10.6081   1
   8   1   6 60.7017 6.23535   3
   8  -1   6 67.6129 9.36830   5
   8   1   6 66.0697 10.3787   5
   8   1   7 817.726 44.6212   8
   8   1   7 756.437 28.2673   4
   8  -1   7 819.205 42.9099   7
   8   1   7 805.182 26.2073   6
   8  -1   7 822.262 40.7967   1
   8  -1   7 820.466 33.2758   3
   8  -1   7 838.855 35.7174   5
   8   1   7 853.115 38.6171   5
   8   1   7 774.755 27.2228   3
   8   1   8 22.5627 6.96386   5
   8   1   8 35.6168 10.1086   8
   8  -1   8 34.6539 6.28775   3
   8   1   8 35.9105 9.24007   7
   8  -1   8 10.7946 6.74016   7
   8   1   8 21.0686 4.42520   4
   8   1   8 18.3136 3.06515   3
   8  -1   8 23.7298 3.10260   4
   8  -1   8 17.7920 6.05225   5
   8  -1   9 1246.53 59.6701   8
   8   1   9 1346.86 62.3588   8
   8   1   9 1267.72 45.5869   4
   8   1   9 1287.00 61.8434   7
   8  -1   9 1261.38 59.3051   7
   8  -1   9 1320.55 40.8256   4
   8  -1   9 1314.39 46.5672   3
   8  -1   9 1365.52 49.2744   5
   8   1   9 1369.27 53.1905   5
   8   1  10 32.2142 7.87659   5
   8  -1  10 23.3844 7.99007   8
   8  -1  10 28.5097 5.74113   3
   8   1  10 21.1699 7.92412   8
   8   1  10 8.70460 6.31897   7
   8  -1  10 33.9748 9.45508   7
   8   1  10 17.7813 4.93038   4
   8  -1  10 20.2298 4.38341   4
   8  -1  10 29.1845 6.31322   5
   8   1  11 31.4495 7.63369   5
   8  -1  11 35.7498 6.01579   3
   8  -1  11 37.4595 9.54615   8
   8   1  11 45.4575 11.0790   8
   8   1  11 47.9998 11.2718   7
   8  -1  11 44.0955 10.5570   7
   8   1  11 27.7404 6.18406   4
   8  -1  11 39.2664 6.05036   4
   8  -1  11 32.4500 6.44731   5
   8  -1  12 151.712 18.8207   8
   8   1  12 130.325 12.9664   4
   8   1  12 127.636 18.6767   8
   8   1  12 182.122 21.9101   7
   8  -1  12 144.449 19.1691   7
   8  -1  12 178.700 12.7334   3
   8  -1  12 152.599 12.9573   5
   8   1  12 183.867 16.5771   5
   8   1  13 35.1455 8.49196   5
   8  -1  13 37.2941 10.4164   8
   8   1  13 33.9648 10.5062   8
   8   1  13 35.1025 11.3719   7
   8  -1  13 33.8140 10.9019   7
  -8   2  16 226.414 23.1134   4
  -8  -2  16 249.819 23.6233   4
   8   2 -16 255.986 25.6766   5
   8  -2 -16 251.717 20.1257   1
  -8   2  15 3.84612 6.14828   4
  -8  -2  15 1.87118 5.70401   4
   8  -2 -15 2.60129 4.15839   1
   8   2 -15-6.65028 7.08726   5
   8  -2 -14 71.3068 10.1149   1
  -8   2  14 64.9986 12.2228   4
  -8  -2  14 96.5987 14.1036   4
   8   2 -14 94.6640 15.3707   5
  -8   2  13 1.69217 4.61396   4
  -8  -2  13 4.91255 5.69160   4
   8  -2 -13-1.92745 6.16244   3
   8  -2 -13 3.46910 4.31748   1
   8   2 -13 2.09953 5.72457   5
  -8   2  12 34.5660 8.76020   4
  -8  -2  12 42.6934 9.23562   4
   8  -2 -12 26.1237 8.49838   3
   8  -2 -12 57.6566 8.70751   1
   8  -2 -11-1.00155 3.98077   1
  -8   2  11 1.44759 4.41280   4
   8  -2 -11 1.80167 4.91233   3
  -8  -2  11 7.04451 5.43258   4
  -8   2  10 3173.31 101.515   4
  -8  -2  10 3064.68 100.621   4
   8  -2 -10 3002.63 106.529   3
  -8   2   9 217.321 16.9528   4
  -8  -2   9 158.642 14.9855   4
   8   2  -9 216.440 21.1610   5
   8  -2  -9 196.609 19.4685   3
  -8   2   8 158.165 13.9244   4
  -8  -2   8 153.942 13.8228   4
   8  -2  -8 185.006 19.5673   5
   8   2  -8 161.949 17.9484   5
  -8   2   8 188.751 18.3596   5
  -8  -2   8 174.905 16.7722   3
   8  -2  -8 169.445 17.5875   3
  -8  -2   7 110.947 11.1477   4
  -8  -2   7 94.6049 12.4614   3
   8   2  -7 112.955 15.5992   5
  -8   2   7 115.161 14.1747   5
   8  -2  -7 107.374 14.7702   5
   8  -2  -7 111.562 14.0728   3
  -8   2   6 409.163 20.8606   4
   8  -2  -6 396.263 28.0177   5
  -8   2   6 414.205 26.4109   3
   8   2  -6 427.029 29.4630   5
  -8   2   6 444.981 27.5925   5
  -8  -2   6 434.179 27.2531   5
  -8  -2   6 406.550 25.4044   3
   8  -2  -6 400.587 26.8644   3
  -8   2   5 37.4980 8.59369   3
  -8   2   5 16.4366 6.13729   2
  -8  -2   5 22.7153 7.04731   3
   8  -2  -5 36.3237 8.99722   3
  -8   2   5 27.9328 4.87801   4
   8  -2  -5 35.9481 8.81483   5
   8   2  -5 33.2874 9.24485   5
  -8   2   5 33.7818 8.67051   5
   8   2  -4 4022.61 116.298   4
  -8   2   4 3885.31 110.094   4
  -8   2   4 3960.73 124.873   3
   8  -2  -4 4127.03 128.364   5
   8   2  -4 4056.10 129.550   5
  -8   2   4 3987.02 123.845   5
  -8  -2   4 4071.88 121.670   3
  -8   2   4 4067.35 121.868   2
   8  -2  -4 3989.18 126.097   3
  -8   2   3 10.0976 6.44483   3
  -8   2   3 10.6542 5.53835   2
  -8  -2   3 21.6692 5.97517   3
   8  -2  -3 10.7981 6.24676   3
   8   2  -3 11.2324 3.89839   4
  -8   2   3 12.0339 2.38518   4
   8  -2  -3 5.69964 5.67081   5
   8   2  -3 6.28868 5.67800   5
  -8   2   3 12.0445 5.32851   5
   8   2  -2 134.213 9.95656   4
   8  -2  -2 131.307 11.0520   1
   8  -2  -2 113.896 13.6782   5
  -8   2   2 152.846 13.2626   2
   8   2  -2 148.594 15.8282   5
  -8  -2   2 135.927 12.2981   3
  -8   2   2 172.256 14.5481   5
   8  -2  -2 156.200 15.1536   3
  -8   2   1-1.04305 4.02192   5
  -8  -2   1 3.54829 3.42052   3
   8  -2  -1 1.22782 3.55080   3
   8  -2  -1-0.84891 3.06195   1
   8   2  -1 0.53455 2.24621   4
   8  -2  -1 2.57435 4.29829   5
  -8   2   1 5.70464 3.66613   2
   8   2  -1-1.50050 5.60203   5
   8   2   0 306.459 14.2584   4
   8  -2   0 281.450 17.9421   1
   8   2   0 321.779 19.4161   6
  -8   2   0 309.936 18.4764   2
   8  -2   0 302.899 20.9964   5
  -8  -2   0 309.476 17.6386   3
   8   2   0 296.718 22.6117   5
   8  -2   0 275.472 19.8614   3
  -8   2   0 314.888 19.3909   5
  -8   2  -1 27.4752 6.01678   5
  -8  -2  -1 25.0518 5.19699   3
   8  -2   1 19.3423 6.03632   3
   8   2   1 18.8945 3.43754   4
   8   2   1 27.7194 5.87042   6
   8  -2   1 32.1511 6.39709   1
   8  -2   1 23.2857 6.47430   5
   8   2   1 19.9116 6.88046   5
   8   2   2 491.717 19.1436   4
   8   2   2 524.701 25.1311   6
   8  -2   2 450.432 25.3569   1
   8  -2   2 494.344 21.0282   6
  -8  -2  -2 508.008 22.0335   3
   8  -2   2 520.250 27.7111   5
   8  -2   2 539.626 27.8302   3
   8   2   2 544.436 30.8879   5
  -8   2  -2 542.980 24.8319   5
  -8  -2  -3 20.8578 2.89742   2
   8  -2   3 33.0119 7.13993   3
   8   2   3 23.0734 3.60472   4
   8   2   3 21.0656 4.91278   6
   8  -2   3 25.2064 3.79289   6
   8  -2   3 13.5176 5.46110   1
   8  -2   3 33.5202 6.94747   5
   8   2   3 28.9003 7.28990   5
   8   2   4 181.469 19.1265   8
   8   2   4 181.971 9.97316   4
   8   2   4 183.568 12.9033   6
   8  -2   4 188.829 8.66799   6
   8  -2   4 184.598 15.9594   1
   8  -2   4 213.750 15.6047   5
   8  -2   4 177.832 14.7565   3
   8   2   4 166.485 16.3373   5
   8   2   5 2.74909 4.77871   5
   8   2   5 5.65905 6.55718   8
   8  -2   5 1.06327 3.55230   3
   8  -2   5 1.27941 3.90164   1
   8   2   5 5.63305 3.39562   6
   8   2   5 6.13675 2.77305   4
   8  -2   5 9.31129 4.66527   5
   8   2   6 8.31874 5.17628   5
   8  -2   6 2.10095 3.65115   3
   8   2   6 1.95789 5.33825   8
   8  -2   6-1.53356 4.43497   7
   8  -2   6 1.37633 4.96424   1
   8   2   6-0.64933 2.79937   6
   8  -2   6 0.88509 3.71910   5
   8   2   7 22.5032 7.56911   5
   8  -2   7 14.6550 5.64579   3
   8   2   7 24.3866 8.32991   8
   8  -2   7 22.5060 6.95255   7
   8  -2   7 16.1659 6.51582   1
   8   2   7 24.0537 4.48772   6
   8  -2   7 28.6857 6.05720   5
   8   2   8 314.245 27.6124   8
   8  -2   8 316.554 25.2319   7
   8   2   8 347.602 16.6241   6
   8  -2   8 387.741 22.3510   3
   8  -2   8 382.894 20.0248   5
   8  -2   8 402.851 26.9975   1
   8   2   8 386.918 25.7243   5
   8   2   9 7.31747 5.08711   5
   8  -2   9 7.27159 4.00618   3
   8   2   9 2.15326 5.49221   8
   8   2   9 2.17086 5.12643   7
   8  -2   9 1.78990 5.17675   7
   8  -2   9 1.19652 2.03583   4
   8  -2   9 4.57248 3.44650   5
   8  -2  10 141.546 17.6153   8
   8   2  10 156.030 19.5578   8
   8  -2  10 160.233 18.2981   7
   8   2  10 135.638 18.6261   7
   8  -2  10 133.131 9.57142   4
   8  -2  10 173.379 14.2764   3
   8  -2  10 140.678 11.1559   5
   8   2  11 3.02556 5.26146   5
   8  -2  11 15.5119 5.18348   3
   8  -2  11 3.87628 5.91128   8
   8   2  11 11.3495 8.18946   8
   8   2  11 2.37199 5.60417   7
   8  -2  11 13.7528 8.03742   7
   8  -2  12 1074.24 54.6875   8
   8   2  12 1046.80 46.5357   4
   8   2  12 1100.56 58.5979   8
   8   2  12 1223.31 62.6650   7
   8  -2  12 1198.70 57.4962   7
   8  -2  12 1159.48 45.2134   3
   8   2  12 1215.52 52.1973   5
   8   2  13 118.995 14.7763   5
   8  -2  13 102.466 16.1269   8
   8   2  13 121.488 18.8554   8
   8   2  13 72.5514 15.2351   7
   8  -2  13 132.262 17.7823   7
  -8   3  15 2.01100 6.42958   4
  -8  -3  15 5.76368 6.67764   4
   8  -3 -15-2.09110 5.33341   3
   8   3 -15 8.82220 7.66581   5
  -8   3  14 35.9079 10.0212   4
  -8  -3  14 36.3169 9.78976   4
   8   3 -14 36.7754 10.8750   5
  -8   3  13 237.119 21.7302   4
  -8  -3  13 215.519 20.4049   4
   8   3 -13 259.311 24.6946   5
  -8   3  12 19.7950 7.81033   4
   8  -3 -12 22.1451 5.18334   1
  -8  -3  12 22.4156 7.42328   4
   8   3 -12 24.5705 9.68570   5
  -8  -3  11 221.294 19.2930   4
   8   3 -11 184.911 20.7661   5
   8  -3 -11 187.182 12.5042   1
   8  -3 -11 228.322 21.9639   3
   8  -3 -10 23.7259 8.26420   3
  -8  -3  10 20.3948 6.95005   4
   8  -3 -10 15.3431 4.08093   1
  -8  -3   9 112.662 12.8867   4
   8  -3  -9 116.820 15.3582   3
   8  -3  -9 84.7543 7.56440   1
  -8  -3   8 2.85862 5.33760   3
   8  -3  -8 5.13645 4.95284   3
  -8  -3   8 8.08977 4.31635   4
   8  -3  -8 4.01666 2.47088   1
   8   3  -7 51.3368 8.62771   4
  -8  -3   7 66.6322 10.5623   3
   8  -3  -7 28.1400 7.91815   3
  -8  -3   7 48.2439 7.90372   4
   8   3  -7 52.5729 10.5608   5
  -8   3   7 68.3634 11.0312   5
  -8   3   6 91.5314 12.3960   2
   8   3  -6 130.364 12.7871   4
  -8  -3   6 118.369 11.6454   4
   8  -3  -6 101.379 13.6452   3
  -8   3   6 142.312 15.2799   5
  -8  -3   6 106.097 12.8548   3
   8   3  -6 97.1788 14.4325   5
   8   3  -5 1029.38 39.8602   4
   8  -3  -5 832.326 30.2814   1
  -8   3   5 883.430 42.8010   3
   8   3  -5 941.094 46.9395   5
  -8   3   5 1007.24 44.0156   5
  -8   3   5 975.431 42.6958   2
   8  -3  -5 922.721 44.6128   3
  -8  -3   5 1012.72 42.5448   3
   8   3  -4 39.1023 8.41675   8
   8  -3  -4 61.2541 10.4564   3
  -8  -3   4 49.4328 8.66988   3
   8   3  -4 45.5702 7.54581   4
   8  -3  -4 43.5433 5.15930   1
   8   3  -4 40.4701 10.0940   5
  -8   3   4 61.7224 10.0420   5
  -8   3   4 58.7859 9.81118   2
   8   3  -3 74.4686 8.84615   4
   8   3  -3 77.6067 12.0316   8
   8  -3  -3 75.3839 11.3876   3
  -8  -3   3 68.3215 9.40436   3
   8  -3  -3 70.8059 6.79542   1
  -8   3   3 90.1088 11.5430   5
   8  -3  -3 81.1791 11.9955   5
  -8   3   3 84.9168 11.2671   2
   8   3  -3 72.7861 12.2967   5
   8   3  -2 600.773 35.1553   8
   8   3  -2 640.023 27.4868   4
  -8   3   2 608.679 20.7760   4
   8   3  -2 624.835 31.9863   6
   8  -3  -2 606.156 24.9615   1
   8  -3  -2 632.301 29.7134   6
   8  -3  -2 646.661 33.4707   5
  -8   3   2 614.638 30.8488   2
   8   3  -2 639.398 36.1741   5
  -8   3   2 674.355 31.9455   5
   8  -3  -2 615.542 33.4837   3
  -8  -3   2 632.450 29.5168   3
   8   3  -1 1628.00 64.2410   8
   8   3  -1 1612.28 51.2239   4
   8   3  -1 1595.09 57.4509   6
   8  -3  -1 1729.66 54.9879   6
   8  -3  -1 1565.48 50.4517   1
  -8   3   1 1707.55 57.7009   2
   8  -3  -1 1611.77 59.0569   5
   8   3  -1 1693.85 64.4002   5
   8  -3  -1 1724.59 61.4849   3
  -8   3   1 1723.15 57.0809   5
  -8  -3   1 1641.62 53.6847   3
   8   3   0 40.6568 9.02514   8
   8  -3   0 51.0504 7.05840   1
   8   3   0 55.6464 6.89219   4
   8  -3   0 51.8064 9.22374   3
   8   3   0 41.7423 7.87413   6
   8  -3   0 39.7185 6.26957   6
  -8  -3   0 62.1534 7.86427   3
   8  -3   0 39.6631 8.27497   5
   8   3   0 44.9101 9.86303   5
  -8   3   0 44.6117 7.41848   5
   8   3   1 788.227 42.9606   8
   8   3   1 822.585 31.6012   4
   8   3   1 835.877 36.9863   6
   8  -3   1 844.772 32.4942   6
   8  -3   1 871.594 34.9025   1
   8  -3   1 805.352 37.0391   5
  -8  -3  -1 858.255 32.3464   3
   8  -3   1 856.203 39.8809   3
   8   3   1 927.145 43.5946   5
  -8   3  -1 918.574 35.4142   5
  -8   3  -2 37.2923 6.04477   5
  -8  -3  -2 33.8735 4.99281   3
   8   3   2 30.7754 8.40739   8
   8  -3   2 30.7320 7.75009   3
   8  -3   2 32.7481 6.86974   1
   8   3   2 29.3665 5.24282   4
   8   3   2 35.2789 6.84856   6
   8  -3   2 31.3090 5.02327   6
   8  -3   2 23.1172 6.40370   5
   8   3   2 27.1433 7.86890   5
   8   3   3 1333.87 44.7087   4
   8   3   3 1352.19 49.5955   6
   8  -3   3 1345.83 42.7626   6
  -8  -3  -3 1332.29 41.9266   3
   8  -3   3 1326.96 49.0186   5
   8  -3   3 1368.79 51.0275   1
   8  -3   3 1376.33 53.9277   3
   8   3   3 1407.82 57.5128   5
   8   3   4 71.1468 11.4291   5
   8  -3   4 71.6811 10.3539   3
   8   3   4 71.4295 7.50210   4
   8  -3   4 61.3928 5.20382   6
   8   3   4 63.5862 8.50350   6
   8  -3   4 71.4241 8.66242   5
   8  -3   4 65.7215 9.38639   1
   8   3   5 818.879 30.4163   4
   8   3   5 757.444 32.3937   6
   8  -3   5 754.521 31.1136   5
   8  -3   5 821.324 37.6012   3
   8  -3   5 771.556 36.8941   1
   8   3   5 836.347 41.0561   5
   8   3   6 26.5037 8.24909   5
   8  -3   6 23.8483 6.31005   3
   8  -3   6 24.3142 7.38552   1
   8   3   6 29.1106 8.75353   8
   8  -3   6 22.4370 7.04466   7
   8   3   6 24.3983 5.15744   6
   8  -3   6 12.6773 4.30024   5
   8   3   7 407.786 31.6961   8
   8  -3   7 462.884 28.5230   7
   8   3   7 418.788 21.3117   6
   8  -3   7 411.331 18.9747   5
   8  -3   7 411.193 25.3631   3
   8   3   7 448.849 29.3555   5
   8  -3   7 500.276 29.0989   1
   8   3   8 55.3613 10.9078   5
   8  -3   8 41.5444 8.62328   3
   8   3   8 35.0907 10.6049   8
   8  -3   8 29.9171 8.21809   7
   8   3   8 30.6228 5.58785   6
   8  -3   8 45.0342 9.50572   1
   8  -3   8 28.0109 4.33033   5
   8   3   9 1007.65 56.5424   8
   8   3   9 1093.11 57.8787   7
   8  -3   9 1176.36 53.3308   7
   8  -3   9 1258.48 49.3274   3
   8   3   9 1187.13 53.5220   5
   8   3  10 11.6553 7.18332   5
   8  -3  10 17.7721 6.24580   3
   8   3  10 9.33257 7.46448   8
   8   3  10 7.04153 6.79347   7
   8  -3  10 8.56583 5.48423   7
   8  -3  11 3.83480 4.92880   3
   8   3  11-1.68924 5.87115   5
   8   3  11 9.57272 6.52500   8
   8   3  11-4.91048 7.48434   7
   8  -3  11 1.81128 4.93846   7
   8  -3  12 23.1128 6.78668   3
   8   3  12 5.14626 7.02252   5
   8  -3  12 17.1527 8.22196   8
   8   3  12 9.80847 6.69292   8
   8   3  12 5.13714 7.83599   7
   8  -4 -14 35.7290 10.9513   3
  -8  -4  14 37.3739 10.5463   4
   8  -4 -14 30.2680 10.2538   6
   8   4 -14 47.8523 11.8986   5
  -8  -4  13 26.3762 8.49729   4
   8  -4 -13 29.0855 9.62393   6
   8   4 -13 16.9853 8.94213   5
   8   4 -12 293.461 18.7841   8
  -8  -4  12 292.706 24.0614   4
   8  -4 -12 378.525 29.1948   6
   8   4 -12 320.425 27.5683   5
   8   4 -11-2.06666 4.22638   8
  -8  -4  11 1.55819 5.20347   4
   8  -4 -11-3.80912 6.86960   6
   8   4 -11-2.04031 7.86729   5
   8   4 -10 1593.50 58.1961   8
  -8  -4  10 1472.29 61.8929   4
   8  -4 -10 1656.07 67.9151   6
   8   4 -10 1671.89 70.1119   5
   8  -4 -10 1520.04 67.8305   3
   8   4  -9 98.6064 11.6532   8
   8   4  -9 149.703 15.9097   4
   8  -4  -9 115.763 15.9483   3
  -8  -4   9 99.6160 12.8326   4
   8  -4  -9 115.456 15.4897   6
   8   4  -9 111.013 16.0748   5
   8   4  -8 42.0849 8.14076   8
   8  -4  -8 48.9625 10.2559   3
   8   4  -8 46.1495 8.91240   4
  -8  -4   8 36.4423 8.11310   4
   8  -4  -8 55.4470 10.7222   6
   8   4  -7 40.3694 7.98255   8
   8  -4  -7 44.1715 10.2905   3
   8   4  -7 44.2282 8.59039   4
  -8  -4   7 54.0394 9.88962   3
   8  -4  -7 59.9149 10.2245   6
   8   4  -6 220.569 19.1527   8
   8   4  -6 253.478 19.0075   4
   8  -4  -6 243.029 19.9044   6
  -8   4   6 235.662 20.1360   5
   8  -4  -6 280.882 23.2284   3
  -8  -4   6 230.113 18.7865   3
   8   4  -5 26.6271 7.36847   8
   8  -4  -5 54.1822 10.3264   3
  -8  -4   5 58.3530 9.42335   3
   8   4  -5 59.1549 9.12128   4
   8  -4  -5 42.6302 8.67352   6
  -8   4   5 46.4185 9.27357   5
   8   4  -5 57.9898 11.2490   5
   8   4  -4 314.027 24.0145   8
   8   4  -4 347.179 21.6150   4
   8  -4  -4 340.888 22.9333   6
  -8   4   4 389.993 24.7618   5
   8   4  -4 362.538 27.4921   5
   8  -4  -4 352.694 25.5900   3
  -8  -4   4 399.377 23.6003   3
   8   4  -3 88.6474 12.6650   8
   8   4  -3 101.828 11.1767   4
   8  -4  -3 95.3961 13.1568   3
  -8   4   3 85.0246 7.99363   4
   8  -4  -3 98.9822 11.4855   6
   8   4  -3 92.0981 12.1403   6
  -8   4   3 114.422 13.3097   2
  -8   4   3 105.250 12.4382   5
  -8  -4   3 98.8195 11.2448   3
   8   4  -3 86.8252 13.2979   5
   8   4  -2 10.0789 6.06080   8
   8  -4  -2 7.62818 5.30480   3
  -8  -4   2 10.0893 4.96158   3
   8   4  -2 25.8227 5.83285   4
   8   4  -2 7.87823 4.90456   6
  -8   4   2 3.69245 2.78940   4
   8  -4  -2 1.06849 3.57134   6
  -8   4   2 3.77007 4.19928   2
  -8   4   2 4.61319 4.16263   5
   8   4  -2 5.10215 5.18664   5
   8   4  -1 22.6889 7.37071   8
   8  -4  -1 16.5495 6.52796   3
  -8  -4   1 33.7557 6.44508   3
   8   4  -1 36.9736 6.82614   4
   8   4  -1 36.8615 7.78463   6
  -8   4   1 39.8975 4.99659   4
   8  -4  -1 30.2917 6.14918   6
   8  -4  -1 25.9487 4.25965   1
  -8   4   1 39.9054 7.61144   5
   8   4  -1 11.8098 5.91033   5
   8   4   0 1040.46 51.8210   8
  -8   4   0 1052.13 35.7789   4
   8   4   0 1160.75 42.5708   4
   8   4   0 1108.69 46.8925   6
   8  -4   0 1139.30 42.4475   6
   8  -4   0 1118.15 49.8711   3
   8   4   0 1206.80 52.8887   5
  -8   4   0 1153.13 43.2537   5
  -8  -4   0 1135.65 41.1618   3
   8  -4   0 1109.10 38.7771   1
  -8   4  -1 1.65369 3.56534   5
   8  -4   1 4.39705 5.09474   3
   8   4   1 5.61098 5.40933   8
  -8  -4  -1 2.02251 3.04918   3
  -8   4  -1 4.07904 2.39303   4
   8   4   1-0.84816 3.56468   4
   8   4   1 1.19298 3.98443   6
   8  -4   1 4.57652 3.74994   1
   8  -4   1 4.77518 3.16413   6
   8   4   1 11.5679 6.37246   5
   8  -4   2 7.26671 5.05560   3
  -8  -4  -2 5.40566 3.00074   3
   8   4   2 11.6134 6.46675   8
  -8   4  -2 7.17142 2.55614   4
   8   4   2 11.7430 4.57869   4
   8   4   2 10.3840 4.85249   6
   8  -4   2 8.50919 3.49170   6
   8  -4   2 8.85171 4.59979   1
   8   4   2 13.1785 6.55061   5
   8   4   3 29.8398 8.48876   5
  -8  -4  -3 27.1103 3.67419   3
   8  -4   3 32.0152 7.84592   3
   8   4   3 17.8572 7.19511   8
   8   4   3 35.8161 7.19546   6
   8   4   3 32.7792 6.16416   4
   8  -4   3 30.0699 4.76834   6
   8  -4   3 32.1334 6.53607   1
   8  -4   4 177.067 15.3283   1
   8   4   4 190.897 20.4162   8
   8  -4   4 173.198 14.9122   7
   8   4   4 204.004 14.0962   4
   8  -4   4 189.703 10.5558   6
   8   4   4 196.401 15.5415   6
  -8  -4  -4 166.619 7.92078   2
   8  -4   4 196.162 17.8775   3
   8   4   4 199.712 19.4922   5
   8   4   5 42.7158 10.0696   5
   8  -4   5 30.5256 7.74118   3
   8  -4   5 26.1179 6.55225   7
   8  -4   5 44.4842 3.99702   6
   8  -4   5 34.2785 7.71464   1
   8   4   5 34.8170 7.11852   6
   8   4   5 58.9813 7.89789   4
   8   4   6-3.49081 6.06645   5
   8  -4   6 1.45710 4.44181   3
   8  -4   6 5.28353 5.55021   1
   8  -4   6 5.04782 4.86602   7
   8   4   6 1.02879 3.28930   6
   8   4   6 0.86592 3.82528   4
   8   4   7 10.7057 7.31216   5
   8  -4   7 17.5700 6.32925   3
   8   4   7 20.3987 8.75185   8
   8  -4   7 17.4292 5.79858   7
   8  -4   7 28.3992 7.51168   1
   8   4   7 17.7362 5.39333   6
   8   4   8 84.5498 13.7860   5
   8  -4   8 95.7809 12.6085   3
   8   4   8 55.9676 12.4583   8
   8  -4   8 66.9493 10.6716   7
   8  -4   9 8.92586 6.25263   3
   8   4   9 1.81978 5.81999   5
   8   4   9 2.39781 5.66378   8
   8  -4   9 10.3465 5.33326   7
   8   4  10 174.750 22.3729   8
   8  -4  10 203.085 18.6933   3
   8   4  10 244.259 22.8229   5
   8  -4  11-1.51910 5.28004   3
   8   4  11 3.75791 6.27452   5
   8   4  11-5.04558 7.29579   8
   8  -5 -12 52.6966 12.2144   3
  -8  -5  12 21.2950 8.58593   4
   8  -5 -12 20.9489 9.28435   6
   8   5 -12 36.2410 11.4663   5
   8   5 -11 24.9446 5.73113   8
  -8  -5  11 23.6211 8.15221   4
   8  -5 -11 18.0497 7.75414   6
   8   5 -11 20.8267 8.53678   5
   8   5 -10 15.8633 5.58892   8
  -8  -5  10 4.82030 5.58971   4
   8  -5 -10 5.73278 6.11418   6
   8   5 -10 12.2888 8.14392   5
   8   5  -9 94.9984 11.3678   8
   8  -5  -9 98.1528 14.5676   6
   8   5  -9 114.023 16.6190   5
   8   5  -8-1.27229 3.87834   8
   8  -5  -8 3.85914 5.58009   3
   8  -5  -8 3.44103 5.50066   6
   8   5  -8-4.00780 6.40666   5
   8   5  -7 57.2826 9.72271   8
   8  -5  -7 80.4573 13.1183   3
   8   5  -7 60.2487 10.3965   4
   8  -5  -7 74.6983 11.9411   6
   8   5  -7 72.9754 13.0075   5
   8   5  -6 146.642 15.5197   8
   8   5  -6 143.225 15.1917   4
   8  -5  -6 128.249 14.9582   6
   8  -5  -6 160.460 17.9368   3
  -8  -5   6 157.624 15.8036   3
   8   5  -6 136.024 18.1502   5
   8   5  -5 545.561 32.4148   8
   8   5  -5 550.701 30.5565   4
   8  -5  -5 576.312 32.0785   6
  -8   5   5 541.377 31.7685   5
   8  -5  -5 607.278 35.7742   3
  -8  -5   5 551.902 30.4185   3
   8  -5  -4 1.70952 4.94967   3
  -8  -5   4 22.7096 7.55917   3
   8   5  -4 7.39795 6.06533   4
   8  -5  -4 9.42200 4.86082   6
  -8   5   4 8.14732 6.00326   5
   8   5  -3 275.333 22.9598   8
   8   5  -3 320.230 21.3362   4
  -8   5   3 294.798 17.4813   4
   8  -5  -3 275.289 20.1821   6
  -8   5   3 322.866 22.1082   5
   8  -5  -3 288.221 23.8470   3
  -8  -5   3 310.829 20.5296   3
   8   5  -2 19.4264 7.43694   8
   8  -5  -2 20.1784 7.61882   3
  -8  -5   2 12.4008 5.38709   3
   8   5  -2 19.6352 6.88106   4
  -8   5   2 22.0795 5.51754   4
   8  -5  -2 22.0531 5.94094   6
  -8   5   2 16.5099 6.83846   5
   8   5  -2 29.3435 9.53308   5
   8   5  -1 1292.88 60.1004   8
   8   5  -1 1367.14 52.3784   4
  -8   5   1 1390.12 47.5083   4
   8  -5  -1 1346.75 51.9272   6
   8  -5  -1 1298.34 58.5787   3
  -8   5   1 1474.20 52.9533   5
   8   5  -1 1453.53 62.2682   5
  -8  -5   1 1397.51 50.5216   3
   8  -5   0 14.8069 7.09708   3
   8   5   0 5.74852 5.23073   8
  -8  -5   0 13.4537 4.87007   3
  -8   5   0 11.1459 4.30743   4
   8   5   0 12.8087 5.15103   4
   8  -5   0 7.12256 4.50208   6
  -8   5   0 10.3515 4.80694   5
   8   5   0 5.37961 6.47284   5
   8   5   1 687.807 41.2251   8
  -8   5  -1 720.731 29.3900   4
   8   5   1 747.597 33.7362   4
   8  -5   1 736.565 31.9053   6
   8  -5   1 749.744 39.9632   3
  -8   5  -1 737.270 30.6806   5
   8   5   1 759.660 41.7340   5
  -8  -5  -1 701.688 29.0200   3
   8   5   2 5.41366 5.76950   5
   8  -5   2 3.28202 5.70367   3
   8   5   2 2.05638 5.94697   8
  -8  -5  -2 3.84149 2.74913   3
   8  -5   2-0.84037 3.24063   7
  -8   5  -2 1.37719 3.38489   4
   8   5   2 1.03940 4.00800   4
   8  -5   2 0.84296 3.25059   6
   8   5   3 1097.45 54.6489   8
  -8   5  -3 1013.34 37.3521   4
   8  -5   3 983.646 39.7058   7
   8   5   3 1090.48 42.5326   4
   8  -5   3 1082.51 38.4584   6
   8  -5   3 981.541 48.0669   3
  -8  -5  -3 1021.82 32.4383   3
   8   5   3 1059.75 51.7137   5
   8   5   4 66.8061 13.1065   5
   8  -5   4 77.1933 12.4533   3
   8   5   4 74.6016 13.9480   8
   8  -5   4 50.7373 7.82597   7
   8  -5   4 56.8029 6.70113   6
  -8   5  -4 56.7488 7.43662   4
   8   5   4 65.1350 10.1381   6
   8   5   4 55.9755 9.05913   4
  -8  -5  -4 54.0710 5.37926   2
  -8   5  -5 482.001 23.3699   4
   8   5   5 475.277 35.5311   8
   8  -5   5 494.140 25.8065   7
   8   5   5 553.888 27.4079   4
   8  -5   5 491.120 20.0193   6
   8   5   5 472.810 27.2828   6
   8  -5   5 555.440 32.9675   3
   8   5   5 520.648 34.0423   5
   8   5   6 65.7089 12.4561   5
   8  -5   6 64.5906 11.3967   3
   8   5   6 44.3047 11.7841   8
   8  -5   6 61.9639 8.90596   7
   8   5   6 61.1894 9.87003   6
   8   5   6 67.1896 9.77979   4
   8   5   7 1.96088 5.67124   5
   8  -5   7 6.67744 5.80263   3
   8  -5   7 1.12211 4.04806   7
   8   5   7 4.63779 4.74255   6
   8  -5   8 43.9003 9.53901   3
   8   5   8 41.5177 11.1539   5
   8  -5   8 28.6470 7.74750   2
   8   5   8 44.6671 11.8145   7
   8   5   9 987.533 57.1483   8
   8   5   9 944.616 55.0984   7
   8  -5   9 1027.83 49.9676   3
   8  -5   9 1092.19 45.7617   2
   8   5   9 1171.15 55.5214   5
   8   6  -9 103.024 11.9272   8
   8  -6  -9 122.220 16.3902   6
   8   6  -9 106.381 16.7664   5
   8   6  -8 129.823 13.8050   8
   8  -6  -8 163.580 18.3369   6
   8   6  -8 161.929 20.2098   5
   8   6  -7 23.3395 7.15298   8
   8  -6  -7 25.6975 9.35490   3
   8  -6  -7 25.8088 8.47913   6
   8   6  -7 20.8018 9.42507   5
   8   6  -6 138.017 15.3627   8
   8  -6  -6 120.847 16.3500   3
   8  -6  -6 120.186 14.9713   6
   8   6  -6 142.169 18.6067   5
   8   6  -5-3.17800 6.12695   8
   8  -6  -5-1.87888 5.72742   3
   8  -6  -5 1.52992 4.66367   6
   8   6  -5 12.2873 8.13933   5
   8   6  -4 1325.96 60.1936   8
  -8   6   4 1423.32 53.5607   4
   8  -6  -4 1517.21 59.6592   6
  -8   6   4 1508.32 58.9887   5
   8   6  -4 1515.14 66.5179   5
   8  -6  -4 1477.94 64.6270   3
  -8  -6   4 1444.19 56.5094   3
   8   6  -3 74.5601 12.6461   8
   8  -6  -3 98.4360 15.0296   3
  -8   6   3 91.4891 10.5046   4
  -8  -6   3 69.6348 10.3610   3
   8  -6  -3 92.9406 12.4465   6
  -8   6   3 91.8989 12.0989   5
   8  -6  -2 84.5177 13.6590   3
   8   6  -2 72.6173 12.9973   8
   8   6  -2 92.5265 12.2474   4
  -8   6   2 78.8107 9.93450   4
   8  -6  -2 91.9870 11.6709   6
  -8  -6   2 93.2635 11.1457   3
  -8   6   2 77.4791 10.9313   5
   8  -6  -1-5.47119 5.55931   3
   8   6  -1 5.83514 5.62486   8
  -8  -6   1 0.98236 3.90442   3
   8   6  -1-1.28784 5.55186   4
  -8   6   1-0.93854 3.83838   4
   8  -6  -1 2.45845 4.10471   6
  -8   6   1 1.08233 4.04078   5
   8   6   0 330.259 27.7929   8
  -8   6   0 332.152 20.5074   4
   8   6   0 328.261 22.8871   4
   8  -6   0 388.964 23.3445   6
   8  -6   0 326.548 26.7403   3
  -8   6   0 381.816 21.3472   5
   8   6   0 375.401 28.6509   5
  -8  -6   0 366.627 20.1836   3
   8   6   1-1.95756 7.06057   5
   8  -6   1-1.81706 6.06764   3
   8   6   1-2.10249 6.08016   8
  -8  -6  -1-1.52061 3.51490   3
  -8   6  -1 1.84377 4.78560   4
   8   6   1 1.24832 6.25273   4
   8  -6   1 1.07815 4.15719   6
  -8   6  -1 2.30156 3.84275   5
   8   6   2 350.558 29.1764   8
  -8   6  -2 335.971 19.8758   4
   8   6   2 350.712 23.2903   4
   8  -6   2 341.514 20.3091   6
   8  -6   2 349.847 27.0503   3
   8   6   2 329.509 27.4156   5
  -8  -6  -2 305.905 16.2269   3
   8   6   3 41.9674 11.0879   5
   8  -6   3 30.9942 8.98784   3
  -8  -6  -3 23.0299 3.73946   3
   8   6   3 22.4970 9.72277   8
  -8   6  -3 29.0066 6.47807   4
   8  -6   3 39.3403 6.65589   6
   8   6   3 19.4589 6.87050   4
   8   6   4 14.2393 8.55320   5
   8  -6   4 3.65939 5.30080   3
   8   6   4 11.5921 7.07440   8
  -8   6  -4 23.9668 6.13817   4
   8   6   5 76.8379 13.8176   5
   8  -6   5 69.8767 12.5115   3
   8   6   5 73.9133 14.6245   8
  -8   6  -5 50.9272 8.70485   4
  -8  -6  -5 62.6822 5.93475   2
   8   6   6 133.524 18.4489   5
   8  -6   6 114.919 15.6096   3
   8   6   6 142.023 19.8760   8
   8   6   7 34.3277 10.5704   5
   8  -6   7 16.8086 7.45805   3
   8  -6   7 32.2830 8.74965   2
   8   6   7 27.6856 10.8742   8
   8   6   7 42.5541 11.4175   7
   8   7  -5 160.652 17.3908   8
   8  -7  -5 149.036 17.0753   6
   8  -7  -5 194.189 20.9543   3
   8   7  -5 151.854 20.1554   5
   8  -7  -4 8.12041 8.53784   3
   8   7  -4 13.7496 7.23079   8
   8  -7  -4 12.8470 6.20267   6
  -8   7   4 15.5491 6.53236   4
   8   7  -4 23.4794 9.65767   5
   8  -7  -3 4.00981 6.11160   3
   8   7  -3-5.47372 7.66653   8
  -8  -7   3 1.20663 6.04391   3
   8  -7  -3 4.58743 5.31474   6
  -8   7   3 4.64065 5.70253   4
  -8   7   3 10.5076 6.07209   5
   8   7  -3 2.12797 7.10586   5
   8  -7  -2 73.6637 14.3346   3
   8   7  -2 117.362 16.3708   8
   8  -7  -2 122.147 13.9719   6
  -8  -7   2 91.0373 11.8985   3
  -8   7   2 107.323 12.7137   4
  -8   7   2 116.534 13.4015   5
   8   7  -2 76.4754 15.2653   5
   8   7  -1 559.181 36.2720   8
  -8   7   1 482.286 28.1493   4
   8  -7  -1 534.410 30.8974   6
   8  -7  -1 558.712 36.3015   3
  -8  -7   1 546.312 27.7955   3
   8  -7   0 5.93574 6.87696   3
   8   7   0 2.10868 6.09828   8
  -8   7   0 1.13504 4.76948   4
   8  -7   0 1.30417 4.16987   6
   8   7   1 307.206 28.2002   8
   8  -7   1 320.039 21.7052   6
   8  -7   1 368.221 28.6598   3
   8   7   2 14.9772 8.50849   5
   8  -7   2 7.97698 7.69458   3
   8   7   2 4.55321 6.21343   8
   8  -7   2 18.2987 5.84031   6
  -9   0  15-1.77774 6.41213   4
  -9   0  14 3.31691 5.98177   4
   9   0 -14-2.31726 7.06375   5
  -9   0  13 350.940 25.7527   4
   9   0 -13 425.372 32.9570   5
  -9   0  12 2.83739 4.93086   4
   9   0 -12-2.19565 5.59982   5
  -9   0  11 15.5938 6.00816   4
   9   0 -11-2.12533 5.79540   5
  -9   0  10 1.16830 4.06109   4
   9   0 -10 1.73738 5.02473   3
   9   0 -10 6.18378 5.62039   5
  -9   0   9 198.285 15.1663   4
   9   0  -9 204.145 21.8262   5
   9   0  -9 154.654 17.5913   3
   9   0  -8 1.64532 5.26044   3
   9   0  -7 20.6243 8.82104   3
   9   0  -7 52.3599 12.5140   5
  -9   0   6 1.39197 4.83815   3
   9   0  -6-1.51968 5.07479   3
  -9   0   6 2.36723 2.20988   4
   9   0  -6 1.81592 6.31159   5
  -9   0   5 1184.89 37.5452   4
   9   0  -5 1099.96 53.6367   5
  -9   0   5 1236.32 50.5763   3
  -9   0   5 1208.71 51.1474   5
   9   0  -5 1178.31 51.0901   3
  -9   0   4-8.29638 7.54033   5
  -9   0   4-1.28201 4.78675   3
   9   0  -4 2.77481 5.18020   3
   9   0  -4-3.40090 5.18397   5
  -9   0   3 298.716 20.7639   3
   9   0  -3 265.909 22.3597   5
  -9   0   3 270.322 20.6485   5
   9   0  -3 271.087 20.5515   3
  -9   0   2 3.88967 4.99932   5
  -9   0   2-2.30981 4.01401   3
   9   0  -2-1.27028 4.06121   3
   9   0  -2 1.58666 4.58844   5
  -9   0   1 981.733 40.9288   3
   9   0  -1 965.240 45.8672   5
  -9   0   1 964.989 37.6183   2
  -9   0   1 955.739 41.9271   5
   9   0  -1 914.108 41.3359   3
  -9   0   0-2.32266 3.80556   2
   9   0   0 8.03154 5.85252   3
   9   0   0 4.55205 5.06688   5
  -9   0   0 2.08054 4.25451   3
  -9   0  -1 1559.60 51.9987   2
   9   0   1 1638.66 63.6589   5
   9   0   1 1602.72 58.1702   3
   9   0   2-2.77489 4.22945   1
   9   0   2-2.05753 4.32276   3
  -9   0  -2-0.60312 2.96462   2
   9   0   2 2.86290 4.97524   5
   9   0   3 1144.61 51.6016   1
   9   0   3 1237.52 41.7533   6
   9   0   3 1315.15 53.4161   5
   9   0   3 1240.77 46.8090   3
   9   0   4 5.47688 4.48672   3
   9   0   4 1.53196 4.89782   1
   9   0   4-0.99106 2.57236   6
   9   0   4-2.73780 5.11066   5
   9   0   5 1746.91 69.8834   1
   9   0   5 1802.21 52.3807   6
   9   0   5 1893.67 68.1697   5
   9   0   5 1784.71 60.2667   3
   9   0   6 2.39493 4.14411   3
   9   0   6-0.49778 0.98924   6
   9   0   6 1.31865 4.92308   5
   9   0   7 196.798 17.4129   5
   9   0   7 210.944 14.0370   3
   9   0   8-2.13890 6.18551   8
   9   0   8 10.3969 6.01342   7
   9   0   8 0.68193 3.35197   3
   9   0   8-1.26815 4.88986   5
   9   0   9 8.65614 6.59806   8
   9   0   9 10.8196 6.25929   7
   9   0   9 6.19209 3.21725   3
   9   0   9-1.25583 4.69049   5
   9   0  10 2.21333 5.22674   8
   9   0  10-4.52378 5.76928   7
   9   0  10-1.24669 4.95563   5
   9   0  11 216.406 23.5605   8
   9   0  11 220.086 24.3140   7
   9   0  11 243.503 18.8466   5
   9  -1 -14 1518.76 62.1032   1
  -9   1  14 1537.02 64.1612   4
  -9  -1  14 1639.96 65.9050   4
  -9   1  13-1.52947 5.51660   4
  -9  -1  13 3.09292 5.77365   4
   9  -1 -13 1.95337 7.04550   3
  -9   1  12 240.373 20.0228   4
  -9  -1  12 303.895 22.0666   4
   9   1 -12 259.739 25.1691   5
   9  -1 -12 246.843 23.7291   3
  -9   1  11 16.6556 5.93927   4
  -9  -1  11 16.8530 5.87789   4
   9  -1 -11 15.0036 7.24480   3
   9  -1 -11 14.9094 8.22437   5
   9   1 -11 25.5925 8.97201   5
  -9   1  10 25.4216 6.42185   4
  -9  -1  10 17.6765 6.14147   4
   9  -1 -10 18.2019 7.86561   3
   9  -1 -10 33.0473 10.1668   5
   9   1 -10 16.5543 8.48029   5
  -9   1   9 13.2656 5.66258   4
   9  -1  -9 17.5469 8.29453   3
  -9  -1   9 16.8461 5.84191   4
   9  -1  -9 10.0015 7.47696   5
   9   1  -9 14.0348 8.20799   5
  -9  -1   8 2984.46 93.4722   4
   9  -1  -8 3107.27 109.225   5
   9   1  -8 3055.29 108.961   5
   9  -1  -8 3063.90 105.586   3
   9  -1  -7 42.4795 9.51091   3
   9  -1  -7 48.5617 10.8563   5
   9   1  -7 36.1113 10.4198   5
  -9   1   6 98.7479 8.14900   4
  -9  -1   6 100.809 12.7506   3
   9  -1  -6 63.0402 11.7598   5
   9   1  -6 102.998 15.2308   5
   9  -1  -6 101.078 13.5691   3
  -9   1   5 4.18055 4.84341   3
  -9  -1   5-1.29704 4.67826   3
   9  -1  -5 7.60313 6.04381   3
  -9   1   5 0.76432 1.98402   4
   9   1  -5 4.13710 4.97400   3
   9  -1  -5-6.93360 6.02469   5
   9   1  -5 5.31843 5.91994   5
  -9   1   5 7.10837 5.30776   5
  -9   1   4 474.995 27.9858   3
   9  -1  -4 482.240 30.9921   5
   9   1  -4 504.227 32.1882   5
  -9  -1   4 486.000 27.4054   3
  -9   1   4 438.289 27.4603   5
   9  -1  -4 432.402 28.1363   3
   9   1  -4 423.398 26.6952   3
  -9   1   3 3.90878 4.86466   5
  -9   1   3 1.28904 4.48053   3
  -9  -1   3 1.36784 4.37346   5
  -9   1   3 3.18938 4.34826   2
  -9  -1   3 11.6220 5.25503   3
   9  -1  -3-1.40071 4.27015   3
   9   1  -3 11.3911 5.45656   3
   9  -1  -3-1.61508 6.03000   5
   9   1  -3 5.10297 5.91223   5
  -9   1   2 923.434 41.0706   3
   9  -1  -2 898.090 44.0234   5
  -9  -1   2 903.084 38.9350   3
   9   1  -2 871.494 44.4885   5
  -9   1   2 903.329 37.6215   2
  -9   1   2 899.321 40.5694   5
  -9  -1   2 885.875 40.9210   5
   9  -1  -2 881.872 41.2147   3
   9   1  -2 895.275 40.1367   3
  -9   1   1 38.7248 8.18838   5
  -9  -1   1 46.1281 7.76623   3
   9  -1  -1 45.1623 8.62828   3
   9   1  -1 59.7805 8.99652   3
   9  -1  -1 73.3884 11.4439   5
   9   1  -1 53.1839 10.5043   5
  -9   1   1 60.6022 8.31973   2
  -9   1   1 48.5084 8.55982   3
  -9  -1   0 0.95430 4.41512   3
  -9   1   0 4.52275 5.87205   5
   9  -1   0 6.95452 6.01940   1
   9  -1   0 9.87718 5.05234   3
   9   1   0 26.4097 6.75695   3
   9  -1   0 5.75864 6.51154   5
  -9   1   0 9.47300 5.81359   2
   9   1   0 1.57563 5.47899   5
   9  -1   1 233.847 18.2012   1
  -9  -1  -1 227.836 15.8637   3
  -9   1  -1 231.436 15.1907   2
   9  -1   1 224.629 19.3276   5
   9   1   1 262.125 21.5421   5
  -9  -1  -1 249.395 14.0683   2
   9  -1   1 266.916 18.9286   3
   9   1   1 238.522 16.9019   3
   9  -1   2 91.7501 11.8105   1
   9   1   2 87.4072 9.50621   6
  -9  -1  -2 129.855 8.91476   2
   9  -1   2 148.211 15.2853   5
   9   1   2 130.439 15.1627   5
   9  -1   2 115.046 12.5817   3
   9   1   2 84.1809 10.0238   3
   9   1   3 52.8039 10.6143   1
   9  -1   3 56.7516 8.83757   3
   9   1   3 67.8835 7.63481   6
   9  -1   3 72.6595 10.6712   1
   9  -1   3 62.9772 10.3350   5
   9   1   3 72.6605 8.59029   3
   9   1   3 78.4446 11.8854   5
   9  -1   4 134.075 7.98753   6
   9   1   4 177.969 11.4446   6
   9  -1   4 101.445 13.0062   1
   9  -1   4 122.437 13.9192   5
   9   1   4 154.753 16.1002   5
   9  -1   4 143.700 13.3647   3
   9   1   4 132.457 10.8796   3
   9   1   5 2.04575 5.57774   8
   9  -1   5 0.99043 3.93649   3
   9   1   5-0.65658 3.16461   3
   9   1   5 0.55611 2.33670   6
   9  -1   5-1.47251 5.11787   1
   9  -1   5 3.70546 5.32471   5
   9   1   5 1.43000 4.97013   5
   9   1   6 6.28400 5.71386   8
   9  -1   6 4.72669 4.17973   3
   9   1   6 5.04341 3.33464   3
   9   1   6 12.7057 3.18941   6
   9  -1   6 7.80508 6.02166   1
   9  -1   6 3.59371 5.41908   5
   9   1   6 2.84168 5.12778   5
   9   1   7 57.4423 12.0157   8
   9  -1   7 42.6959 7.26327   3
   9  -1   7 45.6074 10.1018   7
   9   1   7 42.6816 5.13071   3
   9  -1   7 58.2327 9.19594   5
   9   1   7 43.8584 9.52133   5
   9   1   8 539.761 37.5863   8
   9   1   8 504.699 36.3805   7
   9  -1   8 561.211 36.3945   7
   9  -1   8 549.877 28.6899   5
   9  -1   8 535.042 25.6998   3
   9   1   8 569.422 31.6178   5
   9  -1   9-2.13531 5.82192   8
   9   1   9 4.50627 6.51582   8
   9  -1   9 5.07181 3.90785   3
   9   1   9 6.78810 6.16926   7
   9  -1   9-4.12006 5.95739   7
   9  -1   9-2.20980 4.64261   5
   9   1   9-1.40153 5.88899   5
   9  -1  10 4.31890 6.90435   8
   9   1  10 2.32314 5.48590   8
   9  -1  10 9.78650 4.23415   3
   9   1  10 2.35277 6.00093   7
   9  -1  10-2.15601 7.19985   7
   9  -1  10 5.39026 4.64800   5
   9   1  10 4.21482 5.24569   5
   9  -1  11 15.2828 7.59924   8
   9   1  11 7.10958 7.58780   8
   9   1  11 31.9133 10.8520   7
   9  -1  11 15.8202 7.86569   7
   9   1  11 18.2708 7.30735   5
  -9   2  14 8.62984 6.00033   4
  -9  -2  14 5.10507 6.13918   4
   9  -2 -14 4.19101 7.82455   3
   9   2 -14 2.30382 6.66377   5
  -9   2  13 202.633 19.4683   4
  -9  -2  13 224.802 20.4221   4
   9  -2 -13 191.234 16.6213   1
   9  -2 -13 227.611 22.9838   3
  -9   2  12 1.48196 4.73802   4
  -9  -2  12-1.47307 5.67996   4
   9  -2 -12 5.97792 7.18712   3
   9  -2 -12 1.09824 3.66738   1
  -9   2  11 60.9153 10.0663   4
   9  -2 -11 63.8104 12.1858   3
  -9  -2  11 64.2252 10.2443   4
  -9   2  10 23.2314 6.48205   4
   9  -2 -10 20.5896 8.09031   3
  -9  -2  10 28.6135 7.01703   4
   9   2 -10 16.7217 8.32807   5
  -9   2   9 550.628 28.0703   4
  -9  -2   9 510.518 27.7383   4
   9  -2  -9 541.115 36.2001   5
   9   2  -9 581.324 37.5417   5
   9  -2  -9 547.293 34.8039   3
   9  -2  -8 21.2542 7.85964   3
  -9  -2   8 39.2655 7.42895   4
   9  -2  -8 19.2919 8.55476   5
   9   2  -8 39.6551 11.0050   5
  -9  -2   7 114.064 11.6635   4
   9  -2  -7 44.3672 10.8600   3
   9   2  -7 131.928 18.2703   5
   9  -2  -7 65.1082 14.4945   5
  -9   2   6 85.0140 11.4518   2
  -9   2   6 75.3248 7.51996   4
  -9  -2   6 65.0074 10.7752   3
   9  -2  -6 54.4667 10.7067   3
   9  -2  -6 75.4423 12.9673   5
   9   2  -6 65.6551 13.0389   5
  -9   2   5 1683.03 52.1667   4
   9  -2  -5 1857.60 72.0315   5
   9   2  -5 1656.17 70.9543   5
  -9   2   5 1797.71 67.5439   5
  -9  -2   5 1832.53 65.3319   3
  -9   2   5 1784.03 65.0852   2
   9  -2  -5 1732.05 68.8678   3
  -9   2   4 117.634 13.9377   3
  -9   2   4 95.1320 5.32057   4
  -9  -2   4 115.765 12.8433   3
  -9   2   4 100.457 11.9002   2
   9  -2  -4 140.172 15.7217   3
   9  -2  -4 105.379 14.6092   5
   9   2  -4 108.007 15.1550   5
  -9   2   4 104.184 13.3410   5
   9  -2  -3 524.031 26.3636   1
  -9   2   3 570.132 32.4751   3
   9  -2  -3 611.091 35.0460   5
   9   2  -3 636.465 36.9779   5
  -9   2   3 659.018 31.7068   2
  -9  -2   3 650.852 31.4143   3
  -9   2   3 658.029 32.9718   5
   9  -2  -3 568.059 33.3930   3
  -9   2   2 39.0708 7.67414   5
  -9  -2   2 32.6883 7.01944   3
   9  -2  -2 34.6948 6.34173   1
   9  -2  -2 47.4716 9.44280   3
   9  -2  -2 24.3128 8.32897   5
   9   2  -2 20.6564 7.82858   5
  -9   2   2 34.8962 7.25597   2
   9  -2  -1 118.363 11.5201   1
  -9   2   1 134.348 12.6437   2
   9  -2  -1 133.603 14.7557   5
  -9  -2   1 113.999 11.5547   3
   9   2  -1 126.487 15.9938   5
  -9   2   1 118.356 12.8996   5
   9  -2  -1 131.732 14.4955   3
   9   2   0 70.4498 5.96209   4
   9  -2   0 95.9913 12.3775   3
   9   2   0 80.0456 10.2245   6
   9  -2   0 80.6348 10.2398   1
  -9   2   0 91.7462 10.5910   2
  -9  -2   0 96.2409 10.2424   3
  -9   2   0 106.138 11.7237   5
   9  -2   0 88.7038 12.6432   5
   9   2   0 84.8040 13.2927   5
   9   2   1 1818.50 74.5352   8
   9   2   1 1626.50 51.2520   4
   9   2   1 1913.39 63.7614   6
   9  -2   1 1777.95 63.6883   1
  -9  -2  -1 1948.54 60.5657   3
   9  -2   1 1920.54 68.3351   5
   9   2   1 2015.13 73.4097   5
   9  -2   1 1912.24 67.4899   3
  -9   2  -1 2044.34 64.5382   5
  -9  -2  -2 8.60625 3.21552   2
   9  -2   2 4.91423 4.74181   3
   9   2   2 9.25163 2.27454   4
   9   2   2 6.52425 4.21935   6
   9  -2   2 5.41985 3.34138   6
   9  -2   2 11.5774 4.99544   1
   9  -2   2 8.88045 5.47310   5
   9   2   2 3.17046 6.30405   5
  -9  -2  -2 12.7079 4.25526   3
   9   2   3 108.037 6.26255   4
   9   2   3 116.215 10.8587   6
   9  -2   3 144.114 8.91962   6
   9  -2   3 146.563 14.1505   1
  -9  -2  -3 114.965 6.52790   2
   9  -2   3 127.441 13.4927   5
   9   2   3 121.093 15.0200   5
   9  -2   3 159.677 14.3588   3
   9  -2   4 3.93126 4.55837   1
   9   2   4 8.15159 5.20084   8
   9  -2   4 9.38499 5.06077   3
   9   2   4 6.44367 2.33072   4
   9   2   4 11.9681 4.35485   6
   9  -2   4 7.10294 2.24962   6
   9  -2   4 10.3606 5.66142   5
   9   2   4 4.67867 6.38095   5
   9   2   5 409.698 31.3714   8
   9   2   5 381.231 15.3438   4
   9   2   5 446.450 21.2341   6
   9  -2   5 473.423 27.7961   1
   9  -2   5 459.145 25.1997   5
   9  -2   5 461.721 25.5510   3
   9   2   5 448.179 28.6466   5
   9   2   6 19.4149 8.82529   8
   9  -2   6 13.5992 5.24392   3
   9  -2   6 5.93194 5.72259   1
   9   2   6 6.01437 3.35481   6
   9  -2   6 9.28573 4.97791   5
   9   2   6 9.24114 6.47550   5
   9   2   7 644.655 41.6900   8
   9  -2   7 669.967 38.5169   7
   9  -2   7 622.948 30.3008   5
   9  -2   7 708.791 32.8295   3
   9   2   7 677.311 36.4774   5
   9   2   8 17.0760 7.20757   5
   9   2   8 32.2129 9.69107   8
   9  -2   8 31.6987 7.25437   3
   9  -2   8 24.1408 8.23022   7
   9  -2   8 27.5353 6.16608   5
   9   2   9 51.6626 10.3259   5
   9  -2   9 49.4808 8.27788   3
   9   2   9 49.4597 12.3021   8
   9   2   9 56.5880 12.7281   7
   9  -2   9 66.1775 12.2359   7
   9   2  10 6.32506 7.31024   5
   9  -2  10-2.12890 7.10900   8
   9  -2  10-1.05632 4.77609   3
   9   2  10 2.38840 5.63960   8
   9   2  10 4.88252 6.65615   7
   9  -2  10 4.08442 6.22536   7
   9  -2  11 163.306 20.2147   8
   9   2  11 206.325 24.4934   8
   9   2  11 198.486 23.2373   7
   9  -2  11 173.007 20.5177   7
   9   2  11 196.700 19.0970   5
  -9   3  13 44.0312 10.0024   4
   9  -3 -13 44.4528 11.6053   3
  -9  -3  13 49.4609 11.3020   4
   9   3 -13 52.2509 12.6373   5
  -9   3  12 90.9757 12.9209   4
   9  -3 -12 86.4534 14.1947   3
  -9  -3  12 70.2440 11.6034   4
   9   3 -12 99.6607 16.5388   5
  -9   3  11 11.5473 5.91405   4
   9  -3 -11 14.1189 7.53871   3
  -9  -3  11 17.0215 6.56728   4
  -9   3  10 6.59156 4.92300   4
   9  -3 -10 5.90566 6.00176   3
  -9  -3  10 1.31861 4.58429   4
  -9   3   9 1.18779 4.86017   4
   9  -3  -9-1.90603 6.09569   3
   9  -3  -9 9.38896 3.62526   1
  -9  -3   9 14.7128 5.54565   4
  -9   3   8 1579.95 58.0218   4
  -9  -3   8 1680.04 60.1360   4
   9   3  -8 1720.94 72.1081   5
   9  -3  -8 1563.17 68.2255   3
   9  -3  -7 1.79794 5.48067   3
   9   3  -7-1.98560 6.05273   5
   9  -3  -6 86.4893 7.39522   1
  -9  -3   6 138.800 14.7085   3
   9  -3  -6 109.769 14.5722   3
   9   3  -6 105.849 15.7861   5
  -9  -3   5 1.27434 4.42912   3
   9   3  -5 2.02925 3.78800   4
   9  -3  -5-1.69750 4.62823   3
  -9   3   5-0.62267 2.94053   4
   9  -3  -5 0.55890 2.40941   1
   9   3  -5-3.82766 7.14511   5
  -9   3   5 5.83673 5.62639   5
   9   3  -4 318.249 25.4009   8
   9   3  -4 387.281 21.2921   4
  -9   3   4 329.507 15.2525   4
   9  -3  -4 306.409 16.3474   1
   9  -3  -4 409.976 27.7177   5
  -9   3   4 407.535 25.1682   2
   9   3  -4 367.095 28.1546   5
  -9   3   4 364.743 24.7115   5
  -9  -3   4 449.777 24.9515   3
   9  -3  -4 373.399 27.0793   3
   9   3  -3 439.686 29.4954   8
   9   3  -3 444.608 22.2018   4
  -9   3   3 346.516 13.2478   4
  -9   3   3 374.456 13.1558   4
   9  -3  -3 424.971 19.6331   1
   9  -3  -3 433.434 28.4323   5
  -9   3   3 505.910 27.4571   2
   9   3  -3 506.090 32.3524   5
  -9   3   3 450.254 26.5921   5
  -9  -3   3 506.303 25.9739   3
   9  -3  -3 494.362 30.1703   3
   9   3  -2 536.634 34.6065   8
   9   3  -2 539.469 25.1774   4
   9   3  -2 581.268 30.8575   6
   9  -3  -2 512.365 24.2262   1
   9  -3  -2 577.066 28.4984   6
  -9   3   2 604.770 30.9196   2
   9  -3  -2 609.874 33.3635   5
   9   3  -2 536.347 34.8548   5
  -9  -3   2 626.655 29.2416   3
  -9   3   2 579.318 30.1824   5
   9  -3  -2 567.819 33.0152   3
  -9   3   1 24.8107 6.64308   5
   9   3  -1 27.8034 7.81413   8
  -9  -3   1 26.4850 6.14943   3
   9  -3  -1 35.3124 8.88016   3
   9   3  -1 23.1556 5.10135   4
   9   3  -1 21.9591 6.25502   6
   9  -3  -1 28.0261 6.14175   6
   9  -3  -1 30.7181 8.21173   5
  -9   3   1 19.8095 6.08222   2
   9  -3  -1 29.8801 5.64938   1
   9   3  -1 10.6670 7.29857   5
  -9   3   0 47.3952 8.58343   5
   9  -3   0 19.4180 5.49276   1
  -9  -3   0 22.0214 5.75791   3
   9   3   0 18.9633 8.20494   8
   9  -3   0 35.7659 9.58015   3
   9   3   0 23.7990 4.81379   4
   9   3   0 29.0556 7.29432   6
   9  -3   0 40.3541 6.91060   6
   9  -3   0 26.3834 8.17246   5
   9   3   0 34.7167 9.92398   5
  -9   3  -1 0.97073 3.85870   5
  -9  -3  -1 4.45382 3.50606   3
   9   3   1-1.94848 4.20040   8
   9  -3   1 8.42824 5.06692   3
   9  -3   1 0.97077 3.37463   1
   9   3   1 3.04225 2.93331   4
   9   3   1 1.12176 4.32582   6
   9  -3   1 4.46783 3.21075   6
   9  -3   1 2.47398 5.19799   5
   9   3   1 1.71423 5.48093   5
  -9  -3  -2 15.5827 4.35664   3
  -9   3  -2 32.4029 6.38979   5
   9   3   2 16.0726 7.51454   8
   9  -3   2 20.9130 6.73521   3
   9  -3   2 19.1957 6.01149   1
   9   3   2 20.7163 4.65762   4
   9   3   2 13.8660 5.45966   6
   9  -3   2 11.9431 3.61360   6
   9  -3   2 18.4681 6.59831   5
   9   3   2 27.2231 8.21328   5
   9   3   3 16.5873 7.48167   8
   9  -3   3 6.85474 4.94969   3
   9   3   3 11.8950 3.46037   4
   9   3   3 7.09306 4.15001   6
   9  -3   3 4.96989 2.76096   6
   9  -3   3 15.0092 5.34207   1
   9  -3   3 6.42158 4.84412   5
   9   3   3 13.4740 6.49799   5
   9  -3   4 79.6920 11.4584   3
   9   3   4 87.8894 7.85197   4
   9  -3   4 67.3771 5.22645   6
   9   3   4 94.6704 10.3605   6
   9  -3   4 84.6540 10.4207   5
   9  -3   4 93.5070 11.5195   1
   9   3   4 100.615 14.3301   5
   9  -3   5 5.34487 4.98962   3
   9   3   5 5.48188 4.22494   6
   9  -3   5 2.69044 3.66907   5
   9  -3   5 6.71389 4.66803   1
   9   3   5-1.68398 5.38475   5
   9   3   6 27.0812 8.48894   5
   9  -3   6 18.7148 7.22374   1
   9  -3   6 17.1944 6.38953   3
   9   3   6 6.82708 6.95048   8
   9  -3   6 14.1605 6.08214   7
   9  -3   6 20.0807 5.49204   5
   9   3   7 58.0976 11.2230   5
   9  -3   7 32.8611 8.28124   3
   9   3   7 46.5399 11.4879   8
   9  -3   7 36.1985 9.03607   7
   9  -3   7 46.0011 9.52501   1
   9   3   8 382.664 32.2867   8
   9  -3   8 380.264 27.6822   7
   9  -3   8 397.684 25.1463   3
   9   3   8 429.061 29.4563   5
   9   3   9-3.51498 6.56168   5
   9  -3   9 3.92295 5.04243   3
   9   3   9 7.36057 7.09554   8
   9   3   9 2.44774 4.71940   7
   9  -3   9 3.62079 5.51894   7
   9   3  10 78.0589 15.1991   8
   9  -3  10 127.694 16.6078   7
   9   3  10 70.8501 14.8766   7
   9  -3  10 120.845 13.4057   3
   9   3  10 130.192 16.4370   5
   9   4 -12 2.28225 3.96818   8
   9  -4 -12 10.8204 7.80648   3
  -9  -4  12 9.69823 6.23379   4
   9  -4 -12 6.22945 6.33106   6
   9   4 -12 2.26351 8.16506   5
   9   4 -11 22.2507 6.55663   8
   9  -4 -11 21.0527 8.63272   3
  -9  -4  11 22.9777 8.24538   4
   9  -4 -11 41.7146 10.1516   6
   9   4 -11 19.9733 10.2787   5
   9   4 -10 7.93897 5.26230   8
   9  -4 -10 2.05638 6.27132   3
  -9  -4  10 5.78127 5.57610   4
   9  -4 -10 15.1529 7.30585   6
   9   4 -10 8.65189 7.80371   5
   9   4  -9 14.0305 5.74078   8
   9  -4  -9 14.0536 7.74316   3
  -9  -4   9 1.35946 4.14774   4
   9  -4  -9 9.00290 6.01514   6
   9   4  -8 1.47660 4.02599   8
   9   4  -8 2.80029 5.22735   4
   9  -4  -8-1.95840 6.80667   3
   9  -4  -8 1.70561 5.45304   6
   9   4  -7 40.2005 9.94129   8
   9  -4  -7 15.2630 9.06983   3
   9  -4  -7 43.5005 10.4703   6
   9   4  -6 119.912 13.2474   4
   9   4  -6 93.5798 13.0766   8
   9  -4  -6 70.7466 13.0678   3
   9  -4  -6 129.602 14.9175   6
   9   4  -6 91.5145 15.1461   5
   9   4  -5 723.661 40.2489   8
   9   4  -5 769.399 36.2048   4
   9  -4  -5 872.739 40.8270   6
   9   4  -5 789.546 44.7315   5
   9  -4  -5 778.904 42.7174   3
  -9  -4   5 802.749 38.3439   3
   9   4  -4 222.840 21.3164   8
   9   4  -4 251.474 18.2562   4
  -9   4   4 266.222 13.9897   4
   9  -4  -4 252.716 19.5753   6
   9   4  -4 311.181 26.2371   5
  -9   4   4 256.739 20.5821   5
   9  -4  -4 287.388 23.8377   3
  -9  -4   4 235.241 18.7849   3
   9   4  -3 187.937 19.3197   8
   9   4  -3 173.712 14.4766   4
  -9   4   3 184.785 10.6608   4
   9  -4  -3 181.668 16.0458   6
   9   4  -3 206.477 21.4937   5
  -9   4   3 171.691 16.4879   5
   9  -4  -3 179.930 18.8405   3
  -9  -4   3 170.032 15.3291   3
   9   4  -2 44.9715 10.6189   8
  -9   4   2 62.4867 5.38382   4
   9  -4  -2 44.1978 9.56396   3
  -9  -4   2 57.3977 8.66283   3
   9   4  -2 52.6964 8.07390   4
   9  -4  -2 34.6151 7.42465   6
   9   4  -2 61.0504 12.5463   5
  -9   4   2 58.6935 9.59894   5
   9   4  -1 485.418 32.5791   8
  -9   4   1 360.864 13.8475   4
   9   4  -1 453.744 23.1648   4
   9  -4  -1 465.263 24.2247   6
   9   4  -1 460.322 31.8321   5
   9  -4  -1 456.327 29.4976   3
  -9  -4   1 462.976 23.4530   3
  -9   4   1 446.916 25.0409   5
   9  -4  -1 450.185 19.6290   1
  -9   4   0 2.02638 4.78535   5
   9   4   0-2.00778 5.80677   8
  -9  -4   0-0.83108 3.84288   3
   9  -4   0 1.60039 5.34468   3
   9   4   0 15.6285 5.22737   4
   9   4   0 3.90954 5.89268   6
   9  -4   0 8.25614 4.24161   6
   9  -4   0 0.72688 3.21185   1
   9   4   0 3.70885 6.19289   5
   9   4   1 712.133 43.0647   8
   9   4   1 740.637 31.8307   4
   9   4   1 776.002 37.0543   6
   9  -4   1 772.824 31.7203   6
  -9  -4  -1 774.691 30.4006   3
   9  -4   1 727.652 39.1078   3
   9   4   1 797.926 43.1036   5
  -9   4  -1 775.374 33.2266   5
   9  -4   1 786.980 32.5273   1
  -9   4  -2 0.80244 3.78967   5
  -9  -4  -2 0.56298 3.34558   3
   9  -4   2 1.94777 4.19858   1
   9   4   2-2.13134 6.16373   8
   9  -4   2 3.11874 4.98563   3
   9   4   2 0.80409 3.79747   4
   9   4   2 3.63445 4.67146   6
   9  -4   2 3.56695 3.36917   6
   9   4   2 1.82308 6.08789   5
   9   4   3 423.755 32.3226   8
   9   4   3 428.227 25.0271   6
   9  -4   3 417.459 18.9027   6
   9  -4   3 417.326 27.7237   3
   9   4   3 400.461 29.8931   5
   9  -4   4 1.53262 5.72222   3
   9   4   4-2.23670 6.09865   8
   9  -4   4-3.87564 5.13496   7
   9   4   4-1.13287 4.50302   6
   9   4   4-3.65921 8.45849   5
   9  -4   5 1670.79 65.3288   7
   9   4   5 1740.02 62.6726   6
   9  -4   5 1869.42 69.6152   3
   9   4   5 1850.64 73.6908   5
   9   4   6 61.4630 12.6333   5
   9  -4   6 39.8645 9.43554   3
   9  -4   6 55.0813 9.80716   7
   9   4   7 18.9061 7.95316   5
   9  -4   7 10.7258 5.92048   3
   9  -4   7 17.8505 7.03518   7
   9   4   8 26.9099 9.45083   5
   9  -4   8 9.16548 6.42308   3
   9   4   8 12.5598 8.73388   8
   9  -4   8 4.67698 4.51479   7
   9   5 -10 6.29218 4.85234   8
   9  -5 -10-2.15993 6.58416   3
   9  -5 -10-1.98013 5.72630   6
   9   5 -10-2.22314 6.42907   5
   9   5  -9 1.36384 4.92010   8
   9  -5  -9 8.44989 6.75451   3
   9  -5  -9 5.64683 6.54282   6
   9   5  -9 2.21028 7.97270   5
   9   5  -8 1521.12 61.9925   8
   9  -5  -8 1600.31 66.4688   6
   9   5  -8 1609.70 72.1543   5
   9  -5  -8 1566.86 69.8628   3
   9   5  -7 3.10961 4.49640   8
   9  -5  -7 14.1937 7.57017   3
   9  -5  -7-5.05207 6.88728   6
   9   5  -7 4.32421 7.79836   5
   9   5  -6 83.6926 12.6702   8
   9  -5  -6 100.707 15.4037   3
   9   5  -6 88.2583 12.6145   4
   9  -5  -6 94.9317 13.4107   6
   9   5  -5 1.72178 4.69490   8
   9  -5  -5 1.90950 6.10522   3
   9   5  -5 2.59967 4.68874   4
   9  -5  -5 4.44876 5.53675   6
   9   5  -4 232.004 21.4583   8
   9   5  -4 243.830 18.8288   4
  -9   5   4 215.992 14.4241   4
   9  -5  -4 240.744 19.4720   6
   9   5  -4 242.251 23.9303   5
  -9   5   4 217.592 19.3032   5
   9  -5  -4 199.713 20.9094   3
  -9  -5   4 238.703 18.6602   3
   9   5  -3 9.36944 6.76181   8
   9  -5  -3 14.4806 7.40555   3
  -9  -5   3 5.81679 5.72181   3
   9   5  -3 7.09194 5.58555   4
  -9   5   3 6.71055 3.88652   4
   9  -5  -3 10.3653 5.15364   6
   9   5  -3 4.09940 7.65506   5
  -9   5   3 7.95112 6.26138   5
   9   5  -2 468.986 33.1726   8
   9   5  -2 523.113 27.9617   4
  -9   5   2 456.999 21.4975   4
   9  -5  -2 500.344 27.4681   6
   9   5  -2 536.168 35.3830   5
  -9   5   2 521.593 28.5244   5
   9  -5  -2 511.638 33.0490   3
  -9  -5   2 513.008 26.8532   3
   9   5  -1 88.8920 14.6154   8
  -9   5   1 77.4848 7.66204   4
   9  -5  -1 100.241 14.6094   3
  -9  -5   1 84.4611 9.97908   3
   9  -5  -1 100.087 11.2619   6
   9   5  -1 82.0177 10.8639   4
   9   5  -1 120.186 16.7606   5
  -9   5   1 87.3862 11.1024   5
   9   5   0 14.6534 7.82250   8
   9  -5   0 12.3428 7.21905   3
  -9  -5   0 3.28179 4.48646   3
  -9   5   0 18.1443 4.36942   4
   9  -5   0 21.6410 6.59790   6
   9   5   0 13.9593 8.16259   5
  -9   5   0 13.7385 6.35454   5
  -9   5  -1 104.203 7.93204   4
   9   5   1 132.310 17.7162   8
   9  -5   1 120.721 11.5608   6
   9  -5   1 129.109 16.1118   3
  -9  -5  -1 99.4770 9.42267   3
  -9   5  -1 102.345 10.3686   5
   9   5   1 130.669 17.7145   5
  -9  -5  -2 12.0967 3.90488   3
   9  -5   2 22.5650 7.68978   3
   9   5   2 13.4162 8.36835   8
   9  -5   2 28.1569 6.23427   7
  -9   5  -2 23.2639 4.14355   4
   9  -5   2 27.2498 5.76952   6
   9   5   2 23.7455 9.36288   5
   9  -5   3 67.3269 11.8694   3
   9   5   3 69.1895 13.7927   8
   9  -5   3 66.4700 9.14370   7
  -9  -5  -3 58.5795 4.74935   3
   9   5   3 55.5621 11.8937   5
   9   5   4 91.6651 15.3193   5
   9  -5   4 86.3463 13.2967   3
   9   5   4 54.5628 12.6135   8
   9  -5   4 65.3416 9.62210   7
  -9  -5  -4 52.2370 4.41498   2
   9   5   5 2.01676 7.27457   5
   9  -5   5 1.73461 5.54640   3
   9   5   5 2.43748 5.75606   8
   9  -5   5 5.74220 4.42905   7
   9   5   6 437.952 35.1249   8
   9  -5   6 436.961 29.9351   3
   9   5   6 425.374 32.1790   5
   9   6  -6 18.3391 7.38198   8
   9  -6  -6 16.6205 7.77278   3
   9  -6  -6 23.3084 8.35449   6
   9   6  -6 22.4685 9.69925   5
   9   6  -5 646.951 38.2331   8
   9  -6  -5 658.599 36.7531   6
   9   6  -5 691.438 43.7725   5
   9  -6  -5 677.464 40.9375   3
   9   6  -4 18.6325 7.41489   8
   9  -6  -4 11.8820 8.10761   3
   9  -6  -4 13.3964 6.26546   6
   9   6  -3 275.341 24.3810   8
  -9   6   3 229.530 16.2100   4
   9  -6  -3 273.446 20.9016   6
  -9   6   3 220.225 18.9249   5
   9  -6  -3 213.964 21.9568   3
  -9  -6   3 258.490 19.4369   3
   9   6  -2 4.07405 5.89807   8
   9  -6  -2 13.7739 6.84520   3
  -9  -6   2 18.5262 5.94969   3
   9  -6  -2 15.9522 6.54062   6
  -9   6   2 7.28566 5.37191   5
   9   6  -1 76.3062 14.0168   8
   9  -6  -1 89.3229 13.7887   3
  -9  -6   1 85.7595 10.2301   3
   9  -6  -1 87.7358 11.0544   6
  -9   6   1 81.9479 10.3731   5
   9   6  -1 68.8507 13.6052   5
   9  -6   0 3.85123 6.69279   3
   9   6   0 2.19809 7.34008   8
   9  -6   0 1.14927 3.99458   6
   9   6   0-2.14749 7.17112   5
   9   6   1 668.041 43.5449   8
   9  -6   1 709.464 33.1539   6
   9  -6   1 790.113 43.4327   3
   9   6   1 747.351 44.1135   5
   9  -6   2 34.3651 9.96126   3
   9   6   2 30.5165 11.1308   8
   9   6   2 62.1330 13.7363   5
   9   6   3 19.3165 9.02871   5
   9  -6   3 9.54384 7.37274   3
   9   6   3 29.0211 10.4348   8
 -10   0  13 2.90370 6.71225   4
  10   0 -13 2.39942 8.01258   5
 -10   0  12 2301.85 80.3520   4
  10   0 -12 2317.14 94.1389   5
 -10   0  11 1.17902 5.08295   4
  10   0 -11 4.56665 8.80429   5
 -10   0  10 62.8335 9.00097   4
  10   0 -10 62.0651 13.4391   5
 -10   0   9 5.45648 4.11321   4
  10   0  -9 3.59025 6.24009   3
  10   0  -9 2.16662 5.90825   5
  10   0  -8 3.51770 6.11591   3
  10   0  -8 14.7341 8.61041   5
  10   0  -7 6.79660 6.34364   3
 -10   0   7-0.60496 2.54197   4
  10   0  -7 2.04261 7.62592   5
 -10   0   6 1330.55 41.7850   4
  10   0  -6 1326.34 61.5985   5
  10   0  -6 1361.95 58.4747   3
  10   0  -5-6.29662 5.87849   3
  10   0  -5-3.87764 8.35926   5
 -10   0   4 52.7008 10.4781   3
  10   0  -4 58.9386 10.6259   3
  10   0  -4 86.4034 13.7632   5
 -10   0   3 1.32526 5.42002   3
  10   0  -3-1.44293 5.38712   3
  10   0  -3-1.82296 6.80591   5
 -10   0   2 20.3744 6.61264   3
 -10   0   2 3.99959 4.20502   2
  10   0  -2 5.51929 5.15441   3
  10   0  -2 3.51693 5.87459   5
 -10   0   1-1.21344 4.05203   3
 -10   0   1-0.92123 3.32275   2
  10   0  -1 1.32152 4.41294   3
  10   0  -1-1.71648 7.02000   5
  10   0   0 8.82930 5.30956   3
  10   0   0 8.41091 6.88716   5
 -10   0   0 19.4708 5.60373   2
  10   0   1-1.45382 5.60596   1
  10   0   1 1.20259 4.33784   3
 -10   0  -1-3.70780 3.71477   2
  10   0   1 1.65309 5.74574   5
  10   0   2 45.3007 9.72324   1
  10   0   2 54.6000 8.70971   3
  10   0   2 43.8573 6.57937   6
  10   0   2 35.4064 9.50610   5
  10   0   3-5.35327 4.72963   3
  10   0   3 1.92835 2.90642   6
  10   0   3-1.57454 5.87848   5
  10   0   4 170.745 17.5337   5
  10   0   4 157.754 13.7435   3
  10   0   5-0.93816 4.14435   3
  10   0   5-1.51173 5.82907   5
  10   0   6 684.958 36.4382   5
  10   0   6 668.904 29.8367   3
  10   0   7 2.30822 7.03623   8
  10   0   7 2.38460 3.67479   3
  10   0   7-2.91619 5.62227   5
  10   0   8 417.253 33.9125   8
  10   0   8 436.497 33.7172   7
  10   0   8 492.481 29.3979   5
  10   0   9 2.37374 6.86483   8
  10   0   9 9.36706 7.81998   7
  10   0   9-1.41506 5.94609   5
 -10   1  12 2.63412 4.91718   4
 -10  -1  12 1.33922 5.32280   4
  10  -1 -12-2.02933 6.18608   3
  10  -1 -12-2.34661 8.76090   5
  10   1 -12 9.36265 8.44237   5
 -10   1  11 9.51949 4.86757   4
 -10  -1  11 1.22116 4.85457   4
  10  -1 -11 1.98931 6.36081   3
  10  -1 -11 2.28010 6.59455   5
  10   1 -11 2.29741 7.00395   5
 -10   1  10 15.9337 5.52190   4
 -10  -1  10 7.72170 4.52076   4
  10  -1 -10 7.74883 6.20027   3
  10  -1 -10 24.4537 8.84038   5
  10   1 -10 8.95307 7.78479   5
 -10   1   9 172.095 13.6824   4
 -10  -1   9 165.448 13.5138   4
  10  -1  -9 168.354 20.4761   5
  10   1  -9 134.902 18.3801   5
  10  -1  -9 146.596 17.9425   3
  10  -1  -8 29.0931 8.78724   3
 -10  -1   8 25.7564 5.58559   4
  10  -1  -8 18.7751 8.06915   5
  10   1  -8 27.6446 10.6706   5
 -10   1   7 315.616 15.6867   4
  10  -1  -7 263.852 25.0051   5
  10   1  -7 316.322 27.7676   5
  10  -1  -7 280.597 23.8810   3
  10  -1  -6 1.69905 4.33451   3
 -10   1   6 6.23900 2.55320   4
  10  -1  -6-1.96736 7.09667   5
  10   1  -6 4.03748 7.28196   5
  10  -1  -5 116.738 14.8187   3
  10  -1  -5 119.920 16.3655   5
  10   1  -5 107.631 16.1629   5
 -10   1   4 35.1982 8.79762   2
 -10  -1   4 45.3824 9.22891   3
  10  -1  -4 38.1849 9.11423   3
  10   1  -4 24.0504 7.64165   3
  10  -1  -4 29.4519 9.42864   5
  10   1  -4 34.2778 9.92292   5
  10  -1  -3 1766.23 73.4828   5
 -10  -1   3 1954.75 68.4099   3
  10   1  -3 1871.08 75.3027   5
 -10   1   3 1838.18 65.6247   2
  10  -1  -3 1809.68 70.4557   3
  10   1  -3 1789.75 68.2468   3
 -10  -1   2 2.38946 5.02043   3
  10  -1  -2-1.47047 4.70167   3
  10   1  -2 5.18481 5.99268   3
  10  -1  -2-6.92100 7.99920   5
  10   1  -2-7.36080 7.09581   5
 -10   1   2 6.75931 5.52913   3
 -10   1   2-3.26765 4.45507   2
  10  -1  -1 236.825 18.9516   1
 -10  -1   1 323.723 20.7826   3
  10  -1  -1 330.473 25.3550   5
 -10   1   1 323.493 19.9108   2
  10   1  -1 316.218 25.7425   5
 -10   1   1 314.236 21.9802   5
  10  -1  -1 281.892 21.8070   3
  10   1  -1 328.330 21.9303   3
  10  -1   0 112.510 13.0287   1
 -10  -1   0 116.773 11.9927   3
 -10   1   0 114.625 11.4278   2
  10  -1   0 150.210 16.9561   5
  10   1   0 128.669 16.4755   5
 -10  -1   0 108.722 10.2280   2
  10  -1   0 121.127 13.8269   3
  10   1   0 102.331 11.9946   3
  10  -1   1 898.755 42.7956   1
  10   1   1 951.731 38.8091   6
 -10   1  -1 992.409 38.4143   2
  10  -1   1 970.426 46.1777   5
  10   1   1 1025.55 48.9450   5
 -10  -1  -1 1002.91 35.8598   2
  10  -1   1 917.596 42.6650   3
  10   1   1 1005.15 41.0911   3
  10  -1   2 21.3202 7.37611   3
  10  -1   2 16.8902 6.94218   1
  10   1   2 30.0985 6.39336   6
  10   1   2 20.8189 6.29297   3
 -10  -1  -2 23.3056 4.42974   2
  10  -1   2 25.5410 8.21283   5
  10   1   2 16.9378 8.18395   5
  10   1   3 559.731 26.0977   6
  10  -1   3 621.263 34.2153   1
  10  -1   3 628.919 34.4675   5
  10   1   3 689.210 37.5272   5
  10  -1   3 633.178 31.9528   3
  10   1   3 611.549 28.4401   3
  10   1   4 4.42167 6.39926   8
  10  -1   4 4.65074 4.20240   3
  10   1   4 15.4138 5.07536   3
  10  -1   4 12.2237 2.84715   6
  10  -1   4 12.8165 6.44447   5
  10   1   4 14.8494 8.11441   5
  10   1   5 243.855 25.1719   8
  10  -1   5 333.412 23.0163   5
  10   1   5 279.240 23.0427   5
  10  -1   5 293.142 19.6042   3
  10   1   5 261.875 15.8403   3
  10   1   6 6.89545 5.87247   8
  10  -1   6 16.9663 5.88239   3
  10  -1   6 14.8916 6.26831   5
  10   1   6 17.4752 7.19143   5
  10   1   7 509.374 38.4478   8
  10  -1   7 540.712 37.5202   7
  10  -1   7 609.323 32.4528   5
  10   1   7 647.573 35.7999   5
  10  -1   7 624.578 29.4785   3
  10  -1   8 25.4735 10.4972   8
  10   1   8 33.4609 11.3117   8
  10   1   8 33.2157 10.7533   7
  10  -1   8 17.2117 8.83068   7
  10  -1   8 31.6111 7.13208   3
  10  -1   8 29.1600 8.23242   5
  10   1   8 35.9420 8.94322   5
  10  -1   9 110.337 17.4583   8
  10   1   9 86.0130 15.9592   8
  10  -1   9 147.265 19.4389   7
  10   1   9 122.316 18.3266   7
  10   1   9 99.5067 14.0163   5
 -10   2  12 956.501 43.8591   4
 -10  -2  12 984.170 44.8986   4
  10  -2 -12 1001.19 52.6679   3
 -10   2  11 7.24256 4.79853   4
  10  -2 -11 2.05756 6.27279   3
 -10  -2  11 1.27041 5.47748   4
  10   2 -11 2.31075 6.30094   5
 -10   2  10 8.57495 4.50380   4
  10  -2 -10 1.99695 6.08734   3
 -10  -2  10-5.78459 4.86116   4
  10   2 -10 2.26005 6.88935   5
 -10   2   9-3.74559 3.82980   4
  10  -2  -9-1.94369 5.92508   3
 -10  -2   9 2.10258 4.17851   4
  10  -2  -9-2.15061 6.21941   5
  10   2  -9 2.22406 8.02186   5
 -10  -2   8 177.173 13.8919   4
  10   2  -8 205.182 22.1049   5
  10  -2  -8 114.378 16.8937   5
  10  -2  -8 142.197 17.7040   3
  10  -2  -7 1.84423 5.33359   3
 -10   2   7 3.70438 2.85478   4
  10  -2  -7 4.03089 7.00513   5
  10   2  -7-2.09892 7.29527   5
 -10   2   6 87.4411 6.77361   4
  10  -2  -6 99.8033 14.0597   3
  10  -2  -6 119.075 16.8984   5
  10   2  -6 112.630 16.5743   5
  10  -2  -5 6.91553 6.23657   3
  10  -2  -5 1.87732 6.77191   5
  10   2  -5 4.03261 6.14715   5
  10  -2  -4 54.1622 7.74557   1
 -10  -2   4 73.3828 10.5741   3
  10  -2  -4 56.9389 10.8225   3
  10  -2  -4 61.3354 12.0246   5
  10   2  -4 71.6164 13.1004   5
 -10  -2   3-1.21416 4.96827   3
  10  -2  -3 10.7528 4.71429   1
  10  -2  -3 12.9726 6.25468   3
  10  -2  -3 6.98718 5.83527   5
  10   2  -3 9.73093 6.22428   5
 -10   2   3 6.19360 5.06866   2
  10  -2  -2 188.215 15.3948   1
  10  -2  -2 209.908 20.5050   5
 -10   2   2 238.706 18.2477   2
 -10  -2   2 249.629 18.3362   3
  10   2  -2 257.699 23.5226   5
 -10   2   2 294.547 21.0954   5
  10  -2  -2 235.018 20.5681   3
  10  -2  -1 123.374 12.6761   1
  10   2  -1 137.839 13.7392   6
 -10   2   1 152.734 14.2397   2
  10  -2  -1 143.587 16.4972   5
 -10  -2   1 163.384 14.5273   3
  10   2  -1 140.515 17.4257   5
 -10   2   1 154.377 15.2231   5
  10  -2  -1 137.060 15.6190   3
  10   2   0 156.509 14.3905   6
  10  -2   0 149.548 14.2488   1
 -10   2   0 174.190 14.8627   2
 -10  -2   0 185.243 14.4439   3
  10  -2   0 188.623 18.2857   5
  10   2   0 147.693 17.7057   5
 -10   2   0 180.311 15.9626   5
  10  -2   0 193.257 17.7260   3
 -10  -2  -1 7.97741 4.44485   3
  10   2   1 8.44751 7.34314   8
  10  -2   1 11.4308 6.31542   3
  10   2   1 5.22501 4.50997   6
  10  -2   1 12.0434 5.19623   1
  10  -2   1 4.44108 5.71200   5
  10   2   1 12.7318 7.84376   5
  10  -2   2 53.6755 9.50214   3
  10  -2   2 61.3238 7.35994   6
  10   2   2 76.9830 9.39541   6
 -10  -2  -2 50.0901 5.62737   2
  10  -2   2 59.6949 9.52495   1
  10  -2   2 61.0314 10.4396   5
  10   2   2 77.3129 13.0577   5
  10  -2   3 87.7271 11.7587   3
  10  -2   3 74.1722 6.54204   6
  10   2   3 72.0889 8.91481   6
  10  -2   3 60.8992 10.2838   1
  10   2   3 63.1778 12.2311   5
  10  -2   4 31.1280 7.73233   1
  10  -2   4 16.5795 5.78884   3
  10  -2   4 13.0189 6.41946   5
  10   2   4 26.0034 8.37099   5
  10   2   5 2.29329 4.94314   8
  10  -2   5 1.23551 3.95006   3
  10  -2   5-1.23816 3.95851   5
  10   2   5-1.72581 5.51757   5
  10   2   6 150.991 19.6218   8
  10  -2   6 178.135 15.5287   5
  10   2   6 184.365 19.0431   5
  10  -2   6 150.998 14.6733   3
  10   2   7-2.43208 4.68892   8
  10  -2   7-1.16518 4.76534   3
  10  -2   7-1.94814 5.93860   7
  10  -2   7-1.10587 5.00013   5
  10   2   7 6.86920 7.21581   5
  10   2   8 117.558 18.1320   8
  10  -2   8 127.234 16.9029   7
  10  -2   8 109.281 12.3420   3
  10   2   8 124.491 16.0517   5
 -10   3  11 19.6072 6.78815   4
  10  -3 -11 2.13986 5.46077   3
 -10  -3  11 6.82097 5.42528   4
 -10   3  10-1.17406 3.75372   4
  10  -3 -10 2.09655 6.39102   3
 -10  -3  10-2.54331 4.58673   4
 -10   3   9 289.834 19.0464   4
 -10  -3   9 284.036 20.2354   4
  10   3  -9 313.453 28.4330   5
  10  -3  -9 318.862 27.3521   3
 -10   3   8 0.88193 3.50571   4
  10  -3  -8 1.98583 5.74308   3
  10   3  -8 13.1561 9.45278   5
  10   3  -7 157.503 20.0829   5
  10  -3  -7 178.088 19.9465   3
  10  -3  -6-7.53016 5.44424   3
 -10   3   6-1.06781 2.62460   4
  10   3  -6 6.40018 8.22614   5
  10   3  -5 145.814 17.5944   8
 -10   3   5 144.084 7.87580   4
 -10   3   5 148.295 7.63661   4
  10  -3  -5 157.131 17.9209   3
  10   3  -5 147.339 18.4196   5
  10   3  -4 74.7306 12.9762   8
 -10  -3   4 88.5833 12.0205   3
  10  -3  -4 78.3422 13.1349   3
  10  -3  -4 93.9807 14.0517   5
  10   3  -4 86.7192 15.5660   5
  10   3  -3 1410.18 64.0412   8
  10  -3  -3 1416.65 55.4088   6
  10  -3  -3 1622.24 64.2816   5
  10   3  -3 1475.35 66.3063   5
 -10  -3   3 1449.02 55.6067   3
  10  -3  -3 1357.76 61.3805   3
 -10   3   2 6.51045 6.14933   5
  10   3  -2-2.01764 6.45087   8
 -10  -3   2 3.29880 4.49749   3
  10  -3  -2 8.43990 6.90368   3
  10  -3  -2 1.11075 4.54308   6
  10  -3  -2 1.61566 5.61573   5
  10   3  -2 3.99285 6.93906   5
  10   3  -1 286.035 25.8572   8
  10  -3  -1 345.838 20.5813   6
  10  -3  -1 342.206 25.0035   5
 -10  -3   1 313.869 19.8503   3
  10   3  -1 281.742 25.5128   5
 -10   3   1 339.395 22.4479   5
  10  -3  -1 310.259 24.3280   3
 -10   3   0 9.27379 5.49004   5
 -10  -3   0 19.1210 5.42643   3
  10   3   0 8.39738 6.72461   8
  10  -3   0 29.9557 8.47203   3
  10   3   0 20.9177 6.82630   6
  10  -3   0 20.5678 5.53522   6
  10  -3   0 10.2457 6.47897   5
  10   3   0 17.5741 7.99673   5
  10   3   1 1179.12 47.7204   6
  10  -3   1 1154.64 42.0192   6
  10  -3   1 1295.45 51.5688   5
 -10  -3  -1 1140.87 42.3675   3
  10   3   1 1170.36 56.3062   5
  10  -3   1 1206.77 52.1468   3
 -10   3  -1 1166.83 45.9188   5
  10   3   2 90.5349 15.1563   8
  10  -3   2 99.6025 13.6514   3
  10   3   2 120.826 12.8338   6
  10  -3   2 106.971 9.21567   6
  10  -3   2 112.723 13.3899   5
  10   3   2 124.528 16.8988   5
  10   3   3 547.700 36.9685   8
  10  -3   3 535.896 28.0003   5
  10   3   3 625.868 36.1274   5
  10  -3   3 598.838 31.3679   3
  10  -3   4 71.9144 11.5639   3
  10  -3   4 62.5510 9.78566   5
  10   3   4 72.8996 12.9843   5
  10  -3   5 227.039 16.9583   5
  10  -3   5 215.185 19.0575   3
  10   3   5 235.375 22.5028   5
  10  -3   6 103.903 13.2309   3
  10  -3   6 137.253 16.5480   7
  10   3   6 150.081 17.6986   5
  10   3   7 460.679 37.1793   8
  10  -3   7 526.674 33.6261   7
  10  -3   7 528.153 30.0328   3
  10   3   7 473.333 32.8972   5
  10   4  -9 7.99539 5.34126   8
 -10   4   9 6.99351 4.89923   4
  10  -4  -9-2.14418 7.45344   3
  10  -4  -9 13.0864 7.43139   6
  10   4  -8-1.67242 5.34692   8
 -10   4   8-1.03053 3.84745   4
  10  -4  -8-2.09303 6.98921   3
  10  -4  -8 5.31425 6.61346   6
  10   4  -7 3.48408 6.50392   8
 -10   4   7 0.88937 4.28689   4
  10  -4  -7 18.4217 9.04198   3
  10  -4  -7 1.67811 5.36531   6
  10   4  -7-4.50789 7.83400   5
  10   4  -6 1198.87 56.5246   8
  10  -4  -6 1357.96 56.6468   6
  10   4  -6 1248.79 61.9972   5
  10  -4  -6 1294.49 60.8131   3
 -10   4   5 68.5158 7.06000   4
  10   4  -5 54.4198 11.8585   8
 -10   4   5 75.5447 6.90871   4
  10  -4  -5 76.2830 13.7133   3
  10  -4  -5 72.8839 11.2492   6
  10   4  -5 63.4271 14.0987   5
  10   4  -4 32.9467 9.53778   8
 -10  -4   4 13.6065 6.43866   3
  10  -4  -4 26.6783 8.62896   3
 -10   4   4 14.0292 3.21331   4
 -10   4   4 20.7635 3.44784   4
  10  -4  -4 16.4584 6.07718   6
  10   4  -4 40.9864 11.2082   5
  10   4  -3 12.0034 6.96934   8
 -10  -4   3 20.7530 6.40205   3
  10  -4  -3 14.7975 6.92190   3
  10  -4  -3 20.2034 6.34251   6
  10   4  -3 29.8564 9.65394   5
  10   4  -2 2.06732 5.27329   8
 -10  -4   2-1.07949 4.16335   3
  10  -4  -2 17.9110 7.52641   3
  10  -4  -2 3.45896 3.68734   6
  10   4  -2 6.32754 7.04370   5
 -10   4   2 5.13090 5.80041   5
  10   4  -1 100.340 15.5216   8
  10  -4  -1 111.150 15.5116   3
  10  -4  -1 114.212 11.7282   6
 -10  -4   1 112.076 11.5460   3
 -10   4   1 109.413 12.8723   5
  10   4  -1 115.024 17.1019   5
 -10   4   0 4.42995 4.77459   5
 -10  -4   0 2.58511 3.71508   3
  10   4   0-2.19960 5.61008   8
  10  -4   0 1.69788 5.17589   3
  10  -4   0 0.93502 3.49114   6
  10   4   0 4.08544 6.53096   5
 -10   4  -1 4.96073 4.87756   5
 -10  -4  -1 7.32301 3.80261   3
  10   4   1 13.5922 7.56523   8
  10  -4   1-5.00793 5.80264   3
  10  -4   1 2.46928 3.07438   6
  10   4   1 10.1215 7.03628   5
 -10  -4  -2 37.1242 5.58918   3
  10   4   2 32.4454 10.2819   8
  10  -4   2 31.5652 8.82330   3
  10   4   2 56.6008 12.0499   5
  10   4   3 66.6288 13.5615   8
  10  -4   3 100.766 14.1514   3
 -10  -4  -3 86.3659 4.93513   2
  10   4   4 48.4309 12.6496   8
  10  -4   4 66.6710 11.3915   3
  10  -4   4 50.8740 9.70927   7
  10   4   4 56.1276 12.1498   5
  10   4   5 14.9241 8.98048   8
  10  -4   5 20.9426 7.77507   3
  10  -4   5 13.4899 6.94107   7
  10   4   5 14.0093 8.63713   5
  10   5  -5 1.92043 5.55475   8
  10  -5  -5 4.14744 7.48035   3
  10  -5  -5 6.09270 5.08748   6
  10   5  -5 9.16917 7.96789   5
  10   5  -4 55.7935 11.7641   8
  10  -5  -4 48.4948 12.6975   3
  10  -5  -4 52.7753 9.91454   6
  10   5  -4 59.0603 13.5677   5
  10   5  -3 586.732 38.8084   8
  10  -5  -3 691.020 34.7330   6
  10   5  -3 696.149 43.4422   5
 -10  -5   3 684.093 33.1419   3
  10  -5  -3 693.571 41.2026   3
  10   5  -2 8.52308 5.81116   8
 -10  -5   2 11.5647 5.64431   3
  10  -5  -2 11.4689 8.24149   3
  10  -5  -2 8.49127 4.96292   6
  10   5  -2-13.4272 9.15331   5
 -10   5   2 11.3076 5.93484   5
  10   5  -1 173.806 20.9239   8
  10  -5  -1 175.610 15.0907   6
 -10  -5   1 207.984 15.5463   3
  10  -5  -1 178.128 19.9928   3
 -10   5   1 188.257 16.3235   5
  10   5   0 74.9545 14.1428   8
  10  -5   0 74.6037 12.8487   3
  10  -5   0 75.3685 9.77687   6
  10   5   0 65.1713 13.3746   5
  10   5   1 281.786 27.8767   8
  10  -5   1 297.501 25.7007   3
  10   5   1 332.273 28.4462   5
  10   5   2 55.5823 13.8597   8
  10  -5   2 64.3741 12.6225   3
  10   5   2 52.0900 12.9805   5
 -11   0  10 3.64316 4.38987   4
  11   0 -10-4.74249 7.58113   5
 -11   0   9 71.1995 8.92865   4
  11   0  -9 81.4655 16.2879   5
  11   0  -8 7.40364 7.56975   3
  11   0  -8-4.53658 8.46846   5
  11   0  -7 2182.87 88.0287   5
  11   0  -7 2095.86 82.2324   3
  11   0  -6 8.70915 8.05271   3
  11   0  -6-2.14864 6.86968   5
  11   0  -5 21.8849 7.62467   3
  11   0  -5 12.6067 8.11391   5
  11   0  -4-1.62011 5.17985   3
  11   0  -4-2.06056 7.69307   5
 -11   0   3 5.72540 4.93739   2
  11   0  -3 12.4360 5.99472   3
  11   0  -3-1.99866 7.94431   5
 -11   0   2-1.06356 4.69868   2
  11   0  -2 10.4228 6.88382   3
  11   0  -2 5.83529 7.01591   5
  11   0  -1 833.766 46.0421   5
 -11   0   1 924.939 38.2516   2
  11   0  -1 909.418 42.6828   3
  11   0   0-1.35253 5.53150   3
 -11   0   0-0.88121 3.17839   2
  11   0   1 55.2391 9.60531   3
 -11   0  -1 59.5987 7.52627   2
  11   0   1 36.1199 10.0897   5
  11   0   2-1.21962 4.55347   3
  11   0   2-1.77511 5.41123   5
  11   0   3 183.275 18.9959   5
  11   0   3 158.442 14.8458   3
  11   0   4 2.14997 4.01342   3
  11   0   4-1.70193 6.13860   5
  11   0   5 181.884 18.6423   5
  11   0   6-2.47454 6.74702   8
  11   0   6-1.63388 6.49410   5
  11  -1  -9 11.9415 7.91351   3
 -11  -1   9 12.5629 4.50076   4
  11  -1  -9-2.31242 8.04023   5
  11   1  -9 16.4138 9.32232   5
 -11   1   8 222.411 12.6965   4
  11  -1  -8 235.500 24.4644   5
  11   1  -8 194.633 22.8061   5
  11  -1  -8 257.364 23.4808   3
 -11   1   7-1.72286 2.16194   4
  11  -1  -7 2.18377 6.65685   5
  11   1  -7 8.99194 8.10809   5
  11  -1  -6 83.3253 14.3762   3
  11  -1  -6 106.431 16.8322   5
  11   1  -6 88.0271 16.0454   5
  11  -1  -5 36.8060 9.75242   3
  11  -1  -5 51.6499 11.6519   5
  11   1  -5 27.8476 9.94905   5
  11  -1  -4 248.468 23.7536   5
  11   1  -4 245.103 23.9875   5
  11  -1  -4 234.968 21.3477   3
  11  -1  -3 13.2112 6.75694   3
  11  -1  -3 7.76813 7.94509   5
  11   1  -3 6.10479 7.84910   5
 -11   1   3 6.16980 5.05079   2
 -11  -1   2 73.4921 11.0283   3
  11  -1  -2 69.6234 10.3041   1
  11  -1  -2 71.6812 11.8081   3
  11   1  -2 68.9769 10.7175   3
  11  -1  -2 60.4599 12.9821   5
  11   1  -2 50.0861 12.6225   5
 -11   1   2 54.0427 9.48201   2
 -11  -1   1 79.8389 11.2093   3
 -11  -1   1 69.8772 8.91303   2
  11  -1  -1 69.4611 10.7902   1
  11  -1  -1 67.3286 11.3005   3
  11   1  -1 74.9668 11.1003   3
  11  -1  -1 90.1101 14.7435   5
 -11   1   1 94.8959 11.0931   2
  11   1  -1 61.2485 12.9194   5
  11  -1   0 34.9821 8.61215   1
  11  -1   0 53.0182 10.1076   3
  11   1   0 39.9693 8.50156   3
 -11   1   0 44.7336 8.04688   2
  11  -1   0 64.4145 12.3740   5
  11   1   0 71.9139 13.8184   5
 -11  -1   0 43.6686 7.07153   2
  11  -1   1 29.7772 7.75557   3
  11   1   1 20.4290 6.40768   3
  11  -1   1 29.3457 9.13402   5
 -11  -1  -1 23.0052 5.17094   2
  11   1   1 19.0577 8.03029   5
  11  -1   2 364.916 26.7485   5
  11   1   2 366.774 28.5123   5
  11  -1   2 338.817 23.6497   3
  11   1   2 328.528 20.8960   3
  11  -1   3 15.6571 6.17049   3
  11   1   3 19.8416 5.84124   3
  11  -1   3 11.2706 6.59313   5
  11   1   3 1.84122 6.88196   5
  11   1   4 2.41779 5.70938   8
  11  -1   4 1.24618 4.33182   3
  11  -1   4 7.79564 6.37684   5
  11   1   4 1.81642 6.06594   5
  11   1   5-2.46958 7.52817   8
  11  -1   5-2.37875 4.99769   3
  11  -1   5 1.51393 5.65226   5
  11   1   5-1.79397 6.69774   5
  11  -2  -8 16.0609 8.86854   3
 -11   2   8 0.54039 3.16880   4
  11  -2  -8 13.3512 9.10057   5
  11   2  -8-4.68334 8.13882   5
 -11   2   7 1216.45 36.9664   4
  11  -2  -7 1363.21 63.6952   5
  11   2  -7 1375.59 64.6801   5
  11  -2  -7 1400.37 61.4747   3
  11  -2  -6 9.57404 7.15980   3
  11  -2  -6 18.8995 9.06154   5
  11   2  -6 24.4457 10.7186   5
  11  -2  -5 138.065 18.0864   5
  11  -2  -5 148.260 18.1373   3
  11   2  -5 137.503 18.9282   5
  11  -2  -4 1.79810 5.20038   3
  11  -2  -4 5.87457 7.31107   5
  11   2  -4 2.15406 7.48701   5
  11  -2  -3 208.251 21.0887   5
  11   2  -3 240.816 24.1969   5
  11  -2  -3 188.619 19.9218   3
 -11  -2   2 45.0852 8.95003   3
  11  -2  -2 59.3059 12.0636   3
  11  -2  -2 36.6464 10.5191   5
  11   2  -2 54.4420 12.6631   5
 -11   2   1 1042.23 44.2612   2
 -11  -2   1 1022.21 43.3717   3
  11  -2  -1 1094.34 51.3442   5
  11   2  -1 989.907 52.2645   5
  11  -2  -1 982.120 48.1320   3
 -11  -2   0 1.05509 5.28502   3
 -11  -2   0 0.74626 3.59712   2
  11   2   0 6.82611 7.27474   8
  11  -2   0 4.76750 6.31634   3
  11  -2   0-1.69830 6.75007   5
  11   2   0 4.04732 8.04322   5
  11   2   1 737.754 46.8024   8
  11  -2   1 812.607 41.9896   5
  11   2   1 880.811 47.1681   5
 -11  -2  -1 800.627 30.4490   2
  11  -2   1 852.339 41.8908   3
  11   2   2 73.5130 14.5996   8
  11  -2   2 67.5575 11.4840   3
  11  -2   2 87.4391 12.9322   5
  11   2   2 96.8278 15.1359   5
  11  -2   3 556.259 32.6536   5
  11   2   3 645.876 39.1196   5
  11  -2   3 554.803 32.2508   3
  11  -2   4 4.21376 6.05561   3
  11  -2   4-1.42716 5.83720   5
  11   2   4 13.5969 9.72967   5
  11   3  -7 1.96845 5.69272   8
  11  -3  -7-2.05947 8.18552   3
  11   3  -7 9.29053 8.37743   5
  11   3  -6 48.4795 11.5789   8
  11  -3  -6 38.2233 10.3280   3
  11   3  -6 55.1744 13.3479   5
  11   3  -5 53.7691 11.6820   8
  11  -3  -5 37.2397 9.70366   3
  11   3  -5 50.1389 12.6737   5
  11   3  -4 78.3486 13.4204   8
  11  -3  -4 91.6838 14.4403   3
  11  -3  -4 78.2355 13.4555   5
  11   3  -4 121.570 18.0379   5
  11   3  -3 10.8564 6.28104   8
 -11  -3   3 3.73378 5.23187   3
  11  -3  -3 11.1416 7.80405   3
  11  -3  -3 5.03821 4.38050   6
  11  -3  -3 9.15016 7.89076   5
  11   3  -3 2.21371 6.03768   5
 -11  -3   2 29.1500 7.21902   3
  11   3  -2 22.1043 8.54171   8
  11  -3  -2 21.7641 8.21967   3
  11  -3  -2 23.0598 6.59949   6
  11  -3  -2 12.2511 7.56589   5
  11   3  -2 23.9907 9.87712   5
 -11  -3   1 2.13267 4.11188   3
  11   3  -1-2.25086 5.74078   8
  11  -3  -1-1.77457 5.92594   3
  11  -3  -1 3.12529 4.14076   6
  11  -3  -1 3.34179 6.64116   5
  11   3  -1 8.62787 8.57302   5
 -11  -3   0 31.7120 7.41466   3
  11   3   0 48.2310 12.3639   8
  11  -3   0 50.0431 11.1997   3
  11  -3   0 36.6352 9.38862   5
  11   3   0 31.9867 10.3225   5
  11   3   1 9.38755 5.98635   8
  11  -3   1 3.35986 6.06003   3
  11  -3   1-3.02226 5.82756   5
  11   3   1 19.0257 8.88306   5
  11   3   2 262.427 26.8753   8
  11  -3   2 291.275 22.6247   5
  11   3   2 334.269 28.3396   5
  11  -3   2 329.196 25.1462   3
  11   3   3 46.9740 12.2048   8
  11  -3   3 42.6099 10.2677   3
   0   0   0    0.00    0.00   0

TITL exp_7938 in P2(1)/n
REM P2(1)/n (#14 in standard setting)
CELL 0.71073   9.583204   7.796614  16.434332  90.0000  95.9781  90.0000
ZERR   12.00   0.000371   0.000311   0.000621   0.0000   0.0037   0.0000
LATT  1
SYMM -x+1/2, y+1/2,-z+1/2
SFAC P S Cl In Cs
UNIT 12.00 12.00 12.00 12.00 12.00
TREF
HKLF 4
END
;
_shelx_hkl_checksum              15952
_olex2_submission_special_instructions 'No special instructions were received'
_oxdiff_exptl_absorpt_empirical_details
;
Empirical correction (ABSPACK) includes:
- Absorption correction using spherical harmonics
- Frame scaling
;
_oxdiff_exptl_absorpt_empirical_full_max 1.233
_oxdiff_exptl_absorpt_empirical_full_min 0.806
loop_
_space_group_symop_operation_xyz
'x, y, z'
'-x+1/2, y+1/2, -z+1/2'
'-x, -y, -z'
'x-1/2, -y-1/2, z-1/2'
loop_
_atom_site_label
_atom_site_type_symbol
_atom_site_fract_x
_atom_site_fract_y
_atom_site_fract_z
_atom_site_U_iso_or_equiv
_atom_site_adp_type
_atom_site_occupancy
_atom_site_site_symmetry_order
_atom_site_calc_flag
_atom_site_refinement_flags_posn
_atom_site_refinement_flags_adp
_atom_site_refinement_flags_occupancy
_atom_site_disorder_assembly
_atom_site_disorder_group
In In 0.68830(3) 0.49799(3) 0.44549(2) 0.02200(8) Uani 1 1 d . . . . .
Cs1 Cs 0.86102(3) 0.00384(4) 0.58954(2) 0.03719(9) Uani 1 1 d . . . . .
Cs2 Cs 1.07580(3) 0.50693(4) 0.77278(2) 0.03799(9) Uani 1 1 d . . . . .
P P 0.63516(10) 0.40930(13) 0.63873(6) 0.0205(2) Uani 1 1 d . . . . .
S1 S 0.53706(10) 0.27084(13) 0.54177(6) 0.0250(2) Uani 1 1 d . . . . .
Cl1 Cl 0.83828(11) 0.25600(14) 0.40326(7) 0.0337(2) Uani 1 1 d . . . . .
Cl2 Cl 0.82882(11) 0.73668(14) 0.39243(7) 0.0341(2) Uani 1 1 d . . . . .
S2 S 0.72487(12) 0.27517(14) 0.73178(6) 0.0305(2) Uani 1 1 d . . . . .
S4 S 0.47790(11) 0.56143(15) 0.67740(6) 0.0303(2) Uani 1 1 d . . . . .
S3 S 0.78773(11) 0.54875(15) 0.58805(6) 0.0302(2) Uani 1 1 d . . . . .
loop_
_atom_site_aniso_label
_atom_site_aniso_U_11
_atom_site_aniso_U_22
_atom_site_aniso_U_33
_atom_site_aniso_U_23
_atom_site_aniso_U_13
_atom_site_aniso_U_12
In 0.02098(14) 0.02593(16) 0.01879(14) -0.00164(11) 0.00065(10) 0.00034(11)
Cs1 0.04053(17) 0.03440(17) 0.03862(16) 0.00383(12) 0.01345(13) 0.00857(12)
Cs2 0.04128(17) 0.03375(16) 0.03916(17) -0.00215(12) 0.00531(13) 0.00233(12)
P 0.0217(5) 0.0219(5) 0.0174(4) 0.0009(4) 0.0000(4) 0.0021(4)
S1 0.0272(5) 0.0243(5) 0.0227(5) -0.0041(4) -0.0010(4) -0.0002(4)
Cl1 0.0324(5) 0.0314(6) 0.0383(6) 0.0005(4) 0.0078(4) 0.0099(4)
Cl2 0.0345(5) 0.0314(6) 0.0375(6) 0.0032(4) 0.0089(4) -0.0060(4)
S2 0.0379(6) 0.0291(5) 0.0231(5) 0.0049(4) -0.0031(4) 0.0065(5)
S4 0.0272(5) 0.0375(6) 0.0251(5) -0.0109(4) -0.0024(4) 0.0088(4)
S3 0.0281(5) 0.0412(6) 0.0208(5) -0.0001(4) -0.0002(4) -0.0120(5)
loop_
_atom_type_symbol
_atom_type_description
_atom_type_scat_dispersion_real
_atom_type_scat_dispersion_imag
_atom_type_scat_source
Cl Cl 0.1484 0.1585 'International Tables Vol C Tables 4.2.6.8 and 6.1.1.4'
Cs Cs -0.3680 2.1192 'International Tables Vol C Tables 4.2.6.8 and 6.1.1.4'
In In -0.7276 1.3100 'International Tables Vol C Tables 4.2.6.8 and 6.1.1.4'
P P 0.1023 0.0942 'International Tables Vol C Tables 4.2.6.8 and 6.1.1.4'
S S 0.1246 0.1234 'International Tables Vol C Tables 4.2.6.8 and 6.1.1.4'
loop_
_geom_angle_atom_site_label_1
_geom_angle_atom_site_label_2
_geom_angle_atom_site_label_3
_geom_angle
_geom_angle_site_symmetry_1
_geom_angle_site_symmetry_3
_geom_angle_publ_flag
S1 In Cs2 140.42(2) . 3_766 ?
S1 In Cs2 121.41(2) 3_666 3_766 ?
S1 In S1 85.37(3) 3_666 . ?
Cl1 In Cs2 54.25(3) . 3_766 ?
Cl1 In S1 91.44(3) . . ?
Cl1 In S1 163.52(3) . 3_666 ?
Cl2 In Cs2 52.22(3) . 3_766 ?
Cl2 In S1 89.69(3) . 3_666 ?
Cl2 In S1 166.31(3) . . ?
Cl2 In Cl1 96.77(4) . . ?
S4 In Cs2 71.23(3) 3_666 3_766 ?
S4 In S1 75.50(3) 3_666 3_666 ?
S4 In S1 90.88(3) 3_666 . ?
S4 In Cl1 88.41(4) 3_666 . ?
S4 In Cl2 100.25(4) 3_666 . ?
S3 In Cs2 126.19(3) . 3_766 ?
S3 In S1 75.08(3) . . ?
S3 In S1 92.85(4) . 3_666 ?
S3 In Cl1 101.96(4) . . ?
S3 In Cl2 92.46(4) . . ?
S3 In S4 162.58(4) . 3_666 ?
Cs1 Cs1 Cs2 162.385(13) 3_756 2_646 ?
P Cs1 Cs1 123.926(18) . 3_756 ?
P Cs1 Cs2 53.004(16) . 2_646 ?
P Cs1 S4 83.09(2) . 2_646 ?
S1 Cs1 Cs1 115.827(19) . 3_756 ?
S1 Cs1 Cs2 51.226(17) . 2_646 ?
S1 Cs1 P 30.95(2) . . ?
S1 Cs1 Cl2 97.61(2) . 1_545 ?
S1 Cs1 S4 111.48(2) . 2_646 ?
Cl1 Cs1 Cs1 55.511(19) 3_756 3_756 ?
Cl1 Cs1 Cs1 53.029(18) . 3_756 ?
Cl1 Cs1 Cs2 135.66(2) 3_756 2_646 ?
Cl1 Cs1 Cs2 113.769(18) . 2_646 ?
Cl1 Cs1 P 156.43(3) 3_756 . ?
Cl1 Cs1 P 75.73(2) . . ?
Cl1 Cs1 S1 169.89(3) 3_756 . ?
Cl1 Cs1 S1 63.06(2) . . ?
Cl1 Cs1 Cl1 108.54(2) 3_756 . ?
Cl1 Cs1 Cl2 73.08(3) 3_756 1_545 ?
Cl1 Cs1 Cl2 65.73(2) . 1_545 ?
Cl1 Cs1 Cl2 69.66(3) 3_756 3_766 ?
Cl1 Cs1 S2 86.76(3) 3_756 2_646 ?
Cl1 Cs1 S4 136.92(3) . 2_646 ?
Cl1 Cs1 S4 78.42(3) 3_756 2_646 ?
Cl1 Cs1 S3 65.96(3) 3_756 1_545 ?
Cl2 Cs1 Cs1 52.952(17) 1_545 3_756 ?
Cl2 Cs1 Cs1 58.735(19) 3_766 3_756 ?
Cl2 Cs1 Cs2 112.966(18) 1_545 2_646 ?
Cl2 Cs1 Cs2 133.77(2) 3_766 2_646 ?
Cl2 Cs1 P 89.93(2) 3_766 . ?
Cl2 Cs1 P 127.44(2) 1_545 . ?
Cl2 Cs1 S1 111.43(2) 3_766 . ?
Cl2 Cs1 Cl1 74.93(3) 3_766 . ?
Cl2 Cs1 Cl2 111.69(2) 3_766 1_545 ?
Cl2 Cs1 S2 118.04(3) 3_766 2_646 ?
Cl2 Cs1 S4 149.08(3) 1_545 2_646 ?
Cl2 Cs1 S4 67.89(2) 3_766 2_646 ?
Cl2 Cs1 S3 135.52(3) 3_766 1_545 ?
S2 Cs1 Cs1 142.10(2) . 3_756 ?
S2 Cs1 Cs1 141.71(2) 2_646 3_756 ?
S2 Cs1 Cs2 49.875(19) 2_646 2_646 ?
S2 Cs1 Cs2 45.760(19) . 2_646 ?
S2 Cs1 P 93.01(2) 2_646 . ?
S2 Cs1 P 29.87(2) . . ?
S2 Cs1 S1 101.00(2) 2_646 . ?
S2 Cs1 S1 56.44(2) . . ?
S2 Cs1 Cl1 104.01(3) . . ?
S2 Cs1 Cl1 163.28(3) 2_646 . ?
S2 Cs1 Cl1 133.36(3) . 3_756 ?
S2 Cs1 Cl2 114.48(2) 2_646 1_545 ?
S2 Cs1 Cl2 152.66(3) . 1_545 ?
S2 Cs1 Cl2 88.13(3) . 3_766 ?
S2 Cs1 S2 67.820(8) . 2_646 ?
S2 Cs1 S4 51.22(2) 2_646 2_646 ?
S2 Cs1 S4 55.05(2) . 2_646 ?
S2 Cs1 S3 57.27(2) 2_646 1_545 ?
S2 Cs1 S3 120.75(3) . 1_545 ?
S4 Cs1 Cs1 117.76(2) 2_646 3_756 ?
S4 Cs1 Cs2 79.787(17) 2_646 2_646 ?
S3 Cs1 Cs1 96.84(2) 1_545 3_756 ?
S3 Cs1 Cs2 80.523(19) 1_545 2_646 ?
S3 Cs1 P 132.40(2) 1_545 . ?
S3 Cs1 S1 112.77(2) 1_545 . ?
S3 Cs1 Cl1 122.12(3) 1_545 . ?
S3 Cs1 Cl2 57.53(2) 1_545 1_545 ?
S3 Cs1 S4 99.89(2) 1_545 2_646 ?
In Cs2 Cs1 153.402(9) 3_766 2_656 ?
P Cs2 In 127.445(16) 2_656 3_766 ?
P Cs2 Cs1 50.836(15) 2_656 2_656 ?
S1 Cs2 In 146.952(17) 2_656 3_766 ?
S1 Cs2 Cs1 48.244(16) 2_656 2_656 ?
S1 Cs2 P 29.866(19) 2_656 2_656 ?
Cl1 Cs2 In 34.506(17) 3_766 3_766 ?
Cl1 Cs2 In 95.159(19) 4_666 3_766 ?
Cl1 Cs2 Cs1 106.542(19) 4_666 2_656 ?
Cl1 Cs2 Cs1 130.048(18) 3_766 2_656 ?
Cl1 Cs2 P 93.15(2) 3_766 2_656 ?
Cl1 Cs2 P 123.04(2) 4_666 2_656 ?
Cl1 Cs2 S1 93.75(2) 4_666 2_656 ?
Cl1 Cs2 S1 117.38(2) 3_766 2_656 ?
Cl1 Cs2 Cl1 123.051(16) 3_766 4_666 ?
Cl1 Cs2 S2 111.86(2) 3_766 . ?
Cl1 Cs2 S2 111.67(2) 4_666 . ?
Cl1 Cs2 S4 136.44(3) 3_766 2_646 ?
Cl1 Cs2 S3 62.22(2) 3_766 . ?
Cl1 Cs2 S3 150.60(3) 4_666 . ?
Cl2 Cs2 In 94.37(2) 4_676 3_766 ?
Cl2 Cs2 In 34.340(18) 3_766 3_766 ?
Cl2 Cs2 Cs1 107.961(19) 4_676 2_656 ?
Cl2 Cs2 Cs1 130.533(19) 3_766 2_656 ?
Cl2 Cs2 P 150.43(2) 3_766 2_656 ?
Cl2 Cs2 P 72.94(2) 4_676 2_656 ?
Cl2 Cs2 S1 178.68(2) 3_766 2_656 ?
Cl2 Cs2 S1 60.31(2) 4_676 2_656 ?
Cl2 Cs2 Cl1 63.68(3) 3_766 3_766 ?
Cl2 Cs2 Cl1 86.17(3) 3_766 4_666 ?
Cl2 Cs2 Cl1 67.28(2) 4_676 4_666 ?
Cl2 Cs2 Cl1 87.48(3) 4_676 3_766 ?
Cl2 Cs2 Cl2 120.804(16) 3_766 4_676 ?
Cl2 Cs2 S2 125.28(3) 3_766 2_656 ?
Cl2 Cs2 S2 84.43(3) 3_766 . ?
Cl2 Cs2 S2 153.89(3) 4_676 . ?
Cl2 Cs2 S4 121.15(3) 4_676 2_646 ?
Cl2 Cs2 S4 73.16(3) 3_766 2_646 ?
Cl2 Cs2 S3 70.33(3) 3_766 . ?
Cl2 Cs2 S3 140.11(3) 4_676 . ?
S2 Cs2 In 111.545(18) . 3_766 ?
S2 Cs2 In 117.927(19) 2_656 3_766 ?
S2 Cs2 Cs1 44.924(19) 2_656 2_656 ?
S2 Cs2 Cs1 46.227(17) . 2_656 ?
S2 Cs2 P 28.93(2) 2_656 2_656 ?
S2 Cs2 P 88.09(2) . 2_656 ?
S2 Cs2 S1 94.38(2) . 2_656 ?
S2 Cs2 S1 54.49(2) 2_656 2_656 ?
S2 Cs2 Cl1 86.20(3) 2_656 3_766 ?
S2 Cs2 Cl1 146.03(3) 2_656 4_666 ?
S2 Cs2 Cl2 100.64(2) 2_656 4_676 ?
S2 Cs2 S2 64.994(7) 2_656 . ?
S2 Cs2 S4 115.82(3) 2_656 2_646 ?
S2 Cs2 S3 50.39(2) . . ?
S2 Cs2 S3 55.09(2) 2_656 . ?
S4 Cs2 In 105.74(2) 2_646 3_766 ?
S4 Cs2 Cs1 75.253(19) 2_646 2_656 ?
S4 Cs2 P 124.75(3) 2_646 2_656 ?
S4 Cs2 S1 105.70(2) 2_646 2_656 ?
S4 Cs2 Cl1 56.45(2) 2_646 4_666 ?
S4 Cs2 S2 56.06(2) 2_646 . ?
S4 Cs2 S3 98.67(2) 2_646 . ?
S3 Cs2 In 75.529(18) . 3_766 ?
S3 Cs2 Cs1 78.046(17) . 2_656 ?
S3 Cs2 P 82.89(2) . 2_656 ?
S3 Cs2 S1 109.33(2) . 2_656 ?
Cs1 P Cs2 76.160(19) . 2_646 ?
S1 P Cs1 68.92(4) . . ?
S1 P Cs2 70.79(4) . 2_646 ?
S1 P S4 104.40(6) . . ?
S2 P Cs1 62.11(4) . . ?
S2 P Cs2 60.57(4) . 2_646 ?
S2 P S1 116.53(6) . . ?
S2 P S4 109.76(6) . . ?
S2 P S3 108.77(6) . . ?
S4 P Cs1 161.98(5) . . ?
S4 P Cs2 85.85(5) . 2_646 ?
S3 P Cs1 85.01(5) . . ?
S3 P Cs2 161.07(5) . 2_646 ?
S3 P S1 104.36(6) . . ?
S3 P S4 113.01(7) . . ?
In S1 In 94.63(3) 3_666 . ?
In S1 Cs1 90.19(3) . . ?
In S1 Cs1 163.03(3) 3_666 . ?
In S1 Cs2 90.13(3) 3_666 2_646 ?
In S1 Cs2 161.68(3) . 2_646 ?
Cs1 S1 Cs2 80.53(2) . 2_646 ?
P S1 In 83.54(4) . . ?
P S1 In 84.26(4) . 3_666 ?
P S1 Cs1 80.13(4) . . ?
P S1 Cs2 79.34(4) . 2_646 ?
In Cl1 Cs1 156.07(4) . 3_756 ?
In Cl1 Cs1 99.19(3) . . ?
In Cl1 Cs2 91.25(3) . 3_766 ?
In Cl1 Cs2 101.53(3) . 4_565 ?
Cs1 Cl1 Cs1 71.46(2) 3_756 . ?
Cs1 Cl1 Cs2 99.47(3) . 4_565 ?
Cs1 Cl1 Cs2 101.74(3) 3_756 4_565 ?
Cs1 Cl1 Cs2 93.88(3) 3_756 3_766 ?
Cs2 Cl1 Cs1 163.39(3) 3_766 . ?
Cs2 Cl1 Cs2 90.98(2) 3_766 4_565 ?
In Cl2 Cs1 149.52(4) . 3_766 ?
In Cl2 Cs1 96.22(3) . 1_565 ?
In Cl2 Cs2 104.40(3) . 4_575 ?
In Cl2 Cs2 93.44(3) . 3_766 ?
Cs1 Cl2 Cs1 68.31(2) 3_766 1_565 ?
Cs2 Cl2 Cs1 98.70(3) 4_575 1_565 ?
Cs2 Cl2 Cs1 160.38(3) 3_766 1_565 ?
Cs2 Cl2 Cs1 103.85(3) 4_575 3_766 ?
Cs2 Cl2 Cs1 95.10(3) 3_766 3_766 ?
Cs2 Cl2 Cs2 95.37(3) 3_766 4_575 ?
Cs1 S2 Cs1 167.16(3) . 2_656 ?
Cs1 S2 Cs2 89.32(3) . 2_646 ?
Cs1 S2 Cs2 91.21(3) . . ?
Cs1 S2 Cs2 83.90(2) 2_656 . ?
Cs2 S2 Cs1 93.14(3) 2_646 2_656 ?
Cs2 S2 Cs2 168.51(3) 2_646 . ?
P S2 Cs1 104.55(5) . 2_656 ?
P S2 Cs1 88.02(5) . . ?
P S2 Cs2 90.50(5) . 2_646 ?
P S2 Cs2 100.99(5) . . ?
In S4 Cs1 155.30(5) 3_666 2_656 ?
In S4 Cs2 105.60(3) 3_666 2_656 ?
Cs2 S4 Cs1 86.61(2) 2_656 2_656 ?
P S4 In 93.98(5) . 3_666 ?
P S4 Cs1 90.51(4) . 2_656 ?
P S4 Cs2 138.18(6) . 2_656 ?
In S3 Cs1 102.67(4) . 1_565 ?
In S3 Cs2 153.91(4) . . ?
Cs1 S3 Cs2 87.45(2) 1_565 . ?
P S3 In 94.53(5) . . ?
P S3 Cs1 131.20(6) . 1_565 ?
P S3 Cs2 96.63(4) . . ?
loop_
_geom_bond_atom_site_label_1
_geom_bond_atom_site_label_2
_geom_bond_distance
_geom_bond_site_symmetry_2
_geom_bond_publ_flag
In Cs2 4.4350(5) 3_766 ?
In S1 2.8668(11) . ?
In S1 2.8374(10) 3_666 ?
In Cl1 2.5129(11) . ?
In Cl2 2.5063(11) . ?
In S4 2.4819(10) 3_666 ?
In S3 2.4675(10) . ?
Cs1 Cs1 4.1705(6) 3_756 ?
Cs1 Cs2 4.9615(5) 2_646 ?
Cs1 P 3.9619(10) . ?
Cs1 S1 3.7524(10) . ?
Cs1 Cl1 3.6257(11) . ?
Cs1 Cl1 3.5144(11) 3_756 ?
Cs1 Cl2 3.8365(12) 1_545 ?
Cs1 Cl2 3.5822(11) 3_766 ?
Cs1 S2 3.5039(11) . ?
Cs1 S2 3.6031(11) 2_646 ?
Cs1 S4 4.0030(11) 2_646 ?
Cs1 S3 3.6166(12) 1_545 ?
Cs2 In 4.4349(4) 3_766 ?
Cs2 Cs1 4.9616(5) 2_656 ?
Cs2 P 4.0812(11) 2_656 ?
Cs2 S1 3.9216(11) 2_656 ?
Cs2 Cl1 3.7422(12) 4_666 ?
Cs2 Cl1 3.6001(12) 3_766 ?
Cs2 Cl2 3.5705(12) 4_676 ?
Cs2 Cl2 3.5118(12) 3_766 ?
Cs2 S2 3.5548(12) 2_656 ?
Cs2 S2 3.8154(12) . ?
Cs2 S4 3.6177(12) 2_646 ?
Cs2 S3 3.8986(11) . ?
P Cs2 4.0811(11) 2_646 ?
P S1 2.0680(14) . ?
P S2 1.9741(14) . ?
P S4 2.0691(14) . ?
P S3 2.0658(15) . ?
S1 In 2.8374(10) 3_666 ?
S1 Cs2 3.9215(11) 2_646 ?
Cl1 Cs1 3.5144(11) 3_756 ?
Cl1 Cs2 3.7422(12) 4_565 ?
Cl1 Cs2 3.6002(12) 3_766 ?
Cl2 Cs1 3.8365(12) 1_565 ?
Cl2 Cs1 3.5822(11) 3_766 ?
Cl2 Cs2 3.5705(12) 4_575 ?
Cl2 Cs2 3.5118(12) 3_766 ?
S2 Cs1 3.6031(11) 2_656 ?
S2 Cs2 3.5548(12) 2_646 ?
S4 In 2.4820(10) 3_666 ?
S4 Cs1 4.0030(11) 2_656 ?
S4 Cs2 3.6176(12) 2_656 ?
S3 Cs1 3.6166(12) 1_565 ?
